# generated using pymatgen
data_Nb12Al4Zn8CN3
_symmetry_space_group_name_H-M   'P 1'
_cell_length_a   8.29220823
_cell_length_b   8.29220799
_cell_length_c   8.30630500
_cell_angle_alpha   60.05612327
_cell_angle_beta   60.05612027
_cell_angle_gamma   60.00000409
_symmetry_Int_Tables_number   1
_chemical_formula_structural   Nb12Al4Zn8CN3
_chemical_formula_sum   'Nb12 Al4 Zn8 C1 N3'
_cell_volume   404.20451339
_cell_formula_units_Z   1
loop_
 _symmetry_equiv_pos_site_id
 _symmetry_equiv_pos_as_xyz
  1  'x, y, z'
loop_
 _atom_site_type_symbol
 _atom_site_label
 _atom_site_symmetry_multiplicity
 _atom_site_fract_x
 _atom_site_fract_y
 _atom_site_fract_z
 _atom_site_occupancy
  Nb  Nb0  1  0.814756  0.184569  0.816108  1
  Nb  Nb1  1  0.065431  0.435244  0.433892  1
  Nb  Nb2  1  0.434238  0.064360  0.067164  1
  Nb  Nb3  1  0.064360  0.434238  0.067164  1
  Nb  Nb4  1  0.434238  0.434238  0.067164  1
  Nb  Nb5  1  0.065431  0.065431  0.433892  1
  Nb  Nb6  1  0.815762  0.815762  0.182836  1
  Nb  Nb7  1  0.184569  0.814756  0.816108  1
  Nb  Nb8  1  0.815762  0.185640  0.182836  1
  Nb  Nb9  1  0.184569  0.184569  0.816108  1
  Nb  Nb10  1  0.435244  0.065431  0.433892  1
  Nb  Nb11  1  0.185640  0.815762  0.182836  1
  Al  Al12  1  0.625000  0.625000  0.625000  1
  Al  Al13  1  0.125000  0.625000  0.625000  1
  Al  Al14  1  0.625000  0.125000  0.625000  1
  Al  Al15  1  0.625000  0.625000  0.125000  1
  Zn  Zn16  1  0.416385  0.416385  0.416090  1
  Zn  Zn17  1  0.498861  0.833615  0.833910  1
  Zn  Zn18  1  0.833615  0.498861  0.833910  1
  Zn  Zn19  1  0.833912  0.833912  0.498266  1
  Zn  Zn20  1  0.416385  0.751139  0.416090  1
  Zn  Zn21  1  0.416088  0.416088  0.751734  1
  Zn  Zn22  1  0.751139  0.416385  0.416090  1
  Zn  Zn23  1  0.833615  0.833615  0.833910  1
  C  C24  1  0.125000  0.125000  0.625000  1
  N  N25  1  0.125000  0.125000  0.125000  1
  N  N26  1  0.625000  0.125000  0.125000  1
  N  N27  1  0.125000  0.625000  0.125000  1
