# generated using pymatgen
data_Pr6OsCl10
_symmetry_space_group_name_H-M   'P 1'
_cell_length_a   7.51798161
_cell_length_b   9.18239092
_cell_length_c   9.49292629
_cell_angle_alpha   109.62294362
_cell_angle_beta   96.85792555
_cell_angle_gamma   106.56017446
_symmetry_Int_Tables_number   1
_chemical_formula_structural   Pr6OsCl10
_chemical_formula_sum   'Pr6 Os1 Cl10'
_cell_volume   574.62157259
_cell_formula_units_Z   1
loop_
 _symmetry_equiv_pos_site_id
 _symmetry_equiv_pos_as_xyz
  1  'x, y, z'
loop_
 _atom_site_type_symbol
 _atom_site_label
 _atom_site_symmetry_multiplicity
 _atom_site_fract_x
 _atom_site_fract_y
 _atom_site_fract_z
 _atom_site_occupancy
  Pr  Pr0  1  0.467607  0.297400  0.595325  1
  Pr  Pr1  1  0.532393  0.702600  0.404675  1
  Pr  Pr2  1  0.878831  0.153991  0.701845  1
  Pr  Pr3  1  0.121169  0.846009  0.298155  1
  Pr  Pr4  1  0.356332  0.939593  0.749500  1
  Pr  Pr5  1  0.643668  0.060407  0.250500  1
  Os  Os6  1  0.500000  0.000000  0.500000  1
  Cl  Cl7  1  0.413560  0.631790  0.660857  1
  Cl  Cl8  1  0.586440  0.368210  0.339143  1
  Cl  Cl9  1  0.299233  0.249084  0.844252  1
  Cl  Cl10  1  0.700767  0.750916  0.155748  1
  Cl  Cl11  1  0.849636  0.459071  0.774838  1
  Cl  Cl12  1  0.150364  0.540929  0.225162  1
  Cl  Cl13  1  0.050436  0.168298  0.428208  1
  Cl  Cl14  1  0.262315  0.920663  0.053300  1
  Cl  Cl15  1  0.737685  0.079337  0.946700  1
  Cl  Cl16  1  0.949564  0.831702  0.571792  1
