# generated using pymatgen
data_Lu4CdPd4Au
_symmetry_space_group_name_H-M   'P 1'
_cell_length_a   7.66800600
_cell_length_b   7.66800600
_cell_length_c   3.53484200
_cell_angle_alpha   90.00000000
_cell_angle_beta   90.00000000
_cell_angle_gamma   90.00000000
_symmetry_Int_Tables_number   1
_chemical_formula_structural   Lu4CdPd4Au
_chemical_formula_sum   'Lu4 Cd1 Pd4 Au1'
_cell_volume   207.84275698
_cell_formula_units_Z   1
loop_
 _symmetry_equiv_pos_site_id
 _symmetry_equiv_pos_as_xyz
  1  'x, y, z'
loop_
 _atom_site_type_symbol
 _atom_site_label
 _atom_site_symmetry_multiplicity
 _atom_site_fract_x
 _atom_site_fract_y
 _atom_site_fract_z
 _atom_site_occupancy
  Lu  Lu0  1  0.689588  0.150770  0.500000  1
  Lu  Lu1  1  0.310412  0.849230  0.500000  1
  Lu  Lu2  1  0.150770  0.310412  0.500000  1
  Lu  Lu3  1  0.849230  0.689588  0.500000  1
  Cd  Cd4  1  0.500000  0.500000  0.000000  1
  Pd  Pd5  1  0.137990  0.621508  0.000000  1
  Pd  Pd6  1  0.862010  0.378492  0.000000  1
  Pd  Pd7  1  0.621508  0.862010  0.000000  1
  Pd  Pd8  1  0.378492  0.137990  0.000000  1
  Au  Au9  1  0.000000  0.000000  0.000000  1
