# generated using pymatgen
data_TbTmLu(Co3P2)3
_symmetry_space_group_name_H-M   'P 1'
_cell_length_a   3.67947700
_cell_length_b   10.48623800
_cell_length_c   12.13113700
_cell_angle_alpha   90.00000000
_cell_angle_beta   90.00000000
_cell_angle_gamma   90.00000000
_symmetry_Int_Tables_number   1
_chemical_formula_structural   TbTmLu(Co3P2)3
_chemical_formula_sum   'Tb2 Tm2 Lu2 Co18 P12'
_cell_volume   468.06623161
_cell_formula_units_Z   2
loop_
 _symmetry_equiv_pos_site_id
 _symmetry_equiv_pos_as_xyz
  1  'x, y, z'
loop_
 _atom_site_type_symbol
 _atom_site_label
 _atom_site_symmetry_multiplicity
 _atom_site_fract_x
 _atom_site_fract_y
 _atom_site_fract_z
 _atom_site_occupancy
  Tb  Tb0  1  0.000000  0.500000  0.523043  1
  Tb  Tb1  1  0.500000  0.000000  0.477309  1
  Tm  Tm2  1  0.500000  0.818325  0.205619  1
  Tm  Tm3  1  0.500000  0.181675  0.205619  1
  Lu  Lu4  1  0.000000  0.681582  0.794209  1
  Lu  Lu5  1  0.000000  0.318418  0.794209  1
  Co  Co6  1  0.500000  0.500000  0.159130  1
  Co  Co7  1  0.000000  0.000000  0.840820  1
  Co  Co8  1  0.500000  0.500000  0.705592  1
  Co  Co9  1  0.000000  0.000000  0.294789  1
  Co  Co10  1  0.000000  0.500000  0.986519  1
  Co  Co11  1  0.500000  0.000000  0.012685  1
  Co  Co12  1  0.500000  0.333290  0.994473  1
  Co  Co13  1  0.500000  0.666710  0.994473  1
  Co  Co14  1  0.000000  0.167045  0.004783  1
  Co  Co15  1  0.000000  0.832955  0.004783  1
  Co  Co16  1  0.500000  0.297151  0.430401  1
  Co  Co17  1  0.500000  0.702849  0.430401  1
  Co  Co18  1  0.000000  0.203021  0.570237  1
  Co  Co19  1  0.000000  0.796979  0.570237  1
  Co  Co20  1  0.500000  0.878237  0.710500  1
  Co  Co21  1  0.500000  0.121763  0.710500  1
  Co  Co22  1  0.000000  0.621323  0.289759  1
  Co  Co23  1  0.000000  0.378677  0.289759  1
  P  P24  1  0.500000  0.500000  0.882588  1
  P  P25  1  0.000000  0.000000  0.116792  1
  P  P26  1  0.500000  0.500000  0.343796  1
  P  P27  1  0.000000  0.000000  0.656232  1
  P  P28  1  0.500000  0.310766  0.617788  1
  P  P29  1  0.500000  0.689234  0.617788  1
  P  P30  1  0.000000  0.189378  0.382963  1
  P  P31  1  0.000000  0.810622  0.382963  1
  P  P32  1  0.500000  0.845953  0.892025  1
  P  P33  1  0.500000  0.154047  0.892025  1
  P  P34  1  0.000000  0.653308  0.107595  1
  P  P35  1  0.000000  0.346692  0.107595  1
