# generated using pymatgen
data_Ho9ScAl3Ru
_symmetry_space_group_name_H-M   'P 1'
_cell_length_a   9.49217500
_cell_length_b   9.49217552
_cell_length_c   9.58880300
_cell_angle_alpha   90.00000000
_cell_angle_beta   90.00000000
_cell_angle_gamma   120.00000167
_symmetry_Int_Tables_number   1
_chemical_formula_structural   Ho9ScAl3Ru
_chemical_formula_sum   'Ho18 Sc2 Al6 Ru2'
_cell_volume   748.21518373
_cell_formula_units_Z   2
loop_
 _symmetry_equiv_pos_site_id
 _symmetry_equiv_pos_as_xyz
  1  'x, y, z'
loop_
 _atom_site_type_symbol
 _atom_site_label
 _atom_site_symmetry_multiplicity
 _atom_site_fract_x
 _atom_site_fract_y
 _atom_site_fract_z
 _atom_site_occupancy
  Ho  Ho0  1  0.205533  0.794467  0.439596  1
  Ho  Ho1  1  0.205533  0.411065  0.439596  1
  Ho  Ho2  1  0.588935  0.794467  0.439596  1
  Ho  Ho3  1  0.794467  0.205533  0.560404  1
  Ho  Ho4  1  0.794467  0.588935  0.560404  1
  Ho  Ho5  1  0.411065  0.205533  0.560404  1
  Ho  Ho6  1  0.794467  0.205533  0.939596  1
  Ho  Ho7  1  0.794467  0.588935  0.939596  1
  Ho  Ho8  1  0.411065  0.205533  0.939596  1
  Ho  Ho9  1  0.205533  0.794467  0.060404  1
  Ho  Ho10  1  0.205533  0.411065  0.060404  1
  Ho  Ho11  1  0.588935  0.794467  0.060404  1
  Ho  Ho12  1  0.539952  0.460048  0.250000  1
  Ho  Ho13  1  0.539952  0.079904  0.250000  1
  Ho  Ho14  1  0.920096  0.460048  0.250000  1
  Ho  Ho15  1  0.460048  0.539952  0.750000  1
  Ho  Ho16  1  0.460048  0.920096  0.750000  1
  Ho  Ho17  1  0.079904  0.539952  0.750000  1
  Sc  Sc18  1  0.000000  0.000000  0.500000  1
  Sc  Sc19  1  0.000000  0.000000  0.000000  1
  Al  Al20  1  0.894050  0.105950  0.250000  1
  Al  Al21  1  0.894050  0.788103  0.250000  1
  Al  Al22  1  0.211897  0.105950  0.250000  1
  Al  Al23  1  0.105950  0.894050  0.750000  1
  Al  Al24  1  0.105950  0.211897  0.750000  1
  Al  Al25  1  0.788103  0.894050  0.750000  1
  Ru  Ru26  1  0.333333  0.666667  0.250000  1
  Ru  Ru27  1  0.666667  0.333333  0.750000  1
