# generated using pymatgen
data_La3OsBr3
_symmetry_space_group_name_H-M   'P 1'
_cell_length_a   10.62030457
_cell_length_b   10.62030415
_cell_length_c   10.62030400
_cell_angle_alpha   109.47122416
_cell_angle_beta   109.47122337
_cell_angle_gamma   109.47121599
_symmetry_Int_Tables_number   1
_chemical_formula_structural   La3OsBr3
_chemical_formula_sum   'La12 Os4 Br12'
_cell_volume   922.12325557
_cell_formula_units_Z   4
loop_
 _symmetry_equiv_pos_site_id
 _symmetry_equiv_pos_as_xyz
  1  'x, y, z'
loop_
 _atom_site_type_symbol
 _atom_site_label
 _atom_site_symmetry_multiplicity
 _atom_site_fract_x
 _atom_site_fract_y
 _atom_site_fract_z
 _atom_site_occupancy
  La  La0  1  0.467157  0.483578  0.233578  1
  La  La1  1  0.750000  0.233578  0.266422  1
  La  La2  1  0.750000  0.016422  0.483578  1
  La  La3  1  0.233578  0.467157  0.483578  1
  La  La4  1  0.266422  0.750000  0.233578  1
  La  La5  1  0.032843  0.266422  0.016422  1
  La  La6  1  0.016422  0.032843  0.266422  1
  La  La7  1  0.483578  0.750000  0.016422  1
  La  La8  1  0.483578  0.233578  0.467157  1
  La  La9  1  0.016422  0.483578  0.750000  1
  La  La10  1  0.266422  0.016422  0.032843  1
  La  La11  1  0.233578  0.266422  0.750000  1
  Os  Os12  1  0.250000  0.250000  0.250000  1
  Os  Os13  1  0.500000  0.000000  0.250000  1
  Os  Os14  1  0.000000  0.250000  0.500000  1
  Os  Os15  1  0.250000  0.500000  0.000000  1
  Br  Br16  1  0.250000  0.754927  0.745073  1
  Br  Br17  1  0.509854  0.504927  0.754927  1
  Br  Br18  1  0.990146  0.745073  0.995073  1
  Br  Br19  1  0.745073  0.250000  0.754927  1
  Br  Br20  1  0.995073  0.990146  0.745073  1
  Br  Br21  1  0.250000  0.995073  0.504927  1
  Br  Br22  1  0.754927  0.509854  0.504927  1
  Br  Br23  1  0.504927  0.250000  0.995073  1
  Br  Br24  1  0.754927  0.745073  0.250000  1
  Br  Br25  1  0.745073  0.995073  0.990146  1
  Br  Br26  1  0.995073  0.504927  0.250000  1
  Br  Br27  1  0.504927  0.754927  0.509854  1
