# generated using pymatgen
data_Th2Mn3Co6Ni3P7
_symmetry_space_group_name_H-M   'P 1'
_cell_length_a   9.11500450
_cell_length_b   9.11399895
_cell_length_c   3.75207100
_cell_angle_alpha   90.00000000
_cell_angle_beta   90.00000000
_cell_angle_gamma   119.99970158
_symmetry_Int_Tables_number   1
_chemical_formula_structural   Th2Mn3Co6Ni3P7
_chemical_formula_sum   'Th2 Mn3 Co6 Ni3 P7'
_cell_volume   269.94099669
_cell_formula_units_Z   1
loop_
 _symmetry_equiv_pos_site_id
 _symmetry_equiv_pos_as_xyz
  1  'x, y, z'
loop_
 _atom_site_type_symbol
 _atom_site_label
 _atom_site_symmetry_multiplicity
 _atom_site_fract_x
 _atom_site_fract_y
 _atom_site_fract_z
 _atom_site_occupancy
  Th  Th0  1  0.333393  0.666562  0.000000  1
  Th  Th1  1  0.999967  0.000046  0.500000  1
  Mn  Mn2  1  0.782703  0.239270  0.500000  1
  Mn  Mn3  1  0.760768  0.543269  0.500000  1
  Mn  Mn4  1  0.456557  0.217361  0.500000  1
  Co  Co5  1  0.542496  0.057650  0.000000  1
  Co  Co6  1  0.942312  0.484970  0.000000  1
  Co  Co7  1  0.515170  0.457361  0.000000  1
  Co  Co8  1  0.617514  0.901086  0.500000  1
  Co  Co9  1  0.098840  0.716416  0.500000  1
  Co  Co10  1  0.283692  0.382523  0.500000  1
  Ni  Ni11  1  0.036246  0.268791  0.000000  1
  Ni  Ni12  1  0.731235  0.767415  0.000000  1
  Ni  Ni13  1  0.232370  0.963841  0.000000  1
  P  P14  1  0.766679  0.033413  0.000000  1
  P  P15  1  0.966610  0.733346  0.000000  1
  P  P16  1  0.266678  0.233380  0.000000  1
  P  P17  1  0.377968  0.937185  0.500000  1
  P  P18  1  0.062844  0.440973  0.500000  1
  P  P19  1  0.559300  0.621847  0.500000  1
  P  P20  1  0.666659  0.333296  0.000000  1
