# generated using pymatgen
data_La4Nd4ZnPd24
_symmetry_space_group_name_H-M   'P 1'
_cell_length_a   8.53342771
_cell_length_b   8.53270936
_cell_length_c   8.53270936
_cell_angle_alpha   89.99752416
_cell_angle_beta   89.96691702
_cell_angle_gamma   89.96691702
_symmetry_Int_Tables_number   1
_chemical_formula_structural   La4Nd4ZnPd24
_chemical_formula_sum   'La4 Nd4 Zn1 Pd24'
_cell_volume   621.29416431
_cell_formula_units_Z   1
loop_
 _symmetry_equiv_pos_site_id
 _symmetry_equiv_pos_as_xyz
  1  'x, y, z'
loop_
 _atom_site_type_symbol
 _atom_site_label
 _atom_site_symmetry_multiplicity
 _atom_site_fract_x
 _atom_site_fract_y
 _atom_site_fract_z
 _atom_site_occupancy
  La  La0  1  0.250623  0.250693  0.250693  1
  La  La1  1  0.749301  0.749311  0.749311  1
  La  La2  1  0.749469  0.749553  0.250586  1
  La  La3  1  0.749469  0.250586  0.749553  1
  Nd  Nd4  1  0.250347  0.250292  0.749611  1
  Nd  Nd5  1  0.250347  0.749611  0.250292  1
  Nd  Nd6  1  0.250265  0.749836  0.749836  1
  Nd  Nd7  1  0.749719  0.250216  0.250216  1
  Zn  Zn8  1  0.000298  0.999912  0.999912  1
  Pd  Pd9  1  0.262262  0.500560  0.999441  1
  Pd  Pd10  1  0.737772  0.499562  0.000499  1
  Pd  Pd11  1  0.999789  0.262218  0.500035  1
  Pd  Pd12  1  0.500204  0.262210  0.999962  1
  Pd  Pd13  1  0.000842  0.737738  0.500052  1
  Pd  Pd14  1  0.499213  0.737739  0.999991  1
  Pd  Pd15  1  0.500204  0.999962  0.262210  1
  Pd  Pd16  1  0.262262  0.999441  0.500560  1
  Pd  Pd17  1  0.499213  0.999991  0.737739  1
  Pd  Pd18  1  0.737772  0.000499  0.499562  1
  Pd  Pd19  1  0.999789  0.500035  0.262218  1
  Pd  Pd20  1  0.000842  0.500052  0.737738  1
  Pd  Pd21  1  0.253827  0.500541  0.500541  1
  Pd  Pd22  1  0.746146  0.499514  0.499514  1
  Pd  Pd23  1  0.500213  0.253844  0.500055  1
  Pd  Pd24  1  0.499177  0.746157  0.499996  1
  Pd  Pd25  1  0.500213  0.500055  0.253844  1
  Pd  Pd26  1  0.499177  0.499996  0.746157  1
  Pd  Pd27  1  0.297628  0.999460  0.999460  1
  Pd  Pd28  1  0.702343  0.000488  0.000488  1
  Pd  Pd29  1  0.999803  0.297613  0.999969  1
  Pd  Pd30  1  0.000835  0.702344  0.000004  1
  Pd  Pd31  1  0.999803  0.999969  0.297613  1
  Pd  Pd32  1  0.000835  0.000004  0.702344  1
