# generated using pymatgen
data_LuHf7(Ta3Si4)4
_symmetry_space_group_name_H-M   'P 1'
_cell_length_a   6.67680737
_cell_length_b   6.84299658
_cell_length_c   13.09255025
_cell_angle_alpha   90.07443379
_cell_angle_beta   89.92924656
_cell_angle_gamma   90.06579474
_symmetry_Int_Tables_number   1
_chemical_formula_structural   LuHf7(Ta3Si4)4
_chemical_formula_sum   'Lu1 Hf7 Ta12 Si16'
_cell_volume   598.18901790
_cell_formula_units_Z   1
loop_
 _symmetry_equiv_pos_site_id
 _symmetry_equiv_pos_as_xyz
  1  'x, y, z'
loop_
 _atom_site_type_symbol
 _atom_site_label
 _atom_site_symmetry_multiplicity
 _atom_site_fract_x
 _atom_site_fract_y
 _atom_site_fract_z
 _atom_site_occupancy
  Lu  Lu0  1  0.497366  0.671994  0.592067  1
  Hf  Hf1  1  0.994438  0.826941  0.908245  1
  Hf  Hf2  1  0.505607  0.327241  0.092564  1
  Hf  Hf3  1  0.005614  0.173571  0.406548  1
  Hf  Hf4  1  0.505421  0.325001  0.405129  1
  Hf  Hf5  1  0.005857  0.173267  0.092790  1
  Hf  Hf6  1  0.494038  0.673431  0.906711  1
  Hf  Hf7  1  0.996893  0.827741  0.593282  1
  Ta  Ta8  1  0.662549  0.169786  0.624457  1
  Ta  Ta9  1  0.161247  0.327505  0.877214  1
  Ta  Ta10  1  0.337788  0.830187  0.123475  1
  Ta  Ta11  1  0.836930  0.670605  0.376122  1
  Ta  Ta12  1  0.335307  0.831661  0.375413  1
  Ta  Ta13  1  0.837047  0.670692  0.123489  1
  Ta  Ta14  1  0.662829  0.170645  0.877587  1
  Ta  Ta15  1  0.160538  0.327307  0.624106  1
  Ta  Ta16  1  0.837563  0.495151  0.751274  1
  Ta  Ta17  1  0.336778  0.004527  0.752070  1
  Ta  Ta18  1  0.162493  0.504304  0.249201  1
  Ta  Ta19  1  0.662738  0.997364  0.249965  1
  Si  Si20  1  0.673216  0.966247  0.459593  1
  Si  Si21  1  0.173035  0.536488  0.038887  1
  Si  Si22  1  0.327602  0.035952  0.961591  1
  Si  Si23  1  0.831813  0.460948  0.538111  1
  Si  Si24  1  0.326718  0.038938  0.537886  1
  Si  Si25  1  0.826780  0.464576  0.961233  1
  Si  Si26  1  0.673207  0.962860  0.039037  1
  Si  Si27  1  0.170948  0.535058  0.459502  1
  Si  Si28  1  0.459776  0.386588  0.751027  1
  Si  Si29  1  0.960533  0.111553  0.750699  1
  Si  Si30  1  0.538689  0.612204  0.250179  1
  Si  Si31  1  0.038552  0.888309  0.249536  1
  Si  Si32  1  0.704483  0.860668  0.751017  1
  Si  Si33  1  0.201607  0.640174  0.750697  1
  Si  Si34  1  0.296592  0.140476  0.249412  1
  Si  Si35  1  0.797409  0.360039  0.249884  1
