# generated using pymatgen
data_PrErP7Ru12
_symmetry_space_group_name_H-M   'P 1'
_cell_length_a   9.45600900
_cell_length_b   9.45600737
_cell_length_c   3.96648000
_cell_angle_alpha   90.00000000
_cell_angle_beta   90.00000000
_cell_angle_gamma   119.99999520
_symmetry_Int_Tables_number   1
_chemical_formula_structural   PrErP7Ru12
_chemical_formula_sum   'Pr1 Er1 P7 Ru12'
_cell_volume   307.15076448
_cell_formula_units_Z   1
loop_
 _symmetry_equiv_pos_site_id
 _symmetry_equiv_pos_as_xyz
  1  'x, y, z'
loop_
 _atom_site_type_symbol
 _atom_site_label
 _atom_site_symmetry_multiplicity
 _atom_site_fract_x
 _atom_site_fract_y
 _atom_site_fract_z
 _atom_site_occupancy
  Pr  Pr0  1  0.333333  0.666667  0.000000  1
  Er  Er1  1  0.666667  0.333333  0.500000  1
  P  P2  1  0.605048  0.718699  0.500000  1
  P  P3  1  0.000000  0.000000  0.000000  1
  P  P4  1  0.281301  0.886350  0.500000  1
  P  P5  1  0.113650  0.394952  0.500000  1
  P  P6  1  0.886179  0.571783  0.000000  1
  P  P7  1  0.428217  0.314397  0.000000  1
  P  P8  1  0.685603  0.113821  0.000000  1
  Ru  Ru9  1  0.560019  0.956096  0.500000  1
  Ru  Ru10  1  0.396078  0.439981  0.500000  1
  Ru  Ru11  1  0.914616  0.119753  0.500000  1
  Ru  Ru12  1  0.205137  0.085384  0.500000  1
  Ru  Ru13  1  0.880247  0.794863  0.500000  1
  Ru  Ru14  1  0.728568  0.892690  0.000000  1
  Ru  Ru15  1  0.107310  0.835877  0.000000  1
  Ru  Ru16  1  0.164123  0.271432  0.000000  1
  Ru  Ru17  1  0.422637  0.069477  0.000000  1
  Ru  Ru18  1  0.930523  0.353160  0.000000  1
  Ru  Ru19  1  0.646840  0.577363  0.000000  1
  Ru  Ru20  1  0.043904  0.603922  0.500000  1
