# generated using pymatgen
data_Ho13Er7(IrRh2)4
_symmetry_space_group_name_H-M   'P 1'
_cell_length_a   10.82880300
_cell_length_b   10.82846800
_cell_length_c   6.33919600
_cell_angle_alpha   90.00186220
_cell_angle_beta   89.99863959
_cell_angle_gamma   89.99916401
_symmetry_Int_Tables_number   1
_chemical_formula_structural   Ho13Er7(IrRh2)4
_chemical_formula_sum   'Ho13 Er7 Ir4 Rh8'
_cell_volume   743.32998163
_cell_formula_units_Z   1
loop_
 _symmetry_equiv_pos_site_id
 _symmetry_equiv_pos_as_xyz
  1  'x, y, z'
loop_
 _atom_site_type_symbol
 _atom_site_label
 _atom_site_symmetry_multiplicity
 _atom_site_fract_x
 _atom_site_fract_y
 _atom_site_fract_z
 _atom_site_occupancy
  Ho  Ho0  1  0.291074  0.089576  0.377872  1
  Ho  Ho1  1  0.291088  0.910430  0.877872  1
  Ho  Ho2  1  0.708924  0.089594  0.877883  1
  Ho  Ho3  1  0.708886  0.910479  0.377931  1
  Ho  Ho4  1  0.587367  0.789866  0.878679  1
  Ho  Ho5  1  0.587391  0.210148  0.378679  1
  Ho  Ho6  1  0.412606  0.789861  0.378687  1
  Ho  Ho7  1  0.412612  0.210143  0.878692  1
  Ho  Ho8  1  0.210017  0.412641  0.621339  1
  Ho  Ho9  1  0.210067  0.587333  0.121316  1
  Ho  Ho10  1  0.789963  0.412564  0.121340  1
  Ho  Ho11  1  0.789965  0.587310  0.621337  1
  Ho  Ho12  1  0.910540  0.708885  0.122073  1
  Er  Er13  1  0.910515  0.291222  0.621952  1
  Er  Er14  1  0.089570  0.708768  0.621971  1
  Er  Er15  1  0.089483  0.291176  0.121989  1
  Er  Er16  1  0.000021  0.000056  0.500076  1
  Er  Er17  1  0.000023  0.000101  0.000006  1
  Er  Er18  1  0.499995  0.499972  0.000043  1
  Er  Er19  1  0.499991  0.499981  0.500019  1
  Ir  Ir20  1  0.654535  0.345610  0.749915  1
  Ir  Ir21  1  0.654349  0.654351  0.250020  1
  Ir  Ir22  1  0.345450  0.345610  0.249928  1
  Ir  Ir23  1  0.345461  0.654397  0.749904  1
  Rh  Rh24  1  0.846709  0.153494  0.250128  1
  Rh  Rh25  1  0.846668  0.846561  0.749953  1
  Rh  Rh26  1  0.153296  0.153498  0.750118  1
  Rh  Rh27  1  0.153366  0.846542  0.250178  1
  Rh  Rh28  1  0.499989  0.000007  0.122201  1
  Rh  Rh29  1  0.500004  0.999999  0.622189  1
  Rh  Rh30  1  0.000035  0.499903  0.877792  1
  Rh  Rh31  1  0.000038  0.499923  0.377917  1
