# generated using pymatgen
data_Er16In3Hg(PtRh)2
_symmetry_space_group_name_H-M   'P 1'
_cell_length_a   9.58497898
_cell_length_b   9.59121443
_cell_length_c   9.59384562
_cell_angle_alpha   60.08535428
_cell_angle_beta   60.03056370
_cell_angle_gamma   60.02150707
_symmetry_Int_Tables_number   1
_chemical_formula_structural   Er16In3Hg(PtRh)2
_chemical_formula_sum   'Er16 In3 Hg1 Pt2 Rh2'
_cell_volume   624.29932764
_cell_formula_units_Z   1
loop_
 _symmetry_equiv_pos_site_id
 _symmetry_equiv_pos_as_xyz
  1  'x, y, z'
loop_
 _atom_site_type_symbol
 _atom_site_label
 _atom_site_symmetry_multiplicity
 _atom_site_fract_x
 _atom_site_fract_y
 _atom_site_fract_z
 _atom_site_occupancy
  Er  Er0  1  0.192579  0.186878  0.810149  1
  Er  Er1  1  0.438112  0.059133  0.064642  1
  Er  Er2  1  0.437016  0.059704  0.437796  1
  Er  Er3  1  0.063384  0.435848  0.063651  1
  Er  Er4  1  0.648340  0.053085  0.650235  1
  Er  Er5  1  0.188794  0.810109  0.812302  1
  Er  Er6  1  0.065485  0.059704  0.437796  1
  Er  Er7  1  0.809427  0.190219  0.190929  1
  Er  Er8  1  0.811797  0.809684  0.186692  1
  Er  Er9  1  0.648034  0.650256  0.053678  1
  Er  Er10  1  0.646333  0.649451  0.649362  1
  Er  Er11  1  0.063883  0.434898  0.437336  1
  Er  Er12  1  0.054856  0.649451  0.649362  1
  Er  Er13  1  0.810394  0.186878  0.810149  1
  Er  Er14  1  0.437117  0.435848  0.063651  1
  Er  Er15  1  0.191825  0.809684  0.186692  1
  In  In16  1  0.416282  0.419192  0.748245  1
  In  In17  1  0.748886  0.418831  0.416206  1
  In  In18  1  0.416077  0.418831  0.416206  1
  Hg  Hg19  1  0.412708  0.761171  0.413413  1
  Pt  Pt20  1  0.856824  0.428982  0.857369  1
  Pt  Pt21  1  0.856765  0.857301  0.429167  1
  Rh  Rh22  1  0.428407  0.857432  0.857486  1
  Rh  Rh23  1  0.856673  0.857432  0.857486  1
