# generated using pymatgen
data_DyTmCuSi2Ru
_symmetry_space_group_name_H-M   'P 1'
_cell_length_a   4.20418800
_cell_length_b   6.93123839
_cell_length_c   7.34416430
_cell_angle_alpha   91.48239130
_cell_angle_beta   90.00000000
_cell_angle_gamma   90.00000000
_symmetry_Int_Tables_number   1
_chemical_formula_structural   DyTmCuSi2Ru
_chemical_formula_sum   'Dy2 Tm2 Cu2 Si4 Ru2'
_cell_volume   213.93900705
_cell_formula_units_Z   2
loop_
 _symmetry_equiv_pos_site_id
 _symmetry_equiv_pos_as_xyz
  1  'x, y, z'
loop_
 _atom_site_type_symbol
 _atom_site_label
 _atom_site_symmetry_multiplicity
 _atom_site_fract_x
 _atom_site_fract_y
 _atom_site_fract_z
 _atom_site_occupancy
  Dy  Dy0  1  0.250000  0.994838  0.797083  1
  Dy  Dy1  1  0.750000  0.005162  0.202917  1
  Tm  Tm2  1  0.250000  0.493189  0.690167  1
  Tm  Tm3  1  0.750000  0.506811  0.309833  1
  Cu  Cu4  1  0.750000  0.831169  0.572967  1
  Cu  Cu5  1  0.250000  0.168831  0.427033  1
  Si  Si6  1  0.250000  0.299328  0.091629  1
  Si  Si7  1  0.750000  0.700672  0.908371  1
  Si  Si8  1  0.250000  0.792115  0.390130  1
  Si  Si9  1  0.750000  0.207885  0.609870  1
  Ru  Ru10  1  0.750000  0.347310  0.934438  1
  Ru  Ru11  1  0.250000  0.652690  0.065562  1
