# generated using pymatgen
data_Zr2CdCuNi
_symmetry_space_group_name_H-M   'P 1'
_cell_length_a   7.26649859
_cell_length_b   7.26649825
_cell_length_c   3.37423300
_cell_angle_alpha   90.00000000
_cell_angle_beta   90.00000000
_cell_angle_gamma   91.08099465
_symmetry_Int_Tables_number   1
_chemical_formula_structural   Zr2CdCuNi
_chemical_formula_sum   'Zr4 Cd2 Cu2 Ni2'
_cell_volume   178.13453912
_cell_formula_units_Z   2
loop_
 _symmetry_equiv_pos_site_id
 _symmetry_equiv_pos_as_xyz
  1  'x, y, z'
loop_
 _atom_site_type_symbol
 _atom_site_label
 _atom_site_symmetry_multiplicity
 _atom_site_fract_x
 _atom_site_fract_y
 _atom_site_fract_z
 _atom_site_occupancy
  Zr  Zr0  1  0.677695  0.177695  0.500000  1
  Zr  Zr1  1  0.322305  0.822305  0.500000  1
  Zr  Zr2  1  0.162685  0.337315  0.500000  1
  Zr  Zr3  1  0.837315  0.662685  0.500000  1
  Cd  Cd4  1  0.000000  0.000000  0.000000  1
  Cd  Cd5  1  0.500000  0.500000  0.000000  1
  Cu  Cu6  1  0.624244  0.875756  0.000000  1
  Cu  Cu7  1  0.375756  0.124244  0.000000  1
  Ni  Ni8  1  0.124581  0.624581  0.000000  1
  Ni  Ni9  1  0.875419  0.375419  0.000000  1
