# generated using pymatgen
data_TbDy3Ga4(NiIr)2
_symmetry_space_group_name_H-M   'P 1'
_cell_length_a   4.31886100
_cell_length_b   6.81602605
_cell_length_c   7.62413006
_cell_angle_alpha   90.01389393
_cell_angle_beta   90.00000000
_cell_angle_gamma   90.00000000
_symmetry_Int_Tables_number   1
_chemical_formula_structural   TbDy3Ga4(NiIr)2
_chemical_formula_sum   'Tb1 Dy3 Ga4 Ni2 Ir2'
_cell_volume   224.43508621
_cell_formula_units_Z   1
loop_
 _symmetry_equiv_pos_site_id
 _symmetry_equiv_pos_as_xyz
  1  'x, y, z'
loop_
 _atom_site_type_symbol
 _atom_site_label
 _atom_site_symmetry_multiplicity
 _atom_site_fract_x
 _atom_site_fract_y
 _atom_site_fract_z
 _atom_site_occupancy
  Tb  Tb0  1  0.250000  0.524116  0.688769  1
  Dy  Dy1  1  0.250000  0.024223  0.811382  1
  Dy  Dy2  1  0.750000  0.979592  0.190712  1
  Dy  Dy3  1  0.750000  0.479529  0.309131  1
  Ga  Ga4  1  0.250000  0.163650  0.438066  1
  Ga  Ga5  1  0.250000  0.663871  0.062090  1
  Ga  Ga6  1  0.750000  0.840847  0.578147  1
  Ga  Ga7  1  0.750000  0.340337  0.922001  1
  Ni  Ni8  1  0.750000  0.217861  0.609646  1
  Ni  Ni9  1  0.750000  0.718406  0.890579  1
  Ir  Ir10  1  0.250000  0.773997  0.390989  1
  Ir  Ir11  1  0.250000  0.273569  0.108488  1
