# generated using pymatgen
data_Dy2Tm3Bi2Ir
_symmetry_space_group_name_H-M   'P 1'
_cell_length_a   7.91038200
_cell_length_b   8.99912700
_cell_length_c   12.45343000
_cell_angle_alpha   90.00000000
_cell_angle_beta   90.00000000
_cell_angle_gamma   90.00000000
_symmetry_Int_Tables_number   1
_chemical_formula_structural   Dy2Tm3Bi2Ir
_chemical_formula_sum   'Dy8 Tm12 Bi8 Ir4'
_cell_volume   886.51649615
_cell_formula_units_Z   4
loop_
 _symmetry_equiv_pos_site_id
 _symmetry_equiv_pos_as_xyz
  1  'x, y, z'
loop_
 _atom_site_type_symbol
 _atom_site_label
 _atom_site_symmetry_multiplicity
 _atom_site_fract_x
 _atom_site_fract_y
 _atom_site_fract_z
 _atom_site_occupancy
  Dy  Dy0  1  0.376867  0.750000  0.693180  1
  Dy  Dy1  1  0.623133  0.250000  0.306820  1
  Dy  Dy2  1  0.876867  0.250000  0.806820  1
  Dy  Dy3  1  0.123133  0.750000  0.193180  1
  Dy  Dy4  1  0.945060  0.750000  0.501528  1
  Dy  Dy5  1  0.054940  0.250000  0.498472  1
  Dy  Dy6  1  0.445060  0.250000  0.998472  1
  Dy  Dy7  1  0.554940  0.750000  0.001528  1
  Tm  Tm8  1  0.842243  0.750000  0.793723  1
  Tm  Tm9  1  0.157757  0.250000  0.206277  1
  Tm  Tm10  1  0.342243  0.250000  0.706277  1
  Tm  Tm11  1  0.657757  0.750000  0.293723  1
  Tm  Tm12  1  0.673777  0.042372  0.566031  1
  Tm  Tm13  1  0.326223  0.957628  0.433969  1
  Tm  Tm14  1  0.173777  0.957628  0.933969  1
  Tm  Tm15  1  0.326223  0.542372  0.433969  1
  Tm  Tm16  1  0.826223  0.042372  0.066031  1
  Tm  Tm17  1  0.673777  0.457628  0.566031  1
  Tm  Tm18  1  0.826223  0.457628  0.066031  1
  Tm  Tm19  1  0.173777  0.542372  0.933969  1
  Bi  Bi20  1  0.568296  0.490662  0.826817  1
  Bi  Bi21  1  0.431704  0.509338  0.173183  1
  Bi  Bi22  1  0.068296  0.509338  0.673183  1
  Bi  Bi23  1  0.431704  0.990662  0.173183  1
  Bi  Bi24  1  0.931704  0.490662  0.326817  1
  Bi  Bi25  1  0.568296  0.009338  0.826817  1
  Bi  Bi26  1  0.931704  0.009338  0.326817  1
  Bi  Bi27  1  0.068296  0.990662  0.673183  1
  Ir  Ir28  1  0.570745  0.750000  0.507610  1
  Ir  Ir29  1  0.429255  0.250000  0.492390  1
  Ir  Ir30  1  0.070745  0.250000  0.992390  1
  Ir  Ir31  1  0.929255  0.750000  0.007610  1
