# generated using pymatgen
data_Lu3In3Co2Hg
_symmetry_space_group_name_H-M   'P 1'
_cell_length_a   7.77525800
_cell_length_b   7.77525841
_cell_length_c   3.57046300
_cell_angle_alpha   90.00000000
_cell_angle_beta   90.00000000
_cell_angle_gamma   119.99998975
_symmetry_Int_Tables_number   1
_chemical_formula_structural   Lu3In3Co2Hg
_chemical_formula_sum   'Lu3 In3 Co2 Hg1'
_cell_volume   186.93251712
_cell_formula_units_Z   1
loop_
 _symmetry_equiv_pos_site_id
 _symmetry_equiv_pos_as_xyz
  1  'x, y, z'
loop_
 _atom_site_type_symbol
 _atom_site_label
 _atom_site_symmetry_multiplicity
 _atom_site_fract_x
 _atom_site_fract_y
 _atom_site_fract_z
 _atom_site_occupancy
  Lu  Lu0  1  0.037684  0.617871  0.500000  1
  Lu  Lu1  1  0.580186  0.962316  0.500000  1
  Lu  Lu2  1  0.382129  0.419814  0.500000  1
  In  In3  1  0.002318  0.258022  0.000000  1
  In  In4  1  0.255704  0.997682  0.000000  1
  In  In5  1  0.741978  0.744296  0.000000  1
  Co  Co6  1  0.000000  0.000000  0.500000  1
  Co  Co7  1  0.333333  0.666667  0.000000  1
  Hg  Hg8  1  0.666667  0.333333  0.000000  1
