# generated using pymatgen
data_TbY3(TmIn5)2
_symmetry_space_group_name_H-M   'P 1'
_cell_length_a   6.54170200
_cell_length_b   10.35476903
_cell_length_c   12.18682900
_cell_angle_alpha   90.00000000
_cell_angle_beta   90.00000000
_cell_angle_gamma   90.00406142
_symmetry_Int_Tables_number   1
_chemical_formula_structural   TbY3(TmIn5)2
_chemical_formula_sum   'Tb2 Y6 Tm4 In20'
_cell_volume   825.50914480
_cell_formula_units_Z   2
loop_
 _symmetry_equiv_pos_site_id
 _symmetry_equiv_pos_as_xyz
  1  'x, y, z'
loop_
 _atom_site_type_symbol
 _atom_site_label
 _atom_site_symmetry_multiplicity
 _atom_site_fract_x
 _atom_site_fract_y
 _atom_site_fract_z
 _atom_site_occupancy
  Tb  Tb0  1  0.887117  0.489079  0.142064  1
  Tb  Tb1  1  0.612883  0.010921  0.642064  1
  Y  Y2  1  0.112961  0.988990  0.857921  1
  Y  Y3  1  0.387039  0.511010  0.357921  1
  Y  Y4  1  0.112884  0.511017  0.857934  1
  Y  Y5  1  0.387116  0.988983  0.357934  1
  Y  Y6  1  0.887102  0.011037  0.142066  1
  Y  Y7  1  0.612898  0.488963  0.642066  1
  Tm  Tm8  1  0.352958  0.749936  0.052440  1
  Tm  Tm9  1  0.147042  0.750064  0.552440  1
  Tm  Tm10  1  0.647107  0.249996  0.947583  1
  Tm  Tm11  1  0.852893  0.250004  0.447583  1
  In  In12  1  0.610773  0.749962  0.505540  1
  In  In13  1  0.889227  0.750038  0.005540  1
  In  In14  1  0.389230  0.250002  0.494458  1
  In  In15  1  0.110770  0.249998  0.994458  1
  In  In16  1  0.650495  0.750002  0.241875  1
  In  In17  1  0.849505  0.749998  0.741875  1
  In  In18  1  0.349596  0.249958  0.758129  1
  In  In19  1  0.150404  0.250042  0.258129  1
  In  In20  1  0.117134  0.749934  0.278017  1
  In  In21  1  0.382866  0.750066  0.778017  1
  In  In22  1  0.882855  0.250027  0.721945  1
  In  In23  1  0.617145  0.249973  0.221945  1
  In  In24  1  0.871401  0.543359  0.401389  1
  In  In25  1  0.628599  0.956641  0.901389  1
  In  In26  1  0.128554  0.043361  0.598640  1
  In  In27  1  0.371446  0.456639  0.098640  1
  In  In28  1  0.128614  0.456680  0.598636  1
  In  In29  1  0.371386  0.043320  0.098636  1
  In  In30  1  0.871455  0.956661  0.401365  1
  In  In31  1  0.628545  0.543339  0.901365  1
