# generated using pymatgen
data_Sc4Cr3Co17As12
_symmetry_space_group_name_H-M   'P 1'
_cell_length_a   3.70254300
_cell_length_b   10.63319382
_cell_length_c   12.16927674
_cell_angle_alpha   90.04879466
_cell_angle_beta   90.00000000
_cell_angle_gamma   90.00000000
_symmetry_Int_Tables_number   1
_chemical_formula_structural   Sc4Cr3Co17As12
_chemical_formula_sum   'Sc4 Cr3 Co17 As12'
_cell_volume   479.10251572
_cell_formula_units_Z   1
loop_
 _symmetry_equiv_pos_site_id
 _symmetry_equiv_pos_as_xyz
  1  'x, y, z'
loop_
 _atom_site_type_symbol
 _atom_site_label
 _atom_site_symmetry_multiplicity
 _atom_site_fract_x
 _atom_site_fract_y
 _atom_site_fract_z
 _atom_site_occupancy
  Sc  Sc0  1  0.250000  0.576403  0.705188  1
  Sc  Sc1  1  0.250000  0.919634  0.204384  1
  Sc  Sc2  1  0.750000  0.420400  0.293457  1
  Sc  Sc3  1  0.750000  0.079037  0.794643  1
  Cr  Cr4  1  0.250000  0.707014  0.989996  1
  Cr  Cr5  1  0.250000  0.793368  0.490701  1
  Cr  Cr6  1  0.750000  0.292889  0.009974  1
  Co  Co7  1  0.750000  0.209580  0.511120  1
  Co  Co8  1  0.250000  0.406768  0.485938  1
  Co  Co9  1  0.250000  0.093746  0.987648  1
  Co  Co10  1  0.750000  0.593870  0.513327  1
  Co  Co11  1  0.750000  0.906732  0.013860  1
  Co  Co12  1  0.250000  0.216300  0.177027  1
  Co  Co13  1  0.250000  0.283221  0.675675  1
  Co  Co14  1  0.750000  0.784451  0.824667  1
  Co  Co15  1  0.750000  0.717028  0.324239  1
  Co  Co16  1  0.250000  0.885157  0.698354  1
  Co  Co17  1  0.250000  0.615712  0.198560  1
  Co  Co18  1  0.750000  0.116647  0.302631  1
  Co  Co19  1  0.750000  0.383808  0.800412  1
  Co  Co20  1  0.250000  0.463951  0.932238  1
  Co  Co21  1  0.250000  0.035702  0.432283  1
  Co  Co22  1  0.750000  0.536063  0.067673  1
  Co  Co23  1  0.750000  0.965059  0.567256  1
  As  As24  1  0.250000  0.417099  0.117768  1
  As  As25  1  0.250000  0.083924  0.616462  1
  As  As26  1  0.750000  0.582404  0.881527  1
  As  As27  1  0.750000  0.918080  0.381715  1
  As  As28  1  0.250000  0.262037  0.864759  1
  As  As29  1  0.250000  0.237333  0.367607  1
  As  As30  1  0.750000  0.737355  0.135032  1
  As  As31  1  0.750000  0.762681  0.635642  1
  As  As32  1  0.250000  0.592276  0.387589  1
  As  As33  1  0.250000  0.907846  0.888043  1
  As  As34  1  0.750000  0.402832  0.609282  1
  As  As35  1  0.750000  0.093593  0.113323  1
