# generated using pymatgen
data_Ho6Al24Cu3Tc5
_symmetry_space_group_name_H-M   'P 1'
_cell_length_a   8.85126457
_cell_length_b   8.80824503
_cell_length_c   9.55218100
_cell_angle_alpha   89.58946621
_cell_angle_beta   89.96591226
_cell_angle_gamma   119.20669391
_symmetry_Int_Tables_number   1
_chemical_formula_structural   Ho6Al24Cu3Tc5
_chemical_formula_sum   'Ho6 Al24 Cu3 Tc5'
_cell_volume   650.02259057
_cell_formula_units_Z   1
loop_
 _symmetry_equiv_pos_site_id
 _symmetry_equiv_pos_as_xyz
  1  'x, y, z'
loop_
 _atom_site_type_symbol
 _atom_site_label
 _atom_site_symmetry_multiplicity
 _atom_site_fract_x
 _atom_site_fract_y
 _atom_site_fract_z
 _atom_site_occupancy
  Ho  Ho0  1  0.191772  0.801674  0.248772  1
  Ho  Ho1  1  0.187125  0.387590  0.248180  1
  Ho  Ho2  1  0.617232  0.812441  0.250991  1
  Ho  Ho3  1  0.808228  0.198326  0.751228  1
  Ho  Ho4  1  0.812875  0.612410  0.751820  1
  Ho  Ho5  1  0.382768  0.187559  0.749009  1
  Al  Al6  1  0.560483  0.440180  0.251324  1
  Al  Al7  1  0.561209  0.125091  0.249371  1
  Al  Al8  1  0.874914  0.439731  0.251036  1
  Al  Al9  1  0.439517  0.559820  0.748676  1
  Al  Al10  1  0.438791  0.874909  0.750629  1
  Al  Al11  1  0.125086  0.560269  0.748964  1
  Al  Al12  1  0.321738  0.163574  0.419323  1
  Al  Al13  1  0.842848  0.168940  0.421326  1
  Al  Al14  1  0.842007  0.676772  0.422857  1
  Al  Al15  1  0.678262  0.836426  0.580677  1
  Al  Al16  1  0.157152  0.831060  0.578674  1
  Al  Al17  1  0.157993  0.323228  0.577143  1
  Al  Al18  1  0.677204  0.841724  0.923325  1
  Al  Al19  1  0.164462  0.837220  0.923164  1
  Al  Al20  1  0.159497  0.324451  0.923064  1
  Al  Al21  1  0.322796  0.158276  0.076675  1
  Al  Al22  1  0.835538  0.162780  0.076836  1
  Al  Al23  1  0.840503  0.675549  0.076936  1
  Al  Al24  1  0.669397  0.335667  0.519953  1
  Al  Al25  1  0.330603  0.664333  0.480047  1
  Al  Al26  1  0.333097  0.669012  0.020850  1
  Al  Al27  1  0.666903  0.330988  0.979150  1
  Al  Al28  1  0.997446  0.000856  0.250114  1
  Al  Al29  1  0.002554  0.999144  0.749886  1
  Cu  Cu30  1  0.500000  0.500000  0.500000  1
  Cu  Cu31  1  0.500000  0.000000  0.500000  1
  Cu  Cu32  1  0.500000  0.500000  0.000000  1
  Tc  Tc33  1  0.000000  0.000000  0.500000  1
  Tc  Tc34  1  0.000000  0.000000  0.000000  1
  Tc  Tc35  1  0.000000  0.500000  0.500000  1
  Tc  Tc36  1  0.500000  0.000000  0.000000  1
  Tc  Tc37  1  0.000000  0.500000  0.000000  1
