# generated using pymatgen
data_Sc4Nb3InRu8
_symmetry_space_group_name_H-M   'P 1'
_cell_length_a   6.38295700
_cell_length_b   4.53282900
_cell_length_c   9.04204400
_cell_angle_alpha   90.00014554
_cell_angle_beta   90.00008660
_cell_angle_gamma   90.00014765
_symmetry_Int_Tables_number   1
_chemical_formula_structural   Sc4Nb3InRu8
_chemical_formula_sum   'Sc4 Nb3 In1 Ru8'
_cell_volume   261.61212621
_cell_formula_units_Z   1
loop_
 _symmetry_equiv_pos_site_id
 _symmetry_equiv_pos_as_xyz
  1  'x, y, z'
loop_
 _atom_site_type_symbol
 _atom_site_label
 _atom_site_symmetry_multiplicity
 _atom_site_fract_x
 _atom_site_fract_y
 _atom_site_fract_z
 _atom_site_occupancy
  Sc  Sc0  1  0.750010  0.250001  0.125013  1
  Sc  Sc1  1  0.250023  0.750001  0.367151  1
  Sc  Sc2  1  0.749994  0.250000  0.625030  1
  Sc  Sc3  1  0.249983  0.749999  0.882855  1
  Nb  Nb4  1  0.750012  0.750001  0.374330  1
  Nb  Nb5  1  0.250001  0.250001  0.625012  1
  Nb  Nb6  1  0.749977  0.750001  0.875702  1
  In  In7  1  0.249999  0.250000  0.124934  1
  Ru  Ru8  1  0.513218  0.750002  0.124955  1
  Ru  Ru9  1  0.986792  0.750000  0.124952  1
  Ru  Ru10  1  0.504268  0.250001  0.381812  1
  Ru  Ru11  1  0.995759  0.250000  0.381815  1
  Ru  Ru12  1  0.001807  0.750000  0.625035  1
  Ru  Ru13  1  0.498179  0.750001  0.625041  1
  Ru  Ru14  1  0.995737  0.249999  0.868179  1
  Ru  Ru15  1  0.504241  0.250002  0.868188  1
