# generated using pymatgen
data_Nd3Si2Se8I
_symmetry_space_group_name_H-M   'P 1'
_cell_length_a   9.28958370
_cell_length_b   9.28958284
_cell_length_c   11.47004651
_cell_angle_alpha   82.20807371
_cell_angle_beta   97.79192463
_cell_angle_gamma   127.84319851
_symmetry_Int_Tables_number   1
_chemical_formula_structural   Nd3Si2Se8I
_chemical_formula_sum   'Nd6 Si4 Se16 I2'
_cell_volume   772.70032021
_cell_formula_units_Z   2
loop_
 _symmetry_equiv_pos_site_id
 _symmetry_equiv_pos_as_xyz
  1  'x, y, z'
loop_
 _atom_site_type_symbol
 _atom_site_label
 _atom_site_symmetry_multiplicity
 _atom_site_fract_x
 _atom_site_fract_y
 _atom_site_fract_z
 _atom_site_occupancy
  Nd  Nd0  1  0.614018  0.614018  0.750000  1
  Nd  Nd1  1  0.385983  0.385982  0.250000  1
  Nd  Nd2  1  0.328760  0.923383  0.682456  1
  Nd  Nd3  1  0.923384  0.328759  0.817544  1
  Nd  Nd4  1  0.671239  0.076616  0.317544  1
  Nd  Nd5  1  0.076615  0.671239  0.182457  1
  Si  Si6  1  0.624201  0.304391  0.028049  1
  Si  Si7  1  0.304391  0.624201  0.471952  1
  Si  Si8  1  0.375800  0.695611  0.971951  1
  Si  Si9  1  0.695610  0.375801  0.528048  1
  Se  Se10  1  0.855977  0.282191  0.086757  1
  Se  Se11  1  0.282191  0.855977  0.413243  1
  Se  Se12  1  0.144022  0.717808  0.913243  1
  Se  Se13  1  0.717807  0.144022  0.586757  1
  Se  Se14  1  0.389685  0.102513  0.146500  1
  Se  Se15  1  0.102514  0.389685  0.353500  1
  Se  Se16  1  0.610315  0.897487  0.853500  1
  Se  Se17  1  0.897487  0.610315  0.646501  1
  Se  Se18  1  0.547488  0.255911  0.832013  1
  Se  Se19  1  0.255910  0.547489  0.667987  1
  Se  Se20  1  0.452513  0.744091  0.167987  1
  Se  Se21  1  0.744091  0.452513  0.332013  1
  Se  Se22  1  0.728846  0.596797  0.042049  1
  Se  Se23  1  0.596797  0.728846  0.457951  1
  Se  Se24  1  0.271152  0.403202  0.957951  1
  Se  Se25  1  0.403201  0.271153  0.542050  1
  I  I26  1  0.992053  0.992052  0.250000  1
  I  I27  1  0.007947  0.007947  0.750000  1
