# generated using pymatgen
data_Lu3(Al3Co)4
_symmetry_space_group_name_H-M   'P 1'
_cell_length_a   8.59367100
_cell_length_b   8.59367041
_cell_length_c   9.21508100
_cell_angle_alpha   90.00000000
_cell_angle_beta   90.00000000
_cell_angle_gamma   119.99999844
_symmetry_Int_Tables_number   1
_chemical_formula_structural   Lu3(Al3Co)4
_chemical_formula_sum   'Lu6 Al24 Co8'
_cell_volume   589.36889542
_cell_formula_units_Z   2
loop_
 _symmetry_equiv_pos_site_id
 _symmetry_equiv_pos_as_xyz
  1  'x, y, z'
loop_
 _atom_site_type_symbol
 _atom_site_label
 _atom_site_symmetry_multiplicity
 _atom_site_fract_x
 _atom_site_fract_y
 _atom_site_fract_z
 _atom_site_occupancy
  Lu  Lu0  1  0.803346  0.196654  0.750000  1
  Lu  Lu1  1  0.196654  0.803346  0.250000  1
  Lu  Lu2  1  0.393308  0.196654  0.750000  1
  Lu  Lu3  1  0.606692  0.803346  0.250000  1
  Lu  Lu4  1  0.803346  0.606692  0.750000  1
  Lu  Lu5  1  0.196654  0.393308  0.250000  1
  Al  Al6  1  0.440949  0.559051  0.750000  1
  Al  Al7  1  0.559051  0.440949  0.250000  1
  Al  Al8  1  0.118103  0.559051  0.750000  1
  Al  Al9  1  0.881897  0.440949  0.250000  1
  Al  Al10  1  0.440949  0.881897  0.750000  1
  Al  Al11  1  0.559051  0.118103  0.250000  1
  Al  Al12  1  0.837842  0.162158  0.423573  1
  Al  Al13  1  0.162158  0.837842  0.576427  1
  Al  Al14  1  0.324315  0.162158  0.423573  1
  Al  Al15  1  0.162158  0.837842  0.923573  1
  Al  Al16  1  0.675685  0.837842  0.576427  1
  Al  Al17  1  0.837842  0.162158  0.076427  1
  Al  Al18  1  0.837842  0.675685  0.423573  1
  Al  Al19  1  0.675685  0.837842  0.923573  1
  Al  Al20  1  0.162158  0.324315  0.576427  1
  Al  Al21  1  0.324315  0.162158  0.076427  1
  Al  Al22  1  0.162158  0.324315  0.923573  1
  Al  Al23  1  0.837842  0.675685  0.076427  1
  Al  Al24  1  0.666667  0.333333  0.980930  1
  Al  Al25  1  0.333333  0.666667  0.019070  1
  Al  Al26  1  0.333333  0.666667  0.480930  1
  Al  Al27  1  0.666667  0.333333  0.519070  1
  Al  Al28  1  0.000000  0.000000  0.750000  1
  Al  Al29  1  0.000000  0.000000  0.250000  1
  Co  Co30  1  0.500000  0.500000  0.000000  1
  Co  Co31  1  0.000000  0.500000  0.000000  1
  Co  Co32  1  0.500000  0.500000  0.500000  1
  Co  Co33  1  0.500000  0.000000  0.000000  1
  Co  Co34  1  0.000000  0.500000  0.500000  1
  Co  Co35  1  0.500000  0.000000  0.500000  1
  Co  Co36  1  0.000000  0.000000  0.000000  1
  Co  Co37  1  0.000000  0.000000  0.500000  1
