# generated using pymatgen
data_AlV12Ga2Os
_symmetry_space_group_name_H-M   'P 1'
_cell_length_a   4.79204700
_cell_length_b   4.77962400
_cell_length_c   9.61134100
_cell_angle_alpha   90.00000000
_cell_angle_beta   90.00000000
_cell_angle_gamma   90.00000000
_symmetry_Int_Tables_number   1
_chemical_formula_structural   AlV12Ga2Os
_chemical_formula_sum   'Al1 V12 Ga2 Os1'
_cell_volume   220.13991170
_cell_formula_units_Z   1
loop_
 _symmetry_equiv_pos_site_id
 _symmetry_equiv_pos_as_xyz
  1  'x, y, z'
loop_
 _atom_site_type_symbol
 _atom_site_label
 _atom_site_symmetry_multiplicity
 _atom_site_fract_x
 _atom_site_fract_y
 _atom_site_fract_z
 _atom_site_occupancy
  Al  Al0  1  0.500000  0.500000  0.000466  1
  V  V1  1  0.000000  0.500000  0.122000  1
  V  V2  1  0.000000  0.500000  0.628316  1
  V  V3  1  0.500000  0.247258  0.749464  1
  V  V4  1  0.500000  0.253770  0.249920  1
  V  V5  1  0.755095  0.000000  0.996206  1
  V  V6  1  0.755787  0.000000  0.504193  1
  V  V7  1  0.000000  0.500000  0.869909  1
  V  V8  1  0.000000  0.500000  0.380266  1
  V  V9  1  0.500000  0.752742  0.749464  1
  V  V10  1  0.500000  0.746230  0.249920  1
  V  V11  1  0.244905  0.000000  0.996206  1
  V  V12  1  0.244213  0.000000  0.504193  1
  Ga  Ga13  1  0.500000  0.500000  0.499307  1
  Ga  Ga14  1  0.000000  0.000000  0.250384  1
  Os  Os15  1  0.000000  0.000000  0.749787  1
