# generated using pymatgen
data_LaMnFe(As6Rh)2
_symmetry_space_group_name_H-M   'P 1'
_cell_length_a   7.36070983
_cell_length_b   7.35765954
_cell_length_c   7.35754524
_cell_angle_alpha   109.53137085
_cell_angle_beta   109.34446874
_cell_angle_gamma   109.36321917
_symmetry_Int_Tables_number   1
_chemical_formula_structural   LaMnFe(As6Rh)2
_chemical_formula_sum   'La1 Mn1 Fe1 As12 Rh2'
_cell_volume   307.39846933
_cell_formula_units_Z   1
loop_
 _symmetry_equiv_pos_site_id
 _symmetry_equiv_pos_as_xyz
  1  'x, y, z'
loop_
 _atom_site_type_symbol
 _atom_site_label
 _atom_site_symmetry_multiplicity
 _atom_site_fract_x
 _atom_site_fract_y
 _atom_site_fract_z
 _atom_site_occupancy
  La  La0  1  0.000000  0.000000  0.000000  1
  Mn  Mn1  1  0.500000  0.000000  0.000000  1
  Fe  Fe2  1  0.500000  0.500000  0.500000  1
  As  As3  1  0.161162  0.806903  0.662812  1
  As  As4  1  0.838838  0.193097  0.337188  1
  As  As5  1  0.645022  0.143712  0.806685  1
  As  As6  1  0.502807  0.660815  0.843066  1
  As  As7  1  0.644737  0.838583  0.501216  1
  As  As8  1  0.497193  0.339185  0.156934  1
  As  As9  1  0.354978  0.856288  0.193315  1
  As  As10  1  0.205713  0.352354  0.852824  1
  As  As11  1  0.794287  0.647646  0.147176  1
  As  As12  1  0.355263  0.161417  0.498784  1
  As  As13  1  0.839746  0.501837  0.646069  1
  As  As14  1  0.160254  0.498163  0.353931  1
  Rh  Rh15  1  0.000000  0.000000  0.500000  1
  Rh  Rh16  1  0.000000  0.500000  0.000000  1
