# generated using pymatgen
data_Tb4Tm2Al24Os5Pt3
_symmetry_space_group_name_H-M   'P 1'
_cell_length_a   8.82716629
_cell_length_b   8.85036703
_cell_length_c   9.56746522
_cell_angle_alpha   90.11036411
_cell_angle_beta   89.73510761
_cell_angle_gamma   119.56891380
_symmetry_Int_Tables_number   1
_chemical_formula_structural   Tb4Tm2Al24Os5Pt3
_chemical_formula_sum   'Tb4 Tm2 Al24 Os5 Pt3'
_cell_volume   650.09320920
_cell_formula_units_Z   1
loop_
 _symmetry_equiv_pos_site_id
 _symmetry_equiv_pos_as_xyz
  1  'x, y, z'
loop_
 _atom_site_type_symbol
 _atom_site_label
 _atom_site_symmetry_multiplicity
 _atom_site_fract_x
 _atom_site_fract_y
 _atom_site_fract_z
 _atom_site_occupancy
  Tb  Tb0  1  0.187651  0.382617  0.250818  1
  Tb  Tb1  1  0.812349  0.617383  0.749182  1
  Tb  Tb2  1  0.615040  0.814522  0.252259  1
  Tb  Tb3  1  0.384960  0.185478  0.747741  1
  Tm  Tm4  1  0.197183  0.808415  0.251902  1
  Tm  Tm5  1  0.802817  0.191585  0.748098  1
  Al  Al6  1  0.335195  0.671380  0.030648  1
  Al  Al7  1  0.664805  0.328620  0.969352  1
  Al  Al8  1  0.669271  0.331305  0.528176  1
  Al  Al9  1  0.330729  0.668695  0.471824  1
  Al  Al10  1  0.157510  0.325421  0.575522  1
  Al  Al11  1  0.842490  0.674579  0.424478  1
  Al  Al12  1  0.673383  0.841060  0.575973  1
  Al  Al13  1  0.837260  0.676122  0.078155  1
  Al  Al14  1  0.326617  0.158940  0.424027  1
  Al  Al15  1  0.162740  0.323878  0.921845  1
  Al  Al16  1  0.163801  0.834702  0.575345  1
  Al  Al17  1  0.325739  0.158563  0.076570  1
  Al  Al18  1  0.836199  0.165298  0.424655  1
  Al  Al19  1  0.674261  0.841437  0.923430  1
  Al  Al20  1  0.831711  0.159756  0.076800  1
  Al  Al21  1  0.168289  0.840244  0.923200  1
  Al  Al22  1  0.560767  0.125394  0.249842  1
  Al  Al23  1  0.439233  0.874606  0.750158  1
  Al  Al24  1  0.874251  0.438388  0.252647  1
  Al  Al25  1  0.125749  0.561612  0.747353  1
  Al  Al26  1  0.562963  0.436533  0.249749  1
  Al  Al27  1  0.437037  0.563467  0.750251  1
  Al  Al28  1  0.000363  0.002113  0.250188  1
  Al  Al29  1  0.999637  0.997887  0.749812  1
  Os  Os30  1  0.500000  0.000000  0.000000  1
  Os  Os31  1  0.500000  0.000000  0.500000  1
  Os  Os32  1  0.000000  0.500000  0.500000  1
  Os  Os33  1  0.000000  0.000000  0.000000  1
  Os  Os34  1  0.000000  0.000000  0.500000  1
  Pt  Pt35  1  0.000000  0.500000  0.000000  1
  Pt  Pt36  1  0.500000  0.500000  0.000000  1
  Pt  Pt37  1  0.500000  0.500000  0.500000  1
