# generated using pymatgen
data_AsH2N7
_symmetry_space_group_name_H-M   'P 1'
_cell_length_a   3.08919683
_cell_length_b   6.48558365
_cell_length_c   10.05450616
_cell_angle_alpha   85.24616433
_cell_angle_beta   86.29306261
_cell_angle_gamma   89.91799319
_symmetry_Int_Tables_number   1
_chemical_formula_structural   AsH2N7
_chemical_formula_sum   'As1 H2 N7'
_cell_volume   200.32993644
_cell_formula_units_Z   1
loop_
 _symmetry_equiv_pos_site_id
 _symmetry_equiv_pos_as_xyz
  1  'x, y, z'
loop_
 _atom_site_type_symbol
 _atom_site_label
 _atom_site_symmetry_multiplicity
 _atom_site_fract_x
 _atom_site_fract_y
 _atom_site_fract_z
 _atom_site_occupancy
  As  As0  1  0.996607  0.303384  0.568482  1
  H  H1  1  0.874441  0.968560  0.470676  1
  H  H2  1  0.298211  0.101278  0.386113  1
  N  N3  1  0.536549  0.797932  0.859829  1
  N  N4  1  0.860963  0.211918  0.033123  1
  N  N5  1  0.494094  0.737628  0.231912  1
  N  N6  1  0.474037  0.565635  0.243314  1
  N  N7  1  0.581416  0.819345  0.748776  1
  N  N8  1  0.909173  0.325509  0.944156  1
  N  N9  1  0.022317  0.108233  0.447208  1
