# generated using pymatgen
data_Rb4TaInCl12
_symmetry_space_group_name_H-M   'P 1'
_cell_length_a   7.42368800
_cell_length_b   7.42368800
_cell_length_c   10.75357800
_cell_angle_alpha   90.00000000
_cell_angle_beta   90.00000000
_cell_angle_gamma   90.00000000
_symmetry_Int_Tables_number   1
_chemical_formula_structural   Rb4TaInCl12
_chemical_formula_sum   'Rb4 Ta1 In1 Cl12'
_cell_volume   592.64198053
_cell_formula_units_Z   1
loop_
 _symmetry_equiv_pos_site_id
 _symmetry_equiv_pos_as_xyz
  1  'x, y, z'
loop_
 _atom_site_type_symbol
 _atom_site_label
 _atom_site_symmetry_multiplicity
 _atom_site_fract_x
 _atom_site_fract_y
 _atom_site_fract_z
 _atom_site_occupancy
  Rb  Rb0  1  0.500000  0.000000  0.795032  1
  Rb  Rb1  1  0.000000  0.500000  0.204968  1
  Rb  Rb2  1  0.500000  0.000000  0.204968  1
  Rb  Rb3  1  0.000000  0.500000  0.795032  1
  Ta  Ta4  1  0.500000  0.500000  0.500000  1
  In  In5  1  0.000000  0.000000  0.000000  1
  Cl  Cl6  1  0.000000  0.000000  0.763151  1
  Cl  Cl7  1  0.500000  0.500000  0.278333  1
  Cl  Cl8  1  0.725567  0.725567  0.500000  1
  Cl  Cl9  1  0.243410  0.243410  0.000000  1
  Cl  Cl10  1  0.725567  0.274433  0.500000  1
  Cl  Cl11  1  0.243410  0.756590  0.000000  1
  Cl  Cl12  1  0.000000  0.000000  0.236849  1
  Cl  Cl13  1  0.500000  0.500000  0.721667  1
  Cl  Cl14  1  0.274433  0.274433  0.500000  1
  Cl  Cl15  1  0.756590  0.756590  0.000000  1
  Cl  Cl16  1  0.274433  0.725567  0.500000  1
  Cl  Cl17  1  0.756590  0.243410  0.000000  1
