# generated using pymatgen
data_Dy2Tm3IrOs
_symmetry_space_group_name_H-M   'P 1'
_cell_length_a   6.37677118
_cell_length_b   7.29660939
_cell_length_c   8.37642328
_cell_angle_alpha   96.92465158
_cell_angle_beta   112.37320100
_cell_angle_gamma   90.00000155
_symmetry_Int_Tables_number   1
_chemical_formula_structural   Dy2Tm3IrOs
_chemical_formula_sum   'Dy4 Tm6 Ir2 Os2'
_cell_volume   357.33030139
_cell_formula_units_Z   2
loop_
 _symmetry_equiv_pos_site_id
 _symmetry_equiv_pos_as_xyz
  1  'x, y, z'
loop_
 _atom_site_type_symbol
 _atom_site_label
 _atom_site_symmetry_multiplicity
 _atom_site_fract_x
 _atom_site_fract_y
 _atom_site_fract_z
 _atom_site_occupancy
  Dy  Dy0  1  0.969416  0.917369  0.182600  1
  Dy  Dy1  1  0.786815  0.582631  0.817400  1
  Dy  Dy2  1  0.025656  0.081319  0.813442  1
  Dy  Dy3  1  0.212216  0.418681  0.186558  1
  Tm  Tm4  1  0.649715  0.817272  0.439230  1
  Tm  Tm5  1  0.210486  0.682728  0.560770  1
  Tm  Tm6  1  0.353409  0.179385  0.562541  1
  Tm  Tm7  1  0.790867  0.320615  0.437459  1
  Tm  Tm8  1  0.423651  0.750000  0.000000  1
  Tm  Tm9  1  0.577144  0.250000  0.000000  1
  Ir  Ir10  1  0.177589  0.423771  0.778404  1
  Ir  Ir11  1  0.399184  0.076229  0.221596  1
  Os  Os12  1  0.821181  0.574883  0.218507  1
  Os  Os13  1  0.602674  0.925117  0.781493  1
