# generated using pymatgen
data_Dy13Tm7(Bi2Os)4
_symmetry_space_group_name_H-M   'P 1'
_cell_length_a   7.91540414
_cell_length_b   9.00301758
_cell_length_c   12.52955928
_cell_angle_alpha   89.96685823
_cell_angle_beta   90.01447399
_cell_angle_gamma   90.05680357
_symmetry_Int_Tables_number   1
_chemical_formula_structural   Dy13Tm7(Bi2Os)4
_chemical_formula_sum   'Dy13 Tm7 Bi8 Os4'
_cell_volume   892.88738513
_cell_formula_units_Z   1
loop_
 _symmetry_equiv_pos_site_id
 _symmetry_equiv_pos_as_xyz
  1  'x, y, z'
loop_
 _atom_site_type_symbol
 _atom_site_label
 _atom_site_symmetry_multiplicity
 _atom_site_fract_x
 _atom_site_fract_y
 _atom_site_fract_z
 _atom_site_occupancy
  Dy  Dy0  1  0.841794  0.750548  0.791766  1
  Dy  Dy1  1  0.158126  0.249893  0.208332  1
  Dy  Dy2  1  0.342221  0.250064  0.707685  1
  Dy  Dy3  1  0.657973  0.749930  0.291843  1
  Dy  Dy4  1  0.374751  0.749807  0.689965  1
  Dy  Dy5  1  0.625064  0.250103  0.309851  1
  Dy  Dy6  1  0.874156  0.249188  0.809558  1
  Dy  Dy7  1  0.124452  0.750956  0.190734  1
  Dy  Dy8  1  0.942411  0.750128  0.504923  1
  Dy  Dy9  1  0.057224  0.249990  0.494929  1
  Dy  Dy10  1  0.443468  0.248880  0.995212  1
  Dy  Dy11  1  0.558193  0.750742  0.004945  1
  Dy  Dy12  1  0.174812  0.540946  0.935680  1
  Tm  Tm13  1  0.672115  0.041334  0.564413  1
  Tm  Tm14  1  0.328032  0.958616  0.435462  1
  Tm  Tm15  1  0.171821  0.958462  0.935692  1
  Tm  Tm16  1  0.327815  0.541521  0.435556  1
  Tm  Tm17  1  0.827910  0.041847  0.064711  1
  Tm  Tm18  1  0.672309  0.458708  0.564199  1
  Tm  Tm19  1  0.827452  0.458473  0.064648  1
  Bi  Bi20  1  0.567840  0.494183  0.827350  1
  Bi  Bi21  1  0.433245  0.505602  0.172103  1
  Bi  Bi22  1  0.065842  0.505332  0.672243  1
  Bi  Bi23  1  0.433715  0.994522  0.172667  1
  Bi  Bi24  1  0.933742  0.494556  0.327613  1
  Bi  Bi25  1  0.565654  0.005283  0.827304  1
  Bi  Bi26  1  0.933339  0.005749  0.327866  1
  Bi  Bi27  1  0.066445  0.994563  0.672322  1
  Os  Os28  1  0.572734  0.749971  0.508660  1
  Os  Os29  1  0.427376  0.250067  0.491177  1
  Os  Os30  1  0.072189  0.249269  0.991428  1
  Os  Os31  1  0.925780  0.750767  0.009167  1
