# generated using pymatgen
data_Ba2YbTa5O15
_symmetry_space_group_name_H-M   'P 1'
_cell_length_a   9.25140500
_cell_length_b   9.25140522
_cell_length_c   4.00402600
_cell_angle_alpha   90.00000000
_cell_angle_beta   90.00000000
_cell_angle_gamma   111.43915118
_symmetry_Int_Tables_number   1
_chemical_formula_structural   Ba2YbTa5O15
_chemical_formula_sum   'Ba2 Yb1 Ta5 O15'
_cell_volume   318.98597388
_cell_formula_units_Z   1
loop_
 _symmetry_equiv_pos_site_id
 _symmetry_equiv_pos_as_xyz
  1  'x, y, z'
loop_
 _atom_site_type_symbol
 _atom_site_label
 _atom_site_symmetry_multiplicity
 _atom_site_fract_x
 _atom_site_fract_y
 _atom_site_fract_z
 _atom_site_occupancy
  Ba  Ba0  1  0.299261  0.700739  0.000000  1
  Ba  Ba1  1  0.700739  0.299261  0.000000  1
  Yb  Yb2  1  0.000000  0.000000  0.000000  1
  Ta  Ta3  1  0.313350  0.058670  0.500000  1
  Ta  Ta4  1  0.058670  0.313350  0.500000  1
  Ta  Ta5  1  0.686650  0.941330  0.500000  1
  Ta  Ta6  1  0.941330  0.686650  0.500000  1
  Ta  Ta7  1  0.500000  0.500000  0.500000  1
  O  O8  1  0.130715  0.130715  0.500000  1
  O  O9  1  0.168377  0.831623  0.500000  1
  O  O10  1  0.273754  0.465106  0.500000  1
  O  O11  1  0.831623  0.168377  0.500000  1
  O  O12  1  0.869285  0.869285  0.500000  1
  O  O13  1  0.295346  0.045218  0.000000  1
  O  O14  1  0.704654  0.954782  0.000000  1
  O  O15  1  0.534894  0.726246  0.500000  1
  O  O16  1  0.045218  0.295346  0.000000  1
  O  O17  1  0.500000  0.000000  0.500000  1
  O  O18  1  0.465106  0.273754  0.500000  1
  O  O19  1  0.954782  0.704654  0.000000  1
  O  O20  1  0.500000  0.500000  0.000000  1
  O  O21  1  0.726246  0.534894  0.500000  1
  O  O22  1  0.000000  0.500000  0.500000  1
