# generated using pymatgen
data_Nd2CoH8Rh
_symmetry_space_group_name_H-M   'P 1'
_cell_length_a   6.29071582
_cell_length_b   6.29071478
_cell_length_c   4.99549800
_cell_angle_alpha   90.00000000
_cell_angle_beta   90.00000000
_cell_angle_gamma   145.27503558
_symmetry_Int_Tables_number   1
_chemical_formula_structural   Nd2CoH8Rh
_chemical_formula_sum   'Nd2 Co1 H8 Rh1'
_cell_volume   112.61015720
_cell_formula_units_Z   1
loop_
 _symmetry_equiv_pos_site_id
 _symmetry_equiv_pos_as_xyz
  1  'x, y, z'
loop_
 _atom_site_type_symbol
 _atom_site_label
 _atom_site_symmetry_multiplicity
 _atom_site_fract_x
 _atom_site_fract_y
 _atom_site_fract_z
 _atom_site_occupancy
  Nd  Nd0  1  0.867797  0.132203  0.750000  1
  Nd  Nd1  1  0.134997  0.865003  0.250000  1
  Co  Co2  1  0.401391  0.598609  0.250000  1
  H  H3  1  0.089002  0.910998  0.750000  1
  H  H4  1  0.911914  0.088086  0.250000  1
  H  H5  1  0.694275  0.305725  0.500121  1
  H  H6  1  0.309754  0.690246  0.491043  1
  H  H7  1  0.694275  0.305725  0.999879  1
  H  H8  1  0.309754  0.690246  0.008957  1
  H  H9  1  0.496589  0.503411  0.008997  1
  H  H10  1  0.496589  0.503411  0.491003  1
  Rh  Rh11  1  0.593662  0.406338  0.750000  1
