# generated using pymatgen
data_Eu2Si4IrRh5
_symmetry_space_group_name_H-M   'P 1'
_cell_length_a   5.65960217
_cell_length_b   6.70688304
_cell_length_c   6.70688316
_cell_angle_alpha   64.49825457
_cell_angle_beta   65.09987061
_cell_angle_gamma   65.09987871
_symmetry_Int_Tables_number   1
_chemical_formula_structural   Eu2Si4IrRh5
_chemical_formula_sum   'Eu2 Si4 Ir1 Rh5'
_cell_volume   199.28023955
_cell_formula_units_Z   1
loop_
 _symmetry_equiv_pos_site_id
 _symmetry_equiv_pos_as_xyz
  1  'x, y, z'
loop_
 _atom_site_type_symbol
 _atom_site_label
 _atom_site_symmetry_multiplicity
 _atom_site_fract_x
 _atom_site_fract_y
 _atom_site_fract_z
 _atom_site_occupancy
  Eu  Eu0  1  0.528873  0.748688  0.750821  1
  Eu  Eu1  1  0.471127  0.249179  0.251312  1
  Si  Si2  1  0.224658  0.578437  0.576292  1
  Si  Si3  1  0.775342  0.423708  0.421563  1
  Si  Si4  1  0.120892  0.077973  0.078061  1
  Si  Si5  1  0.879108  0.921939  0.922027  1
  Ir  Ir6  1  0.500000  0.217126  0.782874  1
  Rh  Rh7  1  0.000000  0.717135  0.282865  1
  Rh  Rh8  1  0.500000  0.783740  0.216260  1
  Rh  Rh9  1  0.000000  0.283320  0.716680  1
  Rh  Rh10  1  0.000616  0.499708  0.000954  1
  Rh  Rh11  1  0.999384  0.999046  0.500292  1
