# generated using pymatgen
data_K4Zr6NCl18
_symmetry_space_group_name_H-M   'P 1'
_cell_length_a   10.13212068
_cell_length_b   10.13212108
_cell_length_c   9.90960889
_cell_angle_alpha   77.43466993
_cell_angle_beta   77.43467409
_cell_angle_gamma   117.72155840
_symmetry_Int_Tables_number   1
_chemical_formula_structural   K4Zr6NCl18
_chemical_formula_sum   'K4 Zr6 N1 Cl18'
_cell_volume   816.97831342
_cell_formula_units_Z   1
loop_
 _symmetry_equiv_pos_site_id
 _symmetry_equiv_pos_as_xyz
  1  'x, y, z'
loop_
 _atom_site_type_symbol
 _atom_site_label
 _atom_site_symmetry_multiplicity
 _atom_site_fract_x
 _atom_site_fract_y
 _atom_site_fract_z
 _atom_site_occupancy
  K  K0  1  0.771409  0.447824  0.677451  1
  K  K1  1  0.552176  0.228591  0.322549  1
  K  K2  1  0.228591  0.552176  0.322549  1
  K  K3  1  0.447824  0.771409  0.677451  1
  Zr  Zr4  1  0.126072  0.126072  0.140747  1
  Zr  Zr5  1  0.873928  0.873928  0.859253  1
  Zr  Zr6  1  0.948906  0.763755  0.149068  1
  Zr  Zr7  1  0.236245  0.051094  0.850932  1
  Zr  Zr8  1  0.051094  0.236245  0.850932  1
  Zr  Zr9  1  0.763755  0.948906  0.149068  1
  N  N10  1  0.000000  0.000000  0.000000  1
  Cl  Cl11  1  0.803026  0.592998  0.010593  1
  Cl  Cl12  1  0.407003  0.196974  0.989407  1
  Cl  Cl13  1  0.196974  0.407003  0.989407  1
  Cl  Cl14  1  0.592997  0.803026  0.010593  1
  Cl  Cl15  1  0.208394  0.791606  0.000000  1
  Cl  Cl16  1  0.791606  0.208394  0.000000  1
  Cl  Cl17  1  0.324868  0.324868  0.669167  1
  Cl  Cl18  1  0.675132  0.675132  0.330833  1
  Cl  Cl19  1  0.887711  0.490146  0.328895  1
  Cl  Cl20  1  0.509854  0.112289  0.671105  1
  Cl  Cl21  1  0.112289  0.509854  0.671105  1
  Cl  Cl22  1  0.490146  0.887711  0.328895  1
  Cl  Cl23  1  0.271947  0.271947  0.297674  1
  Cl  Cl24  1  0.728053  0.728053  0.702326  1
  Cl  Cl25  1  0.083053  0.875179  0.322079  1
  Cl  Cl26  1  0.124821  0.916947  0.677921  1
  Cl  Cl27  1  0.916947  0.124821  0.677921  1
  Cl  Cl28  1  0.875179  0.083053  0.322079  1
