# generated using pymatgen
data_La8Y12Si15Pt
_symmetry_space_group_name_H-M   'P 1'
_cell_length_a   7.56477725
_cell_length_b   7.94396530
_cell_length_c   14.98713500
_cell_angle_alpha   90.00000000
_cell_angle_beta   90.00000000
_cell_angle_gamma   90.11574533
_symmetry_Int_Tables_number   1
_chemical_formula_structural   La8Y12Si15Pt
_chemical_formula_sum   'La8 Y12 Si15 Pt1'
_cell_volume   900.63996818
_cell_formula_units_Z   1
loop_
 _symmetry_equiv_pos_site_id
 _symmetry_equiv_pos_as_xyz
  1  'x, y, z'
loop_
 _atom_site_type_symbol
 _atom_site_label
 _atom_site_symmetry_multiplicity
 _atom_site_fract_x
 _atom_site_fract_y
 _atom_site_fract_z
 _atom_site_occupancy
  La  La0  1  0.018757  0.181523  0.097681  1
  La  La1  1  0.985261  0.821627  0.903541  1
  La  La2  1  0.482654  0.677486  0.903713  1
  La  La3  1  0.985261  0.821627  0.596459  1
  La  La4  1  0.517774  0.322119  0.097300  1
  La  La5  1  0.018757  0.181523  0.402319  1
  La  La6  1  0.517774  0.322119  0.402700  1
  La  La7  1  0.482654  0.677486  0.596287  1
  Y  Y8  1  0.152921  0.510918  0.750000  1
  Y  Y9  1  0.841643  0.489309  0.250000  1
  Y  Y10  1  0.342376  0.011707  0.250000  1
  Y  Y11  1  0.662941  0.991638  0.750000  1
  Y  Y12  1  0.318018  0.173773  0.624825  1
  Y  Y13  1  0.678375  0.824975  0.375325  1
  Y  Y14  1  0.177644  0.678649  0.376292  1
  Y  Y15  1  0.678375  0.824975  0.124675  1
  Y  Y16  1  0.824703  0.320284  0.623974  1
  Y  Y17  1  0.318018  0.173773  0.875175  1
  Y  Y18  1  0.824703  0.320284  0.876026  1
  Y  Y19  1  0.177644  0.678649  0.123708  1
  Si  Si20  1  0.972580  0.885881  0.250000  1
  Si  Si21  1  0.470419  0.613968  0.250000  1
  Si  Si22  1  0.527770  0.390242  0.750000  1
  Si  Si23  1  0.278466  0.874141  0.750000  1
  Si  Si24  1  0.721575  0.122928  0.250000  1
  Si  Si25  1  0.222117  0.378691  0.250000  1
  Si  Si26  1  0.769725  0.617619  0.750000  1
  Si  Si27  1  0.148116  0.470800  0.538696  1
  Si  Si28  1  0.852880  0.532806  0.461649  1
  Si  Si29  1  0.354771  0.968496  0.461689  1
  Si  Si30  1  0.852880  0.532806  0.038351  1
  Si  Si31  1  0.647104  0.030737  0.538087  1
  Si  Si32  1  0.148116  0.470800  0.961304  1
  Si  Si33  1  0.647104  0.030737  0.961913  1
  Si  Si34  1  0.354771  0.968496  0.038311  1
  Pt  Pt35  1  0.025352  0.106406  0.750000  1
