# generated using pymatgen
data_Y17Er3Pb16
_symmetry_space_group_name_H-M   'P 1'
_cell_length_a   8.22169911
_cell_length_b   8.30293411
_cell_length_c   15.67056700
_cell_angle_alpha   90.00000000
_cell_angle_beta   90.00000000
_cell_angle_gamma   90.01868190
_symmetry_Int_Tables_number   1
_chemical_formula_structural   Y17Er3Pb16
_chemical_formula_sum   'Y17 Er3 Pb16'
_cell_volume   1069.73907005
_cell_formula_units_Z   1
loop_
 _symmetry_equiv_pos_site_id
 _symmetry_equiv_pos_as_xyz
  1  'x, y, z'
loop_
 _atom_site_type_symbol
 _atom_site_label
 _atom_site_symmetry_multiplicity
 _atom_site_fract_x
 _atom_site_fract_y
 _atom_site_fract_z
 _atom_site_occupancy
  Y  Y0  1  0.377544  0.841066  0.879308  1
  Y  Y1  1  0.876939  0.659401  0.620654  1
  Y  Y2  1  0.622718  0.159110  0.379176  1
  Y  Y3  1  0.122687  0.340847  0.120922  1
  Y  Y4  1  0.622718  0.159110  0.120824  1
  Y  Y5  1  0.122687  0.340847  0.379078  1
  Y  Y6  1  0.377544  0.841066  0.620692  1
  Y  Y7  1  0.876939  0.659401  0.879346  1
  Y  Y8  1  0.535143  0.323494  0.899909  1
  Y  Y9  1  0.034756  0.176072  0.600097  1
  Y  Y10  1  0.465087  0.676344  0.399780  1
  Y  Y11  1  0.965077  0.823665  0.100172  1
  Y  Y12  1  0.465087  0.676344  0.100220  1
  Y  Y13  1  0.965077  0.823665  0.399828  1
  Y  Y14  1  0.535143  0.323494  0.600091  1
  Y  Y15  1  0.034756  0.176072  0.899903  1
  Y  Y16  1  0.208883  0.503570  0.750000  1
  Er  Er17  1  0.708990  0.996274  0.750000  1
  Er  Er18  1  0.791078  0.496223  0.250000  1
  Er  Er19  1  0.290715  0.003736  0.250000  1
  Pb  Pb20  1  0.280912  0.032544  0.043040  1
  Pb  Pb21  1  0.780979  0.467495  0.456963  1
  Pb  Pb22  1  0.719055  0.967533  0.542959  1
  Pb  Pb23  1  0.219101  0.532655  0.957460  1
  Pb  Pb24  1  0.719055  0.967533  0.957041  1
  Pb  Pb25  1  0.219101  0.532655  0.542540  1
  Pb  Pb26  1  0.280912  0.032544  0.456960  1
  Pb  Pb27  1  0.780979  0.467495  0.043037  1
  Pb  Pb28  1  0.572720  0.626602  0.750000  1
  Pb  Pb29  1  0.071714  0.874381  0.750000  1
  Pb  Pb30  1  0.428092  0.373722  0.250000  1
  Pb  Pb31  1  0.928037  0.126223  0.250000  1
  Pb  Pb32  1  0.347204  0.151848  0.750000  1
  Pb  Pb33  1  0.846141  0.346857  0.750000  1
  Pb  Pb34  1  0.653238  0.847126  0.250000  1
  Pb  Pb35  1  0.153189  0.652984  0.250000  1
