# generated using pymatgen
data_Nb8Fe4Cu3Si14Ni
_symmetry_space_group_name_H-M   'P 1'
_cell_length_a   9.31759800
_cell_length_b   9.31769918
_cell_length_c   9.29542120
_cell_angle_alpha   94.20771601
_cell_angle_beta   94.20643856
_cell_angle_gamma   148.58913870
_symmetry_Int_Tables_number   1
_chemical_formula_structural   Nb8Fe4Cu3Si14Ni
_chemical_formula_sum   'Nb8 Fe4 Cu3 Si14 Ni1'
_cell_volume   404.85267766
_cell_formula_units_Z   1
loop_
 _symmetry_equiv_pos_site_id
 _symmetry_equiv_pos_as_xyz
  1  'x, y, z'
loop_
 _atom_site_type_symbol
 _atom_site_label
 _atom_site_symmetry_multiplicity
 _atom_site_fract_x
 _atom_site_fract_y
 _atom_site_fract_z
 _atom_site_occupancy
  Nb  Nb0  1  0.131998  0.132609  0.267467  1
  Nb  Nb1  1  0.867393  0.868006  0.732533  1
  Nb  Nb2  1  0.866387  0.133576  0.000011  1
  Nb  Nb3  1  0.133590  0.866463  0.000018  1
  Nb  Nb4  1  0.494948  0.684924  0.191089  1
  Nb  Nb5  1  0.492128  0.302012  0.808410  1
  Nb  Nb6  1  0.315109  0.505078  0.808913  1
  Nb  Nb7  1  0.697989  0.507866  0.191581  1
  Fe  Fe8  1  0.597216  0.402818  0.500006  1
  Fe  Fe9  1  0.904533  0.095410  0.500003  1
  Fe  Fe10  1  0.903446  0.402082  0.805428  1
  Fe  Fe11  1  0.597880  0.096516  0.194517  1
  Cu  Cu12  1  0.392678  0.894226  0.787630  1
  Cu  Cu13  1  0.105750  0.607317  0.212384  1
  Cu  Cu14  1  0.105814  0.894231  0.499994  1
  Si  Si15  1  0.300200  0.302622  0.585984  1
  Si  Si16  1  0.697389  0.699818  0.414026  1
  Si  Si17  1  0.705701  0.294414  0.999993  1
  Si  Si18  1  0.294413  0.705437  0.999978  1
  Si  Si19  1  0.978367  0.269039  0.293971  1
  Si  Si20  1  0.972273  0.681744  0.709619  1
  Si  Si21  1  0.730990  0.021643  0.706050  1
  Si  Si22  1  0.318261  0.027743  0.290377  1
  Si  Si23  1  0.543003  0.946247  0.408747  1
  Si  Si24  1  0.548612  0.141533  0.593108  1
  Si  Si25  1  0.053756  0.456995  0.591253  1
  Si  Si26  1  0.858441  0.451353  0.406873  1
  Si  Si27  1  0.750973  0.751017  0.999797  1
  Si  Si28  1  0.248984  0.249031  0.000204  1
  Ni  Ni29  1  0.391778  0.608227  0.500036  1
