# generated using pymatgen
data_Hf10CoSn6Ge
_symmetry_space_group_name_H-M   'P 1'
_cell_length_a   5.82569400
_cell_length_b   8.60800474
_cell_length_c   8.60800500
_cell_angle_alpha   119.99999714
_cell_angle_beta   90.00000000
_cell_angle_gamma   90.00000000
_symmetry_Int_Tables_number   1
_chemical_formula_structural   Hf10CoSn6Ge
_chemical_formula_sum   'Hf10 Co1 Sn6 Ge1'
_cell_volume   373.83789421
_cell_formula_units_Z   1
loop_
 _symmetry_equiv_pos_site_id
 _symmetry_equiv_pos_as_xyz
  1  'x, y, z'
loop_
 _atom_site_type_symbol
 _atom_site_label
 _atom_site_symmetry_multiplicity
 _atom_site_fract_x
 _atom_site_fract_y
 _atom_site_fract_z
 _atom_site_occupancy
  Hf  Hf0  1  0.737619  0.744954  0.744954  1
  Hf  Hf1  1  0.262381  0.255046  0.255046  1
  Hf  Hf2  1  0.737619  0.000000  0.255046  1
  Hf  Hf3  1  0.262381  0.000000  0.744954  1
  Hf  Hf4  1  0.737619  0.255046  0.000000  1
  Hf  Hf5  1  0.262381  0.744954  0.000000  1
  Hf  Hf6  1  0.000000  0.666667  0.333333  1
  Hf  Hf7  1  0.000000  0.333333  0.666667  1
  Hf  Hf8  1  0.500000  0.333333  0.666667  1
  Hf  Hf9  1  0.500000  0.666667  0.333333  1
  Co  Co10  1  0.500000  0.000000  0.000000  1
  Sn  Sn11  1  0.754266  0.393320  0.393320  1
  Sn  Sn12  1  0.245734  0.606680  0.606680  1
  Sn  Sn13  1  0.754266  0.000000  0.606680  1
  Sn  Sn14  1  0.245734  0.000000  0.393320  1
  Sn  Sn15  1  0.754266  0.606680  0.000000  1
  Sn  Sn16  1  0.245734  0.393320  0.000000  1
  Ge  Ge17  1  0.000000  0.000000  0.000000  1
