# generated using pymatgen
data_TbHoFe6(P3Rh2)2
_symmetry_space_group_name_H-M   'P 1'
_cell_length_a   3.76794600
_cell_length_b   10.33558800
_cell_length_c   12.18881000
_cell_angle_alpha   90.00000000
_cell_angle_beta   90.00000000
_cell_angle_gamma   90.00000000
_symmetry_Int_Tables_number   1
_chemical_formula_structural   TbHoFe6(P3Rh2)2
_chemical_formula_sum   'Tb2 Ho2 Fe12 P12 Rh8'
_cell_volume   474.68025438
_cell_formula_units_Z   2
loop_
 _symmetry_equiv_pos_site_id
 _symmetry_equiv_pos_as_xyz
  1  'x, y, z'
loop_
 _atom_site_type_symbol
 _atom_site_label
 _atom_site_symmetry_multiplicity
 _atom_site_fract_x
 _atom_site_fract_y
 _atom_site_fract_z
 _atom_site_occupancy
  Tb  Tb0  1  0.250000  0.580684  0.711416  1
  Tb  Tb1  1  0.250000  0.919316  0.211416  1
  Ho  Ho2  1  0.750000  0.419262  0.288513  1
  Ho  Ho3  1  0.750000  0.080738  0.788513  1
  Fe  Fe4  1  0.250000  0.224292  0.170781  1
  Fe  Fe5  1  0.250000  0.275708  0.670781  1
  Fe  Fe6  1  0.750000  0.776209  0.829276  1
  Fe  Fe7  1  0.750000  0.723791  0.329276  1
  Fe  Fe8  1  0.250000  0.877815  0.697176  1
  Fe  Fe9  1  0.250000  0.622185  0.197176  1
  Fe  Fe10  1  0.750000  0.122957  0.303001  1
  Fe  Fe11  1  0.750000  0.377043  0.803001  1
  Fe  Fe12  1  0.250000  0.458841  0.935474  1
  Fe  Fe13  1  0.250000  0.041159  0.435474  1
  Fe  Fe14  1  0.750000  0.540797  0.064875  1
  Fe  Fe15  1  0.750000  0.959203  0.564875  1
  P  P16  1  0.250000  0.429497  0.112860  1
  P  P17  1  0.250000  0.070503  0.612860  1
  P  P18  1  0.750000  0.570310  0.887731  1
  P  P19  1  0.750000  0.929690  0.387731  1
  P  P20  1  0.250000  0.273376  0.852794  1
  P  P21  1  0.250000  0.226624  0.352794  1
  P  P22  1  0.750000  0.726019  0.147015  1
  P  P23  1  0.750000  0.773981  0.647015  1
  P  P24  1  0.250000  0.605758  0.377648  1
  P  P25  1  0.250000  0.894242  0.877648  1
  P  P26  1  0.750000  0.393665  0.622168  1
  P  P27  1  0.750000  0.106335  0.122168  1
  Rh  Rh28  1  0.250000  0.707636  0.985094  1
  Rh  Rh29  1  0.250000  0.792364  0.485094  1
  Rh  Rh30  1  0.750000  0.292297  0.014916  1
  Rh  Rh31  1  0.750000  0.207703  0.514916  1
  Rh  Rh32  1  0.250000  0.404870  0.478486  1
  Rh  Rh33  1  0.250000  0.095130  0.978486  1
  Rh  Rh34  1  0.750000  0.595063  0.520777  1
  Rh  Rh35  1  0.750000  0.904937  0.020777  1
