# generated using pymatgen
data_Ho9Th3Co3Tc
_symmetry_space_group_name_H-M   'P 1'
_cell_length_a   6.29801369
_cell_length_b   7.03039071
_cell_length_c   9.55546000
_cell_angle_alpha   90.00000000
_cell_angle_beta   90.00000000
_cell_angle_gamma   89.04383214
_symmetry_Int_Tables_number   1
_chemical_formula_structural   Ho9Th3Co3Tc
_chemical_formula_sum   'Ho9 Th3 Co3 Tc1'
_cell_volume   423.03293698
_cell_formula_units_Z   1
loop_
 _symmetry_equiv_pos_site_id
 _symmetry_equiv_pos_as_xyz
  1  'x, y, z'
loop_
 _atom_site_type_symbol
 _atom_site_label
 _atom_site_symmetry_multiplicity
 _atom_site_fract_x
 _atom_site_fract_y
 _atom_site_fract_z
 _atom_site_occupancy
  Ho  Ho0  1  0.670430  0.169926  0.065862  1
  Ho  Ho1  1  0.826904  0.678117  0.433946  1
  Ho  Ho2  1  0.324082  0.828931  0.928974  1
  Ho  Ho3  1  0.170389  0.328692  0.570567  1
  Ho  Ho4  1  0.670430  0.169926  0.434138  1
  Ho  Ho5  1  0.170389  0.328692  0.929433  1
  Ho  Ho6  1  0.324082  0.828931  0.571026  1
  Ho  Ho7  1  0.645007  0.454861  0.750000  1
  Ho  Ho8  1  0.826904  0.678117  0.066054  1
  Th  Th9  1  0.359395  0.552716  0.250000  1
  Th  Th10  1  0.158763  0.046096  0.250000  1
  Th  Th11  1  0.836965  0.943251  0.750000  1
  Co  Co12  1  0.469404  0.113059  0.750000  1
  Co  Co13  1  0.531497  0.870181  0.250000  1
  Co  Co14  1  0.039371  0.633592  0.750000  1
  Tc  Tc15  1  0.975988  0.374915  0.250000  1
