# generated using pymatgen
data_Ho3Er(ReB6)2
_symmetry_space_group_name_H-M   'P 1'
_cell_length_a   3.66748700
_cell_length_b   9.14692812
_cell_length_c   11.52621704
_cell_angle_alpha   90.00444367
_cell_angle_beta   90.00000000
_cell_angle_gamma   90.00000000
_symmetry_Int_Tables_number   1
_chemical_formula_structural   Ho3Er(ReB6)2
_chemical_formula_sum   'Ho6 Er2 Re4 B24'
_cell_volume   386.66124159
_cell_formula_units_Z   2
loop_
 _symmetry_equiv_pos_site_id
 _symmetry_equiv_pos_as_xyz
  1  'x, y, z'
loop_
 _atom_site_type_symbol
 _atom_site_label
 _atom_site_symmetry_multiplicity
 _atom_site_fract_x
 _atom_site_fract_y
 _atom_site_fract_z
 _atom_site_occupancy
  Ho  Ho0  1  0.000000  0.323689  0.413777  1
  Ho  Ho1  1  0.000000  0.676311  0.586223  1
  Ho  Ho2  1  0.000000  0.823430  0.086176  1
  Ho  Ho3  1  0.000000  0.176570  0.913824  1
  Ho  Ho4  1  0.000000  0.943206  0.370277  1
  Ho  Ho5  1  0.000000  0.056794  0.629723  1
  Er  Er6  1  0.000000  0.443207  0.129566  1
  Er  Er7  1  0.000000  0.556793  0.870434  1
  Re  Re8  1  0.000000  0.638286  0.320484  1
  Re  Re9  1  0.000000  0.361714  0.679516  1
  Re  Re10  1  0.000000  0.138929  0.179047  1
  Re  Re11  1  0.000000  0.861071  0.820953  1
  B  B12  1  0.500000  0.552821  0.432872  1
  B  B13  1  0.500000  0.447179  0.567128  1
  B  B14  1  0.500000  0.053163  0.066921  1
  B  B15  1  0.500000  0.946837  0.933079  1
  B  B16  1  0.500000  0.748724  0.418797  1
  B  B17  1  0.500000  0.251276  0.581203  1
  B  B18  1  0.500000  0.249460  0.080983  1
  B  B19  1  0.500000  0.750540  0.919017  1
  B  B20  1  0.500000  0.792011  0.265507  1
  B  B21  1  0.500000  0.207989  0.734493  1
  B  B22  1  0.500000  0.292572  0.234114  1
  B  B23  1  0.500000  0.707428  0.765886  1
  B  B24  1  0.500000  0.630516  0.185216  1
  B  B25  1  0.500000  0.369484  0.814784  1
  B  B26  1  0.500000  0.131162  0.314381  1
  B  B27  1  0.500000  0.868838  0.685619  1
  B  B28  1  0.500000  0.982070  0.211981  1
  B  B29  1  0.500000  0.017930  0.788019  1
  B  B30  1  0.500000  0.481688  0.287618  1
  B  B31  1  0.500000  0.518312  0.712382  1
  B  B32  1  0.500000  0.599745  0.027967  1
  B  B33  1  0.500000  0.400255  0.972033  1
  B  B34  1  0.500000  0.100984  0.471765  1
  B  B35  1  0.500000  0.899016  0.528235  1
