# generated using pymatgen
data_V4S9I4
_symmetry_space_group_name_H-M   'P 1'
_cell_length_a   11.31717100
_cell_length_b   11.31717100
_cell_length_c   7.73662900
_cell_angle_alpha   90.00000000
_cell_angle_beta   90.00000000
_cell_angle_gamma   90.00000000
_symmetry_Int_Tables_number   1
_chemical_formula_structural   V4S9I4
_chemical_formula_sum   'V8 S18 I8'
_cell_volume   990.89474994
_cell_formula_units_Z   2
loop_
 _symmetry_equiv_pos_site_id
 _symmetry_equiv_pos_as_xyz
  1  'x, y, z'
loop_
 _atom_site_type_symbol
 _atom_site_label
 _atom_site_symmetry_multiplicity
 _atom_site_fract_x
 _atom_site_fract_y
 _atom_site_fract_z
 _atom_site_occupancy
  V  V0  1  0.630748  0.130748  0.374267  1
  V  V1  1  0.130748  0.630748  0.625733  1
  V  V2  1  0.369252  0.869252  0.374267  1
  V  V3  1  0.130748  0.369252  0.625733  1
  V  V4  1  0.869252  0.630748  0.625733  1
  V  V5  1  0.630748  0.869252  0.374267  1
  V  V6  1  0.369252  0.130748  0.374267  1
  V  V7  1  0.869252  0.369252  0.625733  1
  S  S8  1  0.000000  0.292558  0.838459  1
  S  S9  1  0.795679  0.000000  0.390264  1
  S  S10  1  0.204321  0.000000  0.390264  1
  S  S11  1  0.704321  0.500000  0.609736  1
  S  S12  1  0.792558  0.500000  0.838459  1
  S  S13  1  0.707442  0.000000  0.161541  1
  S  S14  1  0.500000  0.000000  0.513863  1
  S  S15  1  0.292558  0.000000  0.161541  1
  S  S16  1  0.500000  0.295679  0.390264  1
  S  S17  1  0.295679  0.500000  0.609736  1
  S  S18  1  0.500000  0.792558  0.161541  1
  S  S19  1  0.000000  0.795679  0.609736  1
  S  S20  1  0.000000  0.500000  0.486137  1
  S  S21  1  0.500000  0.704321  0.390264  1
  S  S22  1  0.500000  0.207442  0.161541  1
  S  S23  1  0.000000  0.204321  0.609736  1
  S  S24  1  0.207442  0.500000  0.838459  1
  S  S25  1  0.000000  0.707442  0.838459  1
  I  I26  1  0.304150  0.804150  0.716023  1
  I  I27  1  0.804150  0.695850  0.283977  1
  I  I28  1  0.695850  0.195850  0.716023  1
  I  I29  1  0.804150  0.304150  0.283977  1
  I  I30  1  0.195850  0.304150  0.283977  1
  I  I31  1  0.304150  0.195850  0.716023  1
  I  I32  1  0.695850  0.804150  0.716023  1
  I  I33  1  0.195850  0.695850  0.283977  1
