# generated using pymatgen
data_TlPt2F12
_symmetry_space_group_name_H-M   'P 1'
_cell_length_a   5.34209614
_cell_length_b   5.81539484
_cell_length_c   8.82301370
_cell_angle_alpha   105.75829789
_cell_angle_beta   90.96653502
_cell_angle_gamma   117.18251692
_symmetry_Int_Tables_number   1
_chemical_formula_structural   TlPt2F12
_chemical_formula_sum   'Tl1 Pt2 F12'
_cell_volume   231.46117556
_cell_formula_units_Z   1
loop_
 _symmetry_equiv_pos_site_id
 _symmetry_equiv_pos_as_xyz
  1  'x, y, z'
loop_
 _atom_site_type_symbol
 _atom_site_label
 _atom_site_symmetry_multiplicity
 _atom_site_fract_x
 _atom_site_fract_y
 _atom_site_fract_z
 _atom_site_occupancy
  Tl  Tl0  1  0.000000  0.000000  0.000000  1
  Pt  Pt1  1  0.761003  0.504246  0.252370  1
  Pt  Pt2  1  0.238997  0.495754  0.747630  1
  F  F3  1  0.836332  0.269740  0.715862  1
  F  F4  1  0.163668  0.730260  0.284138  1
  F  F5  1  0.218587  0.740483  0.952312  1
  F  F6  1  0.727966  0.734214  0.440593  1
  F  F7  1  0.272034  0.265786  0.559407  1
  F  F8  1  0.794294  0.273077  0.358754  1
  F  F9  1  0.205706  0.726923  0.641246  1
  F  F10  1  0.333599  0.266690  0.216089  1
  F  F11  1  0.666401  0.733310  0.783911  1
  F  F12  1  0.710271  0.732376  0.130623  1
  F  F13  1  0.289729  0.267624  0.869377  1
  F  F14  1  0.781413  0.259517  0.047688  1
