# generated using pymatgen
data_Nb4Al4V3Co
_symmetry_space_group_name_H-M   'P 1'
_cell_length_a   4.92153385
_cell_length_b   4.92695194
_cell_length_c   8.47554100
_cell_angle_alpha   90.00000000
_cell_angle_beta   90.00000000
_cell_angle_gamma   61.96684384
_symmetry_Int_Tables_number   1
_chemical_formula_structural   Nb4Al4V3Co
_chemical_formula_sum   'Nb4 Al4 V3 Co1'
_cell_volume   181.40424081
_cell_formula_units_Z   1
loop_
 _symmetry_equiv_pos_site_id
 _symmetry_equiv_pos_as_xyz
  1  'x, y, z'
loop_
 _atom_site_type_symbol
 _atom_site_label
 _atom_site_symmetry_multiplicity
 _atom_site_fract_x
 _atom_site_fract_y
 _atom_site_fract_z
 _atom_site_occupancy
  Nb  Nb0  1  0.338253  0.338173  0.560221  1
  Nb  Nb1  1  0.662165  0.662051  0.439062  1
  Nb  Nb2  1  0.662165  0.662051  0.060938  1
  Nb  Nb3  1  0.338253  0.338173  0.939779  1
  Al  Al4  1  0.991931  0.992393  0.505346  1
  Al  Al5  1  0.991931  0.992393  0.994654  1
  Al  Al6  1  0.838641  0.352281  0.750000  1
  Al  Al7  1  0.352264  0.838683  0.750000  1
  V  V8  1  0.163816  0.653134  0.250000  1
  V  V9  1  0.653302  0.163738  0.250000  1
  V  V10  1  0.167923  0.167566  0.250000  1
  Co  Co11  1  0.839357  0.839365  0.750000  1
