# generated using pymatgen
data_LaTh3(Ga5Ir3)2
_symmetry_space_group_name_H-M   'P 1'
_cell_length_a   8.70156035
_cell_length_b   8.66341446
_cell_length_c   8.66341325
_cell_angle_alpha   140.58454113
_cell_angle_beta   108.13769692
_cell_angle_gamma   85.13196422
_symmetry_Int_Tables_number   1
_chemical_formula_structural   LaTh3(Ga5Ir3)2
_chemical_formula_sum   'La1 Th3 Ga10 Ir6'
_cell_volume   380.73465940
_cell_formula_units_Z   1
loop_
 _symmetry_equiv_pos_site_id
 _symmetry_equiv_pos_as_xyz
  1  'x, y, z'
loop_
 _atom_site_type_symbol
 _atom_site_label
 _atom_site_symmetry_multiplicity
 _atom_site_fract_x
 _atom_site_fract_y
 _atom_site_fract_z
 _atom_site_occupancy
  La  La0  1  0.363630  0.636371  0.727260  1
  Th  Th1  1  0.086388  0.861423  0.224964  1
  Th  Th2  1  0.635706  0.360305  0.275400  1
  Th  Th3  1  0.911871  0.138142  0.773730  1
  Ga  Ga4  1  0.292983  0.040442  0.749354  1
  Ga  Ga5  1  0.292983  0.543629  0.252541  1
  Ga  Ga6  1  0.001151  0.253012  0.252451  1
  Ga  Ga7  1  0.244135  0.408378  0.835757  1
  Ga  Ga8  1  0.755309  0.591511  0.163798  1
  Ga  Ga9  1  0.706692  0.457415  0.748289  1
  Ga  Ga10  1  0.574497  0.906934  0.667561  1
  Ga  Ga11  1  0.706692  0.958403  0.249277  1
  Ga  Ga12  1  0.426039  0.093143  0.332897  1
  Ga  Ga13  1  0.001151  0.748700  0.748138  1
  Ir  Ir14  1  0.045279  0.650374  0.394905  1
  Ir  Ir15  1  0.755874  0.853669  0.902205  1
  Ir  Ir16  1  0.953600  0.350640  0.602960  1
  Ir  Ir17  1  0.245262  0.149039  0.096223  1
  Ir  Ir18  1  0.500379  0.750681  0.252592  1
  Ir  Ir19  1  0.500379  0.247787  0.749697  1
