# generated using pymatgen
data_U4Ga4Tc7As2
_symmetry_space_group_name_H-M   'P 1'
_cell_length_a   7.22954346
_cell_length_b   7.22153085
_cell_length_c   7.22152990
_cell_angle_alpha   109.54096904
_cell_angle_beta   109.41394725
_cell_angle_gamma   109.41395212
_symmetry_Int_Tables_number   1
_chemical_formula_structural   U4Ga4Tc7As2
_chemical_formula_sum   'U4 Ga4 Tc7 As2'
_cell_volume   290.39342806
_cell_formula_units_Z   1
loop_
 _symmetry_equiv_pos_site_id
 _symmetry_equiv_pos_as_xyz
  1  'x, y, z'
loop_
 _atom_site_type_symbol
 _atom_site_label
 _atom_site_symmetry_multiplicity
 _atom_site_fract_x
 _atom_site_fract_y
 _atom_site_fract_z
 _atom_site_occupancy
  U  U0  1  0.511912  0.510695  0.510695  1
  U  U1  1  0.003084  0.501542  0.001542  1
  U  U2  1  0.511912  0.001217  0.001217  1
  U  U3  1  0.003084  0.001542  0.501542  1
  Ga  Ga4  1  0.301136  0.296141  0.004994  1
  Ga  Ga5  1  0.008584  0.697073  0.697073  1
  Ga  Ga6  1  0.008584  0.311511  0.311511  1
  Ga  Ga7  1  0.301136  0.004994  0.296141  1
  Tc  Tc8  1  0.498407  0.749204  0.249204  1
  Tc  Tc9  1  0.751054  0.251889  0.499165  1
  Tc  Tc10  1  0.251766  0.753292  0.498473  1
  Tc  Tc11  1  0.251766  0.498473  0.753292  1
  Tc  Tc12  1  0.970468  0.985234  0.985234  1
  Tc  Tc13  1  0.498407  0.249204  0.749204  1
  Tc  Tc14  1  0.751054  0.499165  0.251889  1
  As  As15  1  0.688824  0.003959  0.684864  1
  As  As16  1  0.688824  0.684864  0.003959  1
