# generated using pymatgen
data_Nd3Er4Tm(CdIr)2
_symmetry_space_group_name_H-M   'P 1'
_cell_length_a   9.69063387
_cell_length_b   9.69063443
_cell_length_c   9.68891300
_cell_angle_alpha   60.00587948
_cell_angle_beta   60.00587758
_cell_angle_gamma   59.98824580
_symmetry_Int_Tables_number   1
_chemical_formula_structural   Nd3Er4Tm(CdIr)2
_chemical_formula_sum   'Nd6 Er8 Tm2 Cd4 Ir4'
_cell_volume   643.37537832
_cell_formula_units_Z   2
loop_
 _symmetry_equiv_pos_site_id
 _symmetry_equiv_pos_as_xyz
  1  'x, y, z'
loop_
 _atom_site_type_symbol
 _atom_site_label
 _atom_site_symmetry_multiplicity
 _atom_site_fract_x
 _atom_site_fract_y
 _atom_site_fract_z
 _atom_site_occupancy
  Nd  Nd0  1  0.941075  0.558925  0.558925  1
  Nd  Nd1  1  0.558925  0.941075  0.941075  1
  Nd  Nd2  1  0.558925  0.941075  0.558925  1
  Nd  Nd3  1  0.941075  0.558925  0.941075  1
  Nd  Nd4  1  0.558895  0.558895  0.941105  1
  Nd  Nd5  1  0.941105  0.941105  0.558895  1
  Er  Er6  1  0.347045  0.347045  0.347278  1
  Er  Er7  1  0.347045  0.347045  0.958632  1
  Er  Er8  1  0.347278  0.958632  0.347045  1
  Er  Er9  1  0.958632  0.347278  0.347045  1
  Er  Er10  1  0.813351  0.186649  0.186649  1
  Er  Er11  1  0.186649  0.813351  0.813351  1
  Er  Er12  1  0.186649  0.813351  0.186649  1
  Er  Er13  1  0.813351  0.186649  0.813351  1
  Tm  Tm14  1  0.186797  0.186797  0.813203  1
  Tm  Tm15  1  0.813203  0.813203  0.186797  1
  Cd  Cd16  1  0.579364  0.579364  0.579256  1
  Cd  Cd17  1  0.579364  0.579364  0.262014  1
  Cd  Cd18  1  0.579256  0.262014  0.579364  1
  Cd  Cd19  1  0.262014  0.579256  0.579364  1
  Ir  Ir20  1  0.141294  0.141294  0.140803  1
  Ir  Ir21  1  0.141294  0.141294  0.576609  1
  Ir  Ir22  1  0.140803  0.576609  0.141294  1
  Ir  Ir23  1  0.576609  0.140803  0.141294  1
