# generated using pymatgen
data_HoThMn12P7
_symmetry_space_group_name_H-M   'P 1'
_cell_length_a   9.32222000
_cell_length_b   9.32221934
_cell_length_c   3.63092900
_cell_angle_alpha   90.00000000
_cell_angle_beta   90.00000000
_cell_angle_gamma   120.00000944
_symmetry_Int_Tables_number   1
_chemical_formula_structural   HoThMn12P7
_chemical_formula_sum   'Ho1 Th1 Mn12 P7'
_cell_volume   273.26688865
_cell_formula_units_Z   1
loop_
 _symmetry_equiv_pos_site_id
 _symmetry_equiv_pos_as_xyz
  1  'x, y, z'
loop_
 _atom_site_type_symbol
 _atom_site_label
 _atom_site_symmetry_multiplicity
 _atom_site_fract_x
 _atom_site_fract_y
 _atom_site_fract_z
 _atom_site_occupancy
  Ho  Ho0  1  0.666667  0.333333  0.000000  1
  Th  Th1  1  0.333333  0.666667  0.500000  1
  Mn  Mn2  1  0.048268  0.426274  0.000000  1
  Mn  Mn3  1  0.573726  0.621995  0.000000  1
  Mn  Mn4  1  0.378005  0.951732  0.000000  1
  Mn  Mn5  1  0.275868  0.152674  0.000000  1
  Mn  Mn6  1  0.847326  0.123194  0.000000  1
  Mn  Mn7  1  0.876806  0.724132  0.000000  1
  Mn  Mn8  1  0.438866  0.391570  0.500000  1
  Mn  Mn9  1  0.608430  0.047296  0.500000  1
  Mn  Mn10  1  0.952704  0.561134  0.500000  1
  Mn  Mn11  1  0.103337  0.226903  0.500000  1
  Mn  Mn12  1  0.773097  0.876435  0.500000  1
  Mn  Mn13  1  0.123565  0.896663  0.500000  1
  P  P14  1  0.289725  0.401969  0.000000  1
  P  P15  1  0.598031  0.887756  0.000000  1
  P  P16  1  0.112244  0.710275  0.000000  1
  P  P17  1  0.408591  0.127425  0.500000  1
  P  P18  1  0.872575  0.281166  0.500000  1
  P  P19  1  0.718834  0.591409  0.500000  1
  P  P20  1  0.000000  0.000000  0.000000  1
