# generated using pymatgen
data_PrHoFe5Co3B8
_symmetry_space_group_name_H-M   'P 1'
_cell_length_a   7.01798009
_cell_length_b   7.00686977
_cell_length_c   3.81051204
_cell_angle_alpha   89.97031749
_cell_angle_beta   90.07360030
_cell_angle_gamma   89.92694639
_symmetry_Int_Tables_number   1
_chemical_formula_structural   PrHoFe5Co3B8
_chemical_formula_sum   'Pr1 Ho1 Fe5 Co3 B8'
_cell_volume   187.37806329
_cell_formula_units_Z   1
loop_
 _symmetry_equiv_pos_site_id
 _symmetry_equiv_pos_as_xyz
  1  'x, y, z'
loop_
 _atom_site_type_symbol
 _atom_site_label
 _atom_site_symmetry_multiplicity
 _atom_site_fract_x
 _atom_site_fract_y
 _atom_site_fract_z
 _atom_site_occupancy
  Pr  Pr0  1  0.500955  0.501369  0.497121  1
  Ho  Ho1  1  0.999083  0.000222  0.996844  1
  Fe  Fe2  1  0.870099  0.384333  0.106570  1
  Fe  Fe3  1  0.130788  0.615879  0.106741  1
  Fe  Fe4  1  0.887311  0.635140  0.607501  1
  Fe  Fe5  1  0.113193  0.365139  0.606128  1
  Fe  Fe6  1  0.635732  0.113202  0.391917  1
  Co  Co7  1  0.359168  0.886924  0.392577  1
  Co  Co8  1  0.614998  0.864661  0.892451  1
  Co  Co9  1  0.382305  0.133274  0.892167  1
  B  B10  1  0.332469  0.801586  0.897934  1
  B  B11  1  0.668517  0.197465  0.895639  1
  B  B12  1  0.294678  0.163768  0.394579  1
  B  B13  1  0.713510  0.841901  0.395912  1
  B  B14  1  0.162325  0.703263  0.608335  1
  B  B15  1  0.836468  0.292823  0.606104  1
  B  B16  1  0.192124  0.331790  0.105342  1
  B  B17  1  0.806278  0.667259  0.106142  1
