# generated using pymatgen
data_U3Ga2SnIr3
_symmetry_space_group_name_H-M   'P 1'
_cell_length_a   7.08352918
_cell_length_b   7.18220749
_cell_length_c   4.05634000
_cell_angle_alpha   90.00000000
_cell_angle_beta   90.00000000
_cell_angle_gamma   120.46190639
_symmetry_Int_Tables_number   1
_chemical_formula_structural   U3Ga2SnIr3
_chemical_formula_sum   'U3 Ga2 Sn1 Ir3'
_cell_volume   177.88213293
_cell_formula_units_Z   1
loop_
 _symmetry_equiv_pos_site_id
 _symmetry_equiv_pos_as_xyz
  1  'x, y, z'
loop_
 _atom_site_type_symbol
 _atom_site_label
 _atom_site_symmetry_multiplicity
 _atom_site_fract_x
 _atom_site_fract_y
 _atom_site_fract_z
 _atom_site_occupancy
  U  U0  1  0.429012  0.421898  0.500000  1
  U  U1  1  0.570988  0.992885  0.500000  1
  U  U2  1  0.000000  0.591536  0.500000  1
  Ga  Ga3  1  0.754348  0.752796  0.000000  1
  Ga  Ga4  1  0.245652  0.998448  0.000000  1
  Sn  Sn5  1  0.000000  0.244416  0.000000  1
  Ir  Ir6  1  0.659552  0.336834  0.000000  1
  Ir  Ir7  1  0.340448  0.677283  0.000000  1
  Ir  Ir8  1  0.000000  0.983905  0.500000  1
