# generated using pymatgen
data_Tb8In4Cu5Pd3
_symmetry_space_group_name_H-M   'P 1'
_cell_length_a   7.69410725
_cell_length_b   7.70510131
_cell_length_c   7.38171116
_cell_angle_alpha   89.98917801
_cell_angle_beta   89.96510253
_cell_angle_gamma   90.07464162
_symmetry_Int_Tables_number   1
_chemical_formula_structural   Tb8In4Cu5Pd3
_chemical_formula_sum   'Tb8 In4 Cu5 Pd3'
_cell_volume   437.61598769
_cell_formula_units_Z   1
loop_
 _symmetry_equiv_pos_site_id
 _symmetry_equiv_pos_as_xyz
  1  'x, y, z'
loop_
 _atom_site_type_symbol
 _atom_site_label
 _atom_site_symmetry_multiplicity
 _atom_site_fract_x
 _atom_site_fract_y
 _atom_site_fract_z
 _atom_site_occupancy
  Tb  Tb0  1  0.175976  0.172719  0.000226  1
  Tb  Tb1  1  0.829429  0.824477  0.001660  1
  Tb  Tb2  1  0.670448  0.327198  0.500215  1
  Tb  Tb3  1  0.325235  0.673862  0.499764  1
  Tb  Tb4  1  0.674108  0.323507  0.999781  1
  Tb  Tb5  1  0.322233  0.676598  0.000166  1
  Tb  Tb6  1  0.825974  0.820906  0.498676  1
  Tb  Tb7  1  0.178947  0.175353  0.499742  1
  In  In8  1  0.504510  0.999984  0.249863  1
  In  In9  1  0.504669  0.997516  0.750300  1
  In  In10  1  0.998480  0.496236  0.250224  1
  In  In11  1  0.995370  0.496130  0.749978  1
  Cu  Cu12  1  0.381147  0.381918  0.246797  1
  Cu  Cu13  1  0.623886  0.625550  0.754489  1
  Cu  Cu14  1  0.618233  0.617927  0.245555  1
  Cu  Cu15  1  0.875729  0.124196  0.745081  1
  Cu  Cu16  1  0.875458  0.124688  0.254853  1
  Pd  Pd17  1  0.378844  0.380420  0.752720  1
  Pd  Pd18  1  0.120230  0.880160  0.252798  1
  Pd  Pd19  1  0.121093  0.880656  0.747115  1
