# generated using pymatgen
data_Hf6Ti2Al15Ir7
_symmetry_space_group_name_H-M   'P 1'
_cell_length_a   8.79280428
_cell_length_b   8.79243388
_cell_length_c   8.79292117
_cell_angle_alpha   120.22561223
_cell_angle_beta   119.75033177
_cell_angle_gamma   90.02213095
_symmetry_Int_Tables_number   1
_chemical_formula_structural   Hf6Ti2Al15Ir7
_chemical_formula_sum   'Hf6 Ti2 Al15 Ir7'
_cell_volume   480.75214733
_cell_formula_units_Z   1
loop_
 _symmetry_equiv_pos_site_id
 _symmetry_equiv_pos_as_xyz
  1  'x, y, z'
loop_
 _atom_site_type_symbol
 _atom_site_label
 _atom_site_symmetry_multiplicity
 _atom_site_fract_x
 _atom_site_fract_y
 _atom_site_fract_z
 _atom_site_occupancy
  Hf  Hf0  1  0.794878  0.291828  0.078185  1
  Hf  Hf1  1  0.213639  0.291832  0.496950  1
  Hf  Hf2  1  0.205341  0.705334  0.499993  1
  Hf  Hf3  1  0.213661  0.716682  0.921834  1
  Hf  Hf4  1  0.794858  0.716691  0.503030  1
  Hf  Hf5  1  0.784045  0.284029  0.500005  1
  Ti  Ti6  1  0.379809  0.123215  0.743416  1
  Ti  Ti7  1  0.379790  0.636399  0.256615  1
  Al  Al8  1  0.994863  0.494867  0.500005  1
  Al  Al9  1  0.160848  0.338583  0.177725  1
  Al  Al10  1  0.160841  0.983119  0.822281  1
  Al  Al11  1  0.156788  0.341799  0.815013  1
  Al  Al12  1  0.526783  0.341791  0.185003  1
  Al  Al13  1  0.839701  0.658895  0.819194  1
  Al  Al14  1  0.839709  0.020515  0.180809  1
  Al  Al15  1  0.838418  0.660226  0.178191  1
  Al  Al16  1  0.482033  0.660225  0.821806  1
  Al  Al17  1  0.380086  0.121508  0.258566  1
  Al  Al18  1  0.862945  0.121507  0.741428  1
  Al  Al19  1  0.620142  0.876644  0.256495  1
  Al  Al20  1  0.620164  0.363670  0.743507  1
  Al  Al21  1  0.618494  0.877664  0.740824  1
  Al  Al22  1  0.136837  0.877657  0.259162  1
  Ir  Ir23  1  0.000970  0.000455  0.501896  1
  Ir  Ir24  1  0.498542  0.000451  0.999479  1
  Ir  Ir25  1  0.497882  0.497910  0.000030  1
  Ir  Ir26  1  0.498537  0.499078  0.498060  1
  Ir  Ir27  1  0.001009  0.499070  0.000533  1
  Ir  Ir28  1  0.999881  0.999875  0.999991  1
  Ir  Ir29  1  0.498497  0.998472  0.499971  1
