# generated using pymatgen
data_Cs5ZrSb3
_symmetry_space_group_name_H-M   'P 1'
_cell_length_a   9.64165100
_cell_length_b   10.32192353
_cell_length_c   20.18348831
_cell_angle_alpha   60.36115306
_cell_angle_beta   90.00000000
_cell_angle_gamma   90.00000000
_symmetry_Int_Tables_number   1
_chemical_formula_structural   Cs5ZrSb3
_chemical_formula_sum   'Cs20 Zr4 Sb12'
_cell_volume   1745.85399106
_cell_formula_units_Z   4
loop_
 _symmetry_equiv_pos_site_id
 _symmetry_equiv_pos_as_xyz
  1  'x, y, z'
loop_
 _atom_site_type_symbol
 _atom_site_label
 _atom_site_symmetry_multiplicity
 _atom_site_fract_x
 _atom_site_fract_y
 _atom_site_fract_z
 _atom_site_occupancy
  Cs  Cs0  1  0.179862  0.156079  0.260294  1
  Cs  Cs1  1  0.679862  0.843921  0.239706  1
  Cs  Cs2  1  0.820138  0.843921  0.739706  1
  Cs  Cs3  1  0.320138  0.156079  0.760294  1
  Cs  Cs4  1  0.167224  0.838534  0.579852  1
  Cs  Cs5  1  0.667224  0.161466  0.920148  1
  Cs  Cs6  1  0.832776  0.161466  0.420148  1
  Cs  Cs7  1  0.332776  0.838534  0.079852  1
  Cs  Cs8  1  0.003764  0.909527  0.909182  1
  Cs  Cs9  1  0.503764  0.090473  0.590818  1
  Cs  Cs10  1  0.996236  0.090473  0.090818  1
  Cs  Cs11  1  0.496236  0.909527  0.409182  1
  Cs  Cs12  1  0.512881  0.730414  0.921004  1
  Cs  Cs13  1  0.012881  0.269586  0.578996  1
  Cs  Cs14  1  0.487119  0.269586  0.078996  1
  Cs  Cs15  1  0.987119  0.730414  0.421004  1
  Cs  Cs16  1  0.984931  0.455176  0.747609  1
  Cs  Cs17  1  0.484931  0.544824  0.752391  1
  Cs  Cs18  1  0.015069  0.544824  0.252391  1
  Cs  Cs19  1  0.515069  0.455176  0.247609  1
  Zr  Zr20  1  0.372517  0.505661  0.421248  1
  Zr  Zr21  1  0.872517  0.494339  0.078752  1
  Zr  Zr22  1  0.627483  0.494339  0.578752  1
  Zr  Zr23  1  0.127483  0.505661  0.921248  1
  Sb  Sb24  1  0.253069  0.253944  0.923753  1
  Sb  Sb25  1  0.753069  0.746056  0.576247  1
  Sb  Sb26  1  0.746931  0.746056  0.076247  1
  Sb  Sb27  1  0.246931  0.253944  0.423753  1
  Sb  Sb28  1  0.172397  0.511541  0.062284  1
  Sb  Sb29  1  0.672397  0.488459  0.437716  1
  Sb  Sb30  1  0.827603  0.488459  0.937716  1
  Sb  Sb31  1  0.327603  0.511541  0.562284  1
  Sb  Sb32  1  0.298107  0.771015  0.286072  1
  Sb  Sb33  1  0.798107  0.228985  0.213928  1
  Sb  Sb34  1  0.701893  0.228985  0.713928  1
  Sb  Sb35  1  0.201893  0.771015  0.786072  1
