# generated using pymatgen
data_Tb8Al2IrPt
_symmetry_space_group_name_H-M   'P 1'
_cell_length_a   9.62141641
_cell_length_b   9.62141735
_cell_length_c   9.57688600
_cell_angle_alpha   60.15298708
_cell_angle_beta   60.15298384
_cell_angle_gamma   60.36024697
_symmetry_Int_Tables_number   1
_chemical_formula_structural   Tb8Al2IrPt
_chemical_formula_sum   'Tb16 Al4 Ir2 Pt2'
_cell_volume   630.03069751
_cell_formula_units_Z   2
loop_
 _symmetry_equiv_pos_site_id
 _symmetry_equiv_pos_as_xyz
  1  'x, y, z'
loop_
 _atom_site_type_symbol
 _atom_site_label
 _atom_site_symmetry_multiplicity
 _atom_site_fract_x
 _atom_site_fract_y
 _atom_site_fract_z
 _atom_site_occupancy
  Tb  Tb0  1  0.602296  0.602296  0.597625  1
  Tb  Tb1  1  0.602296  0.602296  0.197784  1
  Tb  Tb2  1  0.607545  0.187587  0.602434  1
  Tb  Tb3  1  0.187587  0.607545  0.602434  1
  Tb  Tb4  1  0.052665  0.445173  0.442807  1
  Tb  Tb5  1  0.445173  0.052665  0.059355  1
  Tb  Tb6  1  0.445173  0.052665  0.442807  1
  Tb  Tb7  1  0.052665  0.445173  0.059355  1
  Tb  Tb8  1  0.444597  0.444597  0.055403  1
  Tb  Tb9  1  0.057006  0.057006  0.442994  1
  Tb  Tb10  1  0.188158  0.815075  0.810587  1
  Tb  Tb11  1  0.815075  0.188158  0.186181  1
  Tb  Tb12  1  0.815075  0.188158  0.810587  1
  Tb  Tb13  1  0.188158  0.815075  0.186181  1
  Tb  Tb14  1  0.813671  0.813671  0.186329  1
  Tb  Tb15  1  0.187807  0.187807  0.812193  1
  Al  Al16  1  0.826714  0.826714  0.826988  1
  Al  Al17  1  0.826714  0.826714  0.519585  1
  Al  Al18  1  0.825961  0.519810  0.827115  1
  Al  Al19  1  0.519810  0.825961  0.827115  1
  Ir  Ir20  1  0.389378  0.824077  0.393272  1
  Ir  Ir21  1  0.824077  0.389378  0.393272  1
  Pt  Pt22  1  0.391200  0.391200  0.396044  1
  Pt  Pt23  1  0.391200  0.391200  0.821558  1
