# generated using pymatgen
data_NdYTm2(WO6)2
_symmetry_space_group_name_H-M   'P 1'
_cell_length_a   5.43946300
_cell_length_b   7.74600366
_cell_length_c   11.46479587
_cell_angle_alpha   75.64219458
_cell_angle_beta   90.00000000
_cell_angle_gamma   90.00000000
_symmetry_Int_Tables_number   1
_chemical_formula_structural   NdYTm2(WO6)2
_chemical_formula_sum   'Nd2 Y2 Tm4 W4 O24'
_cell_volume   467.97101943
_cell_formula_units_Z   2
loop_
 _symmetry_equiv_pos_site_id
 _symmetry_equiv_pos_as_xyz
  1  'x, y, z'
loop_
 _atom_site_type_symbol
 _atom_site_label
 _atom_site_symmetry_multiplicity
 _atom_site_fract_x
 _atom_site_fract_y
 _atom_site_fract_z
 _atom_site_occupancy
  Nd  Nd0  1  0.685218  0.500000  0.750000  1
  Nd  Nd1  1  0.314782  0.500000  0.250000  1
  Y  Y2  1  0.743988  0.000000  0.750000  1
  Y  Y3  1  0.256012  0.000000  0.250000  1
  Tm  Tm4  1  0.184346  0.795810  0.578122  1
  Tm  Tm5  1  0.815654  0.795810  0.078122  1
  Tm  Tm6  1  0.184346  0.204190  0.921878  1
  Tm  Tm7  1  0.815654  0.204190  0.421878  1
  W  W8  1  0.254827  0.727189  0.885220  1
  W  W9  1  0.745173  0.727189  0.385220  1
  W  W10  1  0.254827  0.272811  0.614780  1
  W  W11  1  0.745173  0.272811  0.114780  1
  O  O12  1  0.046738  0.941937  0.897468  1
  O  O13  1  0.537941  0.841881  0.932591  1
  O  O14  1  0.953262  0.941937  0.397468  1
  O  O15  1  0.453560  0.795029  0.725969  1
  O  O16  1  0.462059  0.841881  0.432591  1
  O  O17  1  0.986384  0.719532  0.769187  1
  O  O18  1  0.546440  0.795029  0.225969  1
  O  O19  1  0.856853  0.640577  0.546919  1
  O  O20  1  0.347800  0.491631  0.887801  1
  O  O21  1  0.013616  0.719532  0.269187  1
  O  O22  1  0.347800  0.508369  0.612199  1
  O  O23  1  0.856853  0.359423  0.953081  1
  O  O24  1  0.143147  0.640577  0.046919  1
  O  O25  1  0.652200  0.491631  0.387801  1
  O  O26  1  0.986384  0.280468  0.730813  1
  O  O27  1  0.652200  0.508369  0.112199  1
  O  O28  1  0.143147  0.359423  0.453081  1
  O  O29  1  0.453560  0.204971  0.774031  1
  O  O30  1  0.013616  0.280468  0.230813  1
  O  O31  1  0.537941  0.158119  0.567409  1
  O  O32  1  0.546440  0.204971  0.274031  1
  O  O33  1  0.046738  0.058063  0.602532  1
  O  O34  1  0.462059  0.158119  0.067409  1
  O  O35  1  0.953262  0.058063  0.102532  1
