# generated using pymatgen
data_YCoH4
_symmetry_space_group_name_H-M   'P 1'
_cell_length_a   6.04327670
_cell_length_b   6.04327718
_cell_length_c   4.70290700
_cell_angle_alpha   90.00000000
_cell_angle_beta   90.00000000
_cell_angle_gamma   144.94980399
_symmetry_Int_Tables_number   1
_chemical_formula_structural   YCoH4
_chemical_formula_sum   'Y2 Co2 H8'
_cell_volume   98.63829571
_cell_formula_units_Z   2
loop_
 _symmetry_equiv_pos_site_id
 _symmetry_equiv_pos_as_xyz
  1  'x, y, z'
loop_
 _atom_site_type_symbol
 _atom_site_label
 _atom_site_symmetry_multiplicity
 _atom_site_fract_x
 _atom_site_fract_y
 _atom_site_fract_z
 _atom_site_occupancy
  Y  Y0  1  0.867856  0.132144  0.750000  1
  Y  Y1  1  0.132144  0.867856  0.250000  1
  Co  Co2  1  0.596269  0.403731  0.750000  1
  Co  Co3  1  0.403731  0.596269  0.250000  1
  H  H4  1  0.088600  0.911400  0.750000  1
  H  H5  1  0.911400  0.088600  0.250000  1
  H  H6  1  0.692455  0.307545  0.501993  1
  H  H7  1  0.307545  0.692455  0.498007  1
  H  H8  1  0.692455  0.307545  0.998007  1
  H  H9  1  0.307545  0.692455  0.001993  1
  H  H10  1  0.500000  0.500000  0.000000  1
  H  H11  1  0.500000  0.500000  0.500000  1
