# generated using pymatgen
data_Nd6Hg7Ir
_symmetry_space_group_name_H-M   'P 1'
_cell_length_a   8.39947469
_cell_length_b   8.39947458
_cell_length_c   8.39947542
_cell_angle_alpha   113.17532579
_cell_angle_beta   113.17532788
_cell_angle_gamma   113.17533299
_symmetry_Int_Tables_number   1
_chemical_formula_structural   Nd6Hg7Ir
_chemical_formula_sum   'Nd6 Hg7 Ir1'
_cell_volume   381.04260267
_cell_formula_units_Z   1
loop_
 _symmetry_equiv_pos_site_id
 _symmetry_equiv_pos_as_xyz
  1  'x, y, z'
loop_
 _atom_site_type_symbol
 _atom_site_label
 _atom_site_symmetry_multiplicity
 _atom_site_fract_x
 _atom_site_fract_y
 _atom_site_fract_z
 _atom_site_occupancy
  Nd  Nd0  1  0.758070  0.636963  0.999911  1
  Nd  Nd1  1  0.999911  0.758070  0.636963  1
  Nd  Nd2  1  0.636963  0.999911  0.758070  1
  Nd  Nd3  1  0.241930  0.363037  0.000089  1
  Nd  Nd4  1  0.000089  0.241930  0.363037  1
  Nd  Nd5  1  0.363037  0.000089  0.241930  1
  Hg  Hg6  1  0.601916  0.273052  0.113607  1
  Hg  Hg7  1  0.113607  0.601916  0.273052  1
  Hg  Hg8  1  0.273052  0.113607  0.601916  1
  Hg  Hg9  1  0.398084  0.726948  0.886393  1
  Hg  Hg10  1  0.886393  0.398084  0.726948  1
  Hg  Hg11  1  0.726948  0.886393  0.398084  1
  Hg  Hg12  1  0.500000  0.500000  0.500000  1
  Ir  Ir13  1  0.000000  0.000000  0.000000  1
