# generated using pymatgen
data_Er4Sc4RuRh3
_symmetry_space_group_name_H-M   'P 1'
_cell_length_a   4.25728300
_cell_length_b   7.18297170
_cell_length_c   8.53431580
_cell_angle_alpha   90.91696225
_cell_angle_beta   90.00000000
_cell_angle_gamma   90.00000000
_symmetry_Int_Tables_number   1
_chemical_formula_structural   Er4Sc4RuRh3
_chemical_formula_sum   'Er4 Sc4 Ru1 Rh3'
_cell_volume   260.94547226
_cell_formula_units_Z   1
loop_
 _symmetry_equiv_pos_site_id
 _symmetry_equiv_pos_as_xyz
  1  'x, y, z'
loop_
 _atom_site_type_symbol
 _atom_site_label
 _atom_site_symmetry_multiplicity
 _atom_site_fract_x
 _atom_site_fract_y
 _atom_site_fract_z
 _atom_site_occupancy
  Er  Er0  1  0.250000  0.978075  0.326173  1
  Er  Er1  1  0.250000  0.479318  0.170241  1
  Er  Er2  1  0.750000  0.025963  0.677102  1
  Er  Er3  1  0.750000  0.515717  0.830231  1
  Sc  Sc4  1  0.250000  0.359972  0.567639  1
  Sc  Sc5  1  0.250000  0.857001  0.931103  1
  Sc  Sc6  1  0.750000  0.640889  0.432608  1
  Sc  Sc7  1  0.750000  0.143776  0.065092  1
  Ru  Ru8  1  0.250000  0.237981  0.892515  1
  Rh  Rh9  1  0.250000  0.741671  0.601984  1
  Rh  Rh10  1  0.750000  0.761732  0.108442  1
  Rh  Rh11  1  0.750000  0.257905  0.396870  1
