# generated using pymatgen
data_Pr3Th(Sc3Pb4)2
_symmetry_space_group_name_H-M   'P 1'
_cell_length_a   8.09323700
_cell_length_b   8.16559539
_cell_length_c   15.36951500
_cell_angle_alpha   89.88519218
_cell_angle_beta   90.00000000
_cell_angle_gamma   90.00000000
_symmetry_Int_Tables_number   1
_chemical_formula_structural   Pr3Th(Sc3Pb4)2
_chemical_formula_sum   'Pr6 Th2 Sc12 Pb16'
_cell_volume   1015.70924710
_cell_formula_units_Z   2
loop_
 _symmetry_equiv_pos_site_id
 _symmetry_equiv_pos_as_xyz
  1  'x, y, z'
loop_
 _atom_site_type_symbol
 _atom_site_label
 _atom_site_symmetry_multiplicity
 _atom_site_fract_x
 _atom_site_fract_y
 _atom_site_fract_z
 _atom_site_occupancy
  Pr  Pr0  1  0.521789  0.324443  0.096272  1
  Pr  Pr1  1  0.021789  0.175557  0.403728  1
  Pr  Pr2  1  0.522436  0.324214  0.403422  1
  Pr  Pr3  1  0.022436  0.175786  0.096578  1
  Pr  Pr4  1  0.475065  0.675751  0.903717  1
  Pr  Pr5  1  0.975065  0.824249  0.596283  1
  Th  Th6  1  0.477194  0.676931  0.595977  1
  Th  Th7  1  0.977194  0.823069  0.904023  1
  Sc  Sc8  1  0.639270  0.156895  0.625458  1
  Sc  Sc9  1  0.139270  0.343105  0.874542  1
  Sc  Sc10  1  0.360865  0.843384  0.125230  1
  Sc  Sc11  1  0.860865  0.656616  0.374770  1
  Sc  Sc12  1  0.362471  0.841783  0.374941  1
  Sc  Sc13  1  0.862471  0.658217  0.125059  1
  Sc  Sc14  1  0.640141  0.157642  0.874428  1
  Sc  Sc15  1  0.140141  0.342358  0.625572  1
  Sc  Sc16  1  0.807719  0.493939  0.750507  1
  Sc  Sc17  1  0.307719  0.006061  0.749493  1
  Sc  Sc18  1  0.193173  0.506668  0.250331  1
  Sc  Sc19  1  0.693173  0.993332  0.249669  1
  Pb  Pb20  1  0.696142  0.952540  0.455707  1
  Pb  Pb21  1  0.196142  0.547460  0.044293  1
  Pb  Pb22  1  0.301516  0.045364  0.954430  1
  Pb  Pb23  1  0.801516  0.454636  0.545570  1
  Pb  Pb24  1  0.302126  0.043834  0.545829  1
  Pb  Pb25  1  0.802126  0.456166  0.954171  1
  Pb  Pb26  1  0.698434  0.953933  0.044162  1
  Pb  Pb27  1  0.198434  0.546067  0.455838  1
  Pb  Pb28  1  0.445705  0.363607  0.749091  1
  Pb  Pb29  1  0.945705  0.136393  0.750909  1
  Pb  Pb30  1  0.556095  0.637447  0.249579  1
  Pb  Pb31  1  0.056095  0.862553  0.250421  1
  Pb  Pb32  1  0.665464  0.853895  0.750694  1
  Pb  Pb33  1  0.165464  0.646105  0.749306  1
  Pb  Pb34  1  0.334396  0.145686  0.250108  1
  Pb  Pb35  1  0.834396  0.354314  0.249892  1
