# generated using pymatgen
data_Tb4Fe10Mo(P4Ir3)3
_symmetry_space_group_name_H-M   'P 1'
_cell_length_a   3.84303800
_cell_length_b   10.38721035
_cell_length_c   12.28534188
_cell_angle_alpha   90.33043081
_cell_angle_beta   90.00000000
_cell_angle_gamma   90.00000000
_symmetry_Int_Tables_number   1
_chemical_formula_structural   Tb4Fe10Mo(P4Ir3)3
_chemical_formula_sum   'Tb4 Fe10 Mo1 P12 Ir9'
_cell_volume   490.40357754
_cell_formula_units_Z   1
loop_
 _symmetry_equiv_pos_site_id
 _symmetry_equiv_pos_as_xyz
  1  'x, y, z'
loop_
 _atom_site_type_symbol
 _atom_site_label
 _atom_site_symmetry_multiplicity
 _atom_site_fract_x
 _atom_site_fract_y
 _atom_site_fract_z
 _atom_site_occupancy
  Tb  Tb0  1  0.250000  0.582900  0.713189  1
  Tb  Tb1  1  0.250000  0.918157  0.213175  1
  Tb  Tb2  1  0.750000  0.422745  0.286558  1
  Tb  Tb3  1  0.750000  0.077537  0.790720  1
  Fe  Fe4  1  0.750000  0.774542  0.829166  1
  Fe  Fe5  1  0.750000  0.724272  0.329007  1
  Fe  Fe6  1  0.250000  0.872736  0.696040  1
  Fe  Fe7  1  0.250000  0.623608  0.194766  1
  Fe  Fe8  1  0.750000  0.118072  0.305988  1
  Fe  Fe9  1  0.750000  0.379347  0.801272  1
  Fe  Fe10  1  0.250000  0.464455  0.934756  1
  Fe  Fe11  1  0.250000  0.041757  0.439851  1
  Fe  Fe12  1  0.750000  0.544813  0.060737  1
  Fe  Fe13  1  0.750000  0.956823  0.563553  1
  Mo  Mo14  1  0.750000  0.293123  0.010518  1
  P  P15  1  0.250000  0.435128  0.107890  1
  P  P16  1  0.250000  0.059276  0.614560  1
  P  P17  1  0.750000  0.569837  0.884936  1
  P  P18  1  0.750000  0.928681  0.387260  1
  P  P19  1  0.250000  0.273254  0.865251  1
  P  P20  1  0.250000  0.226505  0.362938  1
  P  P21  1  0.750000  0.727060  0.148442  1
  P  P22  1  0.750000  0.772951  0.647953  1
  P  P23  1  0.250000  0.607548  0.373936  1
  P  P24  1  0.250000  0.890869  0.876559  1
  P  P25  1  0.750000  0.404467  0.619825  1
  P  P26  1  0.750000  0.099390  0.118291  1
  Ir  Ir27  1  0.250000  0.707432  0.983972  1
  Ir  Ir28  1  0.250000  0.791778  0.481995  1
  Ir  Ir29  1  0.750000  0.214001  0.511597  1
  Ir  Ir30  1  0.250000  0.411866  0.475262  1
  Ir  Ir31  1  0.250000  0.089037  0.975580  1
  Ir  Ir32  1  0.750000  0.599117  0.521023  1
  Ir  Ir33  1  0.750000  0.899663  0.023350  1
  Ir  Ir34  1  0.250000  0.227208  0.175334  1
  Ir  Ir35  1  0.250000  0.270045  0.674744  1
