# generated using pymatgen
data_Tb2DyGa6Ni8Ir
_symmetry_space_group_name_H-M   'P 1'
_cell_length_a   4.10910600
_cell_length_b   8.89025225
_cell_length_c   8.89025291
_cell_angle_alpha   58.51005586
_cell_angle_beta   90.00000000
_cell_angle_gamma   90.00000000
_symmetry_Int_Tables_number   1
_chemical_formula_structural   Tb2DyGa6Ni8Ir
_chemical_formula_sum   'Tb2 Dy1 Ga6 Ni8 Ir1'
_cell_volume   276.94149387
_cell_formula_units_Z   1
loop_
 _symmetry_equiv_pos_site_id
 _symmetry_equiv_pos_as_xyz
  1  'x, y, z'
loop_
 _atom_site_type_symbol
 _atom_site_label
 _atom_site_symmetry_multiplicity
 _atom_site_fract_x
 _atom_site_fract_y
 _atom_site_fract_z
 _atom_site_occupancy
  Tb  Tb0  1  0.500000  0.333848  0.334255  1
  Tb  Tb1  1  0.500000  0.665745  0.666152  1
  Dy  Dy2  1  0.000000  0.985781  0.014219  1
  Ga  Ga3  1  0.000000  0.524868  0.475132  1
  Ga  Ga4  1  0.000000  0.480298  0.988501  1
  Ga  Ga5  1  0.000000  0.011499  0.519702  1
  Ga  Ga6  1  0.500000  0.267169  0.732831  1
  Ga  Ga7  1  0.500000  0.724619  0.993910  1
  Ga  Ga8  1  0.500000  0.006090  0.275381  1
  Ni  Ni9  1  0.000000  0.176217  0.197166  1
  Ni  Ni10  1  0.000000  0.199687  0.632663  1
  Ni  Ni11  1  0.000000  0.611029  0.166339  1
  Ni  Ni12  1  0.000000  0.802834  0.823783  1
  Ni  Ni13  1  0.000000  0.367337  0.800313  1
  Ni  Ni14  1  0.000000  0.833661  0.388971  1
  Ni  Ni15  1  0.500000  0.292334  0.995947  1
  Ni  Ni16  1  0.500000  0.004053  0.707666  1
  Ir  Ir17  1  0.500000  0.712830  0.287170  1
