# generated using pymatgen
data_LiZr6Zn18Ni4As
_symmetry_space_group_name_H-M   'P 1'
_cell_length_a   8.70201855
_cell_length_b   8.69346038
_cell_length_c   8.70237170
_cell_angle_alpha   59.61274034
_cell_angle_beta   59.94859910
_cell_angle_gamma   59.61854819
_symmetry_Int_Tables_number   1
_chemical_formula_structural   LiZr6Zn18Ni4As
_chemical_formula_sum   'Li1 Zr6 Zn18 Ni4 As1'
_cell_volume   462.61603248
_cell_formula_units_Z   1
loop_
 _symmetry_equiv_pos_site_id
 _symmetry_equiv_pos_as_xyz
  1  'x, y, z'
loop_
 _atom_site_type_symbol
 _atom_site_label
 _atom_site_symmetry_multiplicity
 _atom_site_fract_x
 _atom_site_fract_y
 _atom_site_fract_z
 _atom_site_occupancy
  Li  Li0  1  0.000000  0.000000  0.000000  1
  Zr  Zr1  1  0.711737  0.287825  0.284306  1
  Zr  Zr2  1  0.288263  0.712175  0.715694  1
  Zr  Zr3  1  0.284025  0.712864  0.284020  1
  Zr  Zr4  1  0.715975  0.287136  0.715980  1
  Zr  Zr5  1  0.284293  0.287808  0.711753  1
  Zr  Zr6  1  0.715707  0.712192  0.288247  1
  Zn  Zn7  1  0.118138  0.132053  0.118150  1
  Zn  Zn8  1  0.881862  0.867947  0.881850  1
  Zn  Zn9  1  0.127332  0.127510  0.629133  1
  Zn  Zn10  1  0.124517  0.627401  0.124488  1
  Zn  Zn11  1  0.872668  0.872490  0.370867  1
  Zn  Zn12  1  0.875483  0.372599  0.875512  1
  Zn  Zn13  1  0.629128  0.127538  0.127326  1
  Zn  Zn14  1  0.370872  0.872462  0.872674  1
  Zn  Zn15  1  0.500000  0.000000  0.000000  1
  Zn  Zn16  1  0.000000  0.000000  0.500000  1
  Zn  Zn17  1  0.335234  0.335725  0.335199  1
  Zn  Zn18  1  0.664766  0.664275  0.664801  1
  Zn  Zn19  1  0.332497  0.342255  0.992898  1
  Zn  Zn20  1  0.340342  0.991053  0.340335  1
  Zn  Zn21  1  0.667503  0.657745  0.007102  1
  Zn  Zn22  1  0.659658  0.008947  0.659665  1
  Zn  Zn23  1  0.992890  0.342250  0.332486  1
  Zn  Zn24  1  0.007110  0.657750  0.667514  1
  Ni  Ni25  1  0.000000  0.500000  0.500000  1
  Ni  Ni26  1  0.000000  0.500000  0.000000  1
  Ni  Ni27  1  0.500000  0.000000  0.500000  1
  Ni  Ni28  1  0.500000  0.500000  0.000000  1
  As  As29  1  0.500000  0.500000  0.500000  1
