# generated using pymatgen
data_Na2Li2DyP12Ir19
_symmetry_space_group_name_H-M   'P 1'
_cell_length_a   12.61296300
_cell_length_b   12.62845842
_cell_length_c   3.94404600
_cell_angle_alpha   90.00000000
_cell_angle_beta   90.00000000
_cell_angle_gamma   119.95942129
_symmetry_Int_Tables_number   1
_chemical_formula_structural   Na2Li2DyP12Ir19
_chemical_formula_sum   'Na2 Li2 Dy1 P12 Ir19'
_cell_volume   544.27388980
_cell_formula_units_Z   1
loop_
 _symmetry_equiv_pos_site_id
 _symmetry_equiv_pos_as_xyz
  1  'x, y, z'
loop_
 _atom_site_type_symbol
 _atom_site_label
 _atom_site_symmetry_multiplicity
 _atom_site_fract_x
 _atom_site_fract_y
 _atom_site_fract_z
 _atom_site_occupancy
  Na  Na0  1  0.001554  0.820439  0.000000  1
  Na  Na1  1  0.181115  0.179561  0.000000  1
  Li  Li2  1  0.333931  0.668452  0.500000  1
  Li  Li3  1  0.665480  0.331548  0.500000  1
  Dy  Dy4  1  0.823034  0.000000  0.000000  1
  P  P5  1  0.999428  0.639939  0.500000  1
  P  P6  1  0.359490  0.360061  0.500000  1
  P  P7  1  0.640048  0.000000  0.500000  1
  P  P8  1  0.510554  0.688154  0.000000  1
  P  P9  1  0.310315  0.821645  0.000000  1
  P  P10  1  0.177271  0.489809  0.000000  1
  P  P11  1  0.488670  0.178355  0.000000  1
  P  P12  1  0.687460  0.510191  0.000000  1
  P  P13  1  0.822400  0.311846  0.000000  1
  P  P14  1  0.005837  0.184140  0.500000  1
  P  P15  1  0.821696  0.815860  0.500000  1
  P  P16  1  0.181296  0.000000  0.500000  1
  Ir  Ir17  1  0.507876  0.868339  0.000000  1
  Ir  Ir18  1  0.128379  0.638206  0.000000  1
  Ir  Ir19  1  0.360278  0.492507  0.000000  1
  Ir  Ir20  1  0.490175  0.361794  0.000000  1
  Ir  Ir21  1  0.867772  0.507493  0.000000  1
  Ir  Ir22  1  0.639538  0.131661  0.000000  1
  Ir  Ir23  1  0.995851  0.456181  0.500000  1
  Ir  Ir24  1  0.539670  0.543819  0.500000  1
  Ir  Ir25  1  0.458767  0.000000  0.500000  1
  Ir  Ir26  1  0.998781  0.291417  0.000000  1
  Ir  Ir27  1  0.707364  0.708583  0.000000  1
  Ir  Ir28  1  0.293084  0.000000  0.000000  1
  Ir  Ir29  1  0.625191  0.805713  0.500000  1
  Ir  Ir30  1  0.197446  0.817202  0.500000  1
  Ir  Ir31  1  0.182810  0.382007  0.500000  1
  Ir  Ir32  1  0.380243  0.182798  0.500000  1
  Ir  Ir33  1  0.800802  0.617993  0.500000  1
  Ir  Ir34  1  0.819477  0.194287  0.500000  1
  Ir  Ir35  1  0.996918  0.000000  0.500000  1
