# generated using pymatgen
data_CaDyNpIr3
_symmetry_space_group_name_H-M   'P 1'
_cell_length_a   5.77403031
_cell_length_b   5.77402924
_cell_length_c   5.33184342
_cell_angle_alpha   57.21646341
_cell_angle_beta   57.21645208
_cell_angle_gamma   59.99999133
_symmetry_Int_Tables_number   1
_chemical_formula_structural   CaDyNpIr3
_chemical_formula_sum   'Ca1 Dy1 Np1 Ir3'
_cell_volume   120.14480363
_cell_formula_units_Z   1
loop_
 _symmetry_equiv_pos_site_id
 _symmetry_equiv_pos_as_xyz
  1  'x, y, z'
loop_
 _atom_site_type_symbol
 _atom_site_label
 _atom_site_symmetry_multiplicity
 _atom_site_fract_x
 _atom_site_fract_y
 _atom_site_fract_z
 _atom_site_occupancy
  Ca  Ca0  1  0.999724  0.999724  0.000828  1
  Dy  Dy1  1  0.248090  0.248090  0.255729  1
  Np  Np2  1  0.625764  0.625764  0.122707  1
  Ir  Ir3  1  0.625203  0.625203  0.623578  1
  Ir  Ir4  1  0.126015  0.625203  0.623578  1
  Ir  Ir5  1  0.625203  0.126015  0.623578  1
