# generated using pymatgen
data_LaNdCdCuNi
_symmetry_space_group_name_H-M   'P 1'
_cell_length_a   7.66640900
_cell_length_b   7.75852000
_cell_length_c   3.80468100
_cell_angle_alpha   90.00000000
_cell_angle_beta   90.00000000
_cell_angle_gamma   90.00000000
_symmetry_Int_Tables_number   1
_chemical_formula_structural   LaNdCdCuNi
_chemical_formula_sum   'La2 Nd2 Cd2 Cu2 Ni2'
_cell_volume   226.30237853
_cell_formula_units_Z   2
loop_
 _symmetry_equiv_pos_site_id
 _symmetry_equiv_pos_as_xyz
  1  'x, y, z'
loop_
 _atom_site_type_symbol
 _atom_site_label
 _atom_site_symmetry_multiplicity
 _atom_site_fract_x
 _atom_site_fract_y
 _atom_site_fract_z
 _atom_site_occupancy
  La  La0  1  0.324101  0.809355  0.500000  1
  La  La1  1  0.824101  0.690645  0.500000  1
  Nd  Nd2  1  0.176872  0.335299  0.500000  1
  Nd  Nd3  1  0.676872  0.164701  0.500000  1
  Cd  Cd4  1  0.005563  0.008458  0.000000  1
  Cd  Cd5  1  0.505563  0.491542  0.000000  1
  Cu  Cu6  1  0.379580  0.113534  0.000000  1
  Cu  Cu7  1  0.879580  0.386466  0.000000  1
  Ni  Ni8  1  0.113883  0.616531  0.000000  1
  Ni  Ni9  1  0.613883  0.883469  0.000000  1
