# generated using pymatgen
data_Dy8Nb11Si16Ag
_symmetry_space_group_name_H-M   'P 1'
_cell_length_a   7.07826973
_cell_length_b   7.07826967
_cell_length_c   13.04135473
_cell_angle_alpha   89.77085416
_cell_angle_beta   90.22914219
_cell_angle_gamma   89.76307693
_symmetry_Int_Tables_number   1
_chemical_formula_structural   Dy8Nb11Si16Ag
_chemical_formula_sum   'Dy8 Nb11 Si16 Ag1'
_cell_volume   653.38059577
_cell_formula_units_Z   1
loop_
 _symmetry_equiv_pos_site_id
 _symmetry_equiv_pos_as_xyz
  1  'x, y, z'
loop_
 _atom_site_type_symbol
 _atom_site_label
 _atom_site_symmetry_multiplicity
 _atom_site_fract_x
 _atom_site_fract_y
 _atom_site_fract_z
 _atom_site_occupancy
  Dy  Dy0  1  0.998110  0.657768  0.033049  1
  Dy  Dy1  1  0.998748  0.344971  0.532651  1
  Dy  Dy2  1  0.657768  0.998110  0.966951  1
  Dy  Dy3  1  0.158604  0.503087  0.783170  1
  Dy  Dy4  1  0.842236  0.497303  0.283951  1
  Dy  Dy5  1  0.503087  0.158604  0.216830  1
  Dy  Dy6  1  0.497303  0.842236  0.716049  1
  Dy  Dy7  1  0.344971  0.998748  0.467349  1
  Nb  Nb8  1  0.347946  0.502545  0.377158  1
  Nb  Nb9  1  0.849368  0.992075  0.376154  1
  Nb  Nb10  1  0.008246  0.152453  0.126755  1
  Nb  Nb11  1  0.992075  0.849368  0.623846  1
  Nb  Nb12  1  0.502545  0.347946  0.622842  1
  Nb  Nb13  1  0.152453  0.008246  0.873245  1
  Nb  Nb14  1  0.828720  0.173332  0.749983  1
  Nb  Nb15  1  0.173332  0.828720  0.250017  1
  Nb  Nb16  1  0.328222  0.328222  0.000000  1
  Nb  Nb17  1  0.494874  0.650724  0.123575  1
  Nb  Nb18  1  0.650724  0.494874  0.876425  1
  Si  Si19  1  0.059516  0.711648  0.435128  1
  Si  Si20  1  0.953407  0.293528  0.936689  1
  Si  Si21  1  0.711648  0.059516  0.564872  1
  Si  Si22  1  0.207029  0.454913  0.187573  1
  Si  Si23  1  0.793375  0.544899  0.690141  1
  Si  Si24  1  0.454913  0.207029  0.812427  1
  Si  Si25  1  0.544899  0.793375  0.309859  1
  Si  Si26  1  0.293528  0.953407  0.063311  1
  Si  Si27  1  0.797984  0.864373  0.183635  1
  Si  Si28  1  0.281924  0.628614  0.570875  1
  Si  Si29  1  0.705754  0.365576  0.067920  1
  Si  Si30  1  0.628614  0.281924  0.429125  1
  Si  Si31  1  0.365576  0.705754  0.932080  1
  Si  Si32  1  0.134117  0.203122  0.318345  1
  Si  Si33  1  0.203122  0.134117  0.681655  1
  Si  Si34  1  0.864373  0.797984  0.816365  1
  Ag  Ag35  1  0.670888  0.670888  0.500000  1
