# generated using pymatgen
data_Ta12Mn2Al8TcRhC4
_symmetry_space_group_name_H-M   'P 1'
_cell_length_a   8.26628162
_cell_length_b   8.26639870
_cell_length_c   8.29398300
_cell_angle_alpha   59.89001479
_cell_angle_beta   59.88948010
_cell_angle_gamma   59.77536033
_symmetry_Int_Tables_number   1
_chemical_formula_structural   Ta12Mn2Al8TcRhC4
_chemical_formula_sum   'Ta12 Mn2 Al8 Tc1 Rh1 C4'
_cell_volume   399.40054980
_cell_formula_units_Z   1
loop_
 _symmetry_equiv_pos_site_id
 _symmetry_equiv_pos_as_xyz
  1  'x, y, z'
loop_
 _atom_site_type_symbol
 _atom_site_label
 _atom_site_symmetry_multiplicity
 _atom_site_fract_x
 _atom_site_fract_y
 _atom_site_fract_z
 _atom_site_occupancy
  Ta  Ta0  1  0.555113  0.940645  0.564118  1
  Ta  Ta1  1  0.306752  0.693417  0.692762  1
  Ta  Ta2  1  0.694920  0.309333  0.309856  1
  Ta  Ta3  1  0.306737  0.693449  0.307049  1
  Ta  Ta4  1  0.693287  0.685164  0.310775  1
  Ta  Ta5  1  0.306584  0.306302  0.693564  1
  Ta  Ta6  1  0.556713  0.564836  0.939225  1
  Ta  Ta7  1  0.943248  0.556583  0.557238  1
  Ta  Ta8  1  0.555080  0.940667  0.940144  1
  Ta  Ta9  1  0.943416  0.943698  0.556436  1
  Ta  Ta10  1  0.694887  0.309355  0.685882  1
  Ta  Ta11  1  0.943263  0.556551  0.942951  1
  Mn  Mn12  1  0.125000  0.125000  0.125000  1
  Mn  Mn13  1  0.125000  0.125000  0.625000  1
  Al  Al14  1  0.915598  0.920033  0.912599  1
  Al  Al15  1  0.004957  0.326446  0.334088  1
  Al  Al16  1  0.331374  0.000439  0.333902  1
  Al  Al17  1  0.334234  0.329812  0.998320  1
  Al  Al18  1  0.918626  0.249561  0.916098  1
  Al  Al19  1  0.915766  0.920188  0.251680  1
  Al  Al20  1  0.245043  0.923554  0.915912  1
  Al  Al21  1  0.334402  0.329967  0.337401  1
  Tc  Tc22  1  0.125000  0.625000  0.125000  1
  Rh  Rh23  1  0.625000  0.125000  0.125000  1
  C  C24  1  0.625000  0.625000  0.625000  1
  C  C25  1  0.125000  0.625000  0.625000  1
  C  C26  1  0.625000  0.125000  0.625000  1
  C  C27  1  0.625000  0.625000  0.125000  1
