# generated using pymatgen
data_Tb2Zn2Ga3Si
_symmetry_space_group_name_H-M   'P 1'
_cell_length_a   9.03930300
_cell_length_b   9.03930299
_cell_length_c   4.12838000
_cell_angle_alpha   90.00000000
_cell_angle_beta   90.00000000
_cell_angle_gamma   153.20277445
_symmetry_Int_Tables_number   1
_chemical_formula_structural   Tb2Zn2Ga3Si
_chemical_formula_sum   'Tb2 Zn2 Ga3 Si1'
_cell_volume   152.07804514
_cell_formula_units_Z   1
loop_
 _symmetry_equiv_pos_site_id
 _symmetry_equiv_pos_as_xyz
  1  'x, y, z'
loop_
 _atom_site_type_symbol
 _atom_site_label
 _atom_site_symmetry_multiplicity
 _atom_site_fract_x
 _atom_site_fract_y
 _atom_site_fract_z
 _atom_site_occupancy
  Tb  Tb0  1  0.898604  0.101396  0.750000  1
  Tb  Tb1  1  0.100165  0.899835  0.250000  1
  Zn  Zn2  1  0.667976  0.332024  0.750000  1
  Zn  Zn3  1  0.333297  0.666703  0.250000  1
  Ga  Ga4  1  0.250040  0.749960  0.750000  1
  Ga  Ga5  1  0.750698  0.249302  0.250000  1
  Ga  Ga6  1  0.533317  0.466683  0.750000  1
  Si  Si7  1  0.465901  0.534099  0.250000  1
