# generated using pymatgen
data_Tb2Tm4VCr(Co4P3)4
_symmetry_space_group_name_H-M   'P 1'
_cell_length_a   3.67334100
_cell_length_b   10.51985200
_cell_length_c   12.19614500
_cell_angle_alpha   90.00000000
_cell_angle_beta   90.00000000
_cell_angle_gamma   90.00000000
_symmetry_Int_Tables_number   1
_chemical_formula_structural   Tb2Tm4VCr(Co4P3)4
_chemical_formula_sum   'Tb2 Tm4 V1 Cr1 Co16 P12'
_cell_volume   471.29567594
_cell_formula_units_Z   1
loop_
 _symmetry_equiv_pos_site_id
 _symmetry_equiv_pos_as_xyz
  1  'x, y, z'
loop_
 _atom_site_type_symbol
 _atom_site_label
 _atom_site_symmetry_multiplicity
 _atom_site_fract_x
 _atom_site_fract_y
 _atom_site_fract_z
 _atom_site_occupancy
  Tb  Tb0  1  0.000000  0.500000  0.523569  1
  Tb  Tb1  1  0.500000  0.000000  0.476400  1
  Tm  Tm2  1  0.500000  0.818481  0.203820  1
  Tm  Tm3  1  0.500000  0.181519  0.203820  1
  Tm  Tm4  1  0.000000  0.681289  0.795738  1
  Tm  Tm5  1  0.000000  0.318711  0.795738  1
  V  V6  1  0.000000  0.000000  0.845941  1
  Cr  Cr7  1  0.500000  0.500000  0.156218  1
  Co  Co8  1  0.500000  0.500000  0.703641  1
  Co  Co9  1  0.000000  0.000000  0.296551  1
  Co  Co10  1  0.000000  0.500000  0.987576  1
  Co  Co11  1  0.500000  0.000000  0.013355  1
  Co  Co12  1  0.500000  0.333024  0.992777  1
  Co  Co13  1  0.500000  0.666976  0.992777  1
  Co  Co14  1  0.000000  0.168246  0.007741  1
  Co  Co15  1  0.000000  0.831754  0.007741  1
  Co  Co16  1  0.500000  0.296025  0.430304  1
  Co  Co17  1  0.500000  0.703975  0.430304  1
  Co  Co18  1  0.000000  0.204357  0.569045  1
  Co  Co19  1  0.000000  0.795643  0.569045  1
  Co  Co20  1  0.500000  0.878012  0.708701  1
  Co  Co21  1  0.500000  0.121988  0.708701  1
  Co  Co22  1  0.000000  0.621186  0.290799  1
  Co  Co23  1  0.000000  0.378814  0.290799  1
  P  P24  1  0.500000  0.500000  0.881976  1
  P  P25  1  0.000000  0.000000  0.118086  1
  P  P26  1  0.500000  0.500000  0.343823  1
  P  P27  1  0.000000  0.000000  0.653684  1
  P  P28  1  0.500000  0.311176  0.616893  1
  P  P29  1  0.500000  0.688824  0.616893  1
  P  P30  1  0.000000  0.189070  0.382637  1
  P  P31  1  0.000000  0.810930  0.382637  1
  P  P32  1  0.500000  0.845205  0.892247  1
  P  P33  1  0.500000  0.154795  0.892247  1
  P  P34  1  0.000000  0.652679  0.108888  1
  P  P35  1  0.000000  0.347321  0.108888  1
