# generated using pymatgen
data_Na(ZrS2)4
_symmetry_space_group_name_H-M   'P 1'
_cell_length_a   8.25916210
_cell_length_b   8.25916195
_cell_length_c   8.25916185
_cell_angle_alpha   52.68527634
_cell_angle_beta   52.68527394
_cell_angle_gamma   52.68526916
_symmetry_Int_Tables_number   1
_chemical_formula_structural   Na(ZrS2)4
_chemical_formula_sum   'Na1 Zr4 S8'
_cell_volume   330.00610452
_cell_formula_units_Z   1
loop_
 _symmetry_equiv_pos_site_id
 _symmetry_equiv_pos_as_xyz
  1  'x, y, z'
loop_
 _atom_site_type_symbol
 _atom_site_label
 _atom_site_symmetry_multiplicity
 _atom_site_fract_x
 _atom_site_fract_y
 _atom_site_fract_z
 _atom_site_occupancy
  Na  Na0  1  0.500000  0.500000  0.500000  1
  Zr  Zr1  1  0.000000  0.500000  0.500000  1
  Zr  Zr2  1  0.500000  0.000000  0.500000  1
  Zr  Zr3  1  0.500000  0.500000  0.000000  1
  Zr  Zr4  1  0.000000  0.000000  0.000000  1
  S  S5  1  0.261000  0.763487  0.763487  1
  S  S6  1  0.236513  0.236513  0.739000  1
  S  S7  1  0.739000  0.236513  0.236513  1
  S  S8  1  0.236513  0.739000  0.236513  1
  S  S9  1  0.263961  0.263961  0.263961  1
  S  S10  1  0.736039  0.736039  0.736039  1
  S  S11  1  0.763487  0.261000  0.763487  1
  S  S12  1  0.763487  0.763487  0.261000  1
