# generated using pymatgen
data_Er8Sc12Ga14SiGe
_symmetry_space_group_name_H-M   'P 1'
_cell_length_a   7.24172793
_cell_length_b   7.46208453
_cell_length_c   14.46365000
_cell_angle_alpha   90.00000000
_cell_angle_beta   90.00000000
_cell_angle_gamma   90.18803742
_symmetry_Int_Tables_number   1
_chemical_formula_structural   Er8Sc12Ga14SiGe
_chemical_formula_sum   'Er8 Sc12 Ga14 Si1 Ge1'
_cell_volume   781.58809128
_cell_formula_units_Z   1
loop_
 _symmetry_equiv_pos_site_id
 _symmetry_equiv_pos_as_xyz
  1  'x, y, z'
loop_
 _atom_site_type_symbol
 _atom_site_label
 _atom_site_symmetry_multiplicity
 _atom_site_fract_x
 _atom_site_fract_y
 _atom_site_fract_z
 _atom_site_occupancy
  Er  Er0  1  0.012149  0.177369  0.096044  1
  Er  Er1  1  0.987153  0.821893  0.903351  1
  Er  Er2  1  0.489097  0.677085  0.903988  1
  Er  Er3  1  0.987153  0.821893  0.596649  1
  Er  Er4  1  0.511756  0.322839  0.095730  1
  Er  Er5  1  0.012149  0.177369  0.403956  1
  Er  Er6  1  0.511756  0.322839  0.404270  1
  Er  Er7  1  0.489097  0.677085  0.596012  1
  Sc  Sc8  1  0.160628  0.504333  0.750000  1
  Sc  Sc9  1  0.837945  0.496132  0.250000  1
  Sc  Sc10  1  0.337579  0.004696  0.250000  1
  Sc  Sc11  1  0.662899  0.994057  0.750000  1
  Sc  Sc12  1  0.330632  0.174684  0.622922  1
  Sc  Sc13  1  0.669477  0.825387  0.377167  1
  Sc  Sc14  1  0.170565  0.673305  0.376599  1
  Sc  Sc15  1  0.669477  0.825387  0.122833  1
  Sc  Sc16  1  0.829494  0.327547  0.623737  1
  Sc  Sc17  1  0.330632  0.174684  0.877078  1
  Sc  Sc18  1  0.829494  0.327547  0.876263  1
  Sc  Sc19  1  0.170565  0.673305  0.123401  1
  Ga  Ga20  1  0.032535  0.118375  0.750000  1
  Ga  Ga21  1  0.967560  0.881669  0.250000  1
  Ga  Ga22  1  0.468742  0.615784  0.250000  1
  Ga  Ga23  1  0.533022  0.386026  0.750000  1
  Ga  Ga24  1  0.285842  0.872121  0.750000  1
  Ga  Ga25  1  0.714225  0.128035  0.250000  1
  Ga  Ga26  1  0.158803  0.465434  0.540617  1
  Ga  Ga27  1  0.841252  0.534682  0.459415  1
  Ga  Ga28  1  0.339621  0.965296  0.459256  1
  Ga  Ga29  1  0.841252  0.534682  0.040585  1
  Ga  Ga30  1  0.660547  0.035023  0.540763  1
  Ga  Ga31  1  0.158803  0.465434  0.959383  1
  Ga  Ga32  1  0.660547  0.035023  0.959237  1
  Ga  Ga33  1  0.339621  0.965296  0.040744  1
  Si  Si34  1  0.784780  0.625916  0.750000  1
  Ge  Ge35  1  0.213152  0.371769  0.250000  1
