# generated using pymatgen
data_SmDy2V(Co4P3)2
_symmetry_space_group_name_H-M   'P 1'
_cell_length_a   3.70133100
_cell_length_b   10.56961400
_cell_length_c   12.25865200
_cell_angle_alpha   90.00000000
_cell_angle_beta   90.00000000
_cell_angle_gamma   90.00000000
_symmetry_Int_Tables_number   1
_chemical_formula_structural   SmDy2V(Co4P3)2
_chemical_formula_sum   'Sm2 Dy4 V2 Co16 P12'
_cell_volume   479.57856989
_cell_formula_units_Z   2
loop_
 _symmetry_equiv_pos_site_id
 _symmetry_equiv_pos_as_xyz
  1  'x, y, z'
loop_
 _atom_site_type_symbol
 _atom_site_label
 _atom_site_symmetry_multiplicity
 _atom_site_fract_x
 _atom_site_fract_y
 _atom_site_fract_z
 _atom_site_occupancy
  Sm  Sm0  1  0.000000  0.500000  0.523720  1
  Sm  Sm1  1  0.500000  0.000000  0.476280  1
  Dy  Dy2  1  0.500000  0.818677  0.203980  1
  Dy  Dy3  1  0.500000  0.181323  0.203980  1
  Dy  Dy4  1  0.000000  0.681323  0.796020  1
  Dy  Dy5  1  0.000000  0.318677  0.796020  1
  V  V6  1  0.500000  0.500000  0.153049  1
  V  V7  1  0.000000  0.000000  0.846951  1
  Co  Co8  1  0.500000  0.500000  0.704185  1
  Co  Co9  1  0.000000  0.000000  0.295815  1
  Co  Co10  1  0.000000  0.500000  0.987131  1
  Co  Co11  1  0.500000  0.000000  0.012869  1
  Co  Co12  1  0.500000  0.332342  0.993229  1
  Co  Co13  1  0.500000  0.667658  0.993229  1
  Co  Co14  1  0.000000  0.167658  0.006771  1
  Co  Co15  1  0.000000  0.832342  0.006771  1
  Co  Co16  1  0.500000  0.295424  0.430468  1
  Co  Co17  1  0.500000  0.704576  0.430468  1
  Co  Co18  1  0.000000  0.204576  0.569532  1
  Co  Co19  1  0.000000  0.795424  0.569532  1
  Co  Co20  1  0.500000  0.879050  0.708994  1
  Co  Co21  1  0.500000  0.120950  0.708994  1
  Co  Co22  1  0.000000  0.620950  0.291006  1
  Co  Co23  1  0.000000  0.379050  0.291006  1
  P  P24  1  0.500000  0.500000  0.883125  1
  P  P25  1  0.000000  0.000000  0.116875  1
  P  P26  1  0.500000  0.500000  0.344594  1
  P  P27  1  0.000000  0.000000  0.655406  1
  P  P28  1  0.500000  0.309194  0.616734  1
  P  P29  1  0.500000  0.690806  0.616734  1
  P  P30  1  0.000000  0.190806  0.383266  1
  P  P31  1  0.000000  0.809194  0.383266  1
  P  P32  1  0.500000  0.845913  0.892354  1
  P  P33  1  0.500000  0.154087  0.892354  1
  P  P34  1  0.000000  0.654087  0.107646  1
  P  P35  1  0.000000  0.345913  0.107646  1
