# generated using pymatgen
data_Ca6RuIO12
_symmetry_space_group_name_H-M   'P 1'
_cell_length_a   5.87280000
_cell_length_b   5.60094251
_cell_length_c   9.85135366
_cell_angle_alpha   55.34806359
_cell_angle_beta   90.51360953
_cell_angle_gamma   90.06789170
_symmetry_Int_Tables_number   1
_chemical_formula_structural   Ca6RuIO12
_chemical_formula_sum   'Ca6 Ru1 I1 O12'
_cell_volume   266.55070016
_cell_formula_units_Z   1
loop_
 _symmetry_equiv_pos_site_id
 _symmetry_equiv_pos_as_xyz
  1  'x, y, z'
loop_
 _atom_site_type_symbol
 _atom_site_label
 _atom_site_symmetry_multiplicity
 _atom_site_fract_x
 _atom_site_fract_y
 _atom_site_fract_z
 _atom_site_occupancy
  Ca  Ca0  1  0.050280  0.715476  0.777298  1
  Ca  Ca1  1  0.949720  0.284524  0.222702  1
  Ca  Ca2  1  0.565919  0.254864  0.767197  1
  Ca  Ca3  1  0.434081  0.745136  0.232803  1
  Ca  Ca4  1  0.500000  0.500000  0.000000  1
  Ca  Ca5  1  0.000000  0.500000  0.500000  1
  Ru  Ru6  1  0.000000  0.000000  0.000000  1
  I  I7  1  0.500000  0.000000  0.500000  1
  O  O8  1  0.444520  0.906293  0.716497  1
  O  O9  1  0.555480  0.093707  0.283503  1
  O  O10  1  0.944866  0.124091  0.768307  1
  O  O11  1  0.055134  0.875909  0.231693  1
  O  O12  1  0.766876  0.758622  0.578303  1
  O  O13  1  0.233124  0.241378  0.421697  1
  O  O14  1  0.281592  0.237696  0.936894  1
  O  O15  1  0.718408  0.762304  0.063106  1
  O  O16  1  0.325734  0.669805  0.556954  1
  O  O17  1  0.674266  0.330195  0.443046  1
  O  O18  1  0.818040  0.334011  0.956764  1
  O  O19  1  0.181960  0.665989  0.043236  1
