# generated using pymatgen
data_TbHo7Ti3Si16Mo9
_symmetry_space_group_name_H-M   'P 1'
_cell_length_a   6.90088502
_cell_length_b   6.90095024
_cell_length_c   12.78036660
_cell_angle_alpha   90.00047818
_cell_angle_beta   89.99004683
_cell_angle_gamma   89.77407000
_symmetry_Int_Tables_number   1
_chemical_formula_structural   TbHo7Ti3Si16Mo9
_chemical_formula_sum   'Tb1 Ho7 Ti3 Si16 Mo9'
_cell_volume   608.63036522
_cell_formula_units_Z   1
loop_
 _symmetry_equiv_pos_site_id
 _symmetry_equiv_pos_as_xyz
  1  'x, y, z'
loop_
 _atom_site_type_symbol
 _atom_site_label
 _atom_site_symmetry_multiplicity
 _atom_site_fract_x
 _atom_site_fract_y
 _atom_site_fract_z
 _atom_site_occupancy
  Tb  Tb0  1  0.340114  0.002848  0.468419  1
  Ho  Ho1  1  0.496547  0.840052  0.719282  1
  Ho  Ho2  1  0.500096  0.160672  0.217331  1
  Ho  Ho3  1  0.840174  0.496508  0.280786  1
  Ho  Ho4  1  0.160605  0.500069  0.782617  1
  Ho  Ho5  1  0.658489  0.999369  0.968656  1
  Ho  Ho6  1  0.002224  0.340582  0.531596  1
  Ho  Ho7  1  0.999363  0.658494  0.031340  1
  Ti  Ti8  1  0.170882  0.830464  0.248505  1
  Ti  Ti9  1  0.830507  0.170949  0.751419  1
  Ti  Ti10  1  0.669741  0.669572  0.500024  1
  Si  Si11  1  0.199790  0.130003  0.684120  1
  Si  Si12  1  0.372957  0.696512  0.934347  1
  Si  Si13  1  0.629913  0.300173  0.433724  1
  Si  Si14  1  0.696518  0.372951  0.065637  1
  Si  Si15  1  0.299738  0.628789  0.566427  1
  Si  Si16  1  0.797813  0.870964  0.184250  1
  Si  Si17  1  0.129389  0.200384  0.315777  1
  Si  Si18  1  0.870984  0.797754  0.815753  1
  Si  Si19  1  0.287238  0.962673  0.061727  1
  Si  Si20  1  0.540829  0.790036  0.313262  1
  Si  Si21  1  0.457123  0.211687  0.815153  1
  Si  Si22  1  0.790431  0.540510  0.686491  1
  Si  Si23  1  0.211673  0.457156  0.184827  1
  Si  Si24  1  0.711291  0.042097  0.563985  1
  Si  Si25  1  0.962652  0.287261  0.938276  1
  Si  Si26  1  0.041601  0.710209  0.436153  1
  Mo  Mo27  1  0.330807  0.330825  0.999988  1
  Mo  Mo28  1  0.155201  0.001662  0.873259  1
  Mo  Mo29  1  0.496396  0.665771  0.124518  1
  Mo  Mo30  1  0.506017  0.341286  0.624884  1
  Mo  Mo31  1  0.665852  0.496387  0.875390  1
  Mo  Mo32  1  0.340993  0.505736  0.375245  1
  Mo  Mo33  1  0.841037  0.993458  0.374222  1
  Mo  Mo34  1  0.001610  0.155227  0.126708  1
  Mo  Mo35  1  0.993402  0.840911  0.625900  1
