# generated using pymatgen
data_CaMoPO6
_symmetry_space_group_name_H-M   'P 1'
_cell_length_a   8.77511600
_cell_length_b   5.01227783
_cell_length_c   11.92081603
_cell_angle_alpha   70.91252273
_cell_angle_beta   90.00000000
_cell_angle_gamma   90.00000000
_symmetry_Int_Tables_number   1
_chemical_formula_structural   CaMoPO6
_chemical_formula_sum   'Ca4 Mo4 P4 O24'
_cell_volume   495.49032069
_cell_formula_units_Z   4
loop_
 _symmetry_equiv_pos_site_id
 _symmetry_equiv_pos_as_xyz
  1  'x, y, z'
loop_
 _atom_site_type_symbol
 _atom_site_label
 _atom_site_symmetry_multiplicity
 _atom_site_fract_x
 _atom_site_fract_y
 _atom_site_fract_z
 _atom_site_occupancy
  Ca  Ca0  1  0.829427  0.672404  0.422883  1
  Ca  Ca1  1  0.329427  0.327596  0.077117  1
  Ca  Ca2  1  0.670573  0.672404  0.922883  1
  Ca  Ca3  1  0.170573  0.327596  0.577117  1
  Mo  Mo4  1  0.910867  0.986719  0.113040  1
  Mo  Mo5  1  0.089133  0.013281  0.886960  1
  Mo  Mo6  1  0.410867  0.013281  0.386960  1
  Mo  Mo7  1  0.589133  0.986719  0.613040  1
  P  P8  1  0.558355  0.684407  0.209439  1
  P  P9  1  0.441645  0.315593  0.790561  1
  P  P10  1  0.058355  0.315593  0.290561  1
  P  P11  1  0.941645  0.684407  0.709439  1
  O  O12  1  0.392801  0.128797  0.534630  1
  O  O13  1  0.019706  0.590267  0.190508  1
  O  O14  1  0.535245  0.060812  0.774936  1
  O  O15  1  0.464755  0.939188  0.225064  1
  O  O16  1  0.979634  0.664584  0.586600  1
  O  O17  1  0.035245  0.939188  0.725064  1
  O  O18  1  0.607199  0.871203  0.465370  1
  O  O19  1  0.479634  0.335416  0.913400  1
  O  O20  1  0.480294  0.590267  0.690508  1
  O  O21  1  0.980294  0.409733  0.809492  1
  O  O22  1  0.519706  0.409733  0.309492  1
  O  O23  1  0.107199  0.128797  0.034630  1
  O  O24  1  0.712424  0.273707  0.561492  1
  O  O25  1  0.231121  0.259715  0.275968  1
  O  O26  1  0.520366  0.664584  0.086600  1
  O  O27  1  0.268879  0.259715  0.775968  1
  O  O28  1  0.768879  0.740285  0.724032  1
  O  O29  1  0.287576  0.726293  0.438508  1
  O  O30  1  0.731121  0.740285  0.224032  1
  O  O31  1  0.964755  0.060812  0.274936  1
  O  O32  1  0.892801  0.871203  0.965370  1
  O  O33  1  0.020366  0.335416  0.413400  1
  O  O34  1  0.212424  0.726293  0.938508  1
  O  O35  1  0.787576  0.273707  0.061492  1
