# generated using pymatgen
data_K4Ba(VSe4)2
_symmetry_space_group_name_H-M   'P 1'
_cell_length_a   11.99225528
_cell_length_b   11.99225620
_cell_length_c   11.99225549
_cell_angle_alpha   133.50770499
_cell_angle_beta   128.28569357
_cell_angle_gamma   72.05913783
_symmetry_Int_Tables_number   1
_chemical_formula_structural   K4Ba(VSe4)2
_chemical_formula_sum   'K8 Ba2 V4 Se16'
_cell_volume   960.32818709
_cell_formula_units_Z   2
loop_
 _symmetry_equiv_pos_site_id
 _symmetry_equiv_pos_as_xyz
  1  'x, y, z'
loop_
 _atom_site_type_symbol
 _atom_site_label
 _atom_site_symmetry_multiplicity
 _atom_site_fract_x
 _atom_site_fract_y
 _atom_site_fract_z
 _atom_site_occupancy
  K  K0  1  0.498131  0.248131  0.250000  1
  K  K1  1  0.001869  0.751869  0.250000  1
  K  K2  1  0.577258  0.702637  0.125379  1
  K  K3  1  0.422742  0.297363  0.874621  1
  K  K4  1  0.501869  0.751869  0.750000  1
  K  K5  1  0.077258  0.451880  0.374621  1
  K  K6  1  0.922742  0.548120  0.625379  1
  K  K7  1  0.998131  0.248131  0.750000  1
  Ba  Ba8  1  0.250000  0.000000  0.250000  1
  Ba  Ba9  1  0.750000  0.000000  0.750000  1
  V  V10  1  0.132990  0.925222  0.792232  1
  V  V11  1  0.867010  0.074778  0.207768  1
  V  V12  1  0.367010  0.659241  0.292232  1
  V  V13  1  0.632990  0.340759  0.707768  1
  Se  Se14  1  0.592656  0.603726  0.369965  1
  Se  Se15  1  0.749869  0.982027  0.232158  1
  Se  Se16  1  0.892923  0.863589  0.970666  1
  Se  Se17  1  0.766239  0.396274  0.988931  1
  Se  Se18  1  0.733761  0.222691  0.130035  1
  Se  Se19  1  0.750131  0.482288  0.732158  1
  Se  Se20  1  0.250131  0.017973  0.767842  1
  Se  Se21  1  0.233761  0.603726  0.011069  1
  Se  Se22  1  0.249869  0.517712  0.267842  1
  Se  Se23  1  0.266239  0.777309  0.869965  1
  Se  Se24  1  0.107077  0.136411  0.029334  1
  Se  Se25  1  0.907344  0.777309  0.511069  1
  Se  Se26  1  0.092656  0.222691  0.488931  1
  Se  Se27  1  0.607077  0.077744  0.470666  1
  Se  Se28  1  0.407344  0.396274  0.630035  1
  Se  Se29  1  0.392923  0.922256  0.529334  1
