# generated using pymatgen
data_V4Cl7O
_symmetry_space_group_name_H-M   'P 1'
_cell_length_a   7.46024630
_cell_length_b   7.46024623
_cell_length_c   7.46024577
_cell_angle_alpha   56.63402813
_cell_angle_beta   56.63402944
_cell_angle_gamma   56.63403115
_symmetry_Int_Tables_number   1
_chemical_formula_structural   V4Cl7O
_chemical_formula_sum   'V4 Cl7 O1'
_cell_volume   270.76538776
_cell_formula_units_Z   1
loop_
 _symmetry_equiv_pos_site_id
 _symmetry_equiv_pos_as_xyz
  1  'x, y, z'
loop_
 _atom_site_type_symbol
 _atom_site_label
 _atom_site_symmetry_multiplicity
 _atom_site_fract_x
 _atom_site_fract_y
 _atom_site_fract_z
 _atom_site_occupancy
  V  V0  1  0.606852  0.142538  0.142538  1
  V  V1  1  0.127309  0.127309  0.127309  1
  V  V2  1  0.142538  0.142538  0.606852  1
  V  V3  1  0.142538  0.606852  0.142538  1
  Cl  Cl4  1  0.374046  0.374046  0.882344  1
  Cl  Cl5  1  0.894021  0.894021  0.894021  1
  Cl  Cl6  1  0.880519  0.880519  0.366524  1
  Cl  Cl7  1  0.366524  0.880519  0.880519  1
  Cl  Cl8  1  0.374046  0.882344  0.374046  1
  Cl  Cl9  1  0.880519  0.366524  0.880519  1
  Cl  Cl10  1  0.882344  0.374046  0.374046  1
  O  O11  1  0.328742  0.328742  0.328742  1
