# generated using pymatgen
data_DyBi3(MoO6)2
_symmetry_space_group_name_H-M   'P 1'
_cell_length_a   10.44082681
_cell_length_b   10.44082749
_cell_length_c   5.57268170
_cell_angle_alpha   76.72299051
_cell_angle_beta   76.72299475
_cell_angle_gamma   68.62428452
_symmetry_Int_Tables_number   1
_chemical_formula_structural   DyBi3(MoO6)2
_chemical_formula_sum   'Dy2 Bi6 Mo4 O24'
_cell_volume   543.38796227
_cell_formula_units_Z   2
loop_
 _symmetry_equiv_pos_site_id
 _symmetry_equiv_pos_as_xyz
  1  'x, y, z'
loop_
 _atom_site_type_symbol
 _atom_site_label
 _atom_site_symmetry_multiplicity
 _atom_site_fract_x
 _atom_site_fract_y
 _atom_site_fract_z
 _atom_site_occupancy
  Dy  Dy0  1  0.100671  0.899329  0.750000  1
  Dy  Dy1  1  0.899329  0.100671  0.250000  1
  Bi  Bi2  1  0.725915  0.956590  0.936171  1
  Bi  Bi3  1  0.274085  0.043410  0.063829  1
  Bi  Bi4  1  0.043410  0.274085  0.563829  1
  Bi  Bi5  1  0.956590  0.725915  0.436171  1
  Bi  Bi6  1  0.659259  0.340741  0.750000  1
  Bi  Bi7  1  0.340741  0.659259  0.250000  1
  Mo  Mo8  1  0.537655  0.798149  0.574429  1
  Mo  Mo9  1  0.462345  0.201851  0.425571  1
  Mo  Mo10  1  0.201851  0.462345  0.925571  1
  Mo  Mo11  1  0.798149  0.537655  0.074429  1
  O  O12  1  0.553053  0.637593  0.777419  1
  O  O13  1  0.446947  0.362407  0.222581  1
  O  O14  1  0.362407  0.446947  0.722581  1
  O  O15  1  0.637593  0.553053  0.277419  1
  O  O16  1  0.891698  0.931954  0.591305  1
  O  O17  1  0.108302  0.068046  0.408695  1
  O  O18  1  0.068046  0.108302  0.908695  1
  O  O19  1  0.931954  0.891698  0.091305  1
  O  O20  1  0.606452  0.169259  0.599405  1
  O  O21  1  0.393548  0.830741  0.400595  1
  O  O22  1  0.830741  0.393548  0.900595  1
  O  O23  1  0.169259  0.606452  0.099405  1
  O  O24  1  0.300146  0.207197  0.635592  1
  O  O25  1  0.699854  0.792803  0.364408  1
  O  O26  1  0.792803  0.699854  0.864408  1
  O  O27  1  0.207197  0.300146  0.135592  1
  O  O28  1  0.734692  0.155651  0.014125  1
  O  O29  1  0.265308  0.844349  0.985875  1
  O  O30  1  0.844349  0.265308  0.485875  1
  O  O31  1  0.155651  0.734692  0.514125  1
  O  O32  1  0.505636  0.929670  0.760385  1
  O  O33  1  0.494364  0.070330  0.239615  1
  O  O34  1  0.070330  0.494364  0.739615  1
  O  O35  1  0.929670  0.505636  0.260385  1
