# generated using pymatgen
data_Sr2Yb3Si7
_symmetry_space_group_name_H-M   'P 1'
_cell_length_a   8.96138400
_cell_length_b   8.96138433
_cell_length_c   4.01922700
_cell_angle_alpha   90.00000000
_cell_angle_beta   90.00000000
_cell_angle_gamma   120.00000617
_symmetry_Int_Tables_number   1
_chemical_formula_structural   Sr2Yb3Si7
_chemical_formula_sum   'Sr2 Yb3 Si7'
_cell_volume   279.52672149
_cell_formula_units_Z   1
loop_
 _symmetry_equiv_pos_site_id
 _symmetry_equiv_pos_as_xyz
  1  'x, y, z'
loop_
 _atom_site_type_symbol
 _atom_site_label
 _atom_site_symmetry_multiplicity
 _atom_site_fract_x
 _atom_site_fract_y
 _atom_site_fract_z
 _atom_site_occupancy
  Sr  Sr0  1  0.333333  0.666667  0.000000  1
  Sr  Sr1  1  0.666667  0.333333  0.000000  1
  Yb  Yb2  1  0.000000  0.748498  0.500000  1
  Yb  Yb3  1  0.251502  0.251502  0.500000  1
  Yb  Yb4  1  0.748498  0.000000  0.500000  1
  Si  Si5  1  0.000000  0.000000  0.000000  1
  Si  Si6  1  0.000000  0.265005  0.000000  1
  Si  Si7  1  0.734995  0.734995  0.000000  1
  Si  Si8  1  0.265005  0.000000  0.000000  1
  Si  Si9  1  0.000000  0.413413  0.500000  1
  Si  Si10  1  0.586587  0.586587  0.500000  1
  Si  Si11  1  0.413413  0.000000  0.500000  1
