# generated using pymatgen
data_Yb8TmPaIr4
_symmetry_space_group_name_H-M   'P 1'
_cell_length_a   6.59158245
_cell_length_b   7.27403821
_cell_length_c   8.59352597
_cell_angle_alpha   97.11135201
_cell_angle_beta   112.55190527
_cell_angle_gamma   89.99999594
_symmetry_Int_Tables_number   1
_chemical_formula_structural   Yb8TmPaIr4
_chemical_formula_sum   'Yb8 Tm1 Pa1 Ir4'
_cell_volume   377.09557431
_cell_formula_units_Z   1
loop_
 _symmetry_equiv_pos_site_id
 _symmetry_equiv_pos_as_xyz
  1  'x, y, z'
loop_
 _atom_site_type_symbol
 _atom_site_label
 _atom_site_symmetry_multiplicity
 _atom_site_fract_x
 _atom_site_fract_y
 _atom_site_fract_z
 _atom_site_occupancy
  Yb  Yb0  1  0.975284  0.924066  0.172398  1
  Yb  Yb1  1  0.802885  0.575934  0.827602  1
  Yb  Yb2  1  0.025983  0.080807  0.825546  1
  Yb  Yb3  1  0.200438  0.419193  0.174454  1
  Yb  Yb4  1  0.641821  0.816249  0.440570  1
  Yb  Yb5  1  0.201251  0.683751  0.559430  1
  Yb  Yb6  1  0.362889  0.181693  0.568341  1
  Yb  Yb7  1  0.794548  0.318307  0.431659  1
  Tm  Tm8  1  0.564620  0.250000  0.000000  1
  Pa  Pa9  1  0.436955  0.750000  0.000000  1
  Ir  Ir10  1  0.793171  0.580051  0.200811  1
  Ir  Ir11  1  0.592361  0.919949  0.799189  1
  Ir  Ir12  1  0.205249  0.444382  0.802702  1
  Ir  Ir13  1  0.402546  0.055618  0.197298  1
