# generated using pymatgen
data_Dy5Lu5(SiSb)4
_symmetry_space_group_name_H-M   'P 1'
_cell_length_a   8.35314285
_cell_length_b   8.51972602
_cell_length_c   7.77281642
_cell_angle_alpha   90.14443629
_cell_angle_beta   90.11863412
_cell_angle_gamma   125.34715904
_symmetry_Int_Tables_number   1
_chemical_formula_structural   Dy5Lu5(SiSb)4
_chemical_formula_sum   'Dy5 Lu5 Si4 Sb4'
_cell_volume   451.18906752
_cell_formula_units_Z   1
loop_
 _symmetry_equiv_pos_site_id
 _symmetry_equiv_pos_as_xyz
  1  'x, y, z'
loop_
 _atom_site_type_symbol
 _atom_site_label
 _atom_site_symmetry_multiplicity
 _atom_site_fract_x
 _atom_site_fract_y
 _atom_site_fract_z
 _atom_site_occupancy
  Dy  Dy0  1  0.800862  0.544351  0.168077  1
  Dy  Dy1  1  0.537562  0.787782  0.165296  1
  Dy  Dy2  1  0.200280  0.456032  0.831587  1
  Dy  Dy3  1  0.699648  0.955288  0.668006  1
  Dy  Dy4  1  0.299464  0.043096  0.332601  1
  Lu  Lu5  1  0.037250  0.281411  0.336541  1
  Lu  Lu6  1  0.961719  0.716215  0.663498  1
  Lu  Lu7  1  0.462342  0.216663  0.836489  1
  Lu  Lu8  1  0.000697  0.000925  0.999406  1
  Lu  Lu9  1  0.499869  0.499004  0.500563  1
  Si  Si10  1  0.366663  0.366663  0.132246  1
  Si  Si11  1  0.633410  0.631710  0.867136  1
  Si  Si12  1  0.132585  0.131065  0.631177  1
  Si  Si13  1  0.869115  0.868218  0.369899  1
  Sb  Sb14  1  0.789672  0.201737  0.008468  1
  Sb  Sb15  1  0.212542  0.803654  0.987036  1
  Sb  Sb16  1  0.714053  0.301514  0.510818  1
  Sb  Sb17  1  0.282267  0.694672  0.491156  1
