# generated using pymatgen
data_YbEr(TmOs4)2
_symmetry_space_group_name_H-M   'P 1'
_cell_length_a   5.29797700
_cell_length_b   5.29797617
_cell_length_c   8.79342800
_cell_angle_alpha   90.00000000
_cell_angle_beta   90.00000000
_cell_angle_gamma   119.99999894
_symmetry_Int_Tables_number   1
_chemical_formula_structural   YbEr(TmOs4)2
_chemical_formula_sum   'Yb1 Er1 Tm2 Os8'
_cell_volume   213.75137511
_cell_formula_units_Z   1
loop_
 _symmetry_equiv_pos_site_id
 _symmetry_equiv_pos_as_xyz
  1  'x, y, z'
loop_
 _atom_site_type_symbol
 _atom_site_label
 _atom_site_symmetry_multiplicity
 _atom_site_fract_x
 _atom_site_fract_y
 _atom_site_fract_z
 _atom_site_occupancy
  Yb  Yb0  1  0.333333  0.666667  0.063009  1
  Er  Er1  1  0.666667  0.333333  0.939248  1
  Tm  Tm2  1  0.333333  0.666667  0.429030  1
  Tm  Tm3  1  0.666667  0.333333  0.565508  1
  Os  Os4  1  0.000000  0.000000  0.501259  1
  Os  Os5  1  0.000000  0.000000  0.000630  1
  Os  Os6  1  0.827856  0.172144  0.251415  1
  Os  Os7  1  0.827856  0.655713  0.251415  1
  Os  Os8  1  0.344287  0.172144  0.251415  1
  Os  Os9  1  0.172901  0.827099  0.749024  1
  Os  Os10  1  0.172901  0.345802  0.749024  1
  Os  Os11  1  0.654198  0.827099  0.749024  1
