# generated using pymatgen
data_Hf6Zn16Ag7B
_symmetry_space_group_name_H-M   'P 1'
_cell_length_a   8.85658777
_cell_length_b   8.86310501
_cell_length_c   8.86310500
_cell_angle_alpha   60.00000379
_cell_angle_beta   59.97565861
_cell_angle_gamma   59.97565986
_symmetry_Int_Tables_number   1
_chemical_formula_structural   Hf6Zn16Ag7B
_chemical_formula_sum   'Hf6 Zn16 Ag7 B1'
_cell_volume   491.77149899
_cell_formula_units_Z   1
loop_
 _symmetry_equiv_pos_site_id
 _symmetry_equiv_pos_as_xyz
  1  'x, y, z'
loop_
 _atom_site_type_symbol
 _atom_site_label
 _atom_site_symmetry_multiplicity
 _atom_site_fract_x
 _atom_site_fract_y
 _atom_site_fract_z
 _atom_site_occupancy
  Hf  Hf0  1  0.685985  0.314507  0.314507  1
  Hf  Hf1  1  0.312965  0.686637  0.686637  1
  Hf  Hf2  1  0.312965  0.686637  0.313760  1
  Hf  Hf3  1  0.685985  0.314507  0.685002  1
  Hf  Hf4  1  0.312965  0.313760  0.686637  1
  Hf  Hf5  1  0.685985  0.685002  0.314507  1
  Zn  Zn6  1  0.364383  0.878540  0.878540  1
  Zn  Zn7  1  0.497549  0.998936  0.998936  1
  Zn  Zn8  1  0.000400  0.499847  0.499847  1
  Zn  Zn9  1  0.000400  0.499847  0.999905  1
  Zn  Zn10  1  0.497549  0.998936  0.504579  1
  Zn  Zn11  1  0.000400  0.999905  0.499847  1
  Zn  Zn12  1  0.497549  0.504579  0.998936  1
  Zn  Zn13  1  0.336306  0.335103  0.335103  1
  Zn  Zn14  1  0.664363  0.664868  0.664868  1
  Zn  Zn15  1  0.336306  0.335103  0.993486  1
  Zn  Zn16  1  0.336306  0.993486  0.335103  1
  Zn  Zn17  1  0.664363  0.664868  0.005902  1
  Zn  Zn18  1  0.664363  0.005902  0.664868  1
  Zn  Zn19  1  0.994266  0.335244  0.335244  1
  Zn  Zn20  1  0.005375  0.664875  0.664875  1
  Zn  Zn21  1  0.005504  0.998166  0.998166  1
  Ag  Ag22  1  0.121586  0.119413  0.119413  1
  Ag  Ag23  1  0.878380  0.880308  0.880308  1
  Ag  Ag24  1  0.121586  0.119413  0.639588  1
  Ag  Ag25  1  0.121586  0.639588  0.119413  1
  Ag  Ag26  1  0.878380  0.880308  0.361004  1
  Ag  Ag27  1  0.878380  0.361004  0.880308  1
  Ag  Ag28  1  0.638711  0.120429  0.120429  1
  B  B29  1  0.499159  0.500280  0.500280  1
