# generated using pymatgen
data_DyLu2Hf(Co4P3)2
_symmetry_space_group_name_H-M   'P 1'
_cell_length_a   3.69454400
_cell_length_b   10.62191400
_cell_length_c   12.31472500
_cell_angle_alpha   90.00000000
_cell_angle_beta   90.00000000
_cell_angle_gamma   90.00000000
_symmetry_Int_Tables_number   1
_chemical_formula_structural   DyLu2Hf(Co4P3)2
_chemical_formula_sum   'Dy2 Lu4 Hf2 Co16 P12'
_cell_volume   483.26833731
_cell_formula_units_Z   2
loop_
 _symmetry_equiv_pos_site_id
 _symmetry_equiv_pos_as_xyz
  1  'x, y, z'
loop_
 _atom_site_type_symbol
 _atom_site_label
 _atom_site_symmetry_multiplicity
 _atom_site_fract_x
 _atom_site_fract_y
 _atom_site_fract_z
 _atom_site_occupancy
  Dy  Dy0  1  0.000000  0.500000  0.529437  1
  Dy  Dy1  1  0.500000  0.000000  0.470563  1
  Lu  Lu2  1  0.500000  0.822403  0.204475  1
  Lu  Lu3  1  0.500000  0.177597  0.204475  1
  Lu  Lu4  1  0.000000  0.677597  0.795525  1
  Lu  Lu5  1  0.000000  0.322403  0.795525  1
  Hf  Hf6  1  0.500000  0.500000  0.157292  1
  Hf  Hf7  1  0.000000  0.000000  0.842708  1
  Co  Co8  1  0.500000  0.500000  0.704961  1
  Co  Co9  1  0.000000  0.000000  0.295039  1
  Co  Co10  1  0.000000  0.500000  0.986621  1
  Co  Co11  1  0.500000  0.000000  0.013379  1
  Co  Co12  1  0.500000  0.331387  0.993255  1
  Co  Co13  1  0.500000  0.668613  0.993255  1
  Co  Co14  1  0.000000  0.168613  0.006745  1
  Co  Co15  1  0.000000  0.831387  0.006745  1
  Co  Co16  1  0.500000  0.295139  0.432773  1
  Co  Co17  1  0.500000  0.704861  0.432773  1
  Co  Co18  1  0.000000  0.204861  0.567227  1
  Co  Co19  1  0.000000  0.795139  0.567227  1
  Co  Co20  1  0.500000  0.876943  0.703800  1
  Co  Co21  1  0.500000  0.123057  0.703800  1
  Co  Co22  1  0.000000  0.623057  0.296200  1
  Co  Co23  1  0.000000  0.376943  0.296200  1
  P  P24  1  0.500000  0.500000  0.882659  1
  P  P25  1  0.000000  0.000000  0.117341  1
  P  P26  1  0.500000  0.500000  0.362042  1
  P  P27  1  0.000000  0.000000  0.637958  1
  P  P28  1  0.500000  0.310706  0.617078  1
  P  P29  1  0.500000  0.689294  0.617078  1
  P  P30  1  0.000000  0.189294  0.382922  1
  P  P31  1  0.000000  0.810706  0.382922  1
  P  P32  1  0.500000  0.837404  0.891704  1
  P  P33  1  0.500000  0.162596  0.891704  1
  P  P34  1  0.000000  0.662596  0.108296  1
  P  P35  1  0.000000  0.337404  0.108296  1
