# generated using pymatgen
data_DyZnInRh
_symmetry_space_group_name_H-M   'P 1'
_cell_length_a   4.23149100
_cell_length_b   5.28624000
_cell_length_c   7.26552300
_cell_angle_alpha   90.00000000
_cell_angle_beta   90.00000000
_cell_angle_gamma   90.00000000
_symmetry_Int_Tables_number   1
_chemical_formula_structural   DyZnInRh
_chemical_formula_sum   'Dy2 Zn2 In2 Rh2'
_cell_volume   162.52013711
_cell_formula_units_Z   2
loop_
 _symmetry_equiv_pos_site_id
 _symmetry_equiv_pos_as_xyz
  1  'x, y, z'
loop_
 _atom_site_type_symbol
 _atom_site_label
 _atom_site_symmetry_multiplicity
 _atom_site_fract_x
 _atom_site_fract_y
 _atom_site_fract_z
 _atom_site_occupancy
  Dy  Dy0  1  0.500000  0.750000  0.712896  1
  Dy  Dy1  1  0.500000  0.250000  0.287104  1
  Zn  Zn2  1  0.000000  0.000000  0.000000  1
  Zn  Zn3  1  0.000000  0.500000  0.000000  1
  In  In4  1  0.000000  0.750000  0.369150  1
  In  In5  1  0.000000  0.250000  0.630850  1
  Rh  Rh6  1  0.500000  0.750000  0.119201  1
  Rh  Rh7  1  0.500000  0.250000  0.880799  1
