# generated using pymatgen
data_Mn2AlCo4Si
_symmetry_space_group_name_H-M   'P 1'
_cell_length_a   6.94183921
_cell_length_b   6.94183907
_cell_length_c   6.94183901
_cell_angle_alpha   33.55726086
_cell_angle_beta   33.55726685
_cell_angle_gamma   33.55726399
_symmetry_Int_Tables_number   1
_chemical_formula_structural   Mn2AlCo4Si
_chemical_formula_sum   'Mn2 Al1 Co4 Si1'
_cell_volume   91.04490846
_cell_formula_units_Z   1
loop_
 _symmetry_equiv_pos_site_id
 _symmetry_equiv_pos_as_xyz
  1  'x, y, z'
loop_
 _atom_site_type_symbol
 _atom_site_label
 _atom_site_symmetry_multiplicity
 _atom_site_fract_x
 _atom_site_fract_y
 _atom_site_fract_z
 _atom_site_occupancy
  Mn  Mn0  1  0.251165  0.251165  0.251165  1
  Mn  Mn1  1  0.748835  0.748835  0.748835  1
  Al  Al2  1  0.000000  0.000000  0.000000  1
  Co  Co3  1  0.872602  0.872602  0.872602  1
  Co  Co4  1  0.378009  0.378009  0.378009  1
  Co  Co5  1  0.127398  0.127398  0.127398  1
  Co  Co6  1  0.621991  0.621991  0.621991  1
  Si  Si7  1  0.500000  0.500000  0.500000  1
