# generated using pymatgen
data_Y2BeGa8Cu17
_symmetry_space_group_name_H-M   'P 1'
_cell_length_a   8.23810924
_cell_length_b   8.23810743
_cell_length_c   8.28078000
_cell_angle_alpha   120.38275741
_cell_angle_beta   120.38275810
_cell_angle_gamma   89.03807980
_symmetry_Int_Tables_number   1
_chemical_formula_structural   Y2BeGa8Cu17
_chemical_formula_sum   'Y2 Be1 Ga8 Cu17'
_cell_volume   396.06808747
_cell_formula_units_Z   1
loop_
 _symmetry_equiv_pos_site_id
 _symmetry_equiv_pos_as_xyz
  1  'x, y, z'
loop_
 _atom_site_type_symbol
 _atom_site_label
 _atom_site_symmetry_multiplicity
 _atom_site_fract_x
 _atom_site_fract_y
 _atom_site_fract_z
 _atom_site_occupancy
  Y  Y0  1  0.750000  0.750000  0.000000  1
  Y  Y1  1  0.250000  0.250000  0.000000  1
  Be  Be2  1  0.000000  0.500000  0.500000  1
  Ga  Ga3  1  0.060495  0.560495  0.863169  1
  Ga  Ga4  1  0.697326  0.197326  0.136831  1
  Ga  Ga5  1  0.555074  0.692920  0.500000  1
  Ga  Ga6  1  0.192920  0.055074  0.500000  1
  Ga  Ga7  1  0.939505  0.439505  0.136831  1
  Ga  Ga8  1  0.302674  0.802674  0.863169  1
  Ga  Ga9  1  0.444926  0.307080  0.500000  1
  Ga  Ga10  1  0.807080  0.944926  0.500000  1
  Cu  Cu11  1  0.061131  0.212544  0.273675  1
  Cu  Cu12  1  0.938869  0.787456  0.726325  1
  Cu  Cu13  1  0.556599  0.303399  0.859997  1
  Cu  Cu14  1  0.443401  0.696601  0.140003  1
  Cu  Cu15  1  0.803399  0.056599  0.859997  1
  Cu  Cu16  1  0.196601  0.943401  0.140003  1
  Cu  Cu17  1  0.712544  0.561131  0.273675  1
  Cu  Cu18  1  0.287456  0.438869  0.726325  1
  Cu  Cu19  1  0.440373  0.940373  0.737169  1
  Cu  Cu20  1  0.203205  0.703205  0.262831  1
  Cu  Cu21  1  0.936835  0.212967  0.500000  1
  Cu  Cu22  1  0.712967  0.436835  0.500000  1
  Cu  Cu23  1  0.559627  0.059627  0.262831  1
  Cu  Cu24  1  0.796795  0.296795  0.737169  1
  Cu  Cu25  1  0.063165  0.787033  0.500000  1
  Cu  Cu26  1  0.287033  0.563165  0.500000  1
  Cu  Cu27  1  0.500000  0.000000  0.500000  1
