# generated using pymatgen
data_Tb3Lu11Au20
_symmetry_space_group_name_H-M   'P 1'
_cell_length_a   8.63574902
_cell_length_b   8.63574864
_cell_length_c   10.27090104
_cell_angle_alpha   89.99405057
_cell_angle_beta   89.99405040
_cell_angle_gamma   107.30066319
_symmetry_Int_Tables_number   1
_chemical_formula_structural   Tb3Lu11Au20
_chemical_formula_sum   'Tb3 Lu11 Au20'
_cell_volume   731.31007494
_cell_formula_units_Z   1
loop_
 _symmetry_equiv_pos_site_id
 _symmetry_equiv_pos_as_xyz
  1  'x, y, z'
loop_
 _atom_site_type_symbol
 _atom_site_label
 _atom_site_symmetry_multiplicity
 _atom_site_fract_x
 _atom_site_fract_y
 _atom_site_fract_z
 _atom_site_occupancy
  Tb  Tb0  1  0.691550  0.691550  0.807539  1
  Tb  Tb1  1  0.189967  0.189967  0.691005  1
  Tb  Tb2  1  0.808672  0.808672  0.309607  1
  Lu  Lu3  1  0.696428  0.304240  0.000109  1
  Lu  Lu4  1  0.304240  0.696428  0.000109  1
  Lu  Lu5  1  0.803338  0.195721  0.499987  1
  Lu  Lu6  1  0.195721  0.803338  0.499987  1
  Lu  Lu7  1  0.000744  0.000744  0.001216  1
  Lu  Lu8  1  0.498483  0.498483  0.499137  1
  Lu  Lu9  1  0.003777  0.502320  0.250220  1
  Lu  Lu10  1  0.997099  0.496161  0.750720  1
  Lu  Lu11  1  0.496161  0.997099  0.750720  1
  Lu  Lu12  1  0.502320  0.003777  0.250220  1
  Lu  Lu13  1  0.312493  0.312493  0.187426  1
  Au  Au14  1  0.860319  0.150605  0.209488  1
  Au  Au15  1  0.138366  0.848417  0.791876  1
  Au  Au16  1  0.638753  0.348926  0.709351  1
  Au  Au17  1  0.648615  0.361170  0.289532  1
  Au  Au18  1  0.361170  0.648615  0.289532  1
  Au  Au19  1  0.348926  0.638753  0.709351  1
  Au  Au20  1  0.848417  0.138366  0.791876  1
  Au  Au21  1  0.150605  0.860319  0.209488  1
  Au  Au22  1  0.938179  0.644806  0.004301  1
  Au  Au23  1  0.064427  0.355032  0.997455  1
  Au  Au24  1  0.560601  0.854829  0.504478  1
  Au  Au25  1  0.143667  0.437595  0.496867  1
  Au  Au26  1  0.437595  0.143667  0.496867  1
  Au  Au27  1  0.854829  0.560601  0.504478  1
  Au  Au28  1  0.355032  0.064427  0.997455  1
  Au  Au29  1  0.644806  0.938179  0.004301  1
  Au  Au30  1  0.107232  0.107232  0.394922  1
  Au  Au31  1  0.898494  0.898494  0.599298  1
  Au  Au32  1  0.396851  0.396851  0.900143  1
  Au  Au33  1  0.602124  0.602124  0.100936  1
