# generated using pymatgen
data_Nd13Th3(InIr)4
_symmetry_space_group_name_H-M   'P 1'
_cell_length_a   10.00748219
_cell_length_b   10.03584296
_cell_length_c   10.03586700
_cell_angle_alpha   60.00003631
_cell_angle_beta   59.90616332
_cell_angle_gamma   59.90614172
_symmetry_Int_Tables_number   1
_chemical_formula_structural   Nd13Th3(InIr)4
_chemical_formula_sum   'Nd13 Th3 In4 Ir4'
_cell_volume   711.70692827
_cell_formula_units_Z   1
loop_
 _symmetry_equiv_pos_site_id
 _symmetry_equiv_pos_as_xyz
  1  'x, y, z'
loop_
 _atom_site_type_symbol
 _atom_site_label
 _atom_site_symmetry_multiplicity
 _atom_site_fract_x
 _atom_site_fract_y
 _atom_site_fract_z
 _atom_site_occupancy
  Nd  Nd0  1  0.950052  0.349983  0.349983  1
  Nd  Nd1  1  0.809684  0.191184  0.191185  1
  Nd  Nd2  1  0.192448  0.808546  0.808548  1
  Nd  Nd3  1  0.192446  0.808547  0.190459  1
  Nd  Nd4  1  0.809686  0.191183  0.807948  1
  Nd  Nd5  1  0.192447  0.190459  0.808549  1
  Nd  Nd6  1  0.809682  0.807946  0.191186  1
  Nd  Nd7  1  0.939791  0.561713  0.561712  1
  Nd  Nd8  1  0.561074  0.939670  0.939669  1
  Nd  Nd9  1  0.561072  0.939670  0.559588  1
  Nd  Nd10  1  0.939793  0.561712  0.936784  1
  Nd  Nd11  1  0.561074  0.559586  0.939670  1
  Nd  Nd12  1  0.939792  0.936784  0.561712  1
  Th  Th13  1  0.344223  0.346546  0.346547  1
  Th  Th14  1  0.344225  0.346546  0.962682  1
  Th  Th15  1  0.344223  0.962685  0.346546  1
  In  In16  1  0.579281  0.582520  0.582519  1
  In  In17  1  0.579278  0.582525  0.255673  1
  In  In18  1  0.579281  0.255680  0.582519  1
  In  In19  1  0.255846  0.581384  0.581385  1
  Ir  Ir20  1  0.150024  0.141307  0.141306  1
  Ir  Ir21  1  0.150025  0.141305  0.567365  1
  Ir  Ir22  1  0.150025  0.567363  0.141305  1
  Ir  Ir23  1  0.564528  0.145156  0.145159  1
