# generated using pymatgen
data_Ca3Ag(BrO3)8
_symmetry_space_group_name_H-M   'P 1'
_cell_length_a   5.78948243
_cell_length_b   11.23518893
_cell_length_c   11.30965900
_cell_angle_alpha   119.39638013
_cell_angle_beta   90.19470468
_cell_angle_gamma   90.25847831
_symmetry_Int_Tables_number   1
_chemical_formula_structural   Ca3Ag(BrO3)8
_chemical_formula_sum   'Ca3 Ag1 Br8 O24'
_cell_volume   640.90905950
_cell_formula_units_Z   1
loop_
 _symmetry_equiv_pos_site_id
 _symmetry_equiv_pos_as_xyz
  1  'x, y, z'
loop_
 _atom_site_type_symbol
 _atom_site_label
 _atom_site_symmetry_multiplicity
 _atom_site_fract_x
 _atom_site_fract_y
 _atom_site_fract_z
 _atom_site_occupancy
  Ca  Ca0  1  0.645594  0.232583  0.490460  1
  Ca  Ca1  1  0.140553  0.267392  0.008391  1
  Ca  Ca2  1  0.632370  0.731851  0.991223  1
  Ag  Ag3  1  0.143685  0.767232  0.508199  1
  Br  Br4  1  0.283561  0.419793  0.350471  1
  Br  Br5  1  0.780266  0.588981  0.643508  1
  Br  Br6  1  0.265586  0.917225  0.845712  1
  Br  Br7  1  0.763954  0.080987  0.144217  1
  Br  Br8  1  0.776924  0.088338  0.696194  1
  Br  Br9  1  0.269607  0.906501  0.312610  1
  Br  Br10  1  0.278789  0.412693  0.802174  1
  Br  Br11  1  0.784737  0.588693  0.201858  1
  O  O12  1  0.415485  0.883803  0.953650  1
  O  O13  1  0.921223  0.108196  0.035439  1
  O  O14  1  0.379084  0.808513  0.690551  1
  O  O15  1  0.868466  0.191654  0.299566  1
  O  O16  1  0.375808  0.301353  0.194203  1
  O  O17  1  0.873044  0.697762  0.802038  1
  O  O18  1  0.910542  0.227645  0.822152  1
  O  O19  1  0.401726  0.775008  0.182216  1
  O  O20  1  0.916387  0.952764  0.684623  1
  O  O21  1  0.410302  0.046834  0.334608  1
  O  O22  1  0.368084  0.071806  0.880463  1
  O  O23  1  0.858311  0.928090  0.119293  1
  O  O24  1  0.416797  0.278105  0.678466  1
  O  O25  1  0.926792  0.728487  0.325245  1
  O  O26  1  0.345724  0.407180  0.944466  1
  O  O27  1  0.841201  0.597807  0.060398  1
  O  O28  1  0.421069  0.551806  0.820037  1
  O  O29  1  0.931299  0.451445  0.181594  1
  O  O30  1  0.405748  0.566184  0.375259  1
  O  O31  1  0.869644  0.435288  0.616916  1
  O  O32  1  0.424094  0.384695  0.460246  1
  O  O33  1  0.957273  0.612047  0.535312  1
  O  O34  1  0.851154  0.095036  0.554750  1
  O  O35  1  0.354718  0.896229  0.453488  1
