# generated using pymatgen
data_Sm2TaIr3
_symmetry_space_group_name_H-M   'P 1'
_cell_length_a   5.29395861
_cell_length_b   5.29395938
_cell_length_c   5.29395930
_cell_angle_alpha   65.56117954
_cell_angle_beta   65.56117530
_cell_angle_gamma   65.56115827
_symmetry_Int_Tables_number   1
_chemical_formula_structural   Sm2TaIr3
_chemical_formula_sum   'Sm2 Ta1 Ir3'
_cell_volume   117.58925335
_cell_formula_units_Z   1
loop_
 _symmetry_equiv_pos_site_id
 _symmetry_equiv_pos_as_xyz
  1  'x, y, z'
loop_
 _atom_site_type_symbol
 _atom_site_label
 _atom_site_symmetry_multiplicity
 _atom_site_fract_x
 _atom_site_fract_y
 _atom_site_fract_z
 _atom_site_occupancy
  Sm  Sm0  1  0.874521  0.874521  0.874521  1
  Sm  Sm1  1  0.125479  0.125479  0.125479  1
  Ta  Ta2  1  0.500000  0.500000  0.500000  1
  Ir  Ir3  1  0.000000  0.500000  0.500000  1
  Ir  Ir4  1  0.500000  0.500000  0.000000  1
  Ir  Ir5  1  0.500000  0.000000  0.500000  1
