# generated using pymatgen
data_Y2Ho14Cd4Ru3Rh
_symmetry_space_group_name_H-M   'P 1'
_cell_length_a   9.59243414
_cell_length_b   9.59243378
_cell_length_c   9.58497828
_cell_angle_alpha   59.95472528
_cell_angle_beta   59.95472683
_cell_angle_gamma   59.90385932
_symmetry_Int_Tables_number   1
_chemical_formula_structural   Y2Ho14Cd4Ru3Rh
_chemical_formula_sum   'Y2 Ho14 Cd4 Ru3 Rh1'
_cell_volume   622.75916019
_cell_formula_units_Z   1
loop_
 _symmetry_equiv_pos_site_id
 _symmetry_equiv_pos_as_xyz
  1  'x, y, z'
loop_
 _atom_site_type_symbol
 _atom_site_label
 _atom_site_symmetry_multiplicity
 _atom_site_fract_x
 _atom_site_fract_y
 _atom_site_fract_z
 _atom_site_occupancy
  Y  Y0  1  0.937391  0.937391  0.562051  1
  Y  Y1  1  0.562924  0.562924  0.935115  1
  Ho  Ho2  1  0.688851  0.688851  0.311478  1
  Ho  Ho3  1  0.151536  0.543060  0.151737  1
  Ho  Ho4  1  0.688819  0.311488  0.688713  1
  Ho  Ho5  1  0.152684  0.152684  0.152799  1
  Ho  Ho6  1  0.543060  0.151536  0.151737  1
  Ho  Ho7  1  0.691202  0.311115  0.311172  1
  Ho  Ho8  1  0.151698  0.151698  0.543051  1
  Ho  Ho9  1  0.311115  0.691202  0.311172  1
  Ho  Ho10  1  0.311488  0.688819  0.688713  1
  Ho  Ho11  1  0.936418  0.561451  0.561508  1
  Ho  Ho12  1  0.938800  0.560686  0.938785  1
  Ho  Ho13  1  0.561451  0.936418  0.561508  1
  Ho  Ho14  1  0.560686  0.938800  0.938785  1
  Ho  Ho15  1  0.311067  0.311067  0.691169  1
  Cd  Cd16  1  0.919732  0.919732  0.240886  1
  Cd  Cd17  1  0.240845  0.920092  0.919764  1
  Cd  Cd18  1  0.919341  0.919341  0.919706  1
  Cd  Cd19  1  0.920092  0.240845  0.919764  1
  Ru  Ru20  1  0.359475  0.359475  0.921437  1
  Ru  Ru21  1  0.360449  0.921540  0.359445  1
  Ru  Ru22  1  0.921540  0.360449  0.359445  1
  Rh  Rh23  1  0.359334  0.359334  0.360055  1
