# generated using pymatgen
data_Dy2Pa(AlRh)3
_symmetry_space_group_name_H-M   'P 1'
_cell_length_a   7.17997902
_cell_length_b   7.17997910
_cell_length_c   3.87189700
_cell_angle_alpha   90.00000000
_cell_angle_beta   90.00000000
_cell_angle_gamma   118.94732003
_symmetry_Int_Tables_number   1
_chemical_formula_structural   Dy2Pa(AlRh)3
_chemical_formula_sum   'Dy2 Pa1 Al3 Rh3'
_cell_volume   174.66685863
_cell_formula_units_Z   1
loop_
 _symmetry_equiv_pos_site_id
 _symmetry_equiv_pos_as_xyz
  1  'x, y, z'
loop_
 _atom_site_type_symbol
 _atom_site_label
 _atom_site_symmetry_multiplicity
 _atom_site_fract_x
 _atom_site_fract_y
 _atom_site_fract_z
 _atom_site_occupancy
  Dy  Dy0  1  0.582443  0.994299  0.500000  1
  Dy  Dy1  1  0.994299  0.582443  0.500000  1
  Pa  Pa2  1  0.421792  0.421792  0.500000  1
  Al  Al3  1  0.773619  0.773619  0.000000  1
  Al  Al4  1  0.242424  0.990857  0.000000  1
  Al  Al5  1  0.990857  0.242424  0.000000  1
  Rh  Rh6  1  0.638554  0.336794  0.000000  1
  Rh  Rh7  1  0.336794  0.638554  0.000000  1
  Rh  Rh8  1  0.019219  0.019219  0.500000  1
