# generated using pymatgen
data_LiMoPt6
_symmetry_space_group_name_H-M   'P 1'
_cell_length_a   5.56508523
_cell_length_b   5.56508483
_cell_length_c   3.90661800
_cell_angle_alpha   90.00000000
_cell_angle_beta   90.00000000
_cell_angle_gamma   90.15371615
_symmetry_Int_Tables_number   1
_chemical_formula_structural   LiMoPt6
_chemical_formula_sum   'Li1 Mo1 Pt6'
_cell_volume   120.98819360
_cell_formula_units_Z   1
loop_
 _symmetry_equiv_pos_site_id
 _symmetry_equiv_pos_as_xyz
  1  'x, y, z'
loop_
 _atom_site_type_symbol
 _atom_site_label
 _atom_site_symmetry_multiplicity
 _atom_site_fract_x
 _atom_site_fract_y
 _atom_site_fract_z
 _atom_site_occupancy
  Li  Li0  1  0.627285  0.372715  0.000000  1
  Mo  Mo1  1  0.124550  0.875450  0.000000  1
  Pt  Pt2  1  0.624393  0.874769  0.000000  1
  Pt  Pt3  1  0.125231  0.375607  0.000000  1
  Pt  Pt4  1  0.876546  0.627306  0.500000  1
  Pt  Pt5  1  0.372694  0.123454  0.500000  1
  Pt  Pt6  1  0.877855  0.122145  0.500000  1
  Pt  Pt7  1  0.371450  0.628550  0.500000  1
