# generated using pymatgen
data_Lu4CoRe2Os5
_symmetry_space_group_name_H-M   'P 1'
_cell_length_a   5.16251875
_cell_length_b   5.30682200
_cell_length_c   8.76781600
_cell_angle_alpha   90.00000000
_cell_angle_beta   90.00000000
_cell_angle_gamma   119.46050095
_symmetry_Int_Tables_number   1
_chemical_formula_structural   Lu4CoRe2Os5
_chemical_formula_sum   'Lu4 Co1 Re2 Os5'
_cell_volume   209.14795410
_cell_formula_units_Z   1
loop_
 _symmetry_equiv_pos_site_id
 _symmetry_equiv_pos_as_xyz
  1  'x, y, z'
loop_
 _atom_site_type_symbol
 _atom_site_label
 _atom_site_symmetry_multiplicity
 _atom_site_fract_x
 _atom_site_fract_y
 _atom_site_fract_z
 _atom_site_occupancy
  Lu  Lu0  1  0.338698  0.668180  0.437653  1
  Lu  Lu1  1  0.667652  0.328866  0.565754  1
  Lu  Lu2  1  0.667652  0.328866  0.934246  1
  Lu  Lu3  1  0.338698  0.668180  0.062347  1
  Co  Co4  1  0.167845  0.348847  0.750000  1
  Re  Re5  1  0.167316  0.836465  0.750000  1
  Re  Re6  1  0.331704  0.167968  0.250000  1
  Os  Os7  1  0.826321  0.657186  0.250000  1
  Os  Os8  1  0.647786  0.830201  0.750000  1
  Os  Os9  1  0.011877  0.995571  0.995958  1
  Os  Os10  1  0.822574  0.174104  0.250000  1
  Os  Os11  1  0.011877  0.995571  0.504042  1
