# generated using pymatgen
data_TbSc7Ti8(Si4Mo)4
_symmetry_space_group_name_H-M   'P 1'
_cell_length_a   6.84438626
_cell_length_b   6.84670570
_cell_length_c   12.55917942
_cell_angle_alpha   89.88985002
_cell_angle_beta   90.00092403
_cell_angle_gamma   89.94029354
_symmetry_Int_Tables_number   1
_chemical_formula_structural   TbSc7Ti8(Si4Mo)4
_chemical_formula_sum   'Tb1 Sc7 Ti8 Si16 Mo4'
_cell_volume   588.54055884
_cell_formula_units_Z   1
loop_
 _symmetry_equiv_pos_site_id
 _symmetry_equiv_pos_as_xyz
  1  'x, y, z'
loop_
 _atom_site_type_symbol
 _atom_site_label
 _atom_site_symmetry_multiplicity
 _atom_site_fract_x
 _atom_site_fract_y
 _atom_site_fract_z
 _atom_site_occupancy
  Tb  Tb0  1  0.996195  0.660682  0.032151  1
  Sc  Sc1  1  0.341008  0.999454  0.468254  1
  Sc  Sc2  1  0.500676  0.841170  0.716514  1
  Sc  Sc3  1  0.498248  0.159211  0.219180  1
  Sc  Sc4  1  0.841452  0.501108  0.283462  1
  Sc  Sc5  1  0.159268  0.498535  0.782076  1
  Sc  Sc6  1  0.657161  0.001717  0.966149  1
  Sc  Sc7  1  0.999124  0.341522  0.532156  1
  Ti  Ti8  1  0.152358  0.005780  0.873036  1
  Ti  Ti9  1  0.493595  0.650256  0.125404  1
  Ti  Ti10  1  0.507274  0.350448  0.624152  1
  Ti  Ti11  1  0.650179  0.490019  0.873589  1
  Ti  Ti12  1  0.350589  0.507021  0.376605  1
  Ti  Ti13  1  0.850360  0.993651  0.376370  1
  Ti  Ti14  1  0.008105  0.151124  0.125863  1
  Ti  Ti15  1  0.992961  0.850674  0.624277  1
  Si  Si16  1  0.204117  0.136802  0.679001  1
  Si  Si17  1  0.369299  0.704898  0.928518  1
  Si  Si18  1  0.636780  0.296023  0.430046  1
  Si  Si19  1  0.699612  0.358687  0.069310  1
  Si  Si20  1  0.295628  0.636598  0.570518  1
  Si  Si21  1  0.791797  0.869891  0.184282  1
  Si  Si22  1  0.136444  0.203660  0.321368  1
  Si  Si23  1  0.862509  0.797681  0.816901  1
  Si  Si24  1  0.300753  0.956566  0.065329  1
  Si  Si25  1  0.544920  0.798092  0.316519  1
  Si  Si26  1  0.453069  0.202216  0.813820  1
  Si  Si27  1  0.797838  0.546350  0.684074  1
  Si  Si28  1  0.206029  0.450811  0.187579  1
  Si  Si29  1  0.701857  0.046799  0.565131  1
  Si  Si30  1  0.952428  0.290386  0.933332  1
  Si  Si31  1  0.046666  0.702464  0.435141  1
  Mo  Mo32  1  0.327757  0.325338  0.999535  1
  Mo  Mo33  1  0.174143  0.828247  0.251499  1
  Mo  Mo34  1  0.826468  0.172943  0.748686  1
  Mo  Mo35  1  0.673333  0.673178  0.500171  1
