# generated using pymatgen
data_Eu3ErH10
_symmetry_space_group_name_H-M   'P 1'
_cell_length_a   6.53577214
_cell_length_b   6.53577188
_cell_length_c   6.53577193
_cell_angle_alpha   131.31832765
_cell_angle_beta   130.71487537
_cell_angle_gamma   71.78780586
_symmetry_Int_Tables_number   1
_chemical_formula_structural   Eu3ErH10
_chemical_formula_sum   'Eu3 Er1 H10'
_cell_volume   155.47182007
_cell_formula_units_Z   1
loop_
 _symmetry_equiv_pos_site_id
 _symmetry_equiv_pos_as_xyz
  1  'x, y, z'
loop_
 _atom_site_type_symbol
 _atom_site_label
 _atom_site_symmetry_multiplicity
 _atom_site_fract_x
 _atom_site_fract_y
 _atom_site_fract_z
 _atom_site_occupancy
  Eu  Eu0  1  0.765102  0.765102  0.000000  1
  Eu  Eu1  1  0.986319  0.486319  0.500000  1
  Eu  Eu2  1  0.237213  0.237213  0.000000  1
  Er  Er3  1  0.516199  0.016199  0.500000  1
  H  H4  1  0.382477  0.390237  0.533709  1
  H  H5  1  0.856528  0.848768  0.466291  1
  H  H6  1  0.592185  0.118237  0.950649  1
  H  H7  1  0.167588  0.641537  0.049351  1
  H  H8  1  0.382477  0.848768  0.992240  1
  H  H9  1  0.856528  0.390237  0.007760  1
  H  H10  1  0.592185  0.641537  0.473948  1
  H  H11  1  0.167588  0.118237  0.526052  1
  H  H12  1  0.745875  0.245875  0.500000  1
  H  H13  1  0.001736  0.001736  0.000000  1
