# generated using pymatgen
data_Er2BeRu2
_symmetry_space_group_name_H-M   'P 1'
_cell_length_a   3.42862787
_cell_length_b   6.18950079
_cell_length_c   5.50284629
_cell_angle_alpha   124.22129301
_cell_angle_beta   108.15157558
_cell_angle_gamma   90.00000745
_symmetry_Int_Tables_number   1
_chemical_formula_structural   Er2BeRu2
_chemical_formula_sum   'Er2 Be1 Ru2'
_cell_volume   89.44545195
_cell_formula_units_Z   1
loop_
 _symmetry_equiv_pos_site_id
 _symmetry_equiv_pos_as_xyz
  1  'x, y, z'
loop_
 _atom_site_type_symbol
 _atom_site_label
 _atom_site_symmetry_multiplicity
 _atom_site_fract_x
 _atom_site_fract_y
 _atom_site_fract_z
 _atom_site_occupancy
  Er  Er0  1  0.797795  0.297795  0.595589  1
  Er  Er1  1  0.202205  0.702205  0.404411  1
  Be  Be2  1  0.000000  0.000000  0.000000  1
  Ru  Ru3  1  0.500000  0.245007  0.000000  1
  Ru  Ru4  1  0.500000  0.754993  0.000000  1
