# generated using pymatgen
data_La2In4NiRu
_symmetry_space_group_name_H-M   'P 1'
_cell_length_a   5.58158257
_cell_length_b   5.58158276
_cell_length_c   8.06704000
_cell_angle_alpha   90.00000000
_cell_angle_beta   90.00000000
_cell_angle_gamma   132.26766578
_symmetry_Int_Tables_number   1
_chemical_formula_structural   La2In4NiRu
_chemical_formula_sum   'La2 In4 Ni1 Ru1'
_cell_volume   185.98031623
_cell_formula_units_Z   1
loop_
 _symmetry_equiv_pos_site_id
 _symmetry_equiv_pos_as_xyz
  1  'x, y, z'
loop_
 _atom_site_type_symbol
 _atom_site_label
 _atom_site_symmetry_multiplicity
 _atom_site_fract_x
 _atom_site_fract_y
 _atom_site_fract_z
 _atom_site_occupancy
  La  La0  1  0.063084  0.936916  0.250000  1
  La  La1  1  0.944710  0.055290  0.750000  1
  In  In2  1  0.652315  0.347685  0.542689  1
  In  In3  1  0.351488  0.648512  0.446013  1
  In  In4  1  0.652315  0.347685  0.957311  1
  In  In5  1  0.351488  0.648512  0.053987  1
  Ni  Ni6  1  0.784773  0.215227  0.250000  1
  Ru  Ru7  1  0.199830  0.800170  0.750000  1
