# generated using pymatgen
data_Tb4Ho(SiBi)2
_symmetry_space_group_name_H-M   'P 1'
_cell_length_a   8.69232330
_cell_length_b   8.69232378
_cell_length_c   7.95504300
_cell_angle_alpha   90.00000000
_cell_angle_beta   90.00000000
_cell_angle_gamma   125.65610491
_symmetry_Int_Tables_number   1
_chemical_formula_structural   Tb4Ho(SiBi)2
_chemical_formula_sum   'Tb8 Ho2 Si4 Bi4'
_cell_volume   488.37552196
_cell_formula_units_Z   2
loop_
 _symmetry_equiv_pos_site_id
 _symmetry_equiv_pos_as_xyz
  1  'x, y, z'
loop_
 _atom_site_type_symbol
 _atom_site_label
 _atom_site_symmetry_multiplicity
 _atom_site_fract_x
 _atom_site_fract_y
 _atom_site_fract_z
 _atom_site_occupancy
  Tb  Tb0  1  0.043396  0.287593  0.334937  1
  Tb  Tb1  1  0.956604  0.712407  0.665063  1
  Tb  Tb2  1  0.456604  0.212407  0.834937  1
  Tb  Tb3  1  0.787593  0.543396  0.165063  1
  Tb  Tb4  1  0.543396  0.787593  0.165063  1
  Tb  Tb5  1  0.212407  0.456604  0.834937  1
  Tb  Tb6  1  0.712407  0.956604  0.665063  1
  Tb  Tb7  1  0.287593  0.043396  0.334937  1
  Ho  Ho8  1  0.000000  0.000000  0.000000  1
  Ho  Ho9  1  0.500000  0.500000  0.500000  1
  Si  Si10  1  0.366156  0.366156  0.132714  1
  Si  Si11  1  0.633844  0.633844  0.867286  1
  Si  Si12  1  0.133844  0.133844  0.632714  1
  Si  Si13  1  0.866156  0.866156  0.367286  1
  Bi  Bi14  1  0.792593  0.207407  0.000000  1
  Bi  Bi15  1  0.207407  0.792593  0.000000  1
  Bi  Bi16  1  0.707407  0.292593  0.500000  1
  Bi  Bi17  1  0.292593  0.707407  0.500000  1
