# generated using pymatgen
data_Y2Mn5P7Ir6W
_symmetry_space_group_name_H-M   'P 1'
_cell_length_a   9.38849500
_cell_length_b   9.37170115
_cell_length_c   3.83714100
_cell_angle_alpha   90.00000000
_cell_angle_beta   90.00000000
_cell_angle_gamma   119.61564902
_symmetry_Int_Tables_number   1
_chemical_formula_structural   Y2Mn5P7Ir6W
_chemical_formula_sum   'Y2 Mn5 P7 Ir6 W1'
_cell_volume   293.50926621
_cell_formula_units_Z   1
loop_
 _symmetry_equiv_pos_site_id
 _symmetry_equiv_pos_as_xyz
  1  'x, y, z'
loop_
 _atom_site_type_symbol
 _atom_site_label
 _atom_site_symmetry_multiplicity
 _atom_site_fract_x
 _atom_site_fract_y
 _atom_site_fract_z
 _atom_site_occupancy
  Y  Y0  1  0.998627  0.998625  0.000000  1
  Y  Y1  1  0.666508  0.334488  0.500000  1
  Mn  Mn2  1  0.222410  0.398119  0.000000  1
  Mn  Mn3  1  0.603044  0.827439  0.000000  1
  Mn  Mn4  1  0.177439  0.777924  0.000000  1
  Mn  Mn5  1  0.428292  0.878274  0.500000  1
  Mn  Mn6  1  0.122046  0.548447  0.500000  1
  P  P7  1  0.442362  0.369187  0.000000  1
  P  P8  1  0.632879  0.077551  0.000000  1
  P  P9  1  0.927746  0.557930  0.000000  1
  P  P10  1  0.055520  0.272256  0.500000  1
  P  P11  1  0.730504  0.785954  0.500000  1
  P  P12  1  0.214519  0.941679  0.500000  1
  P  P13  1  0.333329  0.666566  0.000000  1
  Ir  Ir14  1  0.696566  0.598876  0.000000  1
  Ir  Ir15  1  0.398859  0.095085  0.000000  1
  Ir  Ir16  1  0.907496  0.305326  0.000000  1
  Ir  Ir17  1  0.272791  0.219467  0.500000  1
  Ir  Ir18  1  0.774613  0.053945  0.500000  1
  Ir  Ir19  1  0.947935  0.721084  0.500000  1
  W  W20  1  0.446513  0.571779  0.500000  1
