# generated using pymatgen
data_Tb15ErMgAg3Ir4
_symmetry_space_group_name_H-M   'P 1'
_cell_length_a   9.57380906
_cell_length_b   9.61002617
_cell_length_c   9.61002629
_cell_angle_alpha   60.39395216
_cell_angle_beta   60.40860741
_cell_angle_gamma   60.40861207
_symmetry_Int_Tables_number   1
_chemical_formula_structural   Tb15ErMgAg3Ir4
_chemical_formula_sum   'Tb15 Er1 Mg1 Ag3 Ir4'
_cell_volume   630.90785964
_cell_formula_units_Z   1
loop_
 _symmetry_equiv_pos_site_id
 _symmetry_equiv_pos_as_xyz
  1  'x, y, z'
loop_
 _atom_site_type_symbol
 _atom_site_label
 _atom_site_symmetry_multiplicity
 _atom_site_fract_x
 _atom_site_fract_y
 _atom_site_fract_z
 _atom_site_occupancy
  Tb  Tb0  1  0.814574  0.187323  0.187323  1
  Tb  Tb1  1  0.064182  0.437712  0.061273  1
  Tb  Tb2  1  0.060264  0.646522  0.646522  1
  Tb  Tb3  1  0.649759  0.652001  0.652001  1
  Tb  Tb4  1  0.064182  0.061273  0.437712  1
  Tb  Tb5  1  0.191102  0.810837  0.189095  1
  Tb  Tb6  1  0.814333  0.812726  0.186884  1
  Tb  Tb7  1  0.814333  0.186884  0.812726  1
  Tb  Tb8  1  0.437320  0.061930  0.438048  1
  Tb  Tb9  1  0.437320  0.438048  0.061930  1
  Tb  Tb10  1  0.436335  0.062950  0.062950  1
  Tb  Tb11  1  0.064762  0.437586  0.437586  1
  Tb  Tb12  1  0.191102  0.189095  0.810837  1
  Tb  Tb13  1  0.649899  0.651613  0.046724  1
  Tb  Tb14  1  0.649899  0.046724  0.651613  1
  Er  Er15  1  0.190552  0.810797  0.810797  1
  Mg  Mg16  1  0.711555  0.429293  0.429293  1
  Ag  Ag17  1  0.417942  0.415402  0.750340  1
  Ag  Ag18  1  0.417942  0.750340  0.415402  1
  Ag  Ag19  1  0.417862  0.415480  0.415480  1
  Ir  Ir20  1  0.858900  0.855849  0.426605  1
  Ir  Ir21  1  0.858900  0.426605  0.855849  1
  Ir  Ir22  1  0.862273  0.856557  0.856557  1
  Ir  Ir23  1  0.424715  0.856458  0.856458  1
