# generated using pymatgen
data_Tb2Dy(Al3Os)4
_symmetry_space_group_name_H-M   'P 1'
_cell_length_a   8.83711117
_cell_length_b   8.83711150
_cell_length_c   9.57544600
_cell_angle_alpha   90.00000000
_cell_angle_beta   90.00000000
_cell_angle_gamma   120.05887763
_symmetry_Int_Tables_number   1
_chemical_formula_structural   Tb2Dy(Al3Os)4
_chemical_formula_sum   'Tb4 Dy2 Al24 Os8'
_cell_volume   647.22059381
_cell_formula_units_Z   2
loop_
 _symmetry_equiv_pos_site_id
 _symmetry_equiv_pos_as_xyz
  1  'x, y, z'
loop_
 _atom_site_type_symbol
 _atom_site_label
 _atom_site_symmetry_multiplicity
 _atom_site_fract_x
 _atom_site_fract_y
 _atom_site_fract_z
 _atom_site_occupancy
  Tb  Tb0  1  0.193255  0.386440  0.250000  1
  Tb  Tb1  1  0.806745  0.613560  0.750000  1
  Tb  Tb2  1  0.613560  0.806745  0.250000  1
  Tb  Tb3  1  0.386440  0.193255  0.750000  1
  Dy  Dy4  1  0.193509  0.806491  0.250000  1
  Dy  Dy5  1  0.806491  0.193509  0.750000  1
  Al  Al6  1  0.333312  0.666688  0.015202  1
  Al  Al7  1  0.666688  0.333312  0.984798  1
  Al  Al8  1  0.666688  0.333312  0.515202  1
  Al  Al9  1  0.333312  0.666688  0.484798  1
  Al  Al10  1  0.162399  0.325221  0.575805  1
  Al  Al11  1  0.837601  0.674779  0.424195  1
  Al  Al12  1  0.674779  0.837601  0.575805  1
  Al  Al13  1  0.837601  0.674779  0.075805  1
  Al  Al14  1  0.325221  0.162399  0.424195  1
  Al  Al15  1  0.162399  0.325221  0.924195  1
  Al  Al16  1  0.162572  0.837428  0.575574  1
  Al  Al17  1  0.325221  0.162399  0.075805  1
  Al  Al18  1  0.837428  0.162572  0.424426  1
  Al  Al19  1  0.674779  0.837601  0.924195  1
  Al  Al20  1  0.837428  0.162572  0.075574  1
  Al  Al21  1  0.162572  0.837428  0.924426  1
  Al  Al22  1  0.560520  0.121406  0.250000  1
  Al  Al23  1  0.439480  0.878594  0.750000  1
  Al  Al24  1  0.878594  0.439480  0.250000  1
  Al  Al25  1  0.121406  0.560520  0.750000  1
  Al  Al26  1  0.560886  0.439114  0.250000  1
  Al  Al27  1  0.439114  0.560886  0.750000  1
  Al  Al28  1  0.000295  0.999705  0.250000  1
  Al  Al29  1  0.999705  0.000295  0.750000  1
  Os  Os30  1  0.500000  0.000000  0.000000  1
  Os  Os31  1  0.000000  0.500000  0.000000  1
  Os  Os32  1  0.500000  0.000000  0.500000  1
  Os  Os33  1  0.500000  0.500000  0.000000  1
  Os  Os34  1  0.000000  0.500000  0.500000  1
  Os  Os35  1  0.500000  0.500000  0.500000  1
  Os  Os36  1  0.000000  0.000000  0.000000  1
  Os  Os37  1  0.000000  0.000000  0.500000  1
