# generated using pymatgen
data_Ac2C2S
_symmetry_space_group_name_H-M   'P 1'
_cell_length_a   7.62765439
_cell_length_b   7.62765423
_cell_length_c   7.29192549
_cell_angle_alpha   78.45200248
_cell_angle_beta   78.45200351
_cell_angle_gamma   33.70246110
_symmetry_Int_Tables_number   1
_chemical_formula_structural   Ac2C2S
_chemical_formula_sum   'Ac4 C4 S2'
_cell_volume   230.20175954
_cell_formula_units_Z   2
loop_
 _symmetry_equiv_pos_site_id
 _symmetry_equiv_pos_as_xyz
  1  'x, y, z'
loop_
 _atom_site_type_symbol
 _atom_site_label
 _atom_site_symmetry_multiplicity
 _atom_site_fract_x
 _atom_site_fract_y
 _atom_site_fract_z
 _atom_site_occupancy
  Ac  Ac0  1  0.570930  0.160452  0.138817  1
  Ac  Ac1  1  0.160480  0.570940  0.638843  1
  Ac  Ac2  1  0.429060  0.839520  0.861157  1
  Ac  Ac3  1  0.839548  0.429070  0.361183  1
  C  C4  1  0.364612  0.089491  0.471979  1
  C  C5  1  0.910509  0.635388  0.028021  1
  C  C6  1  0.635355  0.910650  0.528049  1
  C  C7  1  0.089350  0.364645  0.971951  1
  S  S8  1  0.788396  0.211604  0.750000  1
  S  S9  1  0.211760  0.788240  0.250000  1
