# generated using pymatgen
data_Hf16Ni4Mo3Os
_symmetry_space_group_name_H-M   'P 1'
_cell_length_a   8.66740221
_cell_length_b   8.66740262
_cell_length_c   8.66740401
_cell_angle_alpha   60.02652256
_cell_angle_beta   60.02651073
_cell_angle_gamma   60.02651978
_symmetry_Int_Tables_number   1
_chemical_formula_structural   Hf16Ni4Mo3Os
_chemical_formula_sum   'Hf16 Ni4 Mo3 Os1'
_cell_volume   460.69441721
_cell_formula_units_Z   1
loop_
 _symmetry_equiv_pos_site_id
 _symmetry_equiv_pos_as_xyz
  1  'x, y, z'
loop_
 _atom_site_type_symbol
 _atom_site_label
 _atom_site_symmetry_multiplicity
 _atom_site_fract_x
 _atom_site_fract_y
 _atom_site_fract_z
 _atom_site_occupancy
  Hf  Hf0  1  0.689830  0.103804  0.103804  1
  Hf  Hf1  1  0.103804  0.689830  0.103804  1
  Hf  Hf2  1  0.103804  0.103804  0.689830  1
  Hf  Hf3  1  0.103522  0.103522  0.103522  1
  Hf  Hf4  1  0.315143  0.315143  0.683433  1
  Hf  Hf5  1  0.685092  0.685092  0.315008  1
  Hf  Hf6  1  0.315143  0.683433  0.315143  1
  Hf  Hf7  1  0.685092  0.315008  0.685092  1
  Hf  Hf8  1  0.683433  0.315143  0.315143  1
  Hf  Hf9  1  0.315008  0.685092  0.685092  1
  Hf  Hf10  1  0.952502  0.952502  0.547349  1
  Hf  Hf11  1  0.547028  0.547028  0.953137  1
  Hf  Hf12  1  0.952502  0.547349  0.952502  1
  Hf  Hf13  1  0.547028  0.953137  0.547028  1
  Hf  Hf14  1  0.547349  0.952502  0.952502  1
  Hf  Hf15  1  0.953137  0.547028  0.547028  1
  Ni  Ni16  1  0.324156  0.891431  0.891431  1
  Ni  Ni17  1  0.891431  0.324156  0.891431  1
  Ni  Ni18  1  0.891431  0.891431  0.324156  1
  Ni  Ni19  1  0.891746  0.891746  0.891746  1
  Mo  Mo20  1  0.000174  0.333530  0.333530  1
  Mo  Mo21  1  0.333530  0.000174  0.333530  1
  Mo  Mo22  1  0.333530  0.333530  0.000174  1
  Os  Os23  1  0.334580  0.334580  0.334580  1
