# generated using pymatgen
data_GdErTm2(WO6)2
_symmetry_space_group_name_H-M   'P 1'
_cell_length_a   5.38153200
_cell_length_b   7.67411950
_cell_length_c   11.42665026
_cell_angle_alpha   75.39359510
_cell_angle_beta   90.00000000
_cell_angle_gamma   90.00000000
_symmetry_Int_Tables_number   1
_chemical_formula_structural   GdErTm2(WO6)2
_chemical_formula_sum   'Gd2 Er2 Tm4 W4 O24'
_cell_volume   456.65227672
_cell_formula_units_Z   2
loop_
 _symmetry_equiv_pos_site_id
 _symmetry_equiv_pos_as_xyz
  1  'x, y, z'
loop_
 _atom_site_type_symbol
 _atom_site_label
 _atom_site_symmetry_multiplicity
 _atom_site_fract_x
 _atom_site_fract_y
 _atom_site_fract_z
 _atom_site_occupancy
  Gd  Gd0  1  0.684992  0.500000  0.750000  1
  Gd  Gd1  1  0.315008  0.500000  0.250000  1
  Er  Er2  1  0.740981  0.000000  0.750000  1
  Er  Er3  1  0.259019  0.000000  0.250000  1
  Tm  Tm4  1  0.185862  0.796820  0.577902  1
  Tm  Tm5  1  0.814138  0.796820  0.077902  1
  Tm  Tm6  1  0.185862  0.203180  0.922098  1
  Tm  Tm7  1  0.814138  0.203180  0.422098  1
  W  W8  1  0.254542  0.725244  0.885457  1
  W  W9  1  0.745458  0.725244  0.385457  1
  W  W10  1  0.254542  0.274756  0.614543  1
  W  W11  1  0.745458  0.274756  0.114543  1
  O  O12  1  0.041003  0.941587  0.896148  1
  O  O13  1  0.534613  0.847684  0.931225  1
  O  O14  1  0.958997  0.941587  0.396148  1
  O  O15  1  0.457866  0.793372  0.726259  1
  O  O16  1  0.465387  0.847684  0.431225  1
  O  O17  1  0.984053  0.715624  0.769314  1
  O  O18  1  0.542134  0.793372  0.226259  1
  O  O19  1  0.855781  0.637622  0.548018  1
  O  O20  1  0.355420  0.489163  0.887686  1
  O  O21  1  0.015947  0.715624  0.269314  1
  O  O22  1  0.355420  0.510837  0.612314  1
  O  O23  1  0.855781  0.362378  0.951982  1
  O  O24  1  0.144219  0.637622  0.048018  1
  O  O25  1  0.644580  0.489163  0.387686  1
  O  O26  1  0.984053  0.284376  0.730686  1
  O  O27  1  0.644580  0.510837  0.112314  1
  O  O28  1  0.144219  0.362378  0.451982  1
  O  O29  1  0.457866  0.206628  0.773741  1
  O  O30  1  0.015947  0.284376  0.230686  1
  O  O31  1  0.534613  0.152316  0.568775  1
  O  O32  1  0.542134  0.206628  0.273741  1
  O  O33  1  0.041003  0.058413  0.603852  1
  O  O34  1  0.465387  0.152316  0.068775  1
  O  O35  1  0.958997  0.058413  0.103852  1
