# generated using pymatgen
data_AsWF8
_symmetry_space_group_name_H-M   'P 1'
_cell_length_a   8.50736400
_cell_length_b   5.83089678
_cell_length_c   7.04036108
_cell_angle_alpha   84.35638292
_cell_angle_beta   90.00000000
_cell_angle_gamma   90.00000000
_symmetry_Int_Tables_number   1
_chemical_formula_structural   AsWF8
_chemical_formula_sum   'As2 W2 F16'
_cell_volume   347.54823121
_cell_formula_units_Z   2
loop_
 _symmetry_equiv_pos_site_id
 _symmetry_equiv_pos_as_xyz
  1  'x, y, z'
loop_
 _atom_site_type_symbol
 _atom_site_label
 _atom_site_symmetry_multiplicity
 _atom_site_fract_x
 _atom_site_fract_y
 _atom_site_fract_z
 _atom_site_occupancy
  As  As0  1  0.250000  0.502604  0.306820  1
  As  As1  1  0.750000  0.497396  0.693180  1
  W  W2  1  0.250000  0.796178  0.783888  1
  W  W3  1  0.750000  0.203822  0.216112  1
  F  F4  1  0.471269  0.766430  0.784802  1
  F  F5  1  0.971269  0.233570  0.215198  1
  F  F6  1  0.528731  0.233570  0.215198  1
  F  F7  1  0.028731  0.766430  0.784802  1
  F  F8  1  0.250000  0.025182  0.959426  1
  F  F9  1  0.750000  0.974818  0.040574  1
  F  F10  1  0.095127  0.701660  0.292377  1
  F  F11  1  0.595127  0.298340  0.707623  1
  F  F12  1  0.904873  0.298340  0.707623  1
  F  F13  1  0.404873  0.701660  0.292377  1
  F  F14  1  0.250000  0.540253  0.005362  1
  F  F15  1  0.750000  0.459747  0.994638  1
  F  F16  1  0.250000  0.540644  0.602872  1
  F  F17  1  0.750000  0.459356  0.397128  1
  F  F18  1  0.250000  0.025367  0.569601  1
  F  F19  1  0.750000  0.974633  0.430399  1
