# generated using pymatgen
data_Tb3U2O10
_symmetry_space_group_name_H-M   'P 1'
_cell_length_a   6.47653899
_cell_length_b   6.47653777
_cell_length_c   8.37321958
_cell_angle_alpha   51.65496386
_cell_angle_beta   51.65497447
_cell_angle_gamma   49.04497575
_symmetry_Int_Tables_number   1
_chemical_formula_structural   Tb3U2O10
_chemical_formula_sum   'Tb3 U2 O10'
_cell_volume   194.01432108
_cell_formula_units_Z   1
loop_
 _symmetry_equiv_pos_site_id
 _symmetry_equiv_pos_as_xyz
  1  'x, y, z'
loop_
 _atom_site_type_symbol
 _atom_site_label
 _atom_site_symmetry_multiplicity
 _atom_site_fract_x
 _atom_site_fract_y
 _atom_site_fract_z
 _atom_site_occupancy
  Tb  Tb0  1  0.397858  0.397858  0.903660  1
  Tb  Tb1  1  0.000000  0.000000  0.500000  1
  Tb  Tb2  1  0.602142  0.602142  0.096340  1
  U  U3  1  0.196253  0.196253  0.705946  1
  U  U4  1  0.803747  0.803747  0.294054  1
  O  O5  1  0.233053  0.766947  0.000000  1
  O  O6  1  0.856821  0.353594  0.607320  1
  O  O7  1  0.462858  0.946399  0.209593  1
  O  O8  1  0.766947  0.233053  0.000000  1
  O  O9  1  0.053601  0.537142  0.790407  1
  O  O10  1  0.353594  0.856821  0.607320  1
  O  O11  1  0.946399  0.462858  0.209593  1
  O  O12  1  0.646406  0.143179  0.392680  1
  O  O13  1  0.537142  0.053601  0.790407  1
  O  O14  1  0.143179  0.646406  0.392680  1
