# generated using pymatgen
data_Ba6YV(BO3)6
_symmetry_space_group_name_H-M   'P 1'
_cell_length_a   8.13439910
_cell_length_b   8.13439796
_cell_length_c   8.13439909
_cell_angle_alpha   105.84191441
_cell_angle_beta   105.84191939
_cell_angle_gamma   105.84192709
_symmetry_Int_Tables_number   1
_chemical_formula_structural   Ba6YV(BO3)6
_chemical_formula_sum   'Ba6 Y1 V1 B6 O18'
_cell_volume   461.68146011
_cell_formula_units_Z   1
loop_
 _symmetry_equiv_pos_site_id
 _symmetry_equiv_pos_as_xyz
  1  'x, y, z'
loop_
 _atom_site_type_symbol
 _atom_site_label
 _atom_site_symmetry_multiplicity
 _atom_site_fract_x
 _atom_site_fract_y
 _atom_site_fract_z
 _atom_site_occupancy
  Ba  Ba0  1  0.343528  0.732099  0.831087  1
  Ba  Ba1  1  0.831087  0.343528  0.732099  1
  Ba  Ba2  1  0.732099  0.831087  0.343528  1
  Ba  Ba3  1  0.656472  0.267901  0.168913  1
  Ba  Ba4  1  0.168913  0.656472  0.267901  1
  Ba  Ba5  1  0.267901  0.168913  0.656472  1
  Y  Y6  1  0.000000  0.000000  0.000000  1
  V  V7  1  0.500000  0.500000  0.500000  1
  B  B8  1  0.373899  0.056102  0.295200  1
  B  B9  1  0.295200  0.373899  0.056102  1
  B  B10  1  0.056102  0.295200  0.373899  1
  B  B11  1  0.704800  0.626101  0.943898  1
  B  B12  1  0.943898  0.704800  0.626101  1
  B  B13  1  0.626101  0.943898  0.704800  1
  O  O14  1  0.425292  0.491771  0.232760  1
  O  O15  1  0.232760  0.425292  0.491771  1
  O  O16  1  0.813573  0.005645  0.733223  1
  O  O17  1  0.005645  0.733223  0.813573  1
  O  O18  1  0.733223  0.813573  0.005645  1
  O  O19  1  0.266777  0.186427  0.994355  1
  O  O20  1  0.186427  0.994355  0.266777  1
  O  O21  1  0.994355  0.266777  0.186427  1
  O  O22  1  0.553791  0.059119  0.793682  1
  O  O23  1  0.059119  0.793682  0.553791  1
  O  O24  1  0.793682  0.553791  0.059119  1
  O  O25  1  0.446209  0.940881  0.206318  1
  O  O26  1  0.940881  0.206318  0.446209  1
  O  O27  1  0.206318  0.446209  0.940881  1
  O  O28  1  0.508229  0.767240  0.574708  1
  O  O29  1  0.767240  0.574708  0.508229  1
  O  O30  1  0.574708  0.508229  0.767240  1
  O  O31  1  0.491771  0.232760  0.425292  1
