# generated using pymatgen
data_Tb5Pb3O
_symmetry_space_group_name_H-M   'P 1'
_cell_length_a   9.17255967
_cell_length_b   9.17255936
_cell_length_c   9.17255906
_cell_angle_alpha   125.88600220
_cell_angle_beta   125.88599858
_cell_angle_gamma   80.07558682
_symmetry_Int_Tables_number   1
_chemical_formula_structural   Tb5Pb3O
_chemical_formula_sum   'Tb10 Pb6 O2'
_cell_volume   489.02645787
_cell_formula_units_Z   2
loop_
 _symmetry_equiv_pos_site_id
 _symmetry_equiv_pos_as_xyz
  1  'x, y, z'
loop_
 _atom_site_type_symbol
 _atom_site_label
 _atom_site_symmetry_multiplicity
 _atom_site_fract_x
 _atom_site_fract_y
 _atom_site_fract_z
 _atom_site_occupancy
  Tb  Tb0  1  0.998943  0.198621  0.500000  1
  Tb  Tb1  1  0.801379  0.301379  0.800322  1
  Tb  Tb2  1  0.498943  0.998943  0.800322  1
  Tb  Tb3  1  0.501057  0.001057  0.199678  1
  Tb  Tb4  1  0.001057  0.801379  0.500000  1
  Tb  Tb5  1  0.500000  0.500000  0.000000  1
  Tb  Tb6  1  0.198621  0.698621  0.199678  1
  Tb  Tb7  1  0.698621  0.498943  0.500000  1
  Tb  Tb8  1  0.301379  0.501057  0.500000  1
  Tb  Tb9  1  0.000000  0.000000  0.000000  1
  Pb  Pb10  1  0.853255  0.353255  0.206510  1
  Pb  Pb11  1  0.146745  0.646745  0.793490  1
  Pb  Pb12  1  0.353255  0.146745  0.500000  1
  Pb  Pb13  1  0.750000  0.750000  0.000000  1
  Pb  Pb14  1  0.646745  0.853255  0.500000  1
  Pb  Pb15  1  0.250000  0.250000  0.000000  1
  O  O16  1  0.750000  0.250000  0.500000  1
  O  O17  1  0.250000  0.750000  0.500000  1
