# generated using pymatgen
data_DyHo15(Ga3Os)2
_symmetry_space_group_name_H-M   'P 1'
_cell_length_a   9.98651329
_cell_length_b   9.98651210
_cell_length_c   7.03347127
_cell_angle_alpha   90.02736181
_cell_angle_beta   89.97263448
_cell_angle_gamma   119.99715530
_symmetry_Int_Tables_number   1
_chemical_formula_structural   DyHo15(Ga3Os)2
_chemical_formula_sum   'Dy1 Ho15 Ga6 Os2'
_cell_volume   607.49183949
_cell_formula_units_Z   1
loop_
 _symmetry_equiv_pos_site_id
 _symmetry_equiv_pos_as_xyz
  1  'x, y, z'
loop_
 _atom_site_type_symbol
 _atom_site_label
 _atom_site_symmetry_multiplicity
 _atom_site_fract_x
 _atom_site_fract_y
 _atom_site_fract_z
 _atom_site_occupancy
  Dy  Dy0  1  0.171301  0.828699  0.509961  1
  Ho  Ho1  1  0.657204  0.828606  0.510048  1
  Ho  Ho2  1  0.171394  0.342796  0.510048  1
  Ho  Ho3  1  0.828599  0.171401  0.010066  1
  Ho  Ho4  1  0.342750  0.171336  0.009994  1
  Ho  Ho5  1  0.828664  0.657250  0.009994  1
  Ho  Ho6  1  0.333404  0.666596  0.839923  1
  Ho  Ho7  1  0.666694  0.333306  0.339870  1
  Ho  Ho8  1  0.465545  0.534455  0.205319  1
  Ho  Ho9  1  0.068829  0.534350  0.205094  1
  Ho  Ho10  1  0.465650  0.931171  0.205094  1
  Ho  Ho11  1  0.534408  0.465592  0.705224  1
  Ho  Ho12  1  0.931059  0.465473  0.705296  1
  Ho  Ho13  1  0.534527  0.068941  0.705296  1
  Ho  Ho14  1  0.999965  0.000035  0.234260  1
  Ho  Ho15  1  0.999969  0.000031  0.734354  1
  Ga  Ga16  1  0.163864  0.836136  0.957370  1
  Ga  Ga17  1  0.672255  0.836107  0.957283  1
  Ga  Ga18  1  0.163893  0.327745  0.957283  1
  Ga  Ga19  1  0.836125  0.163875  0.457273  1
  Ga  Ga20  1  0.327849  0.164100  0.457191  1
  Ga  Ga21  1  0.835900  0.672151  0.457191  1
  Os  Os22  1  0.333494  0.666506  0.445253  1
  Os  Os23  1  0.666658  0.333342  0.945358  1
