# generated using pymatgen
data_Nd20Si15Rh
_symmetry_space_group_name_H-M   'P 1'
_cell_length_a   7.79863974
_cell_length_b   7.93597609
_cell_length_c   15.13544988
_cell_angle_alpha   89.72502435
_cell_angle_beta   89.65397662
_cell_angle_gamma   89.96739289
_symmetry_Int_Tables_number   1
_chemical_formula_structural   Nd20Si15Rh
_chemical_formula_sum   'Nd20 Si15 Rh1'
_cell_volume   936.70224047
_cell_formula_units_Z   1
loop_
 _symmetry_equiv_pos_site_id
 _symmetry_equiv_pos_as_xyz
  1  'x, y, z'
loop_
 _atom_site_type_symbol
 _atom_site_label
 _atom_site_symmetry_multiplicity
 _atom_site_fract_x
 _atom_site_fract_y
 _atom_site_fract_z
 _atom_site_occupancy
  Nd  Nd0  1  0.134527  0.510876  0.747838  1
  Nd  Nd1  1  0.811649  0.332375  0.614696  1
  Nd  Nd2  1  0.457760  0.686425  0.898016  1
  Nd  Nd3  1  0.957605  0.813629  0.897851  1
  Nd  Nd4  1  0.185306  0.682827  0.121020  1
  Nd  Nd5  1  0.691162  0.818407  0.120878  1
  Nd  Nd6  1  0.309500  0.179988  0.877835  1
  Nd  Nd7  1  0.187342  0.678475  0.379789  1
  Nd  Nd8  1  0.042758  0.188036  0.103264  1
  Nd  Nd9  1  0.313527  0.180264  0.622067  1
  Nd  Nd10  1  0.856758  0.490581  0.260513  1
  Nd  Nd11  1  0.364255  0.007379  0.253769  1
  Nd  Nd12  1  0.535534  0.315930  0.398126  1
  Nd  Nd13  1  0.810692  0.316947  0.878312  1
  Nd  Nd14  1  0.962697  0.814246  0.599883  1
  Nd  Nd15  1  0.460578  0.687031  0.602465  1
  Nd  Nd16  1  0.042278  0.186254  0.399676  1
  Nd  Nd17  1  0.693276  0.812651  0.384444  1
  Nd  Nd18  1  0.639831  0.993419  0.748197  1
  Nd  Nd19  1  0.543600  0.312326  0.102785  1
  Si  Si20  1  0.478475  0.603269  0.246054  1
  Si  Si21  1  0.250882  0.378568  0.247129  1
  Si  Si22  1  0.517395  0.400159  0.751089  1
  Si  Si23  1  0.631986  0.025911  0.958677  1
  Si  Si24  1  0.017010  0.102386  0.748664  1
  Si  Si25  1  0.746238  0.621986  0.750670  1
  Si  Si26  1  0.750719  0.119773  0.248135  1
  Si  Si27  1  0.365390  0.970257  0.460916  1
  Si  Si28  1  0.981139  0.901520  0.248988  1
  Si  Si29  1  0.365361  0.974686  0.041163  1
  Si  Si30  1  0.634695  0.025398  0.542168  1
  Si  Si31  1  0.134475  0.473728  0.958586  1
  Si  Si32  1  0.145716  0.474385  0.541209  1
  Si  Si33  1  0.866647  0.525231  0.039394  1
  Si  Si34  1  0.247472  0.878268  0.750963  1
  Rh  Rh35  1  0.865763  0.516411  0.454772  1
