# generated using pymatgen
data_Dy4MnCoRu6
_symmetry_space_group_name_H-M   'P 1'
_cell_length_a   5.26692255
_cell_length_b   5.20394988
_cell_length_c   8.83279000
_cell_angle_alpha   90.00000000
_cell_angle_beta   90.00000000
_cell_angle_gamma   120.36076178
_symmetry_Int_Tables_number   1
_chemical_formula_structural   Dy4MnCoRu6
_chemical_formula_sum   'Dy4 Mn1 Co1 Ru6'
_cell_volume   208.89511696
_cell_formula_units_Z   1
loop_
 _symmetry_equiv_pos_site_id
 _symmetry_equiv_pos_as_xyz
  1  'x, y, z'
loop_
 _atom_site_type_symbol
 _atom_site_label
 _atom_site_symmetry_multiplicity
 _atom_site_fract_x
 _atom_site_fract_y
 _atom_site_fract_z
 _atom_site_occupancy
  Dy  Dy0  1  0.668021  0.336138  0.563068  1
  Dy  Dy1  1  0.332167  0.664673  0.431353  1
  Dy  Dy2  1  0.332167  0.664673  0.068647  1
  Dy  Dy3  1  0.668021  0.336138  0.936932  1
  Mn  Mn4  1  0.165177  0.330339  0.750000  1
  Co  Co5  1  0.834837  0.669828  0.250000  1
  Ru  Ru6  1  0.000042  0.000398  0.498239  1
  Ru  Ru7  1  0.000042  0.000398  0.001761  1
  Ru  Ru8  1  0.173942  0.827391  0.750000  1
  Ru  Ru9  1  0.653538  0.827422  0.750000  1
  Ru  Ru10  1  0.824778  0.171098  0.250000  1
  Ru  Ru11  1  0.347272  0.171505  0.250000  1
