# generated using pymatgen
data_PrNbF7
_symmetry_space_group_name_H-M   'P 1'
_cell_length_a   5.84298500
_cell_length_b   9.35771832
_cell_length_c   12.56623087
_cell_angle_alpha   62.79332593
_cell_angle_beta   90.00000000
_cell_angle_gamma   90.00000000
_symmetry_Int_Tables_number   1
_chemical_formula_structural   PrNbF7
_chemical_formula_sum   'Pr4 Nb4 F28'
_cell_volume   611.06708528
_cell_formula_units_Z   4
loop_
 _symmetry_equiv_pos_site_id
 _symmetry_equiv_pos_as_xyz
  1  'x, y, z'
loop_
 _atom_site_type_symbol
 _atom_site_label
 _atom_site_symmetry_multiplicity
 _atom_site_fract_x
 _atom_site_fract_y
 _atom_site_fract_z
 _atom_site_occupancy
  Pr  Pr0  1  0.756132  0.809438  0.768917  1
  Pr  Pr1  1  0.256132  0.190562  0.731083  1
  Pr  Pr2  1  0.243868  0.190562  0.231083  1
  Pr  Pr3  1  0.743868  0.809438  0.268917  1
  Nb  Nb4  1  0.752314  0.272945  0.955991  1
  Nb  Nb5  1  0.252314  0.727055  0.544009  1
  Nb  Nb6  1  0.247686  0.727055  0.044009  1
  Nb  Nb7  1  0.747686  0.272945  0.455991  1
  F  F8  1  0.456377  0.708940  0.920832  1
  F  F9  1  0.956377  0.291060  0.579168  1
  F  F10  1  0.543623  0.291060  0.079168  1
  F  F11  1  0.043623  0.708940  0.420832  1
  F  F12  1  0.463729  0.283550  0.548365  1
  F  F13  1  0.963729  0.716450  0.951635  1
  F  F14  1  0.536271  0.716450  0.451635  1
  F  F15  1  0.036271  0.283550  0.048365  1
  F  F16  1  0.761991  0.508166  0.861743  1
  F  F17  1  0.261991  0.491834  0.638257  1
  F  F18  1  0.238009  0.491834  0.138257  1
  F  F19  1  0.738009  0.508166  0.361743  1
  F  F20  1  0.762443  0.039095  0.052556  1
  F  F21  1  0.262443  0.960905  0.447444  1
  F  F22  1  0.237557  0.960905  0.947444  1
  F  F23  1  0.737557  0.039095  0.552556  1
  F  F24  1  0.977255  0.731819  0.641916  1
  F  F25  1  0.477255  0.268181  0.858084  1
  F  F26  1  0.022745  0.268181  0.358084  1
  F  F27  1  0.522745  0.731819  0.141916  1
  F  F28  1  0.042019  0.748631  0.167824  1
  F  F29  1  0.542019  0.251369  0.332176  1
  F  F30  1  0.957981  0.251369  0.832176  1
  F  F31  1  0.457981  0.748631  0.667824  1
  F  F32  1  0.422022  0.971805  0.231640  1
  F  F33  1  0.922022  0.028195  0.268360  1
  F  F34  1  0.577978  0.028195  0.768360  1
  F  F35  1  0.077978  0.971805  0.731640  1
