# generated using pymatgen
data_Ba2GaPPt2
_symmetry_space_group_name_H-M   'P 1'
_cell_length_a   6.70424700
_cell_length_b   6.77052886
_cell_length_c   6.81606184
_cell_angle_alpha   91.98121772
_cell_angle_beta   90.00000000
_cell_angle_gamma   90.00000000
_symmetry_Int_Tables_number   1
_chemical_formula_structural   Ba2GaPPt2
_chemical_formula_sum   'Ba4 Ga2 P2 Pt4'
_cell_volume   309.20494361
_cell_formula_units_Z   2
loop_
 _symmetry_equiv_pos_site_id
 _symmetry_equiv_pos_as_xyz
  1  'x, y, z'
loop_
 _atom_site_type_symbol
 _atom_site_label
 _atom_site_symmetry_multiplicity
 _atom_site_fract_x
 _atom_site_fract_y
 _atom_site_fract_z
 _atom_site_occupancy
  Ba  Ba0  1  0.616621  0.383920  0.869078  1
  Ba  Ba1  1  0.379182  0.876042  0.614768  1
  Ba  Ba2  1  0.116621  0.116080  0.130922  1
  Ba  Ba3  1  0.879182  0.623958  0.385232  1
  Ga  Ga4  1  0.592511  0.908794  0.096067  1
  Ga  Ga5  1  0.092511  0.591206  0.903933  1
  P  P6  1  0.911376  0.086684  0.586339  1
  P  P7  1  0.411376  0.413316  0.413661  1
  Pt  Pt8  1  0.158017  0.329785  0.636464  1
  Pt  Pt9  1  0.658017  0.170215  0.363536  1
  Pt  Pt10  1  0.842292  0.855450  0.825049  1
  Pt  Pt11  1  0.342292  0.644550  0.174951  1
