# generated using pymatgen
data_Tb4SbRh3O14
_symmetry_space_group_name_H-M   'P 1'
_cell_length_a   7.33208992
_cell_length_b   7.33208989
_cell_length_c   7.33209070
_cell_angle_alpha   59.21978043
_cell_angle_beta   59.21978246
_cell_angle_gamma   59.21978445
_symmetry_Int_Tables_number   1
_chemical_formula_structural   Tb4SbRh3O14
_chemical_formula_sum   'Tb4 Sb1 Rh3 O14'
_cell_volume   273.76616370
_cell_formula_units_Z   1
loop_
 _symmetry_equiv_pos_site_id
 _symmetry_equiv_pos_as_xyz
  1  'x, y, z'
loop_
 _atom_site_type_symbol
 _atom_site_label
 _atom_site_symmetry_multiplicity
 _atom_site_fract_x
 _atom_site_fract_y
 _atom_site_fract_z
 _atom_site_occupancy
  Tb  Tb0  1  0.125000  0.625000  0.125000  1
  Tb  Tb1  1  0.125000  0.125000  0.625000  1
  Tb  Tb2  1  0.625000  0.125000  0.125000  1
  Tb  Tb3  1  0.125000  0.125000  0.125000  1
  Sb  Sb4  1  0.625000  0.625000  0.625000  1
  Rh  Rh5  1  0.125000  0.625000  0.625000  1
  Rh  Rh6  1  0.625000  0.125000  0.625000  1
  Rh  Rh7  1  0.625000  0.625000  0.125000  1
  O  O8  1  0.290757  0.711054  0.711054  1
  O  O9  1  0.542463  0.962323  0.962323  1
  O  O10  1  0.711054  0.290757  0.711054  1
  O  O11  1  0.287677  0.287677  0.707537  1
  O  O12  1  0.711054  0.711054  0.290757  1
  O  O13  1  0.000393  0.000393  0.000393  1
  O  O14  1  0.287677  0.707537  0.287677  1
  O  O15  1  0.962323  0.542463  0.962323  1
  O  O16  1  0.962323  0.962323  0.542463  1
  O  O17  1  0.538946  0.538946  0.959243  1
  O  O18  1  0.249607  0.249607  0.249607  1
  O  O19  1  0.538946  0.959243  0.538946  1
  O  O20  1  0.707537  0.287677  0.287677  1
  O  O21  1  0.959243  0.538946  0.538946  1
