# generated using pymatgen
data_ErInGaNi3
_symmetry_space_group_name_H-M   'P 1'
_cell_length_a   4.96931485
_cell_length_b   4.96931495
_cell_length_c   4.96931527
_cell_angle_alpha   62.50552054
_cell_angle_beta   62.50552440
_cell_angle_gamma   62.50551965
_symmetry_Int_Tables_number   1
_chemical_formula_structural   ErInGaNi3
_chemical_formula_sum   'Er1 In1 Ga1 Ni3'
_cell_volume   91.61576098
_cell_formula_units_Z   1
loop_
 _symmetry_equiv_pos_site_id
 _symmetry_equiv_pos_as_xyz
  1  'x, y, z'
loop_
 _atom_site_type_symbol
 _atom_site_label
 _atom_site_symmetry_multiplicity
 _atom_site_fract_x
 _atom_site_fract_y
 _atom_site_fract_z
 _atom_site_occupancy
  Er  Er0  1  0.250165  0.250165  0.250165  1
  In  In1  1  0.998623  0.998623  0.998623  1
  Ga  Ga2  1  0.623841  0.623841  0.623841  1
  Ni  Ni3  1  0.627681  0.627681  0.122010  1
  Ni  Ni4  1  0.627681  0.122010  0.627681  1
  Ni  Ni5  1  0.122010  0.627681  0.627681  1
