# generated using pymatgen
data_Ca7Sm(OsC2)4
_symmetry_space_group_name_H-M   'P 1'
_cell_length_a   5.19851800
_cell_length_b   6.53367219
_cell_length_c   10.41137101
_cell_angle_alpha   90.26810202
_cell_angle_beta   90.00000000
_cell_angle_gamma   90.00000000
_symmetry_Int_Tables_number   1
_chemical_formula_structural   Ca7Sm(OsC2)4
_chemical_formula_sum   'Ca7 Sm1 Os4 C8'
_cell_volume   353.62263946
_cell_formula_units_Z   1
loop_
 _symmetry_equiv_pos_site_id
 _symmetry_equiv_pos_as_xyz
  1  'x, y, z'
loop_
 _atom_site_type_symbol
 _atom_site_label
 _atom_site_symmetry_multiplicity
 _atom_site_fract_x
 _atom_site_fract_y
 _atom_site_fract_z
 _atom_site_occupancy
  Ca  Ca0  1  0.750000  0.304099  0.449330  1
  Ca  Ca1  1  0.750000  0.807270  0.050352  1
  Ca  Ca2  1  0.250000  0.190382  0.949770  1
  Ca  Ca3  1  0.250000  0.536472  0.215473  1
  Ca  Ca4  1  0.750000  0.463322  0.783322  1
  Ca  Ca5  1  0.750000  0.966804  0.726269  1
  Ca  Ca6  1  0.250000  0.036908  0.275966  1
  Sm  Sm7  1  0.250000  0.687205  0.550685  1
  Os  Os8  1  0.250000  0.730661  0.850796  1
  Os  Os9  1  0.750000  0.266905  0.149762  1
  Os  Os10  1  0.750000  0.767883  0.349684  1
  Os  Os11  1  0.250000  0.229821  0.650723  1
  C  C12  1  0.250000  0.469536  0.756969  1
  C  C13  1  0.750000  0.530769  0.240374  1
  C  C14  1  0.750000  0.029515  0.258595  1
  C  C15  1  0.250000  0.964188  0.738100  1
  C  C16  1  0.250000  0.791162  0.024064  1
  C  C17  1  0.750000  0.210487  0.975350  1
  C  C18  1  0.750000  0.712750  0.525887  1
  C  C19  1  0.250000  0.303860  0.478530  1
