# generated using pymatgen
data_Lu5(Tl2Pt)2
_symmetry_space_group_name_H-M   'P 1'
_cell_length_a   3.59206600
_cell_length_b   8.12768200
_cell_length_c   18.16385800
_cell_angle_alpha   90.00000000
_cell_angle_beta   90.00000000
_cell_angle_gamma   90.00000000
_symmetry_Int_Tables_number   1
_chemical_formula_structural   Lu5(Tl2Pt)2
_chemical_formula_sum   'Lu10 Tl8 Pt4'
_cell_volume   530.29692527
_cell_formula_units_Z   2
loop_
 _symmetry_equiv_pos_site_id
 _symmetry_equiv_pos_as_xyz
  1  'x, y, z'
loop_
 _atom_site_type_symbol
 _atom_site_label
 _atom_site_symmetry_multiplicity
 _atom_site_fract_x
 _atom_site_fract_y
 _atom_site_fract_z
 _atom_site_occupancy
  Lu  Lu0  1  0.000000  0.113177  0.411721  1
  Lu  Lu1  1  0.000000  0.886823  0.588279  1
  Lu  Lu2  1  0.000000  0.386823  0.911721  1
  Lu  Lu3  1  0.000000  0.613177  0.088279  1
  Lu  Lu4  1  0.000000  0.247287  0.221840  1
  Lu  Lu5  1  0.000000  0.752713  0.778160  1
  Lu  Lu6  1  0.000000  0.252713  0.721840  1
  Lu  Lu7  1  0.000000  0.747287  0.278160  1
  Lu  Lu8  1  0.000000  0.000000  0.000000  1
  Lu  Lu9  1  0.000000  0.500000  0.500000  1
  Tl  Tl10  1  0.500000  0.423037  0.354807  1
  Tl  Tl11  1  0.500000  0.576963  0.645193  1
  Tl  Tl12  1  0.500000  0.076963  0.854807  1
  Tl  Tl13  1  0.500000  0.923037  0.145193  1
  Tl  Tl14  1  0.500000  0.293253  0.063065  1
  Tl  Tl15  1  0.500000  0.706747  0.936935  1
  Tl  Tl16  1  0.500000  0.206747  0.563065  1
  Tl  Tl17  1  0.500000  0.793253  0.436935  1
  Pt  Pt18  1  0.500000  0.028296  0.302839  1
  Pt  Pt19  1  0.500000  0.971704  0.697161  1
  Pt  Pt20  1  0.500000  0.471704  0.802839  1
  Pt  Pt21  1  0.500000  0.528296  0.197161  1
