# generated using pymatgen
data_RbHfCuAs2
_symmetry_space_group_name_H-M   'P 1'
_cell_length_a   7.97933382
_cell_length_b   7.97933365
_cell_length_c   7.97933251
_cell_angle_alpha   149.43165561
_cell_angle_beta   149.43165679
_cell_angle_gamma   43.77631365
_symmetry_Int_Tables_number   1
_chemical_formula_structural   RbHfCuAs2
_chemical_formula_sum   'Rb1 Hf1 Cu1 As2'
_cell_volume   131.03270817
_cell_formula_units_Z   1
loop_
 _symmetry_equiv_pos_site_id
 _symmetry_equiv_pos_as_xyz
  1  'x, y, z'
loop_
 _atom_site_type_symbol
 _atom_site_label
 _atom_site_symmetry_multiplicity
 _atom_site_fract_x
 _atom_site_fract_y
 _atom_site_fract_z
 _atom_site_occupancy
  Rb  Rb0  1  0.000000  0.000000  0.000000  1
  Hf  Hf1  1  0.250000  0.750000  0.500000  1
  Cu  Cu2  1  0.750000  0.250000  0.500000  1
  As  As3  1  0.647559  0.647559  0.000000  1
  As  As4  1  0.352441  0.352441  0.000000  1
