# generated using pymatgen
data_Er2Si5Ir3
_symmetry_space_group_name_H-M   'P 1'
_cell_length_a   8.12679035
_cell_length_b   8.12679000
_cell_length_c   8.12679017
_cell_angle_alpha   138.29233450
_cell_angle_beta   103.91337928
_cell_angle_gamma   90.74464696
_symmetry_Int_Tables_number   1
_chemical_formula_structural   Er2Si5Ir3
_chemical_formula_sum   'Er4 Si10 Ir6'
_cell_volume   330.86836654
_cell_formula_units_Z   2
loop_
 _symmetry_equiv_pos_site_id
 _symmetry_equiv_pos_as_xyz
  1  'x, y, z'
loop_
 _atom_site_type_symbol
 _atom_site_label
 _atom_site_symmetry_multiplicity
 _atom_site_fract_x
 _atom_site_fract_y
 _atom_site_fract_z
 _atom_site_occupancy
  Er  Er0  1  0.859757  0.631770  0.227987  1
  Er  Er1  1  0.140243  0.368230  0.772013  1
  Er  Er2  1  0.403783  0.131770  0.272013  1
  Er  Er3  1  0.596217  0.868230  0.727987  1
  Si  Si4  1  0.500000  0.750000  0.250000  1
  Si  Si5  1  0.500000  0.250000  0.750000  1
  Si  Si6  1  0.224895  0.974895  0.750000  1
  Si  Si7  1  0.775105  0.525105  0.750000  1
  Si  Si8  1  0.775105  0.025105  0.250000  1
  Si  Si9  1  0.224895  0.474895  0.250000  1
  Si  Si10  1  0.049807  0.893570  0.156238  1
  Si  Si11  1  0.950193  0.106430  0.843762  1
  Si  Si12  1  0.737332  0.393570  0.343762  1
  Si  Si13  1  0.262668  0.606430  0.656238  1
  Ir  Ir14  1  0.000000  0.750000  0.750000  1
  Ir  Ir15  1  0.000000  0.250000  0.250000  1
  Ir  Ir16  1  0.245885  0.860178  0.385708  1
  Ir  Ir17  1  0.754115  0.139822  0.614292  1
  Ir  Ir18  1  0.474470  0.360178  0.114292  1
  Ir  Ir19  1  0.525530  0.639822  0.885708  1
