# generated using pymatgen
data_Pa6Al24Fe3Re5
_symmetry_space_group_name_H-M   'P 1'
_cell_length_a   8.84250236
_cell_length_b   8.87622669
_cell_length_c   9.35018020
_cell_angle_alpha   90.00000167
_cell_angle_beta   90.34383771
_cell_angle_gamma   120.12623913
_symmetry_Int_Tables_number   1
_chemical_formula_structural   Pa6Al24Fe3Re5
_chemical_formula_sum   'Pa6 Al24 Fe3 Re5'
_cell_volume   634.73123345
_cell_formula_units_Z   1
loop_
 _symmetry_equiv_pos_site_id
 _symmetry_equiv_pos_as_xyz
  1  'x, y, z'
loop_
 _atom_site_type_symbol
 _atom_site_label
 _atom_site_symmetry_multiplicity
 _atom_site_fract_x
 _atom_site_fract_y
 _atom_site_fract_z
 _atom_site_occupancy
  Pa  Pa0  1  0.795610  0.195083  0.753336  1
  Pa  Pa1  1  0.204390  0.804917  0.246664  1
  Pa  Pa2  1  0.401084  0.200541  0.747199  1
  Pa  Pa3  1  0.598916  0.799459  0.252801  1
  Pa  Pa4  1  0.795610  0.600526  0.753336  1
  Pa  Pa5  1  0.204390  0.399474  0.246664  1
  Al  Al6  1  0.666533  0.333266  0.991880  1
  Al  Al7  1  0.333467  0.666734  0.008120  1
  Al  Al8  1  0.323056  0.661528  0.489171  1
  Al  Al9  1  0.676944  0.338472  0.510829  1
  Al  Al10  1  0.845590  0.161915  0.422145  1
  Al  Al11  1  0.154410  0.838085  0.577855  1
  Al  Al12  1  0.316267  0.158133  0.420314  1
  Al  Al13  1  0.156302  0.841410  0.918592  1
  Al  Al14  1  0.683733  0.841867  0.579686  1
  Al  Al15  1  0.843698  0.158590  0.081408  1
  Al  Al16  1  0.845590  0.683674  0.422145  1
  Al  Al17  1  0.684698  0.842350  0.921970  1
  Al  Al18  1  0.154410  0.316326  0.577855  1
  Al  Al19  1  0.315302  0.157650  0.078030  1
  Al  Al20  1  0.156302  0.314893  0.918592  1
  Al  Al21  1  0.843698  0.685107  0.081408  1
  Al  Al22  1  0.433314  0.562398  0.749251  1
  Al  Al23  1  0.566686  0.437602  0.250749  1
  Al  Al24  1  0.117234  0.558617  0.742722  1
  Al  Al25  1  0.882766  0.441383  0.257278  1
  Al  Al26  1  0.433314  0.870916  0.749251  1
  Al  Al27  1  0.566686  0.129084  0.250749  1
  Al  Al28  1  0.999458  0.999729  0.749889  1
  Al  Al29  1  0.000542  0.000271  0.250111  1
  Fe  Fe30  1  0.000000  0.500000  0.500000  1
  Fe  Fe31  1  0.000000  0.000000  0.000000  1
  Fe  Fe32  1  0.000000  0.000000  0.500000  1
  Re  Re33  1  0.500000  0.500000  0.000000  1
  Re  Re34  1  0.000000  0.500000  0.000000  1
  Re  Re35  1  0.500000  0.500000  0.500000  1
  Re  Re36  1  0.500000  0.000000  0.000000  1
  Re  Re37  1  0.500000  0.000000  0.500000  1
