# generated using pymatgen
data_Tb3SiSe2
_symmetry_space_group_name_H-M   'P 1'
_cell_length_a   7.16901862
_cell_length_b   7.16901874
_cell_length_c   7.16901860
_cell_angle_alpha   146.58772016
_cell_angle_beta   132.34358950
_cell_angle_gamma   59.44901327
_symmetry_Int_Tables_number   1
_chemical_formula_structural   Tb3SiSe2
_chemical_formula_sum   'Tb3 Si1 Se2'
_cell_volume   148.63722611
_cell_formula_units_Z   1
loop_
 _symmetry_equiv_pos_site_id
 _symmetry_equiv_pos_as_xyz
  1  'x, y, z'
loop_
 _atom_site_type_symbol
 _atom_site_label
 _atom_site_symmetry_multiplicity
 _atom_site_fract_x
 _atom_site_fract_y
 _atom_site_fract_z
 _atom_site_occupancy
  Tb  Tb0  1  0.843042  0.343042  0.500000  1
  Tb  Tb1  1  0.500000  0.000000  0.500000  1
  Tb  Tb2  1  0.156958  0.656958  0.500000  1
  Si  Si3  1  0.000000  0.000000  0.000000  1
  Se  Se4  1  0.668428  0.668428  0.000000  1
  Se  Se5  1  0.331572  0.331572  0.000000  1
