# generated using pymatgen
data_Tb2Y3P12Ru9Rh10
_symmetry_space_group_name_H-M   'P 1'
_cell_length_a   3.94196900
_cell_length_b   12.61849371
_cell_length_c   12.61949302
_cell_angle_alpha   119.99738479
_cell_angle_beta   90.00000000
_cell_angle_gamma   90.00000000
_symmetry_Int_Tables_number   1
_chemical_formula_structural   Tb2Y3P12Ru9Rh10
_chemical_formula_sum   'Tb2 Y3 P12 Ru9 Rh10'
_cell_volume   543.63161300
_cell_formula_units_Z   1
loop_
 _symmetry_equiv_pos_site_id
 _symmetry_equiv_pos_as_xyz
  1  'x, y, z'
loop_
 _atom_site_type_symbol
 _atom_site_label
 _atom_site_symmetry_multiplicity
 _atom_site_fract_x
 _atom_site_fract_y
 _atom_site_fract_z
 _atom_site_occupancy
  Tb  Tb0  1  0.000000  0.333336  0.666658  1
  Tb  Tb1  1  0.000000  0.666678  0.333342  1
  Y  Y2  1  0.500000  0.000013  0.185837  1
  Y  Y3  1  0.500000  0.185824  0.000000  1
  Y  Y4  1  0.500000  0.814176  0.814163  1
  P  P5  1  0.000000  0.999994  0.817660  1
  P  P6  1  0.000000  0.817657  0.000000  1
  P  P7  1  0.000000  0.182334  0.182340  1
  P  P8  1  0.500000  0.310901  0.482602  1
  P  P9  1  0.500000  0.171688  0.689104  1
  P  P10  1  0.500000  0.517398  0.828293  1
  P  P11  1  0.500000  0.828299  0.517398  1
  P  P12  1  0.500000  0.482583  0.310896  1
  P  P13  1  0.500000  0.689106  0.171707  1
  P  P14  1  0.000000  0.000017  0.370145  1
  P  P15  1  0.000000  0.370076  0.000000  1
  P  P16  1  0.000000  0.629872  0.629855  1
  Ru  Ru17  1  0.500000  0.000013  0.715265  1
  Ru  Ru18  1  0.500000  0.715259  0.000000  1
  Ru  Ru19  1  0.500000  0.284749  0.284735  1
  Ru  Ru20  1  0.500000  0.126721  0.488458  1
  Ru  Ru21  1  0.500000  0.361733  0.873293  1
  Ru  Ru22  1  0.500000  0.511554  0.638241  1
  Ru  Ru23  1  0.500000  0.638263  0.511542  1
  Ru  Ru24  1  0.500000  0.488441  0.126707  1
  Ru  Ru25  1  0.500000  0.873313  0.361759  1
  Rh  Rh26  1  0.000000  0.000001  0.550818  1
  Rh  Rh27  1  0.000000  0.550762  0.000000  1
  Rh  Rh28  1  0.000000  0.449182  0.449182  1
  Rh  Rh29  1  0.000000  0.192605  0.375291  1
  Rh  Rh30  1  0.000000  0.182620  0.807355  1
  Rh  Rh31  1  0.000000  0.624730  0.817329  1
  Rh  Rh32  1  0.000000  0.817313  0.624709  1
  Rh  Rh33  1  0.000000  0.375266  0.192645  1
  Rh  Rh34  1  0.000000  0.807400  0.182671  1
  Rh  Rh35  1  0.000000  0.000024  0.000000  1
