# generated using pymatgen
data_Nb12Al5Ga(PdN2)2
_symmetry_space_group_name_H-M   'P 1'
_cell_length_a   7.06471434
_cell_length_b   7.07961449
_cell_length_c   7.08156699
_cell_angle_alpha   89.95668834
_cell_angle_beta   89.95776679
_cell_angle_gamma   90.36871688
_symmetry_Int_Tables_number   1
_chemical_formula_structural   Nb12Al5Ga(PdN2)2
_chemical_formula_sum   'Nb12 Al5 Ga1 Pd2 N4'
_cell_volume   354.18025541
_cell_formula_units_Z   1
loop_
 _symmetry_equiv_pos_site_id
 _symmetry_equiv_pos_as_xyz
  1  'x, y, z'
loop_
 _atom_site_type_symbol
 _atom_site_label
 _atom_site_symmetry_multiplicity
 _atom_site_fract_x
 _atom_site_fract_y
 _atom_site_fract_z
 _atom_site_occupancy
  Nb  Nb0  1  0.789681  0.957447  0.378087  1
  Nb  Nb1  1  0.710000  0.041852  0.876465  1
  Nb  Nb2  1  0.207473  0.453865  0.126336  1
  Nb  Nb3  1  0.292842  0.545967  0.625463  1
  Nb  Nb4  1  0.955199  0.381153  0.789862  1
  Nb  Nb5  1  0.040451  0.869303  0.709633  1
  Nb  Nb6  1  0.458714  0.130596  0.209189  1
  Nb  Nb7  1  0.544784  0.619821  0.290906  1
  Nb  Nb8  1  0.381023  0.787984  0.954778  1
  Nb  Nb9  1  0.870739  0.707983  0.041746  1
  Nb  Nb10  1  0.120584  0.211275  0.454879  1
  Nb  Nb11  1  0.628443  0.292812  0.542382  1
  Al  Al12  1  0.675672  0.679020  0.676120  1
  Al  Al13  1  0.562693  0.420393  0.925666  1
  Al  Al14  1  0.419041  0.933987  0.570717  1
  Al  Al15  1  0.937154  0.579609  0.425845  1
  Al  Al16  1  0.080949  0.065796  0.070622  1
  Ga  Ga17  1  0.823977  0.320174  0.176471  1
  Pd  Pd18  1  0.182317  0.823110  0.317778  1
  Pd  Pd19  1  0.317223  0.177001  0.818004  1
  N  N20  1  0.879288  0.122544  0.628458  1
  N  N21  1  0.621002  0.878489  0.129276  1
  N  N22  1  0.127432  0.624666  0.880847  1
  N  N23  1  0.373318  0.375152  0.380472  1
