# generated using pymatgen
data_Pr8Er12Si15B
_symmetry_space_group_name_H-M   'P 1'
_cell_length_a   7.54880183
_cell_length_b   7.78131169
_cell_length_c   14.80307700
_cell_angle_alpha   89.64886628
_cell_angle_beta   90.70400239
_cell_angle_gamma   89.94945483
_symmetry_Int_Tables_number   1
_chemical_formula_structural   Pr8Er12Si15B
_chemical_formula_sum   'Pr8 Er12 Si15 B1'
_cell_volume   869.44416145
_cell_formula_units_Z   1
loop_
 _symmetry_equiv_pos_site_id
 _symmetry_equiv_pos_as_xyz
  1  'x, y, z'
loop_
 _atom_site_type_symbol
 _atom_site_label
 _atom_site_symmetry_multiplicity
 _atom_site_fract_x
 _atom_site_fract_y
 _atom_site_fract_z
 _atom_site_occupancy
  Pr  Pr0  1  0.970852  0.816392  0.096213  1
  Pr  Pr1  1  0.473370  0.679693  0.401277  1
  Pr  Pr2  1  0.535559  0.324335  0.903568  1
  Pr  Pr3  1  0.025791  0.178871  0.599836  1
  Pr  Pr4  1  0.026787  0.183598  0.902657  1
  Pr  Pr5  1  0.526366  0.320418  0.599406  1
  Pr  Pr6  1  0.464110  0.683196  0.100633  1
  Pr  Pr7  1  0.973475  0.821512  0.400733  1
  Er  Er8  1  0.646778  0.993856  0.249094  1
  Er  Er9  1  0.143098  0.509209  0.249209  1
  Er  Er10  1  0.855307  0.489799  0.755870  1
  Er  Er11  1  0.355796  0.006854  0.752807  1
  Er  Er12  1  0.695145  0.800113  0.885885  1
  Er  Er13  1  0.182093  0.678415  0.624111  1
  Er  Er14  1  0.808760  0.336125  0.114907  1
  Er  Er15  1  0.315886  0.178525  0.375599  1
  Er  Er16  1  0.314294  0.181738  0.120343  1
  Er  Er17  1  0.817763  0.321902  0.376228  1
  Er  Er18  1  0.179112  0.674434  0.877937  1
  Er  Er19  1  0.682280  0.821229  0.623978  1
  Si  Si20  1  0.764409  0.622150  0.249564  1
  Si  Si21  1  0.263679  0.882423  0.248669  1
  Si  Si22  1  0.734355  0.114798  0.752680  1
  Si  Si23  1  0.236422  0.379084  0.750572  1
  Si  Si24  1  0.018443  0.119321  0.246166  1
  Si  Si25  1  0.519737  0.386849  0.248116  1
  Si  Si26  1  0.480229  0.614349  0.751886  1
  Si  Si27  1  0.977078  0.884705  0.751289  1
  Si  Si28  1  0.356036  0.969449  0.540554  1
  Si  Si29  1  0.640250  0.030168  0.041312  1
  Si  Si30  1  0.142882  0.468546  0.460257  1
  Si  Si31  1  0.125199  0.472131  0.036212  1
  Si  Si32  1  0.641570  0.031708  0.459496  1
  Si  Si33  1  0.359873  0.968920  0.958234  1
  Si  Si34  1  0.856556  0.531362  0.540237  1
  B  B35  1  0.890659  0.523823  0.954468  1
