# generated using pymatgen
data_Nd3ZnIr3RhO14
_symmetry_space_group_name_H-M   'P 1'
_cell_length_a   7.20536516
_cell_length_b   7.20536508
_cell_length_c   7.20536425
_cell_angle_alpha   61.99621729
_cell_angle_beta   61.99621181
_cell_angle_gamma   61.99621408
_symmetry_Int_Tables_number   1
_chemical_formula_structural   Nd3ZnIr3RhO14
_chemical_formula_sum   'Nd3 Zn1 Ir3 Rh1 O14'
_cell_volume   276.32771017
_cell_formula_units_Z   1
loop_
 _symmetry_equiv_pos_site_id
 _symmetry_equiv_pos_as_xyz
  1  'x, y, z'
loop_
 _atom_site_type_symbol
 _atom_site_label
 _atom_site_symmetry_multiplicity
 _atom_site_fract_x
 _atom_site_fract_y
 _atom_site_fract_z
 _atom_site_occupancy
  Nd  Nd0  1  0.625000  0.125000  0.125000  1
  Nd  Nd1  1  0.125000  0.625000  0.125000  1
  Nd  Nd2  1  0.125000  0.125000  0.625000  1
  Zn  Zn3  1  0.125000  0.125000  0.125000  1
  Ir  Ir4  1  0.125000  0.625000  0.625000  1
  Ir  Ir5  1  0.625000  0.125000  0.625000  1
  Ir  Ir6  1  0.625000  0.625000  0.125000  1
  Rh  Rh7  1  0.625000  0.625000  0.625000  1
  O  O8  1  0.712413  0.712413  0.287841  1
  O  O9  1  0.301556  0.301556  0.700860  1
  O  O10  1  0.712413  0.287841  0.712413  1
  O  O11  1  0.301556  0.700860  0.301556  1
  O  O12  1  0.287841  0.712413  0.712413  1
  O  O13  1  0.700860  0.301556  0.301556  1
  O  O14  1  0.537587  0.537587  0.962159  1
  O  O15  1  0.948444  0.948444  0.549140  1
  O  O16  1  0.537587  0.962159  0.537587  1
  O  O17  1  0.948444  0.549140  0.948444  1
  O  O18  1  0.962159  0.537587  0.537587  1
  O  O19  1  0.549140  0.948444  0.948444  1
  O  O20  1  0.236291  0.236291  0.236291  1
  O  O21  1  0.013709  0.013709  0.013709  1
