# generated using pymatgen
data_LiAl2AgSe4
_symmetry_space_group_name_H-M   'P 1'
_cell_length_a   6.92895647
_cell_length_b   6.92895633
_cell_length_c   6.92895580
_cell_angle_alpha   128.84121915
_cell_angle_beta   128.84121585
_cell_angle_gamma   75.26619194
_symmetry_Int_Tables_number   1
_chemical_formula_structural   LiAl2AgSe4
_chemical_formula_sum   'Li1 Al2 Ag1 Se4'
_cell_volume   196.44528890
_cell_formula_units_Z   1
loop_
 _symmetry_equiv_pos_site_id
 _symmetry_equiv_pos_as_xyz
  1  'x, y, z'
loop_
 _atom_site_type_symbol
 _atom_site_label
 _atom_site_symmetry_multiplicity
 _atom_site_fract_x
 _atom_site_fract_y
 _atom_site_fract_z
 _atom_site_occupancy
  Li  Li0  1  0.000000  0.000000  0.000000  1
  Al  Al1  1  0.250000  0.750000  0.500000  1
  Al  Al2  1  0.500000  0.500000  0.000000  1
  Ag  Ag3  1  0.750000  0.250000  0.500000  1
  Se  Se4  1  0.598149  0.635079  0.475898  1
  Se  Se5  1  0.364921  0.840818  0.963069  1
  Se  Se6  1  0.159182  0.122251  0.524102  1
  Se  Se7  1  0.877749  0.401851  0.036931  1
