# generated using pymatgen
data_SrLaPr5OsI12
_symmetry_space_group_name_H-M   'P 1'
_cell_length_a   10.23199165
_cell_length_b   10.10870088
_cell_length_c   10.13985985
_cell_angle_alpha   106.31539080
_cell_angle_beta   106.42060161
_cell_angle_gamma   106.71295679
_symmetry_Int_Tables_number   1
_chemical_formula_structural   SrLaPr5OsI12
_chemical_formula_sum   'Sr1 La1 Pr5 Os1 I12'
_cell_volume   885.46123691
_cell_formula_units_Z   1
loop_
 _symmetry_equiv_pos_site_id
 _symmetry_equiv_pos_as_xyz
  1  'x, y, z'
loop_
 _atom_site_type_symbol
 _atom_site_label
 _atom_site_symmetry_multiplicity
 _atom_site_fract_x
 _atom_site_fract_y
 _atom_site_fract_z
 _atom_site_occupancy
  Sr  Sr0  1  0.499790  0.500144  0.499466  1
  La  La1  1  0.904226  0.702820  0.978414  1
  Pr  Pr2  1  0.095692  0.295220  0.021891  1
  Pr  Pr3  1  0.308892  0.022856  0.100417  1
  Pr  Pr4  1  0.022397  0.096358  0.296975  1
  Pr  Pr5  1  0.977725  0.904314  0.703451  1
  Pr  Pr6  1  0.691117  0.976542  0.899578  1
  Os  Os7  1  0.998921  0.996387  0.000066  1
  I  I8  1  0.227412  0.681203  0.074114  1
  I  I9  1  0.451873  0.373467  0.144991  1
  I  I10  1  0.682465  0.074364  0.225948  1
  I  I11  1  0.927164  0.776581  0.322232  1
  I  I12  1  0.147563  0.454672  0.372019  1
  I  I13  1  0.370239  0.144381  0.452780  1
  I  I14  1  0.629779  0.856365  0.547396  1
  I  I15  1  0.851817  0.545160  0.623633  1
  I  I16  1  0.073947  0.226513  0.682702  1
  I  I17  1  0.317704  0.926401  0.774091  1
  I  I18  1  0.544159  0.626623  0.852720  1
  I  I19  1  0.777118  0.319631  0.927115  1
