# generated using pymatgen
data_YBiI18
_symmetry_space_group_name_H-M   'P 1'
_cell_length_a   10.44666002
_cell_length_b   10.47919041
_cell_length_c   10.42777271
_cell_angle_alpha   88.51812035
_cell_angle_beta   88.63237516
_cell_angle_gamma   88.39427408
_symmetry_Int_Tables_number   1
_chemical_formula_structural   YBiI18
_chemical_formula_sum   'Y1 Bi1 I18'
_cell_volume   1140.41889459
_cell_formula_units_Z   1
loop_
 _symmetry_equiv_pos_site_id
 _symmetry_equiv_pos_as_xyz
  1  'x, y, z'
loop_
 _atom_site_type_symbol
 _atom_site_label
 _atom_site_symmetry_multiplicity
 _atom_site_fract_x
 _atom_site_fract_y
 _atom_site_fract_z
 _atom_site_occupancy
  Y  Y0  1  0.500000  0.500000  0.500000  1
  Bi  Bi1  1  0.000000  0.000000  0.000000  1
  I  I2  1  0.790078  0.465690  0.501553  1
  I  I3  1  0.500154  0.789042  0.464752  1
  I  I4  1  0.465945  0.501474  0.790370  1
  I  I5  1  0.209922  0.534310  0.498447  1
  I  I6  1  0.499846  0.210958  0.535248  1
  I  I7  1  0.534055  0.498526  0.209630  1
  I  I8  1  0.897357  0.378556  0.748964  1
  I  I9  1  0.746956  0.895758  0.378816  1
  I  I10  1  0.379042  0.747836  0.897257  1
  I  I11  1  0.102643  0.621444  0.251036  1
  I  I12  1  0.253044  0.104242  0.621184  1
  I  I13  1  0.620958  0.252164  0.102743  1
  I  I14  1  0.015579  0.979025  0.700373  1
  I  I15  1  0.701192  0.015147  0.976883  1
  I  I16  1  0.977005  0.702079  0.012809  1
  I  I17  1  0.984421  0.020975  0.299627  1
  I  I18  1  0.298808  0.984853  0.023117  1
  I  I19  1  0.022995  0.297921  0.987191  1
