# generated using pymatgen
data_Dy7Tm2Lu(In2Ni)4
_symmetry_space_group_name_H-M   'P 1'
_cell_length_a   3.59753900
_cell_length_b   8.00847575
_cell_length_c   17.91078321
_cell_angle_alpha   90.05363456
_cell_angle_beta   90.00000000
_cell_angle_gamma   90.00000000
_symmetry_Int_Tables_number   1
_chemical_formula_structural   Dy7Tm2Lu(In2Ni)4
_chemical_formula_sum   'Dy7 Tm2 Lu1 In8 Ni4'
_cell_volume   516.02383581
_cell_formula_units_Z   1
loop_
 _symmetry_equiv_pos_site_id
 _symmetry_equiv_pos_as_xyz
  1  'x, y, z'
loop_
 _atom_site_type_symbol
 _atom_site_label
 _atom_site_symmetry_multiplicity
 _atom_site_fract_x
 _atom_site_fract_y
 _atom_site_fract_z
 _atom_site_occupancy
  Dy  Dy0  1  0.500000  0.754183  0.720884  1
  Dy  Dy1  1  0.500000  0.254279  0.779343  1
  Dy  Dy2  1  0.500000  0.499941  0.999612  1
  Dy  Dy3  1  0.500000  0.746854  0.220397  1
  Dy  Dy4  1  0.500000  0.247165  0.278555  1
  Dy  Dy5  1  0.500000  0.998916  0.500603  1
  Dy  Dy6  1  0.500000  0.617317  0.412258  1
  Tm  Tm7  1  0.500000  0.882523  0.910946  1
  Tm  Tm8  1  0.500000  0.117713  0.088652  1
  Lu  Lu9  1  0.500000  0.382148  0.589973  1
  In  In10  1  0.000000  0.798387  0.066873  1
  In  In11  1  0.000000  0.927252  0.347436  1
  In  In12  1  0.000000  0.075187  0.652333  1
  In  In13  1  0.000000  0.574860  0.847805  1
  In  In14  1  0.000000  0.700522  0.568563  1
  In  In15  1  0.000000  0.201465  0.932548  1
  In  In16  1  0.000000  0.294506  0.432923  1
  In  In17  1  0.000000  0.426000  0.151555  1
  Ni  Ni18  1  0.000000  0.974399  0.805299  1
  Ni  Ni19  1  0.000000  0.526324  0.304281  1
  Ni  Ni20  1  0.000000  0.474501  0.694646  1
  Ni  Ni21  1  0.000000  0.025561  0.194510  1
