# generated using pymatgen
data_NdGd2UO7
_symmetry_space_group_name_H-M   'P 1'
_cell_length_a   6.76921000
_cell_length_b   6.76921055
_cell_length_c   7.80662500
_cell_angle_alpha   90.00000000
_cell_angle_beta   90.00000000
_cell_angle_gamma   109.14511635
_symmetry_Int_Tables_number   1
_chemical_formula_structural   NdGd2UO7
_chemical_formula_sum   'Nd2 Gd4 U2 O14'
_cell_volume   337.93181948
_cell_formula_units_Z   2
loop_
 _symmetry_equiv_pos_site_id
 _symmetry_equiv_pos_as_xyz
  1  'x, y, z'
loop_
 _atom_site_type_symbol
 _atom_site_label
 _atom_site_symmetry_multiplicity
 _atom_site_fract_x
 _atom_site_fract_y
 _atom_site_fract_z
 _atom_site_occupancy
  Nd  Nd0  1  0.500000  0.500000  0.500000  1
  Nd  Nd1  1  0.500000  0.500000  0.000000  1
  Gd  Gd2  1  0.004500  0.531523  0.250000  1
  Gd  Gd3  1  0.995500  0.468477  0.750000  1
  Gd  Gd4  1  0.531523  0.004500  0.750000  1
  Gd  Gd5  1  0.468477  0.995500  0.250000  1
  U  U6  1  0.000000  0.000000  0.500000  1
  U  U7  1  0.000000  0.000000  0.000000  1
  O  O8  1  0.909292  0.090708  0.750000  1
  O  O9  1  0.090708  0.909292  0.250000  1
  O  O10  1  0.360331  0.639669  0.250000  1
  O  O11  1  0.639669  0.360331  0.750000  1
  O  O12  1  0.364792  0.635208  0.750000  1
  O  O13  1  0.635208  0.364792  0.250000  1
  O  O14  1  0.329758  0.080880  0.969595  1
  O  O15  1  0.670242  0.919120  0.469595  1
  O  O16  1  0.329758  0.080880  0.530405  1
  O  O17  1  0.670242  0.919120  0.030405  1
  O  O18  1  0.080880  0.329758  0.469595  1
  O  O19  1  0.919120  0.670242  0.969595  1
  O  O20  1  0.919120  0.670242  0.530405  1
  O  O21  1  0.080880  0.329758  0.030405  1
