# generated using pymatgen
data_PuWN3
_symmetry_space_group_name_H-M   'P 1'
_cell_length_a   6.78899642
_cell_length_b   6.78899705
_cell_length_c   6.02697600
_cell_angle_alpha   90.00000000
_cell_angle_beta   90.00000000
_cell_angle_gamma   149.91925593
_symmetry_Int_Tables_number   1
_chemical_formula_structural   PuWN3
_chemical_formula_sum   'Pu2 W2 N6'
_cell_volume   139.23198343
_cell_formula_units_Z   2
loop_
 _symmetry_equiv_pos_site_id
 _symmetry_equiv_pos_as_xyz
  1  'x, y, z'
loop_
 _atom_site_type_symbol
 _atom_site_label
 _atom_site_symmetry_multiplicity
 _atom_site_fract_x
 _atom_site_fract_y
 _atom_site_fract_z
 _atom_site_occupancy
  Pu  Pu0  1  0.681836  0.318164  0.250000  1
  Pu  Pu1  1  0.318164  0.681836  0.750000  1
  W  W2  1  0.069476  0.930524  0.750000  1
  W  W3  1  0.930524  0.069476  0.250000  1
  N  N4  1  0.160626  0.839374  0.986900  1
  N  N5  1  0.839374  0.160626  0.486900  1
  N  N6  1  0.505527  0.494473  0.750000  1
  N  N7  1  0.839374  0.160626  0.013100  1
  N  N8  1  0.160626  0.839374  0.513100  1
  N  N9  1  0.494473  0.505527  0.250000  1
