# generated using pymatgen
data_Y4Tm6AlSb5
_symmetry_space_group_name_H-M   'P 1'
_cell_length_a   6.33162700
_cell_length_b   8.87980064
_cell_length_c   8.86497003
_cell_angle_alpha   120.05536278
_cell_angle_beta   90.00003232
_cell_angle_gamma   89.99995429
_symmetry_Int_Tables_number   1
_chemical_formula_structural   Y4Tm6AlSb5
_chemical_formula_sum   'Y4 Tm6 Al1 Sb5'
_cell_volume   431.40372443
_cell_formula_units_Z   1
loop_
 _symmetry_equiv_pos_site_id
 _symmetry_equiv_pos_as_xyz
  1  'x, y, z'
loop_
 _atom_site_type_symbol
 _atom_site_label
 _atom_site_symmetry_multiplicity
 _atom_site_fract_x
 _atom_site_fract_y
 _atom_site_fract_z
 _atom_site_occupancy
  Y  Y0  1  0.750001  0.752902  0.762717  1
  Y  Y1  1  0.750001  0.990185  0.237283  1
  Y  Y2  1  0.250002  0.245513  0.243711  1
  Y  Y3  1  0.250002  0.001802  0.756289  1
  Tm  Tm4  1  0.501416  0.338617  0.673209  1
  Tm  Tm5  1  0.501416  0.665407  0.326791  1
  Tm  Tm6  1  0.998583  0.665409  0.326794  1
  Tm  Tm7  1  0.998583  0.338615  0.673206  1
  Tm  Tm8  1  0.749998  0.248872  0.000000  1
  Tm  Tm9  1  0.249999  0.755732  0.000000  1
  Al  Al10  1  0.750001  0.601522  0.000000  1
  Sb  Sb11  1  0.750000  0.388585  0.389342  1
  Sb  Sb12  1  0.750000  0.999241  0.610658  1
  Sb  Sb13  1  0.249997  0.395144  0.000000  1
  Sb  Sb14  1  0.250001  0.610616  0.608776  1
  Sb  Sb15  1  0.250001  0.001841  0.391224  1
