# generated using pymatgen
data_Pa2NiB8Ir
_symmetry_space_group_name_H-M   'P 1'
_cell_length_a   6.91666349
_cell_length_b   6.91666375
_cell_length_c   6.91666238
_cell_angle_alpha   111.31638106
_cell_angle_beta   113.71837760
_cell_angle_gamma   103.54688830
_symmetry_Int_Tables_number   1
_chemical_formula_structural   Pa2NiB8Ir
_chemical_formula_sum   'Pa4 Ni2 B16 Ir2'
_cell_volume   252.58469467
_cell_formula_units_Z   2
loop_
 _symmetry_equiv_pos_site_id
 _symmetry_equiv_pos_as_xyz
  1  'x, y, z'
loop_
 _atom_site_type_symbol
 _atom_site_label
 _atom_site_symmetry_multiplicity
 _atom_site_fract_x
 _atom_site_fract_y
 _atom_site_fract_z
 _atom_site_occupancy
  Pa  Pa0  1  0.798368  0.798368  0.000000  1
  Pa  Pa1  1  0.201632  0.201632  0.000000  1
  Pa  Pa2  1  0.753058  0.253058  0.500000  1
  Pa  Pa3  1  0.246942  0.746942  0.500000  1
  Ni  Ni4  1  0.500000  0.743769  0.243769  1
  Ni  Ni5  1  0.500000  0.256231  0.756231  1
  B  B6  1  0.271384  0.106897  0.378281  1
  B  B7  1  0.728616  0.893103  0.621719  1
  B  B8  1  0.271384  0.893103  0.164488  1
  B  B9  1  0.728616  0.106897  0.835512  1
  B  B10  1  0.109616  0.733915  0.843531  1
  B  B11  1  0.890384  0.266085  0.156469  1
  B  B12  1  0.109616  0.266085  0.375700  1
  B  B13  1  0.890384  0.733915  0.624300  1
  B  B14  1  0.114637  0.107072  0.529759  1
  B  B15  1  0.577311  0.584877  0.470241  1
  B  B16  1  0.114637  0.584877  0.007566  1
  B  B17  1  0.577311  0.107072  0.992434  1
  B  B18  1  0.885363  0.892928  0.470241  1
  B  B19  1  0.422689  0.415123  0.529759  1
  B  B20  1  0.885363  0.415123  0.992434  1
  B  B21  1  0.422689  0.892928  0.007566  1
  Ir  Ir22  1  0.276653  0.500000  0.776653  1
  Ir  Ir23  1  0.723347  0.500000  0.223347  1
