# generated using pymatgen
data_Nb12Cr3Os9N4
_symmetry_space_group_name_H-M   'P 1'
_cell_length_a   8.25894510
_cell_length_b   8.25894494
_cell_length_c   8.35927325
_cell_angle_alpha   60.39623452
_cell_angle_beta   60.39623404
_cell_angle_gamma   59.99999698
_symmetry_Int_Tables_number   1
_chemical_formula_structural   Nb12Cr3Os9N4
_chemical_formula_sum   'Nb12 Cr3 Os9 N4'
_cell_volume   405.58126853
_cell_formula_units_Z   1
loop_
 _symmetry_equiv_pos_site_id
 _symmetry_equiv_pos_as_xyz
  1  'x, y, z'
loop_
 _atom_site_type_symbol
 _atom_site_label
 _atom_site_symmetry_multiplicity
 _atom_site_fract_x
 _atom_site_fract_y
 _atom_site_fract_z
 _atom_site_occupancy
  Nb  Nb0  1  0.806763  0.806763  0.192744  1
  Nb  Nb1  1  0.192123  0.192123  0.808167  1
  Nb  Nb2  1  0.807588  0.192123  0.808167  1
  Nb  Nb3  1  0.193729  0.806763  0.192744  1
  Nb  Nb4  1  0.192123  0.807588  0.808167  1
  Nb  Nb5  1  0.806763  0.193729  0.192744  1
  Nb  Nb6  1  0.443237  0.443237  0.057256  1
  Nb  Nb7  1  0.057877  0.057877  0.441833  1
  Nb  Nb8  1  0.442412  0.057877  0.441833  1
  Nb  Nb9  1  0.056271  0.443237  0.057256  1
  Nb  Nb10  1  0.057877  0.442412  0.441833  1
  Nb  Nb11  1  0.443237  0.056271  0.057256  1
  Cr  Cr12  1  0.125000  0.625000  0.625000  1
  Cr  Cr13  1  0.625000  0.125000  0.625000  1
  Cr  Cr14  1  0.625000  0.625000  0.625000  1
  Os  Os15  1  0.625000  0.625000  0.125000  1
  Os  Os16  1  0.744175  0.414264  0.427297  1
  Os  Os17  1  0.414264  0.744175  0.427297  1
  Os  Os18  1  0.417343  0.417343  0.747973  1
  Os  Os19  1  0.414264  0.414264  0.427297  1
  Os  Os20  1  0.505825  0.835736  0.822703  1
  Os  Os21  1  0.835736  0.505825  0.822703  1
  Os  Os22  1  0.832657  0.832657  0.502027  1
  Os  Os23  1  0.835736  0.835736  0.822703  1
  N  N24  1  0.625000  0.125000  0.125000  1
  N  N25  1  0.125000  0.625000  0.125000  1
  N  N26  1  0.125000  0.125000  0.625000  1
  N  N27  1  0.125000  0.125000  0.125000  1
