# generated using pymatgen
data_PrPu5F18
_symmetry_space_group_name_H-M   'P 1'
_cell_length_a   7.16906000
_cell_length_b   7.17486258
_cell_length_c   7.23170845
_cell_angle_alpha   89.98256149
_cell_angle_beta   90.00000000
_cell_angle_gamma   119.97324156
_symmetry_Int_Tables_number   1
_chemical_formula_structural   PrPu5F18
_chemical_formula_sum   'Pr1 Pu5 F18'
_cell_volume   322.22880062
_cell_formula_units_Z   1
loop_
 _symmetry_equiv_pos_site_id
 _symmetry_equiv_pos_as_xyz
  1  'x, y, z'
loop_
 _atom_site_type_symbol
 _atom_site_label
 _atom_site_symmetry_multiplicity
 _atom_site_fract_x
 _atom_site_fract_y
 _atom_site_fract_z
 _atom_site_occupancy
  Pr  Pr0  1  0.656289  0.000000  0.250000  1
  Pu  Pu1  1  0.658494  0.658666  0.750092  1
  Pu  Pu2  1  0.999828  0.341334  0.749908  1
  Pu  Pu3  1  0.342701  0.000000  0.750000  1
  Pu  Pu4  1  0.341191  0.341622  0.249943  1
  Pu  Pu5  1  0.999568  0.658378  0.250057  1
  F  F6  1  0.001045  0.000000  0.750000  1
  F  F7  1  0.001382  0.000000  0.250000  1
  F  F8  1  0.332590  0.665662  0.689749  1
  F  F9  1  0.666930  0.334338  0.810251  1
  F  F10  1  0.666340  0.334621  0.310676  1
  F  F11  1  0.331718  0.665379  0.189324  1
  F  F12  1  0.372599  0.060507  0.077959  1
  F  F13  1  0.937803  0.307813  0.076827  1
  F  F14  1  0.690592  0.632469  0.078405  1
  F  F15  1  0.312092  0.939493  0.422041  1
  F  F16  1  0.629989  0.692187  0.423173  1
  F  F17  1  0.058124  0.367531  0.421595  1
  F  F18  1  0.629839  0.938346  0.919161  1
  F  F19  1  0.060098  0.690850  0.922601  1
  F  F20  1  0.309645  0.369242  0.922862  1
  F  F21  1  0.691493  0.061654  0.580839  1
  F  F22  1  0.369248  0.309150  0.577399  1
  F  F23  1  0.940402  0.630758  0.577138  1
