# generated using pymatgen
data_Ta4Co4SiP3
_symmetry_space_group_name_H-M   'P 1'
_cell_length_a   3.61102500
_cell_length_b   6.14711448
_cell_length_c   6.99153750
_cell_angle_alpha   89.82129151
_cell_angle_beta   90.00000000
_cell_angle_gamma   90.00000000
_symmetry_Int_Tables_number   1
_chemical_formula_structural   Ta4Co4SiP3
_chemical_formula_sum   'Ta4 Co4 Si1 P3'
_cell_volume   155.19308812
_cell_formula_units_Z   1
loop_
 _symmetry_equiv_pos_site_id
 _symmetry_equiv_pos_as_xyz
  1  'x, y, z'
loop_
 _atom_site_type_symbol
 _atom_site_label
 _atom_site_symmetry_multiplicity
 _atom_site_fract_x
 _atom_site_fract_y
 _atom_site_fract_z
 _atom_site_occupancy
  Ta  Ta0  1  0.250000  0.023424  0.824464  1
  Ta  Ta1  1  0.250000  0.524508  0.673570  1
  Ta  Ta2  1  0.750000  0.972908  0.173626  1
  Ta  Ta3  1  0.750000  0.476218  0.329472  1
  Co  Co4  1  0.250000  0.143696  0.441466  1
  Co  Co5  1  0.250000  0.649121  0.061235  1
  Co  Co6  1  0.750000  0.853582  0.563431  1
  Co  Co7  1  0.750000  0.356667  0.932596  1
  Si  Si8  1  0.250000  0.277512  0.120886  1
  P  P9  1  0.250000  0.776861  0.378513  1
  P  P10  1  0.750000  0.722035  0.879840  1
  P  P11  1  0.750000  0.223468  0.620901  1
