# generated using pymatgen
data_Dy3Y5(TmIn3)2
_symmetry_space_group_name_H-M   'P 1'
_cell_length_a   9.15865936
_cell_length_b   9.15865965
_cell_length_c   9.15678853
_cell_angle_alpha   96.39940199
_cell_angle_beta   96.39532081
_cell_angle_gamma   141.00484178
_symmetry_Int_Tables_number   1
_chemical_formula_structural   Dy3Y5(TmIn3)2
_chemical_formula_sum   'Dy3 Y5 Tm2 In6'
_cell_volume   455.59130383
_cell_formula_units_Z   1
loop_
 _symmetry_equiv_pos_site_id
 _symmetry_equiv_pos_as_xyz
  1  'x, y, z'
loop_
 _atom_site_type_symbol
 _atom_site_label
 _atom_site_symmetry_multiplicity
 _atom_site_fract_x
 _atom_site_fract_y
 _atom_site_fract_z
 _atom_site_occupancy
  Dy  Dy0  1  0.782593  0.917869  0.700463  1
  Dy  Dy1  1  0.417967  0.282562  0.700529  1
  Dy  Dy2  1  0.081970  0.782411  0.864382  1
  Y  Y3  1  0.717170  0.417887  0.135057  1
  Y  Y4  1  0.282476  0.582177  0.864654  1
  Y  Y5  1  0.582342  0.717381  0.299721  1
  Y  Y6  1  0.217428  0.082391  0.299818  1
  Y  Y7  1  0.917966  0.217190  0.135157  1
  Tm  Tm8  1  0.750058  0.250093  0.500151  1
  Tm  Tm9  1  0.250058  0.750093  0.500151  1
  In  In10  1  0.839183  0.660891  0.500074  1
  In  In11  1  0.339025  0.839254  0.178279  1
  In  In12  1  0.750008  0.749987  0.999903  1
  In  In13  1  0.660879  0.160779  0.821658  1
  In  In14  1  0.160961  0.339142  0.500103  1
  In  In15  1  0.249917  0.249895  0.999903  1
