# generated using pymatgen
data_NpTi2(GaRu2)3
_symmetry_space_group_name_H-M   'P 1'
_cell_length_a   4.37794526
_cell_length_b   6.24984800
_cell_length_c   13.15425775
_cell_angle_alpha   90.00000000
_cell_angle_beta   90.03931046
_cell_angle_gamma   90.00000000
_symmetry_Int_Tables_number   1
_chemical_formula_structural   NpTi2(GaRu2)3
_chemical_formula_sum   'Np2 Ti4 Ga6 Ru12'
_cell_volume   359.92003957
_cell_formula_units_Z   2
loop_
 _symmetry_equiv_pos_site_id
 _symmetry_equiv_pos_as_xyz
  1  'x, y, z'
loop_
 _atom_site_type_symbol
 _atom_site_label
 _atom_site_symmetry_multiplicity
 _atom_site_fract_x
 _atom_site_fract_y
 _atom_site_fract_z
 _atom_site_occupancy
  Np  Np0  1  0.000236  0.000000  0.994622  1
  Np  Np1  1  0.499733  0.500001  0.172054  1
  Ti  Ti2  1  0.999790  0.000000  0.344355  1
  Ti  Ti3  1  0.499919  0.500001  0.504979  1
  Ti  Ti4  1  0.000124  0.000000  0.662506  1
  Ti  Ti5  1  0.500271  0.500001  0.822940  1
  Ga  Ga6  1  0.000140  0.500001  0.992403  1
  Ga  Ga7  1  0.499799  0.000000  0.172613  1
  Ga  Ga8  1  0.999788  0.500001  0.344745  1
  Ga  Ga9  1  0.499909  0.000000  0.503641  1
  Ga  Ga10  1  0.000134  0.500001  0.662861  1
  Ga  Ga11  1  0.500228  0.000000  0.822476  1
  Ru  Ru12  1  0.500217  0.257533  0.998140  1
  Ru  Ru13  1  0.500217  0.742467  0.998140  1
  Ru  Ru14  1  0.999728  0.247211  0.172041  1
  Ru  Ru15  1  0.999728  0.752789  0.172041  1
  Ru  Ru16  1  0.499780  0.250145  0.334472  1
  Ru  Ru17  1  0.499780  0.749855  0.334472  1
  Ru  Ru18  1  0.999916  0.248703  0.500338  1
  Ru  Ru19  1  0.999916  0.751297  0.500338  1
  Ru  Ru20  1  0.500100  0.251439  0.665227  1
  Ru  Ru21  1  0.500100  0.748561  0.665227  1
  Ru  Ru22  1  0.000220  0.252567  0.829683  1
  Ru  Ru23  1  0.000220  0.747433  0.829683  1
