# generated using pymatgen
data_Dy8Mg3Sc8Si16Ag
_symmetry_space_group_name_H-M   'P 1'
_cell_length_a   6.94226600
_cell_length_b   7.46749764
_cell_length_c   13.92450900
_cell_angle_alpha   90.00000000
_cell_angle_beta   90.00000000
_cell_angle_gamma   89.91078145
_symmetry_Int_Tables_number   1
_chemical_formula_structural   Dy8Mg3Sc8Si16Ag
_chemical_formula_sum   'Dy8 Mg3 Sc8 Si16 Ag1'
_cell_volume   721.86453881
_cell_formula_units_Z   1
loop_
 _symmetry_equiv_pos_site_id
 _symmetry_equiv_pos_as_xyz
  1  'x, y, z'
loop_
 _atom_site_type_symbol
 _atom_site_label
 _atom_site_symmetry_multiplicity
 _atom_site_fract_x
 _atom_site_fract_y
 _atom_site_fract_z
 _atom_site_occupancy
  Dy  Dy0  1  0.012259  0.177861  0.096907  1
  Dy  Dy1  1  0.988759  0.817489  0.902074  1
  Dy  Dy2  1  0.486603  0.677352  0.902318  1
  Dy  Dy3  1  0.988759  0.817489  0.597926  1
  Dy  Dy4  1  0.511721  0.320975  0.096408  1
  Dy  Dy5  1  0.012259  0.177861  0.403093  1
  Dy  Dy6  1  0.511721  0.320975  0.403592  1
  Dy  Dy7  1  0.486603  0.677352  0.597682  1
  Mg  Mg8  1  0.842116  0.493723  0.250000  1
  Mg  Mg9  1  0.342048  0.006532  0.250000  1
  Mg  Mg10  1  0.657512  0.994480  0.750000  1
  Sc  Sc11  1  0.328106  0.183952  0.626345  1
  Sc  Sc12  1  0.669405  0.818865  0.375185  1
  Sc  Sc13  1  0.170091  0.681336  0.374819  1
  Sc  Sc14  1  0.669405  0.818865  0.124815  1
  Sc  Sc15  1  0.833192  0.320888  0.626359  1
  Sc  Sc16  1  0.328106  0.183952  0.873655  1
  Sc  Sc17  1  0.833192  0.320888  0.873641  1
  Sc  Sc18  1  0.170091  0.681336  0.125181  1
  Si  Si19  1  0.032593  0.101146  0.750000  1
  Si  Si20  1  0.965079  0.895039  0.250000  1
  Si  Si21  1  0.465774  0.605565  0.250000  1
  Si  Si22  1  0.534359  0.395875  0.750000  1
  Si  Si23  1  0.283028  0.883549  0.750000  1
  Si  Si24  1  0.717229  0.118740  0.250000  1
  Si  Si25  1  0.217934  0.381125  0.250000  1
  Si  Si26  1  0.782050  0.618263  0.750000  1
  Si  Si27  1  0.160823  0.461967  0.532137  1
  Si  Si28  1  0.840106  0.535651  0.465662  1
  Si  Si29  1  0.339952  0.963494  0.466864  1
  Si  Si30  1  0.840106  0.535651  0.034338  1
  Si  Si31  1  0.660330  0.035726  0.535464  1
  Si  Si32  1  0.160823  0.461967  0.967863  1
  Si  Si33  1  0.660330  0.035726  0.964536  1
  Si  Si34  1  0.339952  0.963494  0.033136  1
  Ag  Ag35  1  0.157581  0.514845  0.750000  1
