# generated using pymatgen
data_Tm2Lu14MgIn3Rh4
_symmetry_space_group_name_H-M   'P 1'
_cell_length_a   9.49620576
_cell_length_b   9.49380391
_cell_length_c   9.49098287
_cell_angle_alpha   59.81964196
_cell_angle_beta   59.84816991
_cell_angle_gamma   59.87392769
_symmetry_Int_Tables_number   1
_chemical_formula_structural   Tm2Lu14MgIn3Rh4
_chemical_formula_sum   'Tm2 Lu14 Mg1 In3 Rh4'
_cell_volume   602.94572596
_cell_formula_units_Z   1
loop_
 _symmetry_equiv_pos_site_id
 _symmetry_equiv_pos_as_xyz
  1  'x, y, z'
loop_
 _atom_site_type_symbol
 _atom_site_label
 _atom_site_symmetry_multiplicity
 _atom_site_fract_x
 _atom_site_fract_y
 _atom_site_fract_z
 _atom_site_occupancy
  Tm  Tm0  1  0.599620  0.599669  0.599646  1
  Tm  Tm1  1  0.599838  0.599753  0.201398  1
  Lu  Lu2  1  0.599518  0.202172  0.599656  1
  Lu  Lu3  1  0.202035  0.599612  0.599745  1
  Lu  Lu4  1  0.059333  0.440145  0.440319  1
  Lu  Lu5  1  0.438788  0.061763  0.061677  1
  Lu  Lu6  1  0.440136  0.059365  0.440246  1
  Lu  Lu7  1  0.061877  0.438720  0.061658  1
  Lu  Lu8  1  0.439917  0.439884  0.059510  1
  Lu  Lu9  1  0.061665  0.061577  0.439062  1
  Lu  Lu10  1  0.187115  0.812948  0.812717  1
  Lu  Lu11  1  0.811891  0.187871  0.188019  1
  Lu  Lu12  1  0.812941  0.187091  0.812779  1
  Lu  Lu13  1  0.187864  0.811901  0.188014  1
  Lu  Lu14  1  0.812994  0.813039  0.186877  1
  Lu  Lu15  1  0.187926  0.187976  0.811809  1
  Mg  Mg16  1  0.829547  0.829520  0.829011  1
  In  In17  1  0.833680  0.833562  0.500442  1
  In  In18  1  0.833770  0.500510  0.833466  1
  In  In19  1  0.500465  0.833773  0.833479  1
  Rh  Rh20  1  0.391663  0.391774  0.392486  1
  Rh  Rh21  1  0.391977  0.392072  0.823361  1
  Rh  Rh22  1  0.391596  0.823671  0.392405  1
  Rh  Rh23  1  0.823847  0.391630  0.392217  1
