# generated using pymatgen
data_Sm7U(Si4Mo3)4
_symmetry_space_group_name_H-M   'P 1'
_cell_length_a   6.85932027
_cell_length_b   7.01504330
_cell_length_c   13.05217952
_cell_angle_alpha   89.97788423
_cell_angle_beta   90.10283389
_cell_angle_gamma   89.83346508
_symmetry_Int_Tables_number   1
_chemical_formula_structural   Sm7U(Si4Mo3)4
_chemical_formula_sum   'Sm7 U1 Si16 Mo12'
_cell_volume   628.04665719
_cell_formula_units_Z   1
loop_
 _symmetry_equiv_pos_site_id
 _symmetry_equiv_pos_as_xyz
  1  'x, y, z'
loop_
 _atom_site_type_symbol
 _atom_site_label
 _atom_site_symmetry_multiplicity
 _atom_site_fract_x
 _atom_site_fract_y
 _atom_site_fract_z
 _atom_site_occupancy
  Sm  Sm0  1  0.496718  0.334008  0.093565  1
  Sm  Sm1  1  0.997026  0.164063  0.406374  1
  Sm  Sm2  1  0.502477  0.664482  0.594597  1
  Sm  Sm3  1  0.003693  0.836642  0.907170  1
  Sm  Sm4  1  0.502083  0.665800  0.905673  1
  Sm  Sm5  1  0.001415  0.834614  0.594681  1
  Sm  Sm6  1  0.496913  0.335499  0.405600  1
  U  U7  1  0.993319  0.167587  0.098042  1
  Si  Si8  1  0.654616  0.044813  0.547979  1
  Si  Si9  1  0.157484  0.454038  0.954270  1
  Si  Si10  1  0.338890  0.956046  0.046757  1
  Si  Si11  1  0.844858  0.545033  0.451142  1
  Si  Si12  1  0.344660  0.954629  0.451211  1
  Si  Si13  1  0.844814  0.544292  0.047567  1
  Si  Si14  1  0.657124  0.044802  0.953194  1
  Si  Si15  1  0.155539  0.455794  0.548058  1
  Si  Si16  1  0.536537  0.360358  0.750195  1
  Si  Si17  1  0.037484  0.138613  0.749720  1
  Si  Si18  1  0.464623  0.640841  0.248174  1
  Si  Si19  1  0.964071  0.861504  0.249056  1
  Si  Si20  1  0.805371  0.622952  0.750991  1
  Si  Si21  1  0.305347  0.876475  0.750112  1
  Si  Si22  1  0.194308  0.374786  0.249334  1
  Si  Si23  1  0.695079  0.124114  0.250196  1
  Mo  Mo24  1  0.833132  0.333484  0.626029  1
  Mo  Mo25  1  0.332369  0.164783  0.874221  1
  Mo  Mo26  1  0.170106  0.663257  0.125975  1
  Mo  Mo27  1  0.667677  0.834563  0.373689  1
  Mo  Mo28  1  0.167702  0.665922  0.373066  1
  Mo  Mo29  1  0.672384  0.841239  0.125871  1
  Mo  Mo30  1  0.835100  0.331168  0.876302  1
  Mo  Mo31  1  0.331046  0.165167  0.625519  1
  Mo  Mo32  1  0.665674  0.002270  0.750783  1
  Mo  Mo33  1  0.164073  0.497660  0.751419  1
  Mo  Mo34  1  0.330331  0.001962  0.246793  1
  Mo  Mo35  1  0.835956  0.496737  0.246676  1
