# generated using pymatgen
data_Y4Tm4Tc(B8Os)3
_symmetry_space_group_name_H-M   'P 1'
_cell_length_a   3.64487400
_cell_length_b   9.11840021
_cell_length_c   11.51825301
_cell_angle_alpha   89.95430712
_cell_angle_beta   90.00000000
_cell_angle_gamma   90.00000000
_symmetry_Int_Tables_number   1
_chemical_formula_structural   Y4Tm4Tc(B8Os)3
_chemical_formula_sum   'Y4 Tm4 Tc1 B24 Os3'
_cell_volume   382.81385310
_cell_formula_units_Z   1
loop_
 _symmetry_equiv_pos_site_id
 _symmetry_equiv_pos_as_xyz
  1  'x, y, z'
loop_
 _atom_site_type_symbol
 _atom_site_label
 _atom_site_symmetry_multiplicity
 _atom_site_fract_x
 _atom_site_fract_y
 _atom_site_fract_z
 _atom_site_occupancy
  Y  Y0  1  0.000000  0.323243  0.413015  1
  Y  Y1  1  0.000000  0.677962  0.583627  1
  Y  Y2  1  0.000000  0.819754  0.087931  1
  Y  Y3  1  0.000000  0.178206  0.914747  1
  Tm  Tm4  1  0.000000  0.942701  0.372499  1
  Tm  Tm5  1  0.000000  0.056787  0.627485  1
  Tm  Tm6  1  0.000000  0.444675  0.128303  1
  Tm  Tm7  1  0.000000  0.556513  0.872191  1
  Tc  Tc8  1  0.000000  0.638066  0.320509  1
  B  B9  1  0.500000  0.553340  0.432648  1
  B  B10  1  0.500000  0.446150  0.567595  1
  B  B11  1  0.500000  0.053952  0.067493  1
  B  B12  1  0.500000  0.945956  0.932824  1
  B  B13  1  0.500000  0.749050  0.418886  1
  B  B14  1  0.500000  0.251079  0.580977  1
  B  B15  1  0.500000  0.249262  0.080857  1
  B  B16  1  0.500000  0.750778  0.919078  1
  B  B17  1  0.500000  0.791643  0.266242  1
  B  B18  1  0.500000  0.208621  0.733777  1
  B  B19  1  0.500000  0.291301  0.233258  1
  B  B20  1  0.500000  0.709025  0.766198  1
  B  B21  1  0.500000  0.630700  0.185438  1
  B  B22  1  0.500000  0.369133  0.815071  1
  B  B23  1  0.500000  0.130697  0.314453  1
  B  B24  1  0.500000  0.869609  0.685116  1
  B  B25  1  0.500000  0.982614  0.213345  1
  B  B26  1  0.500000  0.017282  0.787042  1
  B  B27  1  0.500000  0.482261  0.286704  1
  B  B28  1  0.500000  0.517050  0.713357  1
  B  B29  1  0.500000  0.604407  0.028438  1
  B  B30  1  0.500000  0.395372  0.970919  1
  B  B31  1  0.500000  0.104979  0.471138  1
  B  B32  1  0.500000  0.896157  0.529237  1
  Os  Os33  1  0.000000  0.361623  0.680110  1
  Os  Os34  1  0.000000  0.137913  0.178998  1
  Os  Os35  1  0.000000  0.862138  0.820494  1
