# generated using pymatgen
data_La3Cd2HgAu3
_symmetry_space_group_name_H-M   'P 1'
_cell_length_a   8.13808400
_cell_length_b   8.07305294
_cell_length_c   4.09030900
_cell_angle_alpha   90.00000000
_cell_angle_beta   90.00000000
_cell_angle_gamma   120.26682765
_symmetry_Int_Tables_number   1
_chemical_formula_structural   La3Cd2HgAu3
_chemical_formula_sum   'La3 Cd2 Hg1 Au3'
_cell_volume   232.09870974
_cell_formula_units_Z   1
loop_
 _symmetry_equiv_pos_site_id
 _symmetry_equiv_pos_as_xyz
  1  'x, y, z'
loop_
 _atom_site_type_symbol
 _atom_site_label
 _atom_site_symmetry_multiplicity
 _atom_site_fract_x
 _atom_site_fract_y
 _atom_site_fract_z
 _atom_site_occupancy
  La  La0  1  0.414574  0.000000  0.000000  1
  La  La1  1  0.592774  0.596310  0.000000  1
  La  La2  1  0.996463  0.403690  0.000000  1
  Cd  Cd3  1  0.254819  0.253621  0.500000  1
  Cd  Cd4  1  0.001199  0.746379  0.500000  1
  Hg  Hg5  1  0.741409  0.000000  0.500000  1
  Au  Au6  1  0.665205  0.339436  0.500000  1
  Au  Au7  1  0.325767  0.660564  0.500000  1
  Au  Au8  1  0.007790  0.000000  0.000000  1
