# generated using pymatgen
data_Dy5Y11Cd3AgIr4
_symmetry_space_group_name_H-M   'P 1'
_cell_length_a   9.64615745
_cell_length_b   9.65857284
_cell_length_c   9.65857287
_cell_angle_alpha   59.92349020
_cell_angle_beta   59.96160277
_cell_angle_gamma   59.96161066
_symmetry_Int_Tables_number   1
_chemical_formula_structural   Dy5Y11Cd3AgIr4
_chemical_formula_sum   'Dy5 Y11 Cd3 Ag1 Ir4'
_cell_volume   635.56729398
_cell_formula_units_Z   1
loop_
 _symmetry_equiv_pos_site_id
 _symmetry_equiv_pos_as_xyz
  1  'x, y, z'
loop_
 _atom_site_type_symbol
 _atom_site_label
 _atom_site_symmetry_multiplicity
 _atom_site_fract_x
 _atom_site_fract_y
 _atom_site_fract_z
 _atom_site_occupancy
  Dy  Dy0  1  0.349154  0.349079  0.349079  1
  Dy  Dy1  1  0.349638  0.349127  0.953696  1
  Dy  Dy2  1  0.349638  0.953696  0.349127  1
  Dy  Dy3  1  0.953174  0.349608  0.349608  1
  Dy  Dy4  1  0.809742  0.189491  0.189491  1
  Y  Y5  1  0.187858  0.809599  0.809599  1
  Y  Y6  1  0.189532  0.809346  0.189738  1
  Y  Y7  1  0.809799  0.187803  0.809487  1
  Y  Y8  1  0.189532  0.189738  0.809346  1
  Y  Y9  1  0.809799  0.809487  0.187803  1
  Y  Y10  1  0.936831  0.561199  0.561199  1
  Y  Y11  1  0.561992  0.936581  0.936581  1
  Y  Y12  1  0.561220  0.937207  0.560832  1
  Y  Y13  1  0.936770  0.561430  0.936908  1
  Y  Y14  1  0.561220  0.560832  0.937207  1
  Y  Y15  1  0.936770  0.936908  0.561430  1
  Cd  Cd16  1  0.581159  0.581581  0.258959  1
  Cd  Cd17  1  0.581159  0.258959  0.581581  1
  Cd  Cd18  1  0.259011  0.581315  0.581315  1
  Ag  Ag19  1  0.582648  0.582829  0.582829  1
  Ir  Ir20  1  0.140536  0.142598  0.142598  1
  Ir  Ir21  1  0.143861  0.143429  0.574121  1
  Ir  Ir22  1  0.143861  0.574121  0.143429  1
  Ir  Ir23  1  0.575102  0.144040  0.144040  1
