# generated using pymatgen
data_Sc8Si4RuPt13
_symmetry_space_group_name_H-M   'P 1'
_cell_length_a   4.03177900
_cell_length_b   6.53958784
_cell_length_c   16.25926590
_cell_angle_alpha   90.25304176
_cell_angle_beta   90.00000000
_cell_angle_gamma   90.00000000
_symmetry_Int_Tables_number   1
_chemical_formula_structural   Sc8Si4RuPt13
_chemical_formula_sum   'Sc8 Si4 Ru1 Pt13'
_cell_volume   428.69043556
_cell_formula_units_Z   1
loop_
 _symmetry_equiv_pos_site_id
 _symmetry_equiv_pos_as_xyz
  1  'x, y, z'
loop_
 _atom_site_type_symbol
 _atom_site_label
 _atom_site_symmetry_multiplicity
 _atom_site_fract_x
 _atom_site_fract_y
 _atom_site_fract_z
 _atom_site_occupancy
  Sc  Sc0  1  0.000000  0.277763  0.457462  1
  Sc  Sc1  1  0.000000  0.712806  0.534262  1
  Sc  Sc2  1  0.000000  0.786632  0.040533  1
  Sc  Sc3  1  0.000000  0.214791  0.961516  1
  Sc  Sc4  1  0.000000  0.538684  0.293700  1
  Sc  Sc5  1  0.000000  0.475963  0.706547  1
  Sc  Sc6  1  0.000000  0.026975  0.215526  1
  Sc  Sc7  1  0.000000  0.973617  0.790345  1
  Si  Si8  1  0.500000  0.841793  0.307736  1
  Si  Si9  1  0.500000  0.159526  0.692234  1
  Si  Si10  1  0.500000  0.342343  0.195244  1
  Si  Si11  1  0.500000  0.658638  0.806811  1
  Ru  Ru12  1  0.000000  0.902022  0.380544  1
  Pt  Pt13  1  0.000000  0.091137  0.617952  1
  Pt  Pt14  1  0.000000  0.406746  0.118376  1
  Pt  Pt15  1  0.000000  0.592108  0.881771  1
  Pt  Pt16  1  0.500000  0.598218  0.421653  1
  Pt  Pt17  1  0.500000  0.402486  0.578322  1
  Pt  Pt18  1  0.500000  0.097142  0.079986  1
  Pt  Pt19  1  0.500000  0.904265  0.920894  1
  Pt  Pt20  1  0.500000  0.500544  0.000267  1
  Pt  Pt21  1  0.500000  0.999954  0.498021  1
  Pt  Pt22  1  0.500000  0.212164  0.333872  1
  Pt  Pt23  1  0.500000  0.784203  0.667517  1
  Pt  Pt24  1  0.500000  0.715265  0.166590  1
  Pt  Pt25  1  0.500000  0.284217  0.832321  1
