# generated using pymatgen
data_TbNd5Th2Cd2IrRu
_symmetry_space_group_name_H-M   'P 1'
_cell_length_a   9.91849534
_cell_length_b   9.93008290
_cell_length_c   9.95661270
_cell_angle_alpha   59.83453531
_cell_angle_beta   59.94989466
_cell_angle_gamma   60.16458406
_symmetry_Int_Tables_number   1
_chemical_formula_structural   TbNd5Th2Cd2IrRu
_chemical_formula_sum   'Tb2 Nd10 Th4 Cd4 Ir2 Ru2'
_cell_volume   693.13918970
_cell_formula_units_Z   2
loop_
 _symmetry_equiv_pos_site_id
 _symmetry_equiv_pos_as_xyz
  1  'x, y, z'
loop_
 _atom_site_type_symbol
 _atom_site_label
 _atom_site_symmetry_multiplicity
 _atom_site_fract_x
 _atom_site_fract_y
 _atom_site_fract_z
 _atom_site_occupancy
  Tb  Tb0  1  0.810369  0.190535  0.190541  1
  Tb  Tb1  1  0.190535  0.810369  0.808555  1
  Nd  Nd2  1  0.188243  0.813747  0.189238  1
  Nd  Nd3  1  0.813747  0.188243  0.808772  1
  Nd  Nd4  1  0.188078  0.188078  0.811922  1
  Nd  Nd5  1  0.809873  0.809873  0.190127  1
  Nd  Nd6  1  0.939578  0.560122  0.562470  1
  Nd  Nd7  1  0.560122  0.939578  0.937831  1
  Nd  Nd8  1  0.560078  0.938828  0.562889  1
  Nd  Nd9  1  0.938828  0.560078  0.938206  1
  Nd  Nd10  1  0.560499  0.560499  0.939501  1
  Nd  Nd11  1  0.938075  0.938075  0.561925  1
  Th  Th12  1  0.347209  0.344506  0.348573  1
  Th  Th13  1  0.344506  0.347209  0.959713  1
  Th  Th14  1  0.343163  0.961972  0.349385  1
  Th  Th15  1  0.961972  0.343163  0.345481  1
  Cd  Cd16  1  0.578523  0.580338  0.580872  1
  Cd  Cd17  1  0.580338  0.578523  0.260264  1
  Cd  Cd18  1  0.580846  0.258390  0.579526  1
  Cd  Cd19  1  0.258390  0.580846  0.581235  1
  Ir  Ir20  1  0.147692  0.567254  0.140145  1
  Ir  Ir21  1  0.567254  0.147692  0.144908  1
  Ru  Ru22  1  0.144471  0.147611  0.145282  1
  Ru  Ru23  1  0.147611  0.144471  0.562635  1
