# generated using pymatgen
data_Tb8Er12Si15Pd
_symmetry_space_group_name_H-M   'P 1'
_cell_length_a   7.64476601
_cell_length_b   7.67893662
_cell_length_c   14.03445702
_cell_angle_alpha   89.48804173
_cell_angle_beta   89.73252203
_cell_angle_gamma   90.34352921
_symmetry_Int_Tables_number   1
_chemical_formula_structural   Tb8Er12Si15Pd
_chemical_formula_sum   'Tb8 Er12 Si15 Pd1'
_cell_volume   823.81730294
_cell_formula_units_Z   1
loop_
 _symmetry_equiv_pos_site_id
 _symmetry_equiv_pos_as_xyz
  1  'x, y, z'
loop_
 _atom_site_type_symbol
 _atom_site_label
 _atom_site_symmetry_multiplicity
 _atom_site_fract_x
 _atom_site_fract_y
 _atom_site_fract_z
 _atom_site_occupancy
  Tb  Tb0  1  0.990026  0.357255  0.211692  1
  Tb  Tb1  1  0.004368  0.647002  0.711206  1
  Tb  Tb2  1  0.146280  0.502573  0.460435  1
  Tb  Tb3  1  0.505273  0.852838  0.038391  1
  Tb  Tb4  1  0.852110  0.502973  0.960519  1
  Tb  Tb5  1  0.498414  0.145362  0.541185  1
  Tb  Tb6  1  0.354269  0.996195  0.789302  1
  Tb  Tb7  1  0.650714  0.999337  0.287396  1
  Er  Er8  1  0.179524  0.181376  0.000357  1
  Er  Er9  1  0.825021  0.821960  0.499653  1
  Er  Er10  1  0.321266  0.680008  0.250439  1
  Er  Er11  1  0.678949  0.322516  0.749716  1
  Er  Er12  1  0.149726  0.008612  0.374920  1
  Er  Er13  1  0.855996  0.995393  0.876180  1
  Er  Er14  1  0.494039  0.644934  0.627701  1
  Er  Er15  1  0.357822  0.505372  0.873223  1
  Er  Er16  1  0.502451  0.352501  0.126880  1
  Er  Er17  1  0.637044  0.493390  0.378267  1
  Er  Er18  1  0.006110  0.144659  0.622744  1
  Er  Er19  1  0.992472  0.854265  0.123099  1
  Si  Si20  1  0.647898  0.707491  0.816323  1
  Si  Si21  1  0.208236  0.855089  0.567515  1
  Si  Si22  1  0.144953  0.789776  0.933866  1
  Si  Si23  1  0.793734  0.146634  0.066506  1
  Si  Si24  1  0.854304  0.205654  0.430490  1
  Si  Si25  1  0.293140  0.352211  0.684898  1
  Si  Si26  1  0.702921  0.646511  0.184484  1
  Si  Si27  1  0.298460  0.047800  0.184654  1
  Si  Si28  1  0.704265  0.945071  0.688124  1
  Si  Si29  1  0.444610  0.797091  0.440334  1
  Si  Si30  1  0.204216  0.560293  0.059825  1
  Si  Si31  1  0.555853  0.202938  0.938012  1
  Si  Si32  1  0.797152  0.444864  0.563487  1
  Si  Si33  1  0.056292  0.294360  0.811013  1
  Si  Si34  1  0.939504  0.703534  0.312715  1
  Pd  Pd35  1  0.352588  0.292163  0.314448  1
