# generated using pymatgen
data_Tb2DyMg3AgGe2
_symmetry_space_group_name_H-M   'P 1'
_cell_length_a   7.29110120
_cell_length_b   7.29407367
_cell_length_c   4.37900500
_cell_angle_alpha   90.00000000
_cell_angle_beta   90.00000000
_cell_angle_gamma   120.01348637
_symmetry_Int_Tables_number   1
_chemical_formula_structural   Tb2DyMg3AgGe2
_chemical_formula_sum   'Tb2 Dy1 Mg3 Ag1 Ge2'
_cell_volume   201.65561020
_cell_formula_units_Z   1
loop_
 _symmetry_equiv_pos_site_id
 _symmetry_equiv_pos_as_xyz
  1  'x, y, z'
loop_
 _atom_site_type_symbol
 _atom_site_label
 _atom_site_symmetry_multiplicity
 _atom_site_fract_x
 _atom_site_fract_y
 _atom_site_fract_z
 _atom_site_occupancy
  Tb  Tb0  1  0.420807  0.420914  0.500000  1
  Tb  Tb1  1  0.579193  0.000107  0.500000  1
  Dy  Dy2  1  0.000000  0.579172  0.500000  1
  Mg  Mg3  1  0.753977  0.753876  0.000000  1
  Mg  Mg4  1  0.246023  0.999899  0.000000  1
  Mg  Mg5  1  0.000000  0.246250  0.000000  1
  Ag  Ag6  1  0.000000  0.999649  0.500000  1
  Ge  Ge7  1  0.667076  0.333604  0.000000  1
  Ge  Ge8  1  0.332924  0.666528  0.000000  1
