# generated using pymatgen
data_Sr4Y(BiO4)3
_symmetry_space_group_name_H-M   'P 1'
_cell_length_a   6.00428484
_cell_length_b   6.14236058
_cell_length_c   8.56120300
_cell_angle_alpha   89.82134103
_cell_angle_beta   90.04489738
_cell_angle_gamma   89.97246391
_symmetry_Int_Tables_number   1
_chemical_formula_structural   Sr4Y(BiO4)3
_chemical_formula_sum   'Sr4 Y1 Bi3 O12'
_cell_volume   315.73962884
_cell_formula_units_Z   1
loop_
 _symmetry_equiv_pos_site_id
 _symmetry_equiv_pos_as_xyz
  1  'x, y, z'
loop_
 _atom_site_type_symbol
 _atom_site_label
 _atom_site_symmetry_multiplicity
 _atom_site_fract_x
 _atom_site_fract_y
 _atom_site_fract_z
 _atom_site_occupancy
  Sr  Sr0  1  0.988133  0.045359  0.252811  1
  Sr  Sr1  1  0.484716  0.452194  0.746775  1
  Sr  Sr2  1  0.515284  0.547806  0.253225  1
  Sr  Sr3  1  0.011867  0.954641  0.747189  1
  Y  Y4  1  0.500000  0.000000  0.500000  1
  Bi  Bi5  1  0.500000  0.000000  0.000000  1
  Bi  Bi6  1  0.000000  0.500000  0.000000  1
  Bi  Bi7  1  0.000000  0.500000  0.500000  1
  O  O8  1  0.199010  0.214230  0.553783  1
  O  O9  1  0.714103  0.297331  0.449395  1
  O  O10  1  0.307982  0.713805  0.941223  1
  O  O11  1  0.787233  0.803030  0.055293  1
  O  O12  1  0.800990  0.785770  0.446217  1
  O  O13  1  0.285897  0.702669  0.550605  1
  O  O14  1  0.692018  0.286195  0.058777  1
  O  O15  1  0.212767  0.196970  0.944707  1
  O  O16  1  0.102678  0.461661  0.260765  1
  O  O17  1  0.600357  0.038653  0.756757  1
  O  O18  1  0.399643  0.961347  0.243243  1
  O  O19  1  0.897322  0.538339  0.739235  1
