# generated using pymatgen
data_LuCo3P3Rh2
_symmetry_space_group_name_H-M   'P 1'
_cell_length_a   3.71329800
_cell_length_b   10.45217800
_cell_length_c   12.07320600
_cell_angle_alpha   90.00000000
_cell_angle_beta   90.00000000
_cell_angle_gamma   90.00000000
_symmetry_Int_Tables_number   1
_chemical_formula_structural   LuCo3P3Rh2
_chemical_formula_sum   'Lu4 Co12 P12 Rh8'
_cell_volume   468.58589501
_cell_formula_units_Z   4
loop_
 _symmetry_equiv_pos_site_id
 _symmetry_equiv_pos_as_xyz
  1  'x, y, z'
loop_
 _atom_site_type_symbol
 _atom_site_label
 _atom_site_symmetry_multiplicity
 _atom_site_fract_x
 _atom_site_fract_y
 _atom_site_fract_z
 _atom_site_occupancy
  Lu  Lu0  1  0.250000  0.583656  0.711776  1
  Lu  Lu1  1  0.250000  0.916344  0.211776  1
  Lu  Lu2  1  0.750000  0.416344  0.288224  1
  Lu  Lu3  1  0.750000  0.083656  0.788224  1
  Co  Co4  1  0.250000  0.221013  0.178462  1
  Co  Co5  1  0.250000  0.278987  0.678462  1
  Co  Co6  1  0.750000  0.778987  0.821538  1
  Co  Co7  1  0.750000  0.721013  0.321538  1
  Co  Co8  1  0.250000  0.882282  0.697312  1
  Co  Co9  1  0.250000  0.617718  0.197312  1
  Co  Co10  1  0.750000  0.117718  0.302688  1
  Co  Co11  1  0.750000  0.382282  0.802688  1
  Co  Co12  1  0.250000  0.462695  0.930684  1
  Co  Co13  1  0.250000  0.037305  0.430684  1
  Co  Co14  1  0.750000  0.537305  0.069316  1
  Co  Co15  1  0.750000  0.962695  0.569316  1
  P  P16  1  0.250000  0.421708  0.111312  1
  P  P17  1  0.250000  0.078292  0.611312  1
  P  P18  1  0.750000  0.578292  0.888688  1
  P  P19  1  0.750000  0.921708  0.388688  1
  P  P20  1  0.250000  0.273034  0.861241  1
  P  P21  1  0.250000  0.226966  0.361241  1
  P  P22  1  0.750000  0.726966  0.138759  1
  P  P23  1  0.750000  0.773034  0.638759  1
  P  P24  1  0.250000  0.603384  0.378284  1
  P  P25  1  0.250000  0.896616  0.878284  1
  P  P26  1  0.750000  0.396616  0.621716  1
  P  P27  1  0.750000  0.103384  0.121716  1
  Rh  Rh28  1  0.250000  0.712454  0.986299  1
  Rh  Rh29  1  0.250000  0.787546  0.486299  1
  Rh  Rh30  1  0.750000  0.287546  0.013701  1
  Rh  Rh31  1  0.750000  0.212454  0.513701  1
  Rh  Rh32  1  0.250000  0.407180  0.475930  1
  Rh  Rh33  1  0.250000  0.092820  0.975930  1
  Rh  Rh34  1  0.750000  0.592820  0.524070  1
  Rh  Rh35  1  0.750000  0.907180  0.024070  1
