# generated using pymatgen
data_Ho(BrO3)3
_symmetry_space_group_name_H-M   'P 1'
_cell_length_a   9.84818700
_cell_length_b   9.84818564
_cell_length_c   5.80605700
_cell_angle_alpha   90.00000000
_cell_angle_beta   90.00000000
_cell_angle_gamma   119.99998776
_symmetry_Int_Tables_number   1
_chemical_formula_structural   Ho(BrO3)3
_chemical_formula_sum   'Ho2 Br6 O18'
_cell_volume   487.66826359
_cell_formula_units_Z   2
loop_
 _symmetry_equiv_pos_site_id
 _symmetry_equiv_pos_as_xyz
  1  'x, y, z'
loop_
 _atom_site_type_symbol
 _atom_site_label
 _atom_site_symmetry_multiplicity
 _atom_site_fract_x
 _atom_site_fract_y
 _atom_site_fract_z
 _atom_site_occupancy
  Ho  Ho0  1  0.666667  0.333333  0.699307  1
  Ho  Ho1  1  0.333333  0.666667  0.199307  1
  Br  Br2  1  0.684684  0.021195  0.365731  1
  Br  Br3  1  0.315316  0.978805  0.865731  1
  Br  Br4  1  0.021195  0.336510  0.865731  1
  Br  Br5  1  0.336510  0.315316  0.365731  1
  Br  Br6  1  0.978805  0.663490  0.365731  1
  Br  Br7  1  0.663490  0.684684  0.865731  1
  O  O8  1  0.773275  0.824943  0.045978  1
  O  O9  1  0.948332  0.773275  0.545978  1
  O  O10  1  0.824943  0.051668  0.545978  1
  O  O11  1  0.175057  0.948332  0.045978  1
  O  O12  1  0.051668  0.226725  0.045978  1
  O  O13  1  0.226725  0.175057  0.545978  1
  O  O14  1  0.706192  0.538399  0.919759  1
  O  O15  1  0.167792  0.706192  0.419759  1
  O  O16  1  0.525104  0.400576  0.468331  1
  O  O17  1  0.124529  0.525104  0.968331  1
  O  O18  1  0.400576  0.875471  0.968331  1
  O  O19  1  0.599424  0.124529  0.468331  1
  O  O20  1  0.875471  0.474896  0.468331  1
  O  O21  1  0.474896  0.599424  0.968331  1
  O  O22  1  0.293808  0.461601  0.419759  1
  O  O23  1  0.832208  0.293808  0.919759  1
  O  O24  1  0.461601  0.167792  0.919759  1
  O  O25  1  0.538399  0.832208  0.419759  1
