# generated using pymatgen
data_YbY2CuRh8
_symmetry_space_group_name_H-M   'P 1'
_cell_length_a   5.31338900
_cell_length_b   5.31338974
_cell_length_c   17.21911000
_cell_angle_alpha   90.00000000
_cell_angle_beta   90.00000000
_cell_angle_gamma   119.99998915
_symmetry_Int_Tables_number   1
_chemical_formula_structural   YbY2CuRh8
_chemical_formula_sum   'Yb2 Y4 Cu2 Rh16'
_cell_volume   421.00249044
_cell_formula_units_Z   2
loop_
 _symmetry_equiv_pos_site_id
 _symmetry_equiv_pos_as_xyz
  1  'x, y, z'
loop_
 _atom_site_type_symbol
 _atom_site_label
 _atom_site_symmetry_multiplicity
 _atom_site_fract_x
 _atom_site_fract_y
 _atom_site_fract_z
 _atom_site_occupancy
  Yb  Yb0  1  0.333333  0.666667  0.750000  1
  Yb  Yb1  1  0.666667  0.333333  0.250000  1
  Y  Y2  1  0.333333  0.666667  0.956496  1
  Y  Y3  1  0.666667  0.333333  0.043504  1
  Y  Y4  1  0.666667  0.333333  0.456496  1
  Y  Y5  1  0.333333  0.666667  0.543504  1
  Cu  Cu6  1  0.333333  0.666667  0.250000  1
  Cu  Cu7  1  0.666667  0.333333  0.750000  1
  Rh  Rh8  1  0.168348  0.831652  0.374489  1
  Rh  Rh9  1  0.168348  0.336695  0.374489  1
  Rh  Rh10  1  0.663305  0.831652  0.374489  1
  Rh  Rh11  1  0.831652  0.168348  0.625511  1
  Rh  Rh12  1  0.831652  0.663305  0.625511  1
  Rh  Rh13  1  0.336695  0.168348  0.625511  1
  Rh  Rh14  1  0.831652  0.168348  0.874489  1
  Rh  Rh15  1  0.831652  0.663305  0.874489  1
  Rh  Rh16  1  0.336695  0.168348  0.874489  1
  Rh  Rh17  1  0.168348  0.831652  0.125511  1
  Rh  Rh18  1  0.168348  0.336695  0.125511  1
  Rh  Rh19  1  0.663305  0.831652  0.125511  1
  Rh  Rh20  1  0.000000  0.000000  0.250000  1
  Rh  Rh21  1  0.000000  0.000000  0.750000  1
  Rh  Rh22  1  0.000000  0.000000  0.500000  1
  Rh  Rh23  1  0.000000  0.000000  0.000000  1
