# generated using pymatgen
data_SrCaNp2(NiP)4
_symmetry_space_group_name_H-M   'P 1'
_cell_length_a   3.92517800
_cell_length_b   3.92517725
_cell_length_c   15.32238900
_cell_angle_alpha   90.00000000
_cell_angle_beta   90.00000000
_cell_angle_gamma   120.00000629
_symmetry_Int_Tables_number   1
_chemical_formula_structural   SrCaNp2(NiP)4
_chemical_formula_sum   'Sr1 Ca1 Np2 Ni4 P4'
_cell_volume   204.44463457
_cell_formula_units_Z   1
loop_
 _symmetry_equiv_pos_site_id
 _symmetry_equiv_pos_as_xyz
  1  'x, y, z'
loop_
 _atom_site_type_symbol
 _atom_site_label
 _atom_site_symmetry_multiplicity
 _atom_site_fract_x
 _atom_site_fract_y
 _atom_site_fract_z
 _atom_site_occupancy
  Sr  Sr0  1  0.000000  0.000000  0.250000  1
  Ca  Ca1  1  0.000000  0.000000  0.750000  1
  Np  Np2  1  0.000000  0.000000  0.994343  1
  Np  Np3  1  0.000000  0.000000  0.505657  1
  Ni  Ni4  1  0.333333  0.666667  0.109118  1
  Ni  Ni5  1  0.666667  0.333333  0.875503  1
  Ni  Ni6  1  0.666667  0.333333  0.624497  1
  Ni  Ni7  1  0.333333  0.666667  0.390882  1
  P  P8  1  0.333333  0.666667  0.620273  1
  P  P9  1  0.666667  0.333333  0.389494  1
  P  P10  1  0.666667  0.333333  0.110506  1
  P  P11  1  0.333333  0.666667  0.879727  1
