# generated using pymatgen
data_Y3Zn2Cd3Ge
_symmetry_space_group_name_H-M   'P 1'
_cell_length_a   7.42234800
_cell_length_b   7.42234670
_cell_length_c   4.20327000
_cell_angle_alpha   90.00000000
_cell_angle_beta   90.00000000
_cell_angle_gamma   119.99999688
_symmetry_Int_Tables_number   1
_chemical_formula_structural   Y3Zn2Cd3Ge
_chemical_formula_sum   'Y3 Zn2 Cd3 Ge1'
_cell_volume   200.53975616
_cell_formula_units_Z   1
loop_
 _symmetry_equiv_pos_site_id
 _symmetry_equiv_pos_as_xyz
  1  'x, y, z'
loop_
 _atom_site_type_symbol
 _atom_site_label
 _atom_site_symmetry_multiplicity
 _atom_site_fract_x
 _atom_site_fract_y
 _atom_site_fract_z
 _atom_site_occupancy
  Y  Y0  1  0.419097  0.001213  0.499999  1
  Y  Y1  1  0.998787  0.417884  0.499999  1
  Y  Y2  1  0.582116  0.580903  0.499999  1
  Zn  Zn3  1  0.333333  0.666666  0.000000  1
  Zn  Zn4  1  0.000000  0.000000  0.499999  1
  Cd  Cd5  1  0.744617  0.987725  0.000000  1
  Cd  Cd6  1  0.243108  0.255383  0.000000  1
  Cd  Cd7  1  0.012275  0.756892  0.000000  1
  Ge  Ge8  1  0.666667  0.333334  0.000000  1
