# generated using pymatgen
data_Ac5PrIn10
_symmetry_space_group_name_H-M   'P 1'
_cell_length_a   6.92564803
_cell_length_b   6.92564885
_cell_length_c   10.90158900
_cell_angle_alpha   90.00000000
_cell_angle_beta   90.00000000
_cell_angle_gamma   102.23217586
_symmetry_Int_Tables_number   1
_chemical_formula_structural   Ac5PrIn10
_chemical_formula_sum   'Ac5 Pr1 In10'
_cell_volume   511.01927751
_cell_formula_units_Z   1
loop_
 _symmetry_equiv_pos_site_id
 _symmetry_equiv_pos_as_xyz
  1  'x, y, z'
loop_
 _atom_site_type_symbol
 _atom_site_label
 _atom_site_symmetry_multiplicity
 _atom_site_fract_x
 _atom_site_fract_y
 _atom_site_fract_z
 _atom_site_occupancy
  Ac  Ac0  1  0.636928  0.636928  0.250000  1
  Ac  Ac1  1  0.203278  0.793434  0.501440  1
  Ac  Ac2  1  0.203278  0.793434  0.998560  1
  Ac  Ac3  1  0.793434  0.203278  0.501440  1
  Ac  Ac4  1  0.793434  0.203278  0.998560  1
  Pr  Pr5  1  0.356134  0.356134  0.750000  1
  In  In6  1  0.024067  0.024067  0.250000  1
  In  In7  1  0.984446  0.984446  0.750000  1
  In  In8  1  0.309329  0.309329  0.047255  1
  In  In9  1  0.687461  0.687461  0.933069  1
  In  In10  1  0.309329  0.309329  0.452745  1
  In  In11  1  0.687461  0.687461  0.566931  1
  In  In12  1  0.482383  0.083383  0.250000  1
  In  In13  1  0.935121  0.510537  0.750000  1
  In  In14  1  0.510537  0.935121  0.750000  1
  In  In15  1  0.083383  0.482383  0.250000  1
