# generated using pymatgen
data_InOs3Pb4O13
_symmetry_space_group_name_H-M   'P 1'
_cell_length_a   7.56661575
_cell_length_b   7.56661501
_cell_length_c   7.56661405
_cell_angle_alpha   58.52114912
_cell_angle_beta   58.52115367
_cell_angle_gamma   58.52115146
_symmetry_Int_Tables_number   1
_chemical_formula_structural   InOs3Pb4O13
_chemical_formula_sum   'In1 Os3 Pb4 O13'
_cell_volume   295.96836134
_cell_formula_units_Z   1
loop_
 _symmetry_equiv_pos_site_id
 _symmetry_equiv_pos_as_xyz
  1  'x, y, z'
loop_
 _atom_site_type_symbol
 _atom_site_label
 _atom_site_symmetry_multiplicity
 _atom_site_fract_x
 _atom_site_fract_y
 _atom_site_fract_z
 _atom_site_occupancy
  In  In0  1  0.501528  0.501528  0.501528  1
  Os  Os1  1  0.000912  0.501421  0.501421  1
  Os  Os2  1  0.501421  0.501421  0.000912  1
  Os  Os3  1  0.501421  0.000912  0.501421  1
  Pb  Pb4  1  0.997738  0.997738  0.997738  1
  Pb  Pb5  1  0.503983  0.002740  0.002740  1
  Pb  Pb6  1  0.002740  0.002740  0.503983  1
  Pb  Pb7  1  0.002740  0.503983  0.002740  1
  O  O8  1  0.861197  0.409691  0.409691  1
  O  O9  1  0.424092  0.803409  0.803409  1
  O  O10  1  0.409691  0.409691  0.861197  1
  O  O11  1  0.803409  0.803409  0.424092  1
  O  O12  1  0.803409  0.424092  0.803409  1
  O  O13  1  0.409691  0.861197  0.409691  1
  O  O14  1  0.147922  0.584070  0.584070  1
  O  O15  1  0.582333  0.191973  0.191973  1
  O  O16  1  0.584070  0.584070  0.147922  1
  O  O17  1  0.191973  0.191973  0.582333  1
  O  O18  1  0.191973  0.582333  0.191973  1
  O  O19  1  0.584070  0.147922  0.584070  1
  O  O20  1  0.118684  0.118684  0.118684  1
