# generated using pymatgen
data_Ca6TaCo17P12
_symmetry_space_group_name_H-M   'P 1'
_cell_length_a   3.71269200
_cell_length_b   10.59459000
_cell_length_c   12.29802100
_cell_angle_alpha   90.00000000
_cell_angle_beta   90.00000000
_cell_angle_gamma   90.00000000
_symmetry_Int_Tables_number   1
_chemical_formula_structural   Ca6TaCo17P12
_chemical_formula_sum   'Ca6 Ta1 Co17 P12'
_cell_volume   483.73588642
_cell_formula_units_Z   1
loop_
 _symmetry_equiv_pos_site_id
 _symmetry_equiv_pos_as_xyz
  1  'x, y, z'
loop_
 _atom_site_type_symbol
 _atom_site_label
 _atom_site_symmetry_multiplicity
 _atom_site_fract_x
 _atom_site_fract_y
 _atom_site_fract_z
 _atom_site_occupancy
  Ca  Ca0  1  0.000000  0.500000  0.527893  1
  Ca  Ca1  1  0.500000  0.000000  0.474780  1
  Ca  Ca2  1  0.500000  0.822386  0.207743  1
  Ca  Ca3  1  0.500000  0.177614  0.207743  1
  Ca  Ca4  1  0.000000  0.680274  0.795183  1
  Ca  Ca5  1  0.000000  0.319726  0.795183  1
  Ta  Ta6  1  0.500000  0.500000  0.152191  1
  Co  Co7  1  0.000000  0.000000  0.837921  1
  Co  Co8  1  0.500000  0.500000  0.701837  1
  Co  Co9  1  0.000000  0.000000  0.298035  1
  Co  Co10  1  0.000000  0.500000  0.985375  1
  Co  Co11  1  0.500000  0.000000  0.012677  1
  Co  Co12  1  0.500000  0.328352  0.991053  1
  Co  Co13  1  0.500000  0.671648  0.991053  1
  Co  Co14  1  0.000000  0.163363  0.002878  1
  Co  Co15  1  0.000000  0.836637  0.002878  1
  Co  Co16  1  0.500000  0.295314  0.434157  1
  Co  Co17  1  0.500000  0.704686  0.434157  1
  Co  Co18  1  0.000000  0.201754  0.570782  1
  Co  Co19  1  0.000000  0.798246  0.570782  1
  Co  Co20  1  0.500000  0.881344  0.708206  1
  Co  Co21  1  0.500000  0.118656  0.708206  1
  Co  Co22  1  0.000000  0.621559  0.294186  1
  Co  Co23  1  0.000000  0.378441  0.294186  1
  P  P24  1  0.500000  0.500000  0.881677  1
  P  P25  1  0.000000  0.000000  0.116457  1
  P  P26  1  0.500000  0.500000  0.353013  1
  P  P27  1  0.000000  0.000000  0.657329  1
  P  P28  1  0.500000  0.308239  0.618338  1
  P  P29  1  0.500000  0.691761  0.618338  1
  P  P30  1  0.000000  0.191226  0.385290  1
  P  P31  1  0.000000  0.808774  0.385290  1
  P  P32  1  0.500000  0.851358  0.890248  1
  P  P33  1  0.500000  0.148642  0.890248  1
  P  P34  1  0.000000  0.660482  0.102347  1
  P  P35  1  0.000000  0.339518  0.102347  1
