# generated using pymatgen
data_Sc2Ga2RhAu
_symmetry_space_group_name_H-M   'P 1'
_cell_length_a   7.29197800
_cell_length_b   7.29197870
_cell_length_c   7.01413100
_cell_angle_alpha   90.00000000
_cell_angle_beta   90.00000000
_cell_angle_gamma   119.99999682
_symmetry_Int_Tables_number   1
_chemical_formula_structural   Sc2Ga2RhAu
_chemical_formula_sum   'Sc6 Ga6 Rh3 Au3'
_cell_volume   322.99459839
_cell_formula_units_Z   3
loop_
 _symmetry_equiv_pos_site_id
 _symmetry_equiv_pos_as_xyz
  1  'x, y, z'
loop_
 _atom_site_type_symbol
 _atom_site_label
 _atom_site_symmetry_multiplicity
 _atom_site_fract_x
 _atom_site_fract_y
 _atom_site_fract_z
 _atom_site_occupancy
  Sc  Sc0  1  0.613047  0.009090  0.756823  1
  Sc  Sc1  1  0.990910  0.603956  0.756823  1
  Sc  Sc2  1  0.396044  0.386953  0.756823  1
  Sc  Sc3  1  0.988284  0.602532  0.243274  1
  Sc  Sc4  1  0.614248  0.011716  0.243274  1
  Sc  Sc5  1  0.397468  0.385752  0.243274  1
  Ga  Ga6  1  0.727667  0.721246  0.999876  1
  Ga  Ga7  1  0.278754  0.006421  0.999876  1
  Ga  Ga8  1  0.993579  0.272333  0.999876  1
  Ga  Ga9  1  0.748084  0.753532  0.499863  1
  Ga  Ga10  1  0.246468  0.994553  0.499863  1
  Ga  Ga11  1  0.005447  0.251916  0.499863  1
  Rh  Rh12  1  0.000000  0.000000  0.772244  1
  Rh  Rh13  1  0.000000  0.000000  0.227451  1
  Rh  Rh14  1  0.666667  0.333333  0.998781  1
  Au  Au15  1  0.666667  0.333333  0.501781  1
  Au  Au16  1  0.333333  0.666667  0.498409  1
  Au  Au17  1  0.333333  0.666667  0.001827  1
