# generated using pymatgen
data_Na2Dy2B2O7
_symmetry_space_group_name_H-M   'P 1'
_cell_length_a   10.66602714
_cell_length_b   6.25405800
_cell_length_c   10.27572400
_cell_angle_alpha   90.00000000
_cell_angle_beta   117.97135798
_cell_angle_gamma   90.00000000
_symmetry_Int_Tables_number   1
_chemical_formula_structural   Na2Dy2B2O7
_chemical_formula_sum   'Na8 Dy8 B8 O28'
_cell_volume   605.37894595
_cell_formula_units_Z   4
loop_
 _symmetry_equiv_pos_site_id
 _symmetry_equiv_pos_as_xyz
  1  'x, y, z'
loop_
 _atom_site_type_symbol
 _atom_site_label
 _atom_site_symmetry_multiplicity
 _atom_site_fract_x
 _atom_site_fract_y
 _atom_site_fract_z
 _atom_site_occupancy
  Na  Na0  1  0.610990  0.257608  0.046936  1
  Na  Na1  1  0.475539  0.439275  0.235439  1
  Na  Na2  1  0.524461  0.939276  0.264561  1
  Na  Na3  1  0.389011  0.757607  0.453065  1
  Na  Na4  1  0.610990  0.242393  0.546936  1
  Na  Na5  1  0.475539  0.060726  0.735438  1
  Na  Na6  1  0.524461  0.560725  0.764561  1
  Na  Na7  1  0.389011  0.742392  0.953065  1
  Dy  Dy8  1  0.183315  0.080925  0.087053  1
  Dy  Dy9  1  0.984176  0.459098  0.182523  1
  Dy  Dy10  1  0.015825  0.959097  0.317477  1
  Dy  Dy11  1  0.816686  0.580926  0.412947  1
  Dy  Dy12  1  0.183315  0.419074  0.587053  1
  Dy  Dy13  1  0.984176  0.040903  0.682523  1
  Dy  Dy14  1  0.015824  0.540902  0.817477  1
  Dy  Dy15  1  0.816686  0.919075  0.912948  1
  B  B16  1  0.683815  0.750196  0.081187  1
  B  B17  1  0.207790  0.651634  0.149329  1
  B  B18  1  0.792210  0.151633  0.350671  1
  B  B19  1  0.316184  0.250196  0.418813  1
  B  B20  1  0.683815  0.749804  0.581187  1
  B  B21  1  0.207790  0.848367  0.649329  1
  B  B22  1  0.792210  0.348366  0.850671  1
  B  B23  1  0.316184  0.249805  0.918814  1
  O  O24  1  0.397827  0.157414  0.054570  1
  O  O25  1  0.148341  0.455864  0.086684  1
  O  O26  1  0.973728  0.123269  0.096856  1
  O  O27  1  0.832448  0.762285  0.133370  1
  O  O28  1  0.316373  0.744273  0.135293  1
  O  O29  1  0.630309  0.648685  0.163360  1
  O  O30  1  0.150277  0.757039  0.229748  1
  O  O31  1  0.849723  0.257038  0.270252  1
  O  O32  1  0.369691  0.148685  0.336640  1
  O  O33  1  0.683628  0.244274  0.364708  1
  O  O34  1  0.167553  0.262285  0.366630  1
  O  O35  1  0.026272  0.623270  0.403144  1
  O  O36  1  0.851659  0.955864  0.413315  1
  O  O37  1  0.602173  0.657414  0.445429  1
  O  O38  1  0.397827  0.342585  0.554570  1
  O  O39  1  0.148341  0.044136  0.586684  1
  O  O40  1  0.973728  0.376730  0.596856  1
  O  O41  1  0.832448  0.737715  0.633369  1
  O  O42  1  0.316373  0.755726  0.635293  1
  O  O43  1  0.630308  0.851314  0.663360  1
  O  O44  1  0.150277  0.742962  0.729748  1
  O  O45  1  0.849723  0.242961  0.770251  1
  O  O46  1  0.369691  0.351315  0.836640  1
  O  O47  1  0.683628  0.255727  0.864708  1
  O  O48  1  0.167552  0.237714  0.866630  1
  O  O49  1  0.026271  0.876730  0.903144  1
  O  O50  1  0.851659  0.544135  0.913315  1
  O  O51  1  0.602174  0.842586  0.945430  1
