# generated using pymatgen
data_Cs8Li4HoSc3Sb8
_symmetry_space_group_name_H-M   'P 1'
_cell_length_a   11.39321172
_cell_length_b   11.39321291
_cell_length_c   7.21812984
_cell_angle_alpha   89.96708148
_cell_angle_beta   90.03291590
_cell_angle_gamma   101.60324320
_symmetry_Int_Tables_number   1
_chemical_formula_structural   Cs8Li4HoSc3Sb8
_chemical_formula_sum   'Cs8 Li4 Ho1 Sc3 Sb8'
_cell_volume   917.80349826
_cell_formula_units_Z   1
loop_
 _symmetry_equiv_pos_site_id
 _symmetry_equiv_pos_as_xyz
  1  'x, y, z'
loop_
 _atom_site_type_symbol
 _atom_site_label
 _atom_site_symmetry_multiplicity
 _atom_site_fract_x
 _atom_site_fract_y
 _atom_site_fract_z
 _atom_site_occupancy
  Cs  Cs0  1  0.574118  0.928794  0.750378  1
  Cs  Cs1  1  0.928794  0.574118  0.249622  1
  Cs  Cs2  1  0.428749  0.068693  0.250426  1
  Cs  Cs3  1  0.068693  0.428749  0.749574  1
  Cs  Cs4  1  0.678326  0.324156  0.785361  1
  Cs  Cs5  1  0.823370  0.174709  0.284714  1
  Cs  Cs6  1  0.324156  0.678326  0.214639  1
  Cs  Cs7  1  0.174709  0.823370  0.715286  1
  Li  Li8  1  0.623698  0.623698  0.000000  1
  Li  Li9  1  0.877639  0.877639  0.500000  1
  Li  Li10  1  0.377845  0.377845  0.000000  1
  Li  Li11  1  0.119382  0.119382  0.500000  1
  Ho  Ho12  1  0.369607  0.369607  0.500000  1
  Sc  Sc13  1  0.870924  0.870924  0.000000  1
  Sc  Sc14  1  0.630527  0.630527  0.500000  1
  Sc  Sc15  1  0.127851  0.127851  0.000000  1
  Sb  Sb16  1  0.334159  0.158273  0.757825  1
  Sb  Sb17  1  0.158273  0.334159  0.242175  1
  Sb  Sb18  1  0.667015  0.833900  0.250037  1
  Sb  Sb19  1  0.833900  0.667015  0.749963  1
  Sb  Sb20  1  0.914335  0.084781  0.772869  1
  Sb  Sb21  1  0.592806  0.416344  0.268984  1
  Sb  Sb22  1  0.084781  0.914335  0.227131  1
  Sb  Sb23  1  0.416344  0.592806  0.731016  1
