# generated using pymatgen
data_Nd8InHg3Pd8
_symmetry_space_group_name_H-M   'P 1'
_cell_length_a   7.83053100
_cell_length_b   7.83053100
_cell_length_c   7.82511700
_cell_angle_alpha   90.00000000
_cell_angle_beta   90.00000000
_cell_angle_gamma   90.00000000
_symmetry_Int_Tables_number   1
_chemical_formula_structural   Nd8InHg3Pd8
_chemical_formula_sum   'Nd8 In1 Hg3 Pd8'
_cell_volume   479.81438730
_cell_formula_units_Z   1
loop_
 _symmetry_equiv_pos_site_id
 _symmetry_equiv_pos_as_xyz
  1  'x, y, z'
loop_
 _atom_site_type_symbol
 _atom_site_label
 _atom_site_symmetry_multiplicity
 _atom_site_fract_x
 _atom_site_fract_y
 _atom_site_fract_z
 _atom_site_occupancy
  Nd  Nd0  1  0.672836  0.672512  0.500411  1
  Nd  Nd1  1  0.819446  0.178625  0.500160  1
  Nd  Nd2  1  0.678625  0.680554  0.999840  1
  Nd  Nd3  1  0.827488  0.172836  0.999589  1
  Nd  Nd4  1  0.180554  0.821375  0.500160  1
  Nd  Nd5  1  0.321375  0.319446  0.999840  1
  Nd  Nd6  1  0.172512  0.827164  0.999589  1
  Nd  Nd7  1  0.327164  0.327488  0.500411  1
  In  In8  1  0.000000  0.500000  0.750000  1
  Hg  Hg9  1  0.000000  0.500000  0.250000  1
  Hg  Hg10  1  0.500000  0.000000  0.750000  1
  Hg  Hg11  1  0.500000  0.000000  0.250000  1
  Pd  Pd12  1  0.625210  0.373363  0.241335  1
  Pd  Pd13  1  0.369004  0.621879  0.758594  1
  Pd  Pd14  1  0.878121  0.869004  0.741406  1
  Pd  Pd15  1  0.630996  0.378121  0.758594  1
  Pd  Pd16  1  0.374790  0.626637  0.241335  1
  Pd  Pd17  1  0.126637  0.125210  0.258665  1
  Pd  Pd18  1  0.873363  0.874790  0.258665  1
  Pd  Pd19  1  0.121879  0.130996  0.741406  1
