# generated using pymatgen
data_Sr9Ho(PN5)2
_symmetry_space_group_name_H-M   'P 1'
_cell_length_a   7.49568726
_cell_length_b   7.49568720
_cell_length_c   8.55043610
_cell_angle_alpha   76.47235680
_cell_angle_beta   76.47234756
_cell_angle_gamma   95.24627282
_symmetry_Int_Tables_number   1
_chemical_formula_structural   Sr9Ho(PN5)2
_chemical_formula_sum   'Sr9 Ho1 P2 N10'
_cell_volume   448.66222566
_cell_formula_units_Z   1
loop_
 _symmetry_equiv_pos_site_id
 _symmetry_equiv_pos_as_xyz
  1  'x, y, z'
loop_
 _atom_site_type_symbol
 _atom_site_label
 _atom_site_symmetry_multiplicity
 _atom_site_fract_x
 _atom_site_fract_y
 _atom_site_fract_z
 _atom_site_occupancy
  Sr  Sr0  1  0.599995  0.599995  0.628474  1
  Sr  Sr1  1  0.677947  0.677947  0.998036  1
  Sr  Sr2  1  0.327164  0.327164  0.997474  1
  Sr  Sr3  1  0.924487  0.924487  0.200237  1
  Sr  Sr4  1  0.073618  0.073618  0.795279  1
  Sr  Sr5  1  0.551911  0.088136  0.757495  1
  Sr  Sr6  1  0.915020  0.443626  0.245392  1
  Sr  Sr7  1  0.443626  0.915020  0.245392  1
  Sr  Sr8  1  0.088136  0.551911  0.757495  1
  Ho  Ho9  1  0.423064  0.423064  0.357393  1
  P  P10  1  0.755800  0.242084  0.004448  1
  P  P11  1  0.242084  0.755800  0.004448  1
  N  N12  1  0.647444  0.647444  0.321550  1
  N  N13  1  0.341993  0.341993  0.643416  1
  N  N14  1  0.719375  0.023868  0.991380  1
  N  N15  1  0.974807  0.275420  0.018989  1
  N  N16  1  0.275420  0.974807  0.018989  1
  N  N17  1  0.023868  0.719375  0.991380  1
  N  N18  1  0.391562  0.726360  0.836317  1
  N  N19  1  0.274867  0.601451  0.175048  1
  N  N20  1  0.601451  0.274867  0.175048  1
  N  N21  1  0.726360  0.391562  0.836317  1
