# generated using pymatgen
data_TbErCd2(Ga3Ni)2
_symmetry_space_group_name_H-M   'P 1'
_cell_length_a   4.17956444
_cell_length_b   6.52314900
_cell_length_c   8.12228321
_cell_angle_alpha   90.00000000
_cell_angle_beta   104.90933857
_cell_angle_gamma   90.00000000
_symmetry_Int_Tables_number   1
_chemical_formula_structural   TbErCd2(Ga3Ni)2
_chemical_formula_sum   'Tb1 Er1 Cd2 Ga6 Ni2'
_cell_volume   213.99015008
_cell_formula_units_Z   1
loop_
 _symmetry_equiv_pos_site_id
 _symmetry_equiv_pos_as_xyz
  1  'x, y, z'
loop_
 _atom_site_type_symbol
 _atom_site_label
 _atom_site_symmetry_multiplicity
 _atom_site_fract_x
 _atom_site_fract_y
 _atom_site_fract_z
 _atom_site_occupancy
  Tb  Tb0  1  0.127211  0.250000  0.254423  1
  Er  Er1  1  0.872196  0.750000  0.744391  1
  Cd  Cd2  1  0.499416  0.501289  0.998833  1
  Cd  Cd3  1  0.499416  0.998711  0.998833  1
  Ga  Ga4  1  0.070851  0.750000  0.141703  1
  Ga  Ga5  1  0.929089  0.250000  0.858177  1
  Ga  Ga6  1  0.687459  0.549623  0.374918  1
  Ga  Ga7  1  0.313230  0.451298  0.626460  1
  Ga  Ga8  1  0.687459  0.950377  0.374918  1
  Ga  Ga9  1  0.313230  0.048702  0.626460  1
  Ni  Ni10  1  0.221524  0.750000  0.443049  1
  Ni  Ni11  1  0.778918  0.250000  0.557836  1
