# generated using pymatgen
data_Ac3HoIn2Ir3
_symmetry_space_group_name_H-M   'P 1'
_cell_length_a   7.82966127
_cell_length_b   7.72686973
_cell_length_c   4.41872700
_cell_angle_alpha   90.00000000
_cell_angle_beta   90.00000000
_cell_angle_gamma   119.56664329
_symmetry_Int_Tables_number   1
_chemical_formula_structural   Ac3HoIn2Ir3
_chemical_formula_sum   'Ac3 Ho1 In2 Ir3'
_cell_volume   232.51679276
_cell_formula_units_Z   1
loop_
 _symmetry_equiv_pos_site_id
 _symmetry_equiv_pos_as_xyz
  1  'x, y, z'
loop_
 _atom_site_type_symbol
 _atom_site_label
 _atom_site_symmetry_multiplicity
 _atom_site_fract_x
 _atom_site_fract_y
 _atom_site_fract_z
 _atom_site_occupancy
  Ac  Ac0  1  0.432353  0.418223  0.000000  1
  Ac  Ac1  1  0.567647  0.985871  0.000000  1
  Ac  Ac2  1  0.000000  0.603312  0.000000  1
  Ho  Ho3  1  0.000000  0.236449  0.500000  1
  In  In4  1  0.756435  0.759707  0.500000  1
  In  In5  1  0.243565  0.003271  0.500000  1
  Ir  Ir6  1  0.000000  0.002668  0.000000  1
  Ir  Ir7  1  0.324060  0.657280  0.500000  1
  Ir  Ir8  1  0.675940  0.333219  0.500000  1
