# generated using pymatgen
data_Sm7HoGaPd24
_symmetry_space_group_name_H-M   'P 1'
_cell_length_a   8.42027206
_cell_length_b   8.42027206
_cell_length_c   8.42027206
_cell_angle_alpha   89.99071828
_cell_angle_beta   89.99071828
_cell_angle_gamma   89.99071828
_symmetry_Int_Tables_number   1
_chemical_formula_structural   Sm7HoGaPd24
_chemical_formula_sum   'Sm7 Ho1 Ga1 Pd24'
_cell_volume   597.00552958
_cell_formula_units_Z   1
loop_
 _symmetry_equiv_pos_site_id
 _symmetry_equiv_pos_as_xyz
  1  'x, y, z'
loop_
 _atom_site_type_symbol
 _atom_site_label
 _atom_site_symmetry_multiplicity
 _atom_site_fract_x
 _atom_site_fract_y
 _atom_site_fract_z
 _atom_site_occupancy
  Sm  Sm0  1  0.748121  0.748121  0.748121  1
  Sm  Sm1  1  0.748021  0.748021  0.251932  1
  Sm  Sm2  1  0.748021  0.251932  0.748021  1
  Sm  Sm3  1  0.251978  0.251978  0.748041  1
  Sm  Sm4  1  0.251978  0.748041  0.251978  1
  Sm  Sm5  1  0.251932  0.748021  0.748021  1
  Sm  Sm6  1  0.748041  0.251978  0.251978  1
  Ho  Ho7  1  0.252197  0.252197  0.252197  1
  Ga  Ga8  1  0.000006  0.000006  0.000006  1
  Pd  Pd9  1  0.260553  0.498698  0.001456  1
  Pd  Pd10  1  0.739461  0.500112  0.999891  1
  Pd  Pd11  1  0.001456  0.260553  0.498698  1
  Pd  Pd12  1  0.498698  0.260553  0.001456  1
  Pd  Pd13  1  0.999891  0.739461  0.500112  1
  Pd  Pd14  1  0.500112  0.739461  0.999891  1
  Pd  Pd15  1  0.498698  0.001456  0.260553  1
  Pd  Pd16  1  0.260553  0.001456  0.498698  1
  Pd  Pd17  1  0.500112  0.999891  0.739461  1
  Pd  Pd18  1  0.739461  0.999891  0.500112  1
  Pd  Pd19  1  0.001456  0.498698  0.260553  1
  Pd  Pd20  1  0.999891  0.500112  0.739461  1
  Pd  Pd21  1  0.253132  0.498474  0.498474  1
  Pd  Pd22  1  0.746861  0.500135  0.500135  1
  Pd  Pd23  1  0.498474  0.253132  0.498474  1
  Pd  Pd24  1  0.500135  0.746861  0.500135  1
  Pd  Pd25  1  0.498474  0.498474  0.253132  1
  Pd  Pd26  1  0.500135  0.500135  0.746861  1
  Pd  Pd27  1  0.292616  0.001294  0.001294  1
  Pd  Pd28  1  0.707102  0.999923  0.999923  1
  Pd  Pd29  1  0.001294  0.292616  0.001294  1
  Pd  Pd30  1  0.999923  0.707102  0.999923  1
  Pd  Pd31  1  0.001294  0.001294  0.292616  1
  Pd  Pd32  1  0.999923  0.999923  0.707102  1
