# generated using pymatgen
data_Zr3Sc(Co5P3)4
_symmetry_space_group_name_H-M   'P 1'
_cell_length_a   3.59452800
_cell_length_b   10.14149953
_cell_length_c   11.61955075
_cell_angle_alpha   90.06288160
_cell_angle_beta   90.00000000
_cell_angle_gamma   90.00000000
_symmetry_Int_Tables_number   1
_chemical_formula_structural   Zr3Sc(Co5P3)4
_chemical_formula_sum   'Zr3 Sc1 Co20 P12'
_cell_volume   423.57773258
_cell_formula_units_Z   1
loop_
 _symmetry_equiv_pos_site_id
 _symmetry_equiv_pos_as_xyz
  1  'x, y, z'
loop_
 _atom_site_type_symbol
 _atom_site_label
 _atom_site_symmetry_multiplicity
 _atom_site_fract_x
 _atom_site_fract_y
 _atom_site_fract_z
 _atom_site_occupancy
  Zr  Zr0  1  0.250000  0.581936  0.702933  1
  Zr  Zr1  1  0.250000  0.918447  0.203062  1
  Zr  Zr2  1  0.750000  0.418220  0.296915  1
  Sc  Sc3  1  0.750000  0.081826  0.797209  1
  Co  Co4  1  0.250000  0.719267  0.992303  1
  Co  Co5  1  0.250000  0.780877  0.492472  1
  Co  Co6  1  0.750000  0.281140  0.007087  1
  Co  Co7  1  0.750000  0.218777  0.507414  1
  Co  Co8  1  0.250000  0.409281  0.486175  1
  Co  Co9  1  0.250000  0.091091  0.986261  1
  Co  Co10  1  0.750000  0.591081  0.513614  1
  Co  Co11  1  0.750000  0.908057  0.013988  1
  Co  Co12  1  0.250000  0.223002  0.178278  1
  Co  Co13  1  0.250000  0.277817  0.677642  1
  Co  Co14  1  0.750000  0.777041  0.822198  1
  Co  Co15  1  0.750000  0.723196  0.321981  1
  Co  Co16  1  0.250000  0.883133  0.700046  1
  Co  Co17  1  0.250000  0.616405  0.200369  1
  Co  Co18  1  0.750000  0.116291  0.299715  1
  Co  Co19  1  0.750000  0.383663  0.799863  1
  Co  Co20  1  0.250000  0.466571  0.930298  1
  Co  Co21  1  0.250000  0.033080  0.431058  1
  Co  Co22  1  0.750000  0.532703  0.069479  1
  Co  Co23  1  0.750000  0.967232  0.569711  1
  P  P24  1  0.250000  0.418654  0.113693  1
  P  P25  1  0.250000  0.080930  0.615382  1
  P  P26  1  0.750000  0.580991  0.885992  1
  P  P27  1  0.750000  0.919075  0.386546  1
  P  P28  1  0.250000  0.265256  0.868956  1
  P  P29  1  0.250000  0.233081  0.370049  1
  P  P30  1  0.750000  0.733202  0.130130  1
  P  P31  1  0.750000  0.767191  0.630255  1
  P  P32  1  0.250000  0.600050  0.389593  1
  P  P33  1  0.250000  0.901592  0.888866  1
  P  P34  1  0.750000  0.400011  0.610593  1
  P  P35  1  0.750000  0.099830  0.109874  1
