# generated using pymatgen
data_Gd9Th(Zn2Ru3)2
_symmetry_space_group_name_H-M   'P 1'
_cell_length_a   8.38135821
_cell_length_b   8.31114266
_cell_length_c   8.31114100
_cell_angle_alpha   108.59132028
_cell_angle_beta   109.86020830
_cell_angle_gamma   109.61821571
_symmetry_Int_Tables_number   1
_chemical_formula_structural   Gd9Th(Zn2Ru3)2
_chemical_formula_sum   'Gd9 Th1 Zn4 Ru6'
_cell_volume   447.50577725
_cell_formula_units_Z   1
loop_
 _symmetry_equiv_pos_site_id
 _symmetry_equiv_pos_as_xyz
  1  'x, y, z'
loop_
 _atom_site_type_symbol
 _atom_site_label
 _atom_site_symmetry_multiplicity
 _atom_site_fract_x
 _atom_site_fract_y
 _atom_site_fract_z
 _atom_site_occupancy
  Gd  Gd0  1  0.750000  0.815431  0.065431  1
  Gd  Gd1  1  0.436391  0.251343  0.686936  1
  Gd  Gd2  1  0.684655  0.436311  0.250047  1
  Gd  Gd3  1  0.063609  0.750545  0.814952  1
  Gd  Gd4  1  0.815345  0.065392  0.751655  1
  Gd  Gd5  1  0.224400  0.220915  0.223745  1
  Gd  Gd6  1  0.502074  0.000310  0.277849  1
  Gd  Gd7  1  0.275600  0.499344  0.996515  1
  Gd  Gd8  1  0.997926  0.275776  0.498238  1
  Th  Th9  1  0.250000  0.688910  0.438910  1
  Zn  Zn10  1  0.593998  0.589232  0.589132  1
  Zn  Zn11  1  0.502618  0.006309  0.915481  1
  Zn  Zn12  1  0.906002  0.495134  0.995233  1
  Zn  Zn13  1  0.997382  0.912863  0.503692  1
  Ru  Ru14  1  0.250000  0.131705  0.881705  1
  Ru  Ru15  1  0.750000  0.368145  0.618145  1
  Ru  Ru16  1  0.883616  0.249625  0.133096  1
  Ru  Ru17  1  0.134066  0.869455  0.257840  1
  Ru  Ru18  1  0.616383  0.749479  0.366008  1
  Ru  Ru19  1  0.365934  0.623775  0.735390  1
