# generated using pymatgen
data_Dy6Al24Os3Rh5
_symmetry_space_group_name_H-M   'P 1'
_cell_length_a   8.78119500
_cell_length_b   8.83233238
_cell_length_c   9.56177298
_cell_angle_alpha   90.22925309
_cell_angle_beta   90.00000000
_cell_angle_gamma   119.80865555
_symmetry_Int_Tables_number   1
_chemical_formula_structural   Dy6Al24Os3Rh5
_chemical_formula_sum   'Dy6 Al24 Os3 Rh5'
_cell_volume   643.46897511
_cell_formula_units_Z   1
loop_
 _symmetry_equiv_pos_site_id
 _symmetry_equiv_pos_as_xyz
  1  'x, y, z'
loop_
 _atom_site_type_symbol
 _atom_site_label
 _atom_site_symmetry_multiplicity
 _atom_site_fract_x
 _atom_site_fract_y
 _atom_site_fract_z
 _atom_site_occupancy
  Dy  Dy0  1  0.191967  0.383935  0.250348  1
  Dy  Dy1  1  0.808033  0.616065  0.749652  1
  Dy  Dy2  1  0.614318  0.810503  0.251640  1
  Dy  Dy3  1  0.385682  0.189497  0.748360  1
  Dy  Dy4  1  0.196185  0.810503  0.251640  1
  Dy  Dy5  1  0.803815  0.189497  0.748360  1
  Al  Al6  1  0.333345  0.666692  0.028103  1
  Al  Al7  1  0.666655  0.333308  0.971897  1
  Al  Al8  1  0.666244  0.332487  0.526962  1
  Al  Al9  1  0.333756  0.667513  0.473038  1
  Al  Al10  1  0.163450  0.326902  0.576831  1
  Al  Al11  1  0.836550  0.673098  0.423169  1
  Al  Al12  1  0.671601  0.836494  0.576644  1
  Al  Al13  1  0.836655  0.673310  0.077169  1
  Al  Al14  1  0.328399  0.163506  0.423356  1
  Al  Al15  1  0.163345  0.326690  0.922831  1
  Al  Al16  1  0.164892  0.836494  0.576644  1
  Al  Al17  1  0.328080  0.165469  0.077120  1
  Al  Al18  1  0.835108  0.163506  0.423356  1
  Al  Al19  1  0.671920  0.834531  0.922880  1
  Al  Al20  1  0.837390  0.165469  0.077120  1
  Al  Al21  1  0.162610  0.834531  0.922880  1
  Al  Al22  1  0.563082  0.126164  0.249973  1
  Al  Al23  1  0.436918  0.873836  0.750027  1
  Al  Al24  1  0.877294  0.439483  0.249748  1
  Al  Al25  1  0.122706  0.560517  0.750252  1
  Al  Al26  1  0.562189  0.439483  0.249748  1
  Al  Al27  1  0.437811  0.560517  0.750252  1
  Al  Al28  1  0.000930  0.001860  0.250082  1
  Al  Al29  1  0.999070  0.998140  0.749918  1
  Os  Os30  1  0.500000  0.000000  0.500000  1
  Os  Os31  1  0.000000  0.000000  0.000000  1
  Os  Os32  1  0.000000  0.000000  0.500000  1
  Rh  Rh33  1  0.500000  0.000000  0.000000  1
  Rh  Rh34  1  0.000000  0.500000  0.000000  1
  Rh  Rh35  1  0.500000  0.500000  0.000000  1
  Rh  Rh36  1  0.000000  0.500000  0.500000  1
  Rh  Rh37  1  0.500000  0.500000  0.500000  1
