# generated using pymatgen
data_Dy8Er12CoBi8Os3
_symmetry_space_group_name_H-M   'P 1'
_cell_length_a   7.92577494
_cell_length_b   8.97881500
_cell_length_c   12.43118389
_cell_angle_alpha   90.00000000
_cell_angle_beta   90.21898842
_cell_angle_gamma   90.00000000
_symmetry_Int_Tables_number   1
_chemical_formula_structural   Dy8Er12CoBi8Os3
_chemical_formula_sum   'Dy8 Er12 Co1 Bi8 Os3'
_cell_volume   884.64714110
_cell_formula_units_Z   1
loop_
 _symmetry_equiv_pos_site_id
 _symmetry_equiv_pos_as_xyz
  1  'x, y, z'
loop_
 _atom_site_type_symbol
 _atom_site_label
 _atom_site_symmetry_multiplicity
 _atom_site_fract_x
 _atom_site_fract_y
 _atom_site_fract_z
 _atom_site_occupancy
  Dy  Dy0  1  0.376648  0.750000  0.694076  1
  Dy  Dy1  1  0.622330  0.250000  0.306604  1
  Dy  Dy2  1  0.876016  0.250000  0.807384  1
  Dy  Dy3  1  0.119789  0.750000  0.187197  1
  Dy  Dy4  1  0.941569  0.750000  0.504735  1
  Dy  Dy5  1  0.058354  0.250000  0.495917  1
  Dy  Dy6  1  0.444912  0.250000  0.996604  1
  Dy  Dy7  1  0.555756  0.750000  0.003610  1
  Er  Er8  1  0.844377  0.750000  0.799204  1
  Er  Er9  1  0.158297  0.250000  0.207105  1
  Er  Er10  1  0.341885  0.250000  0.708456  1
  Er  Er11  1  0.656542  0.750000  0.293809  1
  Er  Er12  1  0.672419  0.042634  0.564218  1
  Er  Er13  1  0.326176  0.956393  0.435438  1
  Er  Er14  1  0.173376  0.957639  0.935799  1
  Er  Er15  1  0.326176  0.543607  0.435438  1
  Er  Er16  1  0.827590  0.039121  0.063148  1
  Er  Er17  1  0.672419  0.457366  0.564218  1
  Er  Er18  1  0.827590  0.460879  0.063148  1
  Er  Er19  1  0.173376  0.542361  0.935799  1
  Co  Co20  1  0.931259  0.750000  0.008441  1
  Bi  Bi21  1  0.569550  0.492605  0.827544  1
  Bi  Bi22  1  0.431561  0.508156  0.172278  1
  Bi  Bi23  1  0.067838  0.507898  0.673441  1
  Bi  Bi24  1  0.431561  0.991844  0.172278  1
  Bi  Bi25  1  0.931718  0.493016  0.326148  1
  Bi  Bi26  1  0.569550  0.007395  0.827544  1
  Bi  Bi27  1  0.931718  0.006984  0.326148  1
  Bi  Bi28  1  0.067838  0.992102  0.673441  1
  Os  Os29  1  0.574666  0.750000  0.510909  1
  Os  Os30  1  0.424129  0.250000  0.489876  1
  Os  Os31  1  0.073017  0.250000  0.990039  1
