# generated using pymatgen
data_Ho2Er2(Ga8Pd3)3
_symmetry_space_group_name_H-M   'P 1'
_cell_length_a   7.49608254
_cell_length_b   7.56142208
_cell_length_c   13.43555307
_cell_angle_alpha   84.81631229
_cell_angle_beta   79.66574822
_cell_angle_gamma   60.20605087
_symmetry_Int_Tables_number   1
_chemical_formula_structural   Ho2Er2(Ga8Pd3)3
_chemical_formula_sum   'Ho2 Er2 Ga24 Pd9'
_cell_volume   650.15763375
_cell_formula_units_Z   1
loop_
 _symmetry_equiv_pos_site_id
 _symmetry_equiv_pos_as_xyz
  1  'x, y, z'
loop_
 _atom_site_type_symbol
 _atom_site_label
 _atom_site_symmetry_multiplicity
 _atom_site_fract_x
 _atom_site_fract_y
 _atom_site_fract_z
 _atom_site_occupancy
  Ho  Ho0  1  0.732238  0.497644  0.810403  1
  Ho  Ho1  1  0.267762  0.502356  0.189597  1
  Er  Er2  1  0.393953  0.168521  0.810079  1
  Er  Er3  1  0.606047  0.831479  0.189921  1
  Ga  Ga4  1  0.685550  0.834085  0.939813  1
  Ga  Ga5  1  0.314450  0.165915  0.060187  1
  Ga  Ga6  1  0.145457  0.834341  0.559513  1
  Ga  Ga7  1  0.854543  0.165659  0.440487  1
  Ga  Ga8  1  0.479217  0.166802  0.557274  1
  Ga  Ga9  1  0.520783  0.833198  0.442726  1
  Ga  Ga10  1  0.218711  0.164863  0.326876  1
  Ga  Ga11  1  0.781289  0.835137  0.673124  1
  Ga  Ga12  1  0.436297  0.505260  0.672936  1
  Ga  Ga13  1  0.563703  0.494740  0.327064  1
  Ga  Ga14  1  0.107944  0.161097  0.672262  1
  Ga  Ga15  1  0.892056  0.838903  0.327738  1
  Ga  Ga16  1  0.356226  0.498160  0.940131  1
  Ga  Ga17  1  0.643774  0.501840  0.059869  1
  Ga  Ga18  1  0.018433  0.168433  0.946735  1
  Ga  Ga19  1  0.981567  0.831567  0.053265  1
  Ga  Ga20  1  0.186426  0.499963  0.442532  1
  Ga  Ga21  1  0.813574  0.500037  0.557468  1
  Ga  Ga22  1  0.734615  0.163410  0.182772  1
  Ga  Ga23  1  0.265385  0.836590  0.817228  1
  Ga  Ga24  1  0.060933  0.630619  0.816419  1
  Ga  Ga25  1  0.939067  0.369381  0.183581  1
  Ga  Ga26  1  0.855700  0.040899  0.816757  1
  Ga  Ga27  1  0.144300  0.959101  0.183243  1
  Pd  Pd28  1  0.118255  0.494253  0.638639  1
  Pd  Pd29  1  0.881745  0.505747  0.361361  1
  Pd  Pd30  1  0.659179  0.170170  0.999565  1
  Pd  Pd31  1  0.340821  0.829830  0.000435  1
  Pd  Pd32  1  0.539755  0.167095  0.361083  1
  Pd  Pd33  1  0.460245  0.832905  0.638917  1
  Pd  Pd34  1  0.778213  0.173775  0.637907  1
  Pd  Pd35  1  0.221787  0.826225  0.362093  1
  Pd  Pd36  1  0.000000  0.500000  0.000000  1
