# generated using pymatgen
data_Ac2Ho(InPd)3
_symmetry_space_group_name_H-M   'P 1'
_cell_length_a   7.82837600
_cell_length_b   7.88788988
_cell_length_c   4.19908300
_cell_angle_alpha   90.00000000
_cell_angle_beta   90.00000000
_cell_angle_gamma   119.75072672
_symmetry_Int_Tables_number   1
_chemical_formula_structural   Ac2Ho(InPd)3
_chemical_formula_sum   'Ac2 Ho1 In3 Pd3'
_cell_volume   225.11426447
_cell_formula_units_Z   1
loop_
 _symmetry_equiv_pos_site_id
 _symmetry_equiv_pos_as_xyz
  1  'x, y, z'
loop_
 _atom_site_type_symbol
 _atom_site_label
 _atom_site_symmetry_multiplicity
 _atom_site_fract_x
 _atom_site_fract_y
 _atom_site_fract_z
 _atom_site_occupancy
  Ac  Ac0  1  0.998493  0.586834  0.000000  1
  Ac  Ac1  1  0.411659  0.413166  0.000000  1
  Ho  Ho2  1  0.591593  0.000000  0.000000  1
  In  In3  1  0.750885  0.765444  0.500000  1
  In  In4  1  0.985441  0.234556  0.500000  1
  In  In5  1  0.259516  0.000000  0.500000  1
  Pd  Pd6  1  0.344266  0.682068  0.500000  1
  Pd  Pd7  1  0.995947  0.000000  0.000000  1
  Pd  Pd8  1  0.662199  0.317932  0.500000  1
