# generated using pymatgen
data_K3Al7S12
_symmetry_space_group_name_H-M   'P 1'
_cell_length_a   12.62746000
_cell_length_b   9.20508483
_cell_length_c   9.73425100
_cell_angle_alpha   83.89618646
_cell_angle_beta   90.00000000
_cell_angle_gamma   90.00000000
_symmetry_Int_Tables_number   1
_chemical_formula_structural   K3Al7S12
_chemical_formula_sum   'K6 Al14 S24'
_cell_volume   1125.06408067
_cell_formula_units_Z   2
loop_
 _symmetry_equiv_pos_site_id
 _symmetry_equiv_pos_as_xyz
  1  'x, y, z'
loop_
 _atom_site_type_symbol
 _atom_site_label
 _atom_site_symmetry_multiplicity
 _atom_site_fract_x
 _atom_site_fract_y
 _atom_site_fract_z
 _atom_site_occupancy
  K  K0  1  0.263353  0.040728  0.497305  1
  K  K1  1  0.763353  0.959272  0.502695  1
  K  K2  1  0.018270  0.113796  0.240504  1
  K  K3  1  0.518270  0.886204  0.759496  1
  K  K4  1  0.022095  0.616348  0.156611  1
  K  K5  1  0.522095  0.383652  0.843389  1
  Al  Al6  1  0.283032  0.031976  0.033383  1
  Al  Al7  1  0.783032  0.968024  0.966617  1
  Al  Al8  1  0.764333  0.294076  0.185310  1
  Al  Al9  1  0.264333  0.705924  0.814690  1
  Al  Al10  1  0.370713  0.698125  0.184401  1
  Al  Al11  1  0.870713  0.301875  0.815599  1
  Al  Al12  1  0.769165  0.481778  0.473400  1
  Al  Al13  1  0.269165  0.518222  0.526600  1
  Al  Al14  1  0.669544  0.672990  0.172799  1
  Al  Al15  1  0.169544  0.327010  0.827201  1
  Al  Al16  1  0.538303  0.022091  0.198385  1
  Al  Al17  1  0.038303  0.977909  0.801615  1
  Al  Al18  1  0.518016  0.371699  0.363456  1
  Al  Al19  1  0.018016  0.628301  0.636544  1
  S  S20  1  0.957332  0.923890  0.002973  1
  S  S21  1  0.199567  0.244159  0.047568  1
  S  S22  1  0.304460  0.319805  0.677978  1
  S  S23  1  0.804460  0.680195  0.322022  1
  S  S24  1  0.699567  0.755841  0.952432  1
  S  S25  1  0.611792  0.432661  0.158425  1
  S  S26  1  0.849985  0.525725  0.680875  1
  S  S27  1  0.349985  0.474275  0.319125  1
  S  S28  1  0.336586  0.720231  0.604394  1
  S  S29  1  0.836586  0.279769  0.395606  1
  S  S30  1  0.598078  0.465375  0.536953  1
  S  S31  1  0.098078  0.534625  0.463047  1
  S  S32  1  0.391088  0.639602  0.967539  1
  S  S33  1  0.891088  0.360398  0.032461  1
  S  S34  1  0.743729  0.135789  0.786949  1
  S  S35  1  0.243729  0.864211  0.213051  1
  S  S36  1  0.526926  0.777584  0.274879  1
  S  S37  1  0.026926  0.222416  0.725121  1
  S  S38  1  0.719624  0.053460  0.168943  1
  S  S39  1  0.219624  0.946540  0.831057  1
  S  S40  1  0.500964  0.125441  0.392968  1
  S  S41  1  0.000964  0.874559  0.607032  1
  S  S42  1  0.111792  0.567339  0.841575  1
  S  S43  1  0.457332  0.076110  0.997027  1
