# generated using pymatgen
data_CeP3Rh5
_symmetry_space_group_name_H-M   'P 1'
_cell_length_a   12.52033100
_cell_length_b   3.97093200
_cell_length_c   10.98255300
_cell_angle_alpha   90.00000000
_cell_angle_beta   90.00000000
_cell_angle_gamma   90.00000000
_symmetry_Int_Tables_number   1
_chemical_formula_structural   CeP3Rh5
_chemical_formula_sum   'Ce4 P12 Rh20'
_cell_volume   546.02379402
_cell_formula_units_Z   4
loop_
 _symmetry_equiv_pos_site_id
 _symmetry_equiv_pos_as_xyz
  1  'x, y, z'
loop_
 _atom_site_type_symbol
 _atom_site_label
 _atom_site_symmetry_multiplicity
 _atom_site_fract_x
 _atom_site_fract_y
 _atom_site_fract_z
 _atom_site_occupancy
  Ce  Ce0  1  0.798014  0.750001  0.083173  1
  Ce  Ce1  1  0.298014  0.750001  0.416827  1
  Ce  Ce2  1  0.701986  0.249999  0.583173  1
  Ce  Ce3  1  0.201986  0.249999  0.916827  1
  P  P4  1  0.614591  0.249999  0.078363  1
  P  P5  1  0.110234  0.750001  0.102373  1
  P  P6  1  0.369341  0.249999  0.230650  1
  P  P7  1  0.869341  0.249999  0.269350  1
  P  P8  1  0.610235  0.750001  0.397627  1
  P  P9  1  0.114591  0.249999  0.421637  1
  P  P10  1  0.885409  0.750001  0.578363  1
  P  P11  1  0.389765  0.249999  0.602373  1
  P  P12  1  0.130659  0.750001  0.730650  1
  P  P13  1  0.630659  0.750001  0.769350  1
  P  P14  1  0.889765  0.249999  0.897628  1
  P  P15  1  0.385410  0.750001  0.921637  1
  Rh  Rh16  1  0.430280  0.249999  0.033292  1
  Rh  Rh17  1  0.978670  0.249999  0.089140  1
  Rh  Rh18  1  0.297551  0.750001  0.117393  1
  Rh  Rh19  1  0.506567  0.750001  0.225209  1
  Rh  Rh20  1  0.175940  0.249999  0.225695  1
  Rh  Rh21  1  0.675939  0.249999  0.274305  1
  Rh  Rh22  1  0.006567  0.750001  0.274791  1
  Rh  Rh23  1  0.797551  0.750001  0.382608  1
  Rh  Rh24  1  0.478670  0.249999  0.410860  1
  Rh  Rh25  1  0.930280  0.249999  0.466708  1
  Rh  Rh26  1  0.069721  0.750001  0.533291  1
  Rh  Rh27  1  0.521330  0.750001  0.589140  1
  Rh  Rh28  1  0.202449  0.249999  0.617392  1
  Rh  Rh29  1  0.993433  0.249999  0.725209  1
  Rh  Rh30  1  0.324060  0.750001  0.725694  1
  Rh  Rh31  1  0.824061  0.750001  0.774305  1
  Rh  Rh32  1  0.493434  0.249999  0.774791  1
  Rh  Rh33  1  0.702449  0.249999  0.882608  1
  Rh  Rh34  1  0.021330  0.750001  0.910860  1
  Rh  Rh35  1  0.569721  0.750001  0.966709  1
