# generated using pymatgen
data_Tm2Ir2O7
_symmetry_space_group_name_H-M   'P 1'
_cell_length_a   7.19218000
_cell_length_b   7.19274004
_cell_length_c   7.19285900
_cell_angle_alpha   120.00054248
_cell_angle_beta   90.00000000
_cell_angle_gamma   119.99964958
_symmetry_Int_Tables_number   1
_chemical_formula_structural   Tm2Ir2O7
_chemical_formula_sum   'Tm4 Ir4 O14'
_cell_volume   263.11172453
_cell_formula_units_Z   2
loop_
 _symmetry_equiv_pos_site_id
 _symmetry_equiv_pos_as_xyz
  1  'x, y, z'
loop_
 _atom_site_type_symbol
 _atom_site_label
 _atom_site_symmetry_multiplicity
 _atom_site_fract_x
 _atom_site_fract_y
 _atom_site_fract_z
 _atom_site_occupancy
  Tm  Tm0  1  0.000000  0.499999  0.000000  1
  Tm  Tm1  1  0.000000  0.000000  0.499999  1
  Tm  Tm2  1  0.000000  0.499999  0.499999  1
  Tm  Tm3  1  0.500000  0.000000  0.500000  1
  Ir  Ir4  1  0.000000  0.000000  0.000000  1
  Ir  Ir5  1  0.499999  0.000000  0.000000  1
  Ir  Ir6  1  0.499999  0.499999  0.000000  1
  Ir  Ir7  1  0.499999  0.499999  0.499999  1
  O  O8  1  0.839699  0.179324  0.089662  1
  O  O9  1  0.410317  0.749988  0.089694  1
  O  O10  1  0.839683  0.750007  0.089646  1
  O  O11  1  0.589682  0.250013  0.339706  1
  O  O12  1  0.589661  0.679352  0.339676  1
  O  O13  1  0.160318  0.249994  0.339640  1
  O  O14  1  0.125004  0.749991  0.374996  1
  O  O15  1  0.874995  0.250010  0.625004  1
  O  O16  1  0.410338  0.320647  0.660324  1
  O  O17  1  0.410317  0.749988  0.660294  1
  O  O18  1  0.839683  0.750007  0.660361  1
  O  O19  1  0.589682  0.250013  0.910305  1
  O  O20  1  0.160302  0.820676  0.910338  1
  O  O21  1  0.160318  0.249994  0.910354  1
