# generated using pymatgen
data_CaTbNiIr3
_symmetry_space_group_name_H-M   'P 1'
_cell_length_a   5.21300039
_cell_length_b   5.21300110
_cell_length_c   5.21299978
_cell_angle_alpha   61.94414563
_cell_angle_beta   61.94416024
_cell_angle_gamma   61.94414178
_symmetry_Int_Tables_number   1
_chemical_formula_structural   CaTbNiIr3
_chemical_formula_sum   'Ca1 Tb1 Ni1 Ir3'
_cell_volume   104.53029584
_cell_formula_units_Z   1
loop_
 _symmetry_equiv_pos_site_id
 _symmetry_equiv_pos_as_xyz
  1  'x, y, z'
loop_
 _atom_site_type_symbol
 _atom_site_label
 _atom_site_symmetry_multiplicity
 _atom_site_fract_x
 _atom_site_fract_y
 _atom_site_fract_z
 _atom_site_occupancy
  Ca  Ca0  1  0.999807  0.999807  0.999807  1
  Tb  Tb1  1  0.249335  0.249335  0.249335  1
  Ni  Ni2  1  0.625244  0.625244  0.625244  1
  Ir  Ir3  1  0.124848  0.625383  0.625383  1
  Ir  Ir4  1  0.625383  0.124848  0.625383  1
  Ir  Ir5  1  0.625383  0.625383  0.124848  1
