# generated using pymatgen
data_Hf3ZnTc2
_symmetry_space_group_name_H-M   'P 1'
_cell_length_a   3.30703100
_cell_length_b   3.30703100
_cell_length_c   9.76589500
_cell_angle_alpha   90.00000000
_cell_angle_beta   90.00000000
_cell_angle_gamma   90.00000000
_symmetry_Int_Tables_number   1
_chemical_formula_structural   Hf3ZnTc2
_chemical_formula_sum   'Hf3 Zn1 Tc2'
_cell_volume   106.80426178
_cell_formula_units_Z   1
loop_
 _symmetry_equiv_pos_site_id
 _symmetry_equiv_pos_as_xyz
  1  'x, y, z'
loop_
 _atom_site_type_symbol
 _atom_site_label
 _atom_site_symmetry_multiplicity
 _atom_site_fract_x
 _atom_site_fract_y
 _atom_site_fract_z
 _atom_site_occupancy
  Hf  Hf0  1  0.499999  0.499999  0.000000  1
  Hf  Hf1  1  0.499999  0.499999  0.324040  1
  Hf  Hf2  1  0.499999  0.499999  0.675959  1
  Zn  Zn3  1  0.000000  0.000000  0.500000  1
  Tc  Tc4  1  0.000000  0.000000  0.171135  1
  Tc  Tc5  1  0.000000  0.000000  0.828865  1
