# generated using pymatgen
data_Zr20Si15Sn
_symmetry_space_group_name_H-M   'P 1'
_cell_length_a   7.21575749
_cell_length_b   7.19038476
_cell_length_c   13.13112283
_cell_angle_alpha   90.05768664
_cell_angle_beta   89.92067666
_cell_angle_gamma   90.26879055
_symmetry_Int_Tables_number   1
_chemical_formula_structural   Zr20Si15Sn
_chemical_formula_sum   'Zr20 Si15 Sn1'
_cell_volume   681.28763990
_cell_formula_units_Z   1
loop_
 _symmetry_equiv_pos_site_id
 _symmetry_equiv_pos_as_xyz
  1  'x, y, z'
loop_
 _atom_site_type_symbol
 _atom_site_label
 _atom_site_symmetry_multiplicity
 _atom_site_fract_x
 _atom_site_fract_y
 _atom_site_fract_z
 _atom_site_occupancy
  Zr  Zr0  1  0.363851  0.496318  0.374649  1
  Zr  Zr1  1  0.846030  0.009772  0.367820  1
  Zr  Zr2  1  0.001211  0.146017  0.125897  1
  Zr  Zr3  1  0.999741  0.856041  0.633333  1
  Zr  Zr4  1  0.644943  0.498383  0.877328  1
  Zr  Zr5  1  0.503093  0.353003  0.624757  1
  Zr  Zr6  1  0.498365  0.645602  0.122116  1
  Zr  Zr7  1  0.145870  0.000939  0.873128  1
  Zr  Zr8  1  0.997869  0.648964  0.035126  1
  Zr  Zr9  1  0.000216  0.337906  0.539597  1
  Zr  Zr10  1  0.648883  0.998971  0.964040  1
  Zr  Zr11  1  0.149398  0.502521  0.786036  1
  Zr  Zr12  1  0.839381  0.489802  0.277528  1
  Zr  Zr13  1  0.502141  0.148698  0.212497  1
  Zr  Zr14  1  0.500256  0.852640  0.716484  1
  Zr  Zr15  1  0.357173  0.006210  0.464298  1
  Zr  Zr16  1  0.666196  0.678016  0.502190  1
  Zr  Zr17  1  0.823531  0.176113  0.751116  1
  Zr  Zr18  1  0.179143  0.827644  0.244724  1
  Zr  Zr19  1  0.323142  0.324294  0.999616  1
  Si  Si20  1  0.947994  0.300090  0.937632  1
  Si  Si21  1  0.703227  0.050630  0.562641  1
  Si  Si22  1  0.198873  0.449669  0.187032  1
  Si  Si23  1  0.800616  0.551629  0.687855  1
  Si  Si24  1  0.448581  0.200318  0.813377  1
  Si  Si25  1  0.550658  0.800259  0.311633  1
  Si  Si26  1  0.301186  0.949580  0.060551  1
  Si  Si27  1  0.852433  0.794233  0.824966  1
  Si  Si28  1  0.148123  0.205107  0.322281  1
  Si  Si29  1  0.795255  0.852143  0.175670  1
  Si  Si30  1  0.300304  0.645973  0.579792  1
  Si  Si31  1  0.705421  0.353877  0.072091  1
  Si  Si32  1  0.649202  0.298217  0.430311  1
  Si  Si33  1  0.353387  0.705394  0.927292  1
  Si  Si34  1  0.207593  0.147143  0.679238  1
  Sn  Sn35  1  0.046718  0.697885  0.435360  1
