# generated using pymatgen
data_Tb3Ag2Hg3Rh
_symmetry_space_group_name_H-M   'P 1'
_cell_length_a   8.02941800
_cell_length_b   8.02941853
_cell_length_c   3.68544900
_cell_angle_alpha   90.00000000
_cell_angle_beta   90.00000000
_cell_angle_gamma   120.00000606
_symmetry_Int_Tables_number   1
_chemical_formula_structural   Tb3Ag2Hg3Rh
_chemical_formula_sum   'Tb3 Ag2 Hg3 Rh1'
_cell_volume   205.77337184
_cell_formula_units_Z   1
loop_
 _symmetry_equiv_pos_site_id
 _symmetry_equiv_pos_as_xyz
  1  'x, y, z'
loop_
 _atom_site_type_symbol
 _atom_site_label
 _atom_site_symmetry_multiplicity
 _atom_site_fract_x
 _atom_site_fract_y
 _atom_site_fract_z
 _atom_site_occupancy
  Tb  Tb0  1  0.968150  0.586989  0.500000  1
  Tb  Tb1  1  0.413011  0.381160  0.500000  1
  Tb  Tb2  1  0.618840  0.031850  0.500000  1
  Ag  Ag3  1  0.333333  0.666667  0.000000  1
  Ag  Ag4  1  0.000000  0.000000  0.500000  1
  Hg  Hg5  1  0.717993  0.725301  0.000000  1
  Hg  Hg6  1  0.007308  0.282007  0.000000  1
  Hg  Hg7  1  0.274699  0.992692  0.000000  1
  Rh  Rh8  1  0.666667  0.333333  0.000000  1
