# generated using pymatgen
data_ScTi5(Co2Sn)6
_symmetry_space_group_name_H-M   'P 1'
_cell_length_a   4.31982100
_cell_length_b   6.11076300
_cell_length_c   12.99468200
_cell_angle_alpha   89.99978167
_cell_angle_beta   89.99887415
_cell_angle_gamma   90.00007729
_symmetry_Int_Tables_number   1
_chemical_formula_structural   ScTi5(Co2Sn)6
_chemical_formula_sum   'Sc1 Ti5 Co12 Sn6'
_cell_volume   343.02584891
_cell_formula_units_Z   1
loop_
 _symmetry_equiv_pos_site_id
 _symmetry_equiv_pos_as_xyz
  1  'x, y, z'
loop_
 _atom_site_type_symbol
 _atom_site_label
 _atom_site_symmetry_multiplicity
 _atom_site_fract_x
 _atom_site_fract_y
 _atom_site_fract_z
 _atom_site_occupancy
  Sc  Sc0  1  0.000000  0.500000  0.000000  1
  Ti  Ti1  1  0.500193  0.000023  0.167539  1
  Ti  Ti2  1  0.000178  0.500008  0.333021  1
  Ti  Ti3  1  0.499999  0.000000  0.500000  1
  Ti  Ti4  1  0.999821  0.499992  0.666979  1
  Ti  Ti5  1  0.499805  0.999977  0.832462  1
  Co  Co6  1  0.499998  0.237711  0.000001  1
  Co  Co7  1  0.500000  0.762287  0.999999  1
  Co  Co8  1  0.000252  0.244271  0.171467  1
  Co  Co9  1  0.000249  0.755752  0.171474  1
  Co  Co10  1  0.500258  0.250348  0.334002  1
  Co  Co11  1  0.500258  0.749652  0.334011  1
  Co  Co12  1  0.000002  0.251539  0.500005  1
  Co  Co13  1  0.999998  0.748461  0.499995  1
  Co  Co14  1  0.499743  0.250346  0.665989  1
  Co  Co15  1  0.499743  0.749650  0.665998  1
  Co  Co16  1  0.999752  0.244249  0.828526  1
  Co  Co17  1  0.999749  0.755730  0.828533  1
  Sn  Sn18  1  0.000000  0.000000  0.000000  1
  Sn  Sn19  1  0.500259  0.499969  0.166592  1
  Sn  Sn20  1  0.000226  0.999995  0.336061  1
  Sn  Sn21  1  0.499999  0.500000  0.500000  1
  Sn  Sn22  1  0.999772  0.000005  0.663940  1
  Sn  Sn23  1  0.499742  0.500031  0.833408  1
