# generated using pymatgen
data_Nd16Cd3HgIrOs3
_symmetry_space_group_name_H-M   'P 1'
_cell_length_a   9.95397866
_cell_length_b   9.99015014
_cell_length_c   9.99015090
_cell_angle_alpha   59.66005879
_cell_angle_beta   59.55004013
_cell_angle_gamma   59.55003776
_symmetry_Int_Tables_number   1
_chemical_formula_structural   Nd16Cd3HgIrOs3
_chemical_formula_sum   'Nd16 Cd3 Hg1 Ir1 Os3'
_cell_volume   695.86582108
_cell_formula_units_Z   1
loop_
 _symmetry_equiv_pos_site_id
 _symmetry_equiv_pos_as_xyz
  1  'x, y, z'
loop_
 _atom_site_type_symbol
 _atom_site_label
 _atom_site_symmetry_multiplicity
 _atom_site_fract_x
 _atom_site_fract_y
 _atom_site_fract_z
 _atom_site_occupancy
  Nd  Nd0  1  0.345233  0.346788  0.346788  1
  Nd  Nd1  1  0.345390  0.346752  0.959531  1
  Nd  Nd2  1  0.345390  0.959531  0.346752  1
  Nd  Nd3  1  0.962291  0.345331  0.345331  1
  Nd  Nd4  1  0.809867  0.191019  0.191019  1
  Nd  Nd5  1  0.191181  0.809015  0.809015  1
  Nd  Nd6  1  0.190920  0.808645  0.190952  1
  Nd  Nd7  1  0.810364  0.191716  0.807279  1
  Nd  Nd8  1  0.190920  0.190952  0.808645  1
  Nd  Nd9  1  0.810364  0.807279  0.191716  1
  Nd  Nd10  1  0.938535  0.560337  0.560337  1
  Nd  Nd11  1  0.558702  0.940222  0.940222  1
  Nd  Nd12  1  0.558671  0.938437  0.562859  1
  Nd  Nd13  1  0.940227  0.560031  0.941254  1
  Nd  Nd14  1  0.558671  0.562859  0.938437  1
  Nd  Nd15  1  0.940227  0.941254  0.560031  1
  Cd  Cd16  1  0.578755  0.579062  0.261366  1
  Cd  Cd17  1  0.578755  0.261366  0.579062  1
  Cd  Cd18  1  0.261242  0.578911  0.578911  1
  Hg  Hg19  1  0.582592  0.582466  0.582466  1
  Ir  Ir20  1  0.581083  0.139268  0.139268  1
  Os  Os21  1  0.140195  0.137830  0.137830  1
  Os  Os22  1  0.140210  0.137602  0.583323  1
  Os  Os23  1  0.140210  0.583323  0.137602  1
