# generated using pymatgen
data_Ho2B6Ir5Rh4
_symmetry_space_group_name_H-M   'P 1'
_cell_length_a   5.62070444
_cell_length_b   5.60845841
_cell_length_c   8.63079500
_cell_angle_alpha   90.00000000
_cell_angle_beta   90.00000000
_cell_angle_gamma   119.92797048
_symmetry_Int_Tables_number   1
_chemical_formula_structural   Ho2B6Ir5Rh4
_chemical_formula_sum   'Ho2 B6 Ir5 Rh4'
_cell_volume   235.79274960
_cell_formula_units_Z   1
loop_
 _symmetry_equiv_pos_site_id
 _symmetry_equiv_pos_as_xyz
  1  'x, y, z'
loop_
 _atom_site_type_symbol
 _atom_site_label
 _atom_site_symmetry_multiplicity
 _atom_site_fract_x
 _atom_site_fract_y
 _atom_site_fract_z
 _atom_site_occupancy
  Ho  Ho0  1  0.000000  0.000000  0.700781  1
  Ho  Ho1  1  0.000000  0.000000  0.299219  1
  B  B2  1  0.667613  0.333806  0.000000  1
  B  B3  1  0.332387  0.666194  0.000000  1
  B  B4  1  0.667202  0.333601  0.668063  1
  B  B5  1  0.332798  0.666399  0.668063  1
  B  B6  1  0.332798  0.666399  0.331937  1
  B  B7  1  0.667202  0.333601  0.331937  1
  Ir  Ir8  1  0.000000  0.500000  0.836341  1
  Ir  Ir9  1  0.000000  0.500000  0.163659  1
  Ir  Ir10  1  0.500000  0.500000  0.500000  1
  Ir  Ir11  1  0.500000  0.000000  0.500000  1
  Ir  Ir12  1  0.000000  0.500000  0.500000  1
  Rh  Rh13  1  0.500000  0.500000  0.836577  1
  Rh  Rh14  1  0.500000  0.000000  0.836577  1
  Rh  Rh15  1  0.500000  0.500000  0.163423  1
  Rh  Rh16  1  0.500000  0.000000  0.163423  1
