# generated using pymatgen
data_HoTmLuNi9
_symmetry_space_group_name_H-M   'P 1'
_cell_length_a   8.51248164
_cell_length_b   8.51248217
_cell_length_c   8.51248215
_cell_angle_alpha   33.44750865
_cell_angle_beta   33.44750325
_cell_angle_gamma   33.44750672
_symmetry_Int_Tables_number   1
_chemical_formula_structural   HoTmLuNi9
_chemical_formula_sum   'Ho1 Tm1 Lu1 Ni9'
_cell_volume   166.88170611
_cell_formula_units_Z   1
loop_
 _symmetry_equiv_pos_site_id
 _symmetry_equiv_pos_as_xyz
  1  'x, y, z'
loop_
 _atom_site_type_symbol
 _atom_site_label
 _atom_site_symmetry_multiplicity
 _atom_site_fract_x
 _atom_site_fract_y
 _atom_site_fract_z
 _atom_site_occupancy
  Ho  Ho0  1  0.999877  0.999877  0.999877  1
  Tm  Tm1  1  0.139346  0.139346  0.139346  1
  Lu  Lu2  1  0.860840  0.860840  0.860840  1
  Ni  Ni3  1  0.416165  0.416165  0.918917  1
  Ni  Ni4  1  0.918917  0.416165  0.416165  1
  Ni  Ni5  1  0.416165  0.918917  0.416165  1
  Ni  Ni6  1  0.500077  0.500077  0.500077  1
  Ni  Ni7  1  0.333256  0.333256  0.333256  1
  Ni  Ni8  1  0.666759  0.666759  0.666759  1
  Ni  Ni9  1  0.080869  0.583865  0.583865  1
  Ni  Ni10  1  0.583865  0.583865  0.080869  1
  Ni  Ni11  1  0.583865  0.080869  0.583865  1
