# generated using pymatgen
data_Ho2Lu8In8CoPt3
_symmetry_space_group_name_H-M   'P 1'
_cell_length_a   3.57132300
_cell_length_b   8.00476951
_cell_length_c   17.93311100
_cell_angle_alpha   89.97024621
_cell_angle_beta   90.00000000
_cell_angle_gamma   90.00000000
_symmetry_Int_Tables_number   1
_chemical_formula_structural   Ho2Lu8In8CoPt3
_chemical_formula_sum   'Ho2 Lu8 In8 Co1 Pt3'
_cell_volume   512.66484806
_cell_formula_units_Z   1
loop_
 _symmetry_equiv_pos_site_id
 _symmetry_equiv_pos_as_xyz
  1  'x, y, z'
loop_
 _atom_site_type_symbol
 _atom_site_label
 _atom_site_symmetry_multiplicity
 _atom_site_fract_x
 _atom_site_fract_y
 _atom_site_fract_z
 _atom_site_occupancy
  Ho  Ho0  1  0.000000  0.000616  0.001420  1
  Ho  Ho1  1  0.000000  0.500799  0.498498  1
  Lu  Lu2  1  0.000000  0.111707  0.408184  1
  Lu  Lu3  1  0.000000  0.883610  0.584044  1
  Lu  Lu4  1  0.000000  0.383620  0.915201  1
  Lu  Lu5  1  0.000000  0.617812  0.088070  1
  Lu  Lu6  1  0.000000  0.232204  0.224801  1
  Lu  Lu7  1  0.000000  0.758743  0.778541  1
  Lu  Lu8  1  0.000000  0.257833  0.721055  1
  Lu  Lu9  1  0.000000  0.754679  0.278949  1
  In  In10  1  0.500000  0.420761  0.350948  1
  In  In11  1  0.500000  0.576869  0.647681  1
  In  In12  1  0.500000  0.077004  0.851918  1
  In  In13  1  0.500000  0.928697  0.152484  1
  In  In14  1  0.500000  0.293088  0.068913  1
  In  In15  1  0.500000  0.707989  0.934219  1
  In  In16  1  0.500000  0.206755  0.564513  1
  In  In17  1  0.500000  0.795587  0.428656  1
  Co  Co18  1  0.500000  0.017888  0.305053  1
  Pt  Pt19  1  0.500000  0.976343  0.695165  1
  Pt  Pt20  1  0.500000  0.476696  0.804362  1
  Pt  Pt21  1  0.500000  0.520697  0.197324  1
