# generated using pymatgen
data_Dy3Ho5(ErOs)4
_symmetry_space_group_name_H-M   'P 1'
_cell_length_a   6.28796006
_cell_length_b   7.37530818
_cell_length_c   9.01057502
_cell_angle_alpha   90.00793654
_cell_angle_beta   89.99770675
_cell_angle_gamma   89.95513464
_symmetry_Int_Tables_number   1
_chemical_formula_structural   Dy3Ho5(ErOs)4
_chemical_formula_sum   'Dy3 Ho5 Er4 Os4'
_cell_volume   417.87108053
_cell_formula_units_Z   1
loop_
 _symmetry_equiv_pos_site_id
 _symmetry_equiv_pos_as_xyz
  1  'x, y, z'
loop_
 _atom_site_type_symbol
 _atom_site_label
 _atom_site_symmetry_multiplicity
 _atom_site_fract_x
 _atom_site_fract_y
 _atom_site_fract_z
 _atom_site_occupancy
  Dy  Dy0  1  0.870175  0.538588  0.250050  1
  Dy  Dy1  1  0.629996  0.038640  0.249954  1
  Dy  Dy2  1  0.130241  0.461277  0.750046  1
  Ho  Ho3  1  0.332695  0.675672  0.062754  1
  Ho  Ho4  1  0.167794  0.174805  0.437352  1
  Ho  Ho5  1  0.667127  0.324512  0.562908  1
  Ho  Ho6  1  0.831944  0.824981  0.936910  1
  Ho  Ho7  1  0.369651  0.961156  0.749970  1
  Er  Er8  1  0.667137  0.324530  0.937159  1
  Er  Er9  1  0.831943  0.824978  0.563036  1
  Er  Er10  1  0.332680  0.675635  0.437324  1
  Er  Er11  1  0.167804  0.174776  0.062571  1
  Os  Os12  1  0.041519  0.883105  0.250237  1
  Os  Os13  1  0.458518  0.383036  0.249746  1
  Os  Os14  1  0.959733  0.116813  0.750247  1
  Os  Os15  1  0.541043  0.617499  0.749737  1
