# generated using pymatgen
data_Ho5Er3Sc11Si16Hg
_symmetry_space_group_name_H-M   'P 1'
_cell_length_a   7.03717215
_cell_length_b   7.38527769
_cell_length_c   13.99774229
_cell_angle_alpha   89.99736072
_cell_angle_beta   90.02303100
_cell_angle_gamma   89.89299250
_symmetry_Int_Tables_number   1
_chemical_formula_structural   Ho5Er3Sc11Si16Hg
_chemical_formula_sum   'Ho5 Er3 Sc11 Si16 Hg1'
_cell_volume   727.48192172
_cell_formula_units_Z   1
loop_
 _symmetry_equiv_pos_site_id
 _symmetry_equiv_pos_as_xyz
  1  'x, y, z'
loop_
 _atom_site_type_symbol
 _atom_site_label
 _atom_site_symmetry_multiplicity
 _atom_site_fract_x
 _atom_site_fract_y
 _atom_site_fract_z
 _atom_site_occupancy
  Ho  Ho0  1  0.010080  0.174963  0.096562  1
  Ho  Ho1  1  0.990389  0.816320  0.902417  1
  Ho  Ho2  1  0.485514  0.673414  0.902616  1
  Ho  Ho3  1  0.990403  0.816289  0.597506  1
  Ho  Ho4  1  0.510762  0.323766  0.096872  1
  Er  Er5  1  0.010322  0.174984  0.403310  1
  Er  Er6  1  0.510611  0.323629  0.403089  1
  Er  Er7  1  0.485581  0.673646  0.597425  1
  Sc  Sc8  1  0.837899  0.497477  0.250077  1
  Sc  Sc9  1  0.339822  0.004233  0.250071  1
  Sc  Sc10  1  0.656833  0.996927  0.749962  1
  Sc  Sc11  1  0.325009  0.182705  0.626198  1
  Sc  Sc12  1  0.671470  0.824217  0.375004  1
  Sc  Sc13  1  0.169271  0.680653  0.373216  1
  Sc  Sc14  1  0.671478  0.824229  0.125067  1
  Sc  Sc15  1  0.838742  0.325354  0.626046  1
  Sc  Sc16  1  0.324909  0.182575  0.873760  1
  Sc  Sc17  1  0.838822  0.325389  0.873902  1
  Sc  Sc18  1  0.169287  0.680643  0.126838  1
  Si  Si19  1  0.026318  0.092020  0.749965  1
  Si  Si20  1  0.968383  0.889962  0.250076  1
  Si  Si21  1  0.466981  0.616454  0.250078  1
  Si  Si22  1  0.543823  0.380278  0.749935  1
  Si  Si23  1  0.290785  0.884416  0.749909  1
  Si  Si24  1  0.713398  0.130285  0.250218  1
  Si  Si25  1  0.212706  0.372061  0.250184  1
  Si  Si26  1  0.769344  0.632205  0.749875  1
  Si  Si27  1  0.164171  0.459259  0.528247  1
  Si  Si28  1  0.841201  0.535534  0.461795  1
  Si  Si29  1  0.343486  0.966646  0.462270  1
  Si  Si30  1  0.841503  0.535800  0.038111  1
  Si  Si31  1  0.657810  0.033228  0.540388  1
  Si  Si32  1  0.163759  0.459386  0.971732  1
  Si  Si33  1  0.657908  0.033248  0.959583  1
  Si  Si34  1  0.343614  0.966495  0.037696  1
  Hg  Hg35  1  0.157604  0.511304  0.749997  1
