# generated using pymatgen
data_Dy3LuAl13Ga4SiIr6
_symmetry_space_group_name_H-M   'P 1'
_cell_length_a   7.52345632
_cell_length_b   7.53547305
_cell_length_c   9.46120000
_cell_angle_alpha   90.00000000
_cell_angle_beta   90.00000000
_cell_angle_gamma   119.72716599
_symmetry_Int_Tables_number   1
_chemical_formula_structural   Dy3LuAl13Ga4SiIr6
_chemical_formula_sum   'Dy3 Lu1 Al13 Ga4 Si1 Ir6'
_cell_volume   465.79220204
_cell_formula_units_Z   1
loop_
 _symmetry_equiv_pos_site_id
 _symmetry_equiv_pos_as_xyz
  1  'x, y, z'
loop_
 _atom_site_type_symbol
 _atom_site_label
 _atom_site_symmetry_multiplicity
 _atom_site_fract_x
 _atom_site_fract_y
 _atom_site_fract_z
 _atom_site_occupancy
  Dy  Dy0  1  0.998652  0.675895  0.250000  1
  Dy  Dy1  1  0.003382  0.332577  0.750000  1
  Dy  Dy2  1  0.332487  0.002277  0.750000  1
  Lu  Lu3  1  0.673587  0.994984  0.250000  1
  Al  Al4  1  0.999414  0.335411  0.077584  1
  Al  Al5  1  0.996769  0.666394  0.926515  1
  Al  Al6  1  0.996769  0.666394  0.573485  1
  Al  Al7  1  0.337737  0.001149  0.422635  1
  Al  Al8  1  0.999414  0.335411  0.422416  1
  Al  Al9  1  0.666504  0.997402  0.572276  1
  Al  Al10  1  0.666504  0.997402  0.927724  1
  Al  Al11  1  0.337737  0.001149  0.077365  1
  Al  Al12  1  0.332732  0.332660  0.555456  1
  Al  Al13  1  0.662931  0.663253  0.439275  1
  Al  Al14  1  0.662931  0.663253  0.060725  1
  Al  Al15  1  0.332732  0.332660  0.944544  1
  Al  Al16  1  0.549237  0.334950  0.250000  1
  Ga  Ga17  1  0.878347  0.878567  0.750000  1
  Ga  Ga18  1  0.336944  0.549304  0.250000  1
  Ga  Ga19  1  0.661485  0.453821  0.750000  1
  Ga  Ga20  1  0.454548  0.661110  0.750000  1
  Si  Si21  1  0.128322  0.129006  0.250000  1
  Ir  Ir22  1  0.669621  0.326516  0.002237  1
  Ir  Ir23  1  0.326063  0.670789  0.999843  1
  Ir  Ir24  1  0.326063  0.670789  0.500157  1
  Ir  Ir25  1  0.669621  0.326516  0.497763  1
  Ir  Ir26  1  0.999736  0.000183  0.010995  1
  Ir  Ir27  1  0.999736  0.000183  0.489005  1
