# generated using pymatgen
data_Th3GaRh3Au2
_symmetry_space_group_name_H-M   'P 1'
_cell_length_a   7.43687800
_cell_length_b   7.57112071
_cell_length_c   3.91346900
_cell_angle_alpha   90.00000000
_cell_angle_beta   90.00000000
_cell_angle_gamma   119.41517989
_symmetry_Int_Tables_number   1
_chemical_formula_structural   Th3GaRh3Au2
_chemical_formula_sum   'Th3 Ga1 Rh3 Au2'
_cell_volume   191.94315233
_cell_formula_units_Z   1
loop_
 _symmetry_equiv_pos_site_id
 _symmetry_equiv_pos_as_xyz
  1  'x, y, z'
loop_
 _atom_site_type_symbol
 _atom_site_label
 _atom_site_symmetry_multiplicity
 _atom_site_fract_x
 _atom_site_fract_y
 _atom_site_fract_z
 _atom_site_occupancy
  Th  Th0  1  0.002601  0.395514  0.500000  1
  Th  Th1  1  0.607087  0.604486  0.500000  1
  Th  Th2  1  0.397301  0.000000  0.500000  1
  Ga  Ga3  1  0.739958  0.000000  0.000000  1
  Rh  Rh4  1  0.356966  0.679128  0.000000  1
  Rh  Rh5  1  0.677839  0.320872  0.000000  1
  Rh  Rh6  1  0.955983  0.000000  0.500000  1
  Au  Au7  1  0.004681  0.747096  0.000000  1
  Au  Au8  1  0.257585  0.252904  0.000000  1
