# generated using pymatgen
data_Tb4Er4Re(TcB8)3
_symmetry_space_group_name_H-M   'P 1'
_cell_length_a   3.67786000
_cell_length_b   9.14953804
_cell_length_c   11.54455200
_cell_angle_alpha   90.02664419
_cell_angle_beta   90.00000000
_cell_angle_gamma   90.00000000
_symmetry_Int_Tables_number   1
_chemical_formula_structural   Tb4Er4Re(TcB8)3
_chemical_formula_sum   'Tb4 Er4 Re1 Tc3 B24'
_cell_volume   388.48244459
_cell_formula_units_Z   1
loop_
 _symmetry_equiv_pos_site_id
 _symmetry_equiv_pos_as_xyz
  1  'x, y, z'
loop_
 _atom_site_type_symbol
 _atom_site_label
 _atom_site_symmetry_multiplicity
 _atom_site_fract_x
 _atom_site_fract_y
 _atom_site_fract_z
 _atom_site_occupancy
  Tb  Tb0  1  0.000000  0.323744  0.414079  1
  Tb  Tb1  1  0.000000  0.676430  0.585881  1
  Tb  Tb2  1  0.000000  0.823615  0.086072  1
  Tb  Tb3  1  0.000000  0.176714  0.914204  1
  Er  Er4  1  0.000000  0.942803  0.369109  1
  Er  Er5  1  0.000000  0.057757  0.629988  1
  Er  Er6  1  0.000000  0.442742  0.130890  1
  Er  Er7  1  0.000000  0.556185  0.869607  1
  Re  Re8  1  0.000000  0.861141  0.820306  1
  Tc  Tc9  1  0.000000  0.639133  0.320189  1
  Tc  Tc10  1  0.000000  0.360898  0.679734  1
  Tc  Tc11  1  0.000000  0.139130  0.179881  1
  B  B12  1  0.500000  0.553755  0.432489  1
  B  B13  1  0.500000  0.446424  0.567567  1
  B  B14  1  0.500000  0.053719  0.067627  1
  B  B15  1  0.500000  0.946489  0.932675  1
  B  B16  1  0.500000  0.749723  0.418059  1
  B  B17  1  0.500000  0.250557  0.581867  1
  B  B18  1  0.500000  0.249639  0.081973  1
  B  B19  1  0.500000  0.749958  0.918257  1
  B  B20  1  0.500000  0.792094  0.265302  1
  B  B21  1  0.500000  0.207907  0.734526  1
  B  B22  1  0.500000  0.292071  0.234762  1
  B  B23  1  0.500000  0.707553  0.765389  1
  B  B24  1  0.500000  0.630283  0.185458  1
  B  B25  1  0.500000  0.369487  0.814517  1
  B  B26  1  0.500000  0.130344  0.314604  1
  B  B27  1  0.500000  0.869839  0.685236  1
  B  B28  1  0.500000  0.982314  0.212128  1
  B  B29  1  0.500000  0.018017  0.787663  1
  B  B30  1  0.500000  0.482301  0.287900  1
  B  B31  1  0.500000  0.517587  0.712248  1
  B  B32  1  0.500000  0.598406  0.027537  1
  B  B33  1  0.500000  0.401049  0.972712  1
  B  B34  1  0.500000  0.098709  0.472257  1
  B  B35  1  0.500000  0.901483  0.527313  1
