# generated using pymatgen
data_Nb(GaPt4)3
_symmetry_space_group_name_H-M   'P 1'
_cell_length_a   3.97029300
_cell_length_b   3.97029300
_cell_length_c   15.77857500
_cell_angle_alpha   90.00000000
_cell_angle_beta   90.00000000
_cell_angle_gamma   90.00000000
_symmetry_Int_Tables_number   1
_chemical_formula_structural   Nb(GaPt4)3
_chemical_formula_sum   'Nb1 Ga3 Pt12'
_cell_volume   248.72125166
_cell_formula_units_Z   1
loop_
 _symmetry_equiv_pos_site_id
 _symmetry_equiv_pos_as_xyz
  1  'x, y, z'
loop_
 _atom_site_type_symbol
 _atom_site_label
 _atom_site_symmetry_multiplicity
 _atom_site_fract_x
 _atom_site_fract_y
 _atom_site_fract_z
 _atom_site_occupancy
  Nb  Nb0  1  0.000000  0.000000  0.000000  1
  Ga  Ga1  1  0.000000  0.000000  0.257360  1
  Ga  Ga2  1  0.000000  0.000000  0.500000  1
  Ga  Ga3  1  0.000000  0.000000  0.742640  1
  Pt  Pt4  1  0.500000  0.500000  0.000000  1
  Pt  Pt5  1  0.500000  0.500000  0.250097  1
  Pt  Pt6  1  0.500000  0.500000  0.500000  1
  Pt  Pt7  1  0.500000  0.500000  0.749903  1
  Pt  Pt8  1  0.500000  0.000000  0.124014  1
  Pt  Pt9  1  0.500000  0.000000  0.376284  1
  Pt  Pt10  1  0.500000  0.000000  0.623716  1
  Pt  Pt11  1  0.500000  0.000000  0.875986  1
  Pt  Pt12  1  0.000000  0.500000  0.124014  1
  Pt  Pt13  1  0.000000  0.500000  0.376284  1
  Pt  Pt14  1  0.000000  0.500000  0.623716  1
  Pt  Pt15  1  0.000000  0.500000  0.875986  1
