# generated using pymatgen
data_HoGa6CoNi5
_symmetry_space_group_name_H-M   'P 1'
_cell_length_a   5.02681547
_cell_length_b   6.46791468
_cell_length_c   6.50670981
_cell_angle_alpha   83.75685134
_cell_angle_beta   66.90893791
_cell_angle_gamma   67.51371760
_symmetry_Int_Tables_number   1
_chemical_formula_structural   HoGa6CoNi5
_chemical_formula_sum   'Ho1 Ga6 Co1 Ni5'
_cell_volume   179.59630868
_cell_formula_units_Z   1
loop_
 _symmetry_equiv_pos_site_id
 _symmetry_equiv_pos_as_xyz
  1  'x, y, z'
loop_
 _atom_site_type_symbol
 _atom_site_label
 _atom_site_symmetry_multiplicity
 _atom_site_fract_x
 _atom_site_fract_y
 _atom_site_fract_z
 _atom_site_occupancy
  Ho  Ho0  1  0.000000  0.000000  0.000000  1
  Ga  Ga1  1  0.001719  0.345501  0.657508  1
  Ga  Ga2  1  0.998281  0.654499  0.342492  1
  Ga  Ga3  1  0.337805  0.656528  0.661836  1
  Ga  Ga4  1  0.662195  0.343472  0.338164  1
  Ga  Ga5  1  0.497455  0.186803  0.815428  1
  Ga  Ga6  1  0.502545  0.813197  0.184572  1
  Co  Co7  1  0.000000  0.500000  0.000000  1
  Ni  Ni8  1  0.263031  0.237571  0.237828  1
  Ni  Ni9  1  0.736969  0.762429  0.762172  1
  Ni  Ni10  1  0.500000  0.000000  0.500000  1
  Ni  Ni11  1  0.500000  0.500000  0.000000  1
  Ni  Ni12  1  0.000000  0.000000  0.500000  1
