# generated using pymatgen
data_Dy2Pa(AlNi)3
_symmetry_space_group_name_H-M   'P 1'
_cell_length_a   6.99832066
_cell_length_b   7.05855616
_cell_length_c   3.80653900
_cell_angle_alpha   90.00000000
_cell_angle_beta   90.00000000
_cell_angle_gamma   120.28513168
_symmetry_Int_Tables_number   1
_chemical_formula_structural   Dy2Pa(AlNi)3
_chemical_formula_sum   'Dy2 Pa1 Al3 Ni3'
_cell_volume   162.37368214
_cell_formula_units_Z   1
loop_
 _symmetry_equiv_pos_site_id
 _symmetry_equiv_pos_as_xyz
  1  'x, y, z'
loop_
 _atom_site_type_symbol
 _atom_site_label
 _atom_site_symmetry_multiplicity
 _atom_site_fract_x
 _atom_site_fract_y
 _atom_site_fract_z
 _atom_site_occupancy
  Dy  Dy0  1  0.417799  0.418798  0.500000  1
  Dy  Dy1  1  0.582201  0.000999  0.500000  1
  Pa  Pa2  1  0.000000  0.576277  0.500000  1
  Al  Al3  1  0.760426  0.763258  0.000000  1
  Al  Al4  1  0.239574  0.002832  0.000000  1
  Al  Al5  1  0.000000  0.228677  0.000000  1
  Ni  Ni6  1  0.306946  0.664275  0.000000  1
  Ni  Ni7  1  0.693054  0.357328  0.000000  1
  Ni  Ni8  1  0.000000  0.987557  0.500000  1
