# generated using pymatgen
data_NdAg6NO11
_symmetry_space_group_name_H-M   'P 1'
_cell_length_a   7.14524494
_cell_length_b   7.14524443
_cell_length_c   7.14524549
_cell_angle_alpha   61.56732052
_cell_angle_beta   61.56732533
_cell_angle_gamma   61.56731803
_symmetry_Int_Tables_number   1
_chemical_formula_structural   NdAg6NO11
_chemical_formula_sum   'Nd1 Ag6 N1 O11'
_cell_volume   267.02150868
_cell_formula_units_Z   1
loop_
 _symmetry_equiv_pos_site_id
 _symmetry_equiv_pos_as_xyz
  1  'x, y, z'
loop_
 _atom_site_type_symbol
 _atom_site_label
 _atom_site_symmetry_multiplicity
 _atom_site_fract_x
 _atom_site_fract_y
 _atom_site_fract_z
 _atom_site_occupancy
  Nd  Nd0  1  0.999031  0.999031  0.999031  1
  Ag  Ag1  1  0.498430  0.000893  0.000893  1
  Ag  Ag2  1  0.500295  0.500295  0.000312  1
  Ag  Ag3  1  0.500295  0.000312  0.500295  1
  Ag  Ag4  1  0.000893  0.000893  0.498430  1
  Ag  Ag5  1  0.000312  0.500295  0.500295  1
  Ag  Ag6  1  0.000893  0.498430  0.000893  1
  N  N7  1  0.500097  0.500097  0.500097  1
  O  O8  1  0.578618  0.145419  0.145419  1
  O  O9  1  0.145419  0.578618  0.145419  1
  O  O10  1  0.141507  0.141507  0.141507  1
  O  O11  1  0.145419  0.145419  0.578618  1
  O  O12  1  0.599933  0.599933  0.300318  1
  O  O13  1  0.599933  0.300318  0.599933  1
  O  O14  1  0.300318  0.599933  0.599933  1
  O  O15  1  0.855610  0.855610  0.419525  1
  O  O16  1  0.855610  0.419525  0.855610  1
  O  O17  1  0.857861  0.857861  0.857861  1
  O  O18  1  0.419525  0.855610  0.855610  1
