# generated using pymatgen
data_DyY3Tm4(B6Ru)4
_symmetry_space_group_name_H-M   'P 1'
_cell_length_a   3.63611500
_cell_length_b   9.09387900
_cell_length_c   11.47543600
_cell_angle_alpha   89.99731491
_cell_angle_beta   90.00000000
_cell_angle_gamma   90.00000000
_symmetry_Int_Tables_number   1
_chemical_formula_structural   DyY3Tm4(B6Ru)4
_chemical_formula_sum   'Dy1 Y3 Tm4 B24 Ru4'
_cell_volume   379.45124015
_cell_formula_units_Z   1
loop_
 _symmetry_equiv_pos_site_id
 _symmetry_equiv_pos_as_xyz
  1  'x, y, z'
loop_
 _atom_site_type_symbol
 _atom_site_label
 _atom_site_symmetry_multiplicity
 _atom_site_fract_x
 _atom_site_fract_y
 _atom_site_fract_z
 _atom_site_occupancy
  Dy  Dy0  1  0.000000  0.177928  0.914150  1
  Y  Y1  1  0.000000  0.321887  0.414150  1
  Y  Y2  1  0.000000  0.678120  0.585837  1
  Y  Y3  1  0.000000  0.821905  0.085836  1
  Tm  Tm4  1  0.000000  0.943843  0.372283  1
  Tm  Tm5  1  0.000000  0.056172  0.627748  1
  Tm  Tm6  1  0.000000  0.443817  0.127674  1
  Tm  Tm7  1  0.000000  0.556111  0.872289  1
  B  B8  1  0.500000  0.554543  0.432766  1
  B  B9  1  0.500000  0.445446  0.567263  1
  B  B10  1  0.500000  0.054642  0.067124  1
  B  B11  1  0.500000  0.945622  0.932739  1
  B  B12  1  0.500000  0.749177  0.419292  1
  B  B13  1  0.500000  0.250834  0.580749  1
  B  B14  1  0.500000  0.249135  0.080559  1
  B  B15  1  0.500000  0.750869  0.919283  1
  B  B16  1  0.500000  0.791602  0.266032  1
  B  B17  1  0.500000  0.208391  0.734086  1
  B  B18  1  0.500000  0.291573  0.233930  1
  B  B19  1  0.500000  0.708434  0.766061  1
  B  B20  1  0.500000  0.631079  0.184613  1
  B  B21  1  0.500000  0.368787  0.815483  1
  B  B22  1  0.500000  0.131086  0.315366  1
  B  B23  1  0.500000  0.868955  0.684645  1
  B  B24  1  0.500000  0.983302  0.213336  1
  B  B25  1  0.500000  0.016839  0.786728  1
  B  B26  1  0.500000  0.483262  0.286625  1
  B  B27  1  0.500000  0.516682  0.713378  1
  B  B28  1  0.500000  0.605486  0.028958  1
  B  B29  1  0.500000  0.394400  0.970998  1
  B  B30  1  0.500000  0.105478  0.471037  1
  B  B31  1  0.500000  0.894534  0.528977  1
  Ru  Ru32  1  0.000000  0.638441  0.320365  1
  Ru  Ru33  1  0.000000  0.361481  0.679728  1
  Ru  Ru34  1  0.000000  0.138446  0.179505  1
  Ru  Ru35  1  0.000000  0.861692  0.820407  1
