# generated using pymatgen
data_Tb8Dy5Er7Pb16
_symmetry_space_group_name_H-M   'P 1'
_cell_length_a   8.19517011
_cell_length_b   8.28016412
_cell_length_c   15.62937402
_cell_angle_alpha   89.99414770
_cell_angle_beta   90.00121631
_cell_angle_gamma   89.98103278
_symmetry_Int_Tables_number   1
_chemical_formula_structural   Tb8Dy5Er7Pb16
_chemical_formula_sum   'Tb8 Dy5 Er7 Pb16'
_cell_volume   1060.56789499
_cell_formula_units_Z   1
loop_
 _symmetry_equiv_pos_site_id
 _symmetry_equiv_pos_as_xyz
  1  'x, y, z'
loop_
 _atom_site_type_symbol
 _atom_site_label
 _atom_site_symmetry_multiplicity
 _atom_site_fract_x
 _atom_site_fract_y
 _atom_site_fract_z
 _atom_site_occupancy
  Tb  Tb0  1  0.534227  0.323055  0.899928  1
  Tb  Tb1  1  0.034281  0.177000  0.599956  1
  Tb  Tb2  1  0.465709  0.676985  0.400064  1
  Tb  Tb3  1  0.965796  0.822939  0.099940  1
  Tb  Tb4  1  0.465795  0.677048  0.100058  1
  Tb  Tb5  1  0.965807  0.822846  0.399978  1
  Tb  Tb6  1  0.534216  0.322875  0.600041  1
  Tb  Tb7  1  0.034157  0.177062  0.899973  1
  Dy  Dy8  1  0.376686  0.840798  0.879330  1
  Dy  Dy9  1  0.876645  0.659237  0.620702  1
  Dy  Dy10  1  0.623332  0.159240  0.379343  1
  Dy  Dy11  1  0.123358  0.340717  0.120725  1
  Dy  Dy12  1  0.623414  0.159166  0.120614  1
  Er  Er13  1  0.123414  0.340895  0.379303  1
  Er  Er14  1  0.376520  0.840881  0.620710  1
  Er  Er15  1  0.876520  0.659115  0.879275  1
  Er  Er16  1  0.208228  0.504350  0.749957  1
  Er  Er17  1  0.708245  0.995614  0.750003  1
  Er  Er18  1  0.791902  0.495805  0.250036  1
  Er  Er19  1  0.291692  0.004336  0.250073  1
  Pb  Pb20  1  0.282037  0.033757  0.042847  1
  Pb  Pb21  1  0.782450  0.466146  0.457088  1
  Pb  Pb22  1  0.717535  0.966140  0.542912  1
  Pb  Pb23  1  0.217539  0.533868  0.957080  1
  Pb  Pb24  1  0.718197  0.965833  0.957101  1
  Pb  Pb25  1  0.218053  0.533903  0.542667  1
  Pb  Pb26  1  0.281965  0.033898  0.457348  1
  Pb  Pb27  1  0.782172  0.466521  0.042608  1
  Pb  Pb28  1  0.571524  0.627446  0.749973  1
  Pb  Pb29  1  0.071565  0.872564  0.750029  1
  Pb  Pb30  1  0.428261  0.372755  0.250102  1
  Pb  Pb31  1  0.928678  0.127428  0.250130  1
  Pb  Pb32  1  0.345331  0.152071  0.749928  1
  Pb  Pb33  1  0.845319  0.347937  0.750077  1
  Pb  Pb34  1  0.654715  0.847756  0.250013  1
  Pb  Pb35  1  0.154716  0.652011  0.250088  1
