# generated using pymatgen
data_Nd6Al23Si(OsRu3)2
_symmetry_space_group_name_H-M   'P 1'
_cell_length_a   8.86334100
_cell_length_b   8.86994851
_cell_length_c   9.73226715
_cell_angle_alpha   90.09027360
_cell_angle_beta   90.00000000
_cell_angle_gamma   119.97537209
_symmetry_Int_Tables_number   1
_chemical_formula_structural   Nd6Al23Si(OsRu3)2
_chemical_formula_sum   'Nd6 Al23 Si1 Os2 Ru6'
_cell_volume   662.78125385
_cell_formula_units_Z   1
loop_
 _symmetry_equiv_pos_site_id
 _symmetry_equiv_pos_as_xyz
  1  'x, y, z'
loop_
 _atom_site_type_symbol
 _atom_site_label
 _atom_site_symmetry_multiplicity
 _atom_site_fract_x
 _atom_site_fract_y
 _atom_site_fract_z
 _atom_site_occupancy
  Nd  Nd0  1  0.192898  0.385795  0.248517  1
  Nd  Nd1  1  0.807623  0.615248  0.752104  1
  Nd  Nd2  1  0.614545  0.806869  0.247724  1
  Nd  Nd3  1  0.384653  0.192939  0.752000  1
  Nd  Nd4  1  0.192325  0.806869  0.247724  1
  Nd  Nd5  1  0.808286  0.192939  0.752000  1
  Al  Al6  1  0.666487  0.332973  0.987307  1
  Al  Al7  1  0.666481  0.332961  0.513463  1
  Al  Al8  1  0.333512  0.667025  0.487760  1
  Al  Al9  1  0.163155  0.326310  0.574564  1
  Al  Al10  1  0.836535  0.673070  0.424811  1
  Al  Al11  1  0.674043  0.837348  0.574129  1
  Al  Al12  1  0.836175  0.672350  0.074610  1
  Al  Al13  1  0.326530  0.162915  0.425391  1
  Al  Al14  1  0.164498  0.328996  0.923886  1
  Al  Al15  1  0.163305  0.837348  0.574129  1
  Al  Al16  1  0.327109  0.164131  0.074398  1
  Al  Al17  1  0.836383  0.162915  0.425391  1
  Al  Al18  1  0.670427  0.835391  0.923944  1
  Al  Al19  1  0.837023  0.164131  0.074398  1
  Al  Al20  1  0.164964  0.835391  0.923944  1
  Al  Al21  1  0.562636  0.125273  0.248988  1
  Al  Al22  1  0.437102  0.874202  0.748335  1
  Al  Al23  1  0.874575  0.437181  0.249239  1
  Al  Al24  1  0.126525  0.563630  0.748096  1
  Al  Al25  1  0.562606  0.437181  0.249239  1
  Al  Al26  1  0.437105  0.563630  0.748096  1
  Al  Al27  1  0.000119  0.000237  0.249722  1
  Al  Al28  1  0.999954  0.999909  0.749698  1
  Si  Si29  1  0.333101  0.666204  0.028910  1
  Os  Os30  1  0.008460  0.504052  0.000504  1
  Os  Os31  1  0.495593  0.504052  0.000504  1
  Ru  Ru32  1  0.495539  0.991078  0.000693  1
  Ru  Ru33  1  0.500236  0.000473  0.498716  1
  Ru  Ru34  1  0.999526  0.499697  0.498976  1
  Ru  Ru35  1  0.500170  0.499697  0.498976  1
  Ru  Ru36  1  0.999823  0.999646  0.999779  1
  Ru  Ru37  1  0.999972  0.999945  0.499336  1
