# generated using pymatgen
data_Tb16Cd3AgPt3Rh
_symmetry_space_group_name_H-M   'P 1'
_cell_length_a   9.69107710
_cell_length_b   9.69107673
_cell_length_c   9.69107632
_cell_angle_alpha   59.95487940
_cell_angle_beta   59.95488192
_cell_angle_gamma   59.95488866
_symmetry_Int_Tables_number   1
_chemical_formula_structural   Tb16Cd3AgPt3Rh
_chemical_formula_sum   'Tb16 Cd3 Ag1 Pt3 Rh1'
_cell_volume   642.91935485
_cell_formula_units_Z   1
loop_
 _symmetry_equiv_pos_site_id
 _symmetry_equiv_pos_as_xyz
  1  'x, y, z'
loop_
 _atom_site_type_symbol
 _atom_site_label
 _atom_site_symmetry_multiplicity
 _atom_site_fract_x
 _atom_site_fract_y
 _atom_site_fract_z
 _atom_site_occupancy
  Tb  Tb0  1  0.351331  0.351331  0.351331  1
  Tb  Tb1  1  0.351379  0.351379  0.944424  1
  Tb  Tb2  1  0.351379  0.944424  0.351379  1
  Tb  Tb3  1  0.944424  0.351379  0.351379  1
  Tb  Tb4  1  0.813664  0.189574  0.189574  1
  Tb  Tb5  1  0.189601  0.810200  0.810200  1
  Tb  Tb6  1  0.189574  0.813664  0.189574  1
  Tb  Tb7  1  0.810200  0.189601  0.810200  1
  Tb  Tb8  1  0.189574  0.189574  0.813664  1
  Tb  Tb9  1  0.810200  0.810200  0.189601  1
  Tb  Tb10  1  0.933307  0.564558  0.564558  1
  Tb  Tb11  1  0.563650  0.935095  0.935095  1
  Tb  Tb12  1  0.564558  0.933307  0.564558  1
  Tb  Tb13  1  0.935095  0.563650  0.935095  1
  Tb  Tb14  1  0.564558  0.564558  0.933307  1
  Tb  Tb15  1  0.935095  0.935095  0.563650  1
  Cd  Cd16  1  0.581410  0.581410  0.255971  1
  Cd  Cd17  1  0.581410  0.255971  0.581410  1
  Cd  Cd18  1  0.255971  0.581410  0.581410  1
  Ag  Ag19  1  0.583323  0.583323  0.583323  1
  Pt  Pt20  1  0.143022  0.143022  0.570464  1
  Pt  Pt21  1  0.143022  0.570464  0.143022  1
  Pt  Pt22  1  0.570464  0.143022  0.143022  1
  Rh  Rh23  1  0.143788  0.143788  0.143788  1
