# generated using pymatgen
data_Tb3Zr4BiF28
_symmetry_space_group_name_H-M   'P 1'
_cell_length_a   5.79810838
_cell_length_b   9.19836839
_cell_length_c   12.34352349
_cell_angle_alpha   62.22432485
_cell_angle_beta   90.01150256
_cell_angle_gamma   90.01670069
_symmetry_Int_Tables_number   1
_chemical_formula_structural   Tb3Zr4BiF28
_chemical_formula_sum   'Tb3 Zr4 Bi1 F28'
_cell_volume   582.46658178
_cell_formula_units_Z   1
loop_
 _symmetry_equiv_pos_site_id
 _symmetry_equiv_pos_as_xyz
  1  'x, y, z'
loop_
 _atom_site_type_symbol
 _atom_site_label
 _atom_site_symmetry_multiplicity
 _atom_site_fract_x
 _atom_site_fract_y
 _atom_site_fract_z
 _atom_site_occupancy
  Tb  Tb0  1  0.743839  0.817295  0.265879  1
  Tb  Tb1  1  0.243260  0.184967  0.233579  1
  Tb  Tb2  1  0.256280  0.189179  0.733678  1
  Zr  Zr3  1  0.744002  0.277462  0.453217  1
  Zr  Zr4  1  0.244806  0.725619  0.047883  1
  Zr  Zr5  1  0.255435  0.726046  0.541636  1
  Zr  Zr6  1  0.754988  0.271386  0.956728  1
  Bi  Bi7  1  0.757969  0.820030  0.764800  1
  F  F8  1  0.461020  0.709174  0.925055  1
  F  F9  1  0.965964  0.287889  0.577554  1
  F  F10  1  0.532124  0.285961  0.078915  1
  F  F11  1  0.032214  0.711367  0.419583  1
  F  F12  1  0.456950  0.280865  0.550020  1
  F  F13  1  0.955039  0.716558  0.956279  1
  F  F14  1  0.545397  0.718755  0.448508  1
  F  F15  1  0.043445  0.278461  0.051245  1
  F  F16  1  0.768734  0.518063  0.860140  1
  F  F17  1  0.266905  0.475555  0.639533  1
  F  F18  1  0.234545  0.475005  0.143250  1
  F  F19  1  0.733266  0.526009  0.357579  1
  F  F20  1  0.759607  0.021732  0.059544  1
  F  F21  1  0.259490  0.975119  0.440158  1
  F  F22  1  0.240417  0.974436  0.941620  1
  F  F23  1  0.740026  0.027025  0.555015  1
  F  F24  1  0.985759  0.732199  0.644544  1
  F  F25  1  0.486661  0.264470  0.851428  1
  F  F26  1  0.011637  0.265174  0.350179  1
  F  F27  1  0.513256  0.734881  0.151683  1
  F  F28  1  0.033234  0.746947  0.173750  1
  F  F29  1  0.531733  0.253672  0.328661  1
  F  F30  1  0.966322  0.251098  0.829724  1
  F  F31  1  0.459770  0.744816  0.669765  1
  F  F32  1  0.431111  0.975308  0.235500  1
  F  F33  1  0.932324  0.026358  0.264614  1
  F  F34  1  0.573064  0.034043  0.765722  1
  F  F35  1  0.079406  0.977071  0.733034  1
