# generated using pymatgen
data_TaTi2Mo(PO4)6
_symmetry_space_group_name_H-M   'P 1'
_cell_length_a   8.68068925
_cell_length_b   8.68116112
_cell_length_c   8.93949424
_cell_angle_alpha   89.92185301
_cell_angle_beta   61.01441494
_cell_angle_gamma   119.99701910
_symmetry_Int_Tables_number   1
_chemical_formula_structural   TaTi2Mo(PO4)6
_chemical_formula_sum   'Ta1 Ti2 Mo1 P6 O24'
_cell_volume   483.23790150
_cell_formula_units_Z   1
loop_
 _symmetry_equiv_pos_site_id
 _symmetry_equiv_pos_as_xyz
  1  'x, y, z'
loop_
 _atom_site_type_symbol
 _atom_site_label
 _atom_site_symmetry_multiplicity
 _atom_site_fract_x
 _atom_site_fract_y
 _atom_site_fract_z
 _atom_site_occupancy
  Ta  Ta0  1  0.782759  0.140754  0.076842  1
  Ti  Ti1  1  0.783377  0.641007  0.576060  1
  Ti  Ti2  1  0.214896  0.358081  0.426588  1
  Mo  Mo3  1  0.213298  0.857473  0.928618  1
  P  P4  1  0.275313  0.030823  0.256354  1
  P  P5  1  0.712720  0.744063  0.254642  1
  P  P6  1  0.285934  0.252983  0.746399  1
  P  P7  1  0.721958  0.969488  0.744735  1
  P  P8  1  0.003617  0.534794  0.743982  1
  P  P9  1  0.998343  0.466798  0.257044  1
  O  O10  1  0.487832  0.071339  0.222333  1
  O  O11  1  0.867476  0.365432  0.915639  1
  O  O12  1  0.908764  0.147919  0.582960  1
  O  O13  1  0.849346  0.555310  0.722455  1
  O  O14  1  0.135389  0.631809  0.080984  1
  O  O15  1  0.089676  0.852504  0.417367  1
  O  O16  1  0.153686  0.447870  0.277693  1
  O  O17  1  0.146601  0.715008  0.772465  1
  O  O18  1  0.153138  0.509570  0.579588  1
  O  O19  1  0.269074  0.201992  0.283560  1
  O  O20  1  0.285336  0.007511  0.079965  1
  O  O21  1  0.701500  0.914591  0.227260  1
  O  O22  1  0.515608  0.566149  0.280467  1
  O  O23  1  0.266796  0.264932  0.586516  1
  O  O24  1  0.848791  0.491898  0.420685  1
  O  O25  1  0.084581  0.217475  0.921763  1
  O  O26  1  0.913366  0.783083  0.074802  1
  O  O27  1  0.510691  0.929777  0.777395  1
  O  O28  1  0.732933  0.733140  0.413486  1
  O  O29  1  0.484737  0.430666  0.719396  1
  O  O30  1  0.298035  0.082897  0.771950  1
  O  O31  1  0.720701  0.998110  0.916679  1
  O  O32  1  0.727389  0.797804  0.716405  1
  O  O33  1  0.856337  0.286946  0.226923  1
