# generated using pymatgen
data_Ho2PaAlIn2Pt3
_symmetry_space_group_name_H-M   'P 1'
_cell_length_a   7.54181098
_cell_length_b   7.45802009
_cell_length_c   3.96923000
_cell_angle_alpha   90.00000000
_cell_angle_beta   90.00000000
_cell_angle_gamma   120.76865797
_symmetry_Int_Tables_number   1
_chemical_formula_structural   Ho2PaAlIn2Pt3
_chemical_formula_sum   'Ho2 Pa1 Al1 In2 Pt3'
_cell_volume   191.83147957
_cell_formula_units_Z   1
loop_
 _symmetry_equiv_pos_site_id
 _symmetry_equiv_pos_as_xyz
  1  'x, y, z'
loop_
 _atom_site_type_symbol
 _atom_site_label
 _atom_site_symmetry_multiplicity
 _atom_site_fract_x
 _atom_site_fract_y
 _atom_site_fract_z
 _atom_site_occupancy
  Ho  Ho0  1  0.419319  0.416025  0.500000  1
  Ho  Ho1  1  0.994759  0.591016  0.500000  1
  Pa  Pa2  1  0.586918  0.999376  0.500000  1
  Al  Al3  1  0.748278  0.739968  0.000000  1
  In  In4  1  0.014241  0.264788  0.000000  1
  In  In5  1  0.241867  0.998801  0.000000  1
  Pt  Pt6  1  0.367438  0.688894  0.000000  1
  Pt  Pt7  1  0.670035  0.331128  0.000000  1
  Pt  Pt8  1  0.957145  0.970005  0.500000  1
