# generated using pymatgen
data_U4Re3MoC8
_symmetry_space_group_name_H-M   'P 1'
_cell_length_a   3.18804500
_cell_length_b   5.61657191
_cell_length_c   11.05612781
_cell_angle_alpha   89.93463501
_cell_angle_beta   90.00000000
_cell_angle_gamma   90.00000000
_symmetry_Int_Tables_number   1
_chemical_formula_structural   U4Re3MoC8
_chemical_formula_sum   'U4 Re3 Mo1 C8'
_cell_volume   197.96961310
_cell_formula_units_Z   1
loop_
 _symmetry_equiv_pos_site_id
 _symmetry_equiv_pos_as_xyz
  1  'x, y, z'
loop_
 _atom_site_type_symbol
 _atom_site_label
 _atom_site_symmetry_multiplicity
 _atom_site_fract_x
 _atom_site_fract_y
 _atom_site_fract_z
 _atom_site_occupancy
  U  U0  1  0.250000  0.079875  0.857798  1
  U  U1  1  0.750000  0.919346  0.140947  1
  U  U2  1  0.250000  0.582430  0.641745  1
  U  U3  1  0.750000  0.418152  0.359183  1
  Re  Re4  1  0.750000  0.080299  0.603917  1
  Re  Re5  1  0.750000  0.576158  0.896949  1
  Re  Re6  1  0.250000  0.920035  0.396829  1
  Mo  Mo7  1  0.250000  0.421955  0.102079  1
  C  C8  1  0.250000  0.746229  0.991614  1
  C  C9  1  0.750000  0.252287  0.005672  1
  C  C10  1  0.250000  0.244809  0.507483  1
  C  C11  1  0.750000  0.756547  0.493335  1
  C  C12  1  0.250000  0.160992  0.244919  1
  C  C13  1  0.750000  0.337209  0.744339  1
  C  C14  1  0.250000  0.666125  0.257462  1
  C  C15  1  0.750000  0.837554  0.755729  1
