# generated using pymatgen
data_Rb6GaSe4Br
_symmetry_space_group_name_H-M   'P 1'
_cell_length_a   11.03154000
_cell_length_b   11.03153874
_cell_length_c   8.28242600
_cell_angle_alpha   90.00000000
_cell_angle_beta   90.00000000
_cell_angle_gamma   119.99999779
_symmetry_Int_Tables_number   1
_chemical_formula_structural   Rb6GaSe4Br
_chemical_formula_sum   'Rb12 Ga2 Se8 Br2'
_cell_volume   872.89186090
_cell_formula_units_Z   2
loop_
 _symmetry_equiv_pos_site_id
 _symmetry_equiv_pos_as_xyz
  1  'x, y, z'
loop_
 _atom_site_type_symbol
 _atom_site_label
 _atom_site_symmetry_multiplicity
 _atom_site_fract_x
 _atom_site_fract_y
 _atom_site_fract_z
 _atom_site_occupancy
  Rb  Rb0  1  0.138100  0.861900  0.515330  1
  Rb  Rb1  1  0.723799  0.861900  0.515330  1
  Rb  Rb2  1  0.951212  0.475606  0.320537  1
  Rb  Rb3  1  0.524394  0.475606  0.320537  1
  Rb  Rb4  1  0.861900  0.723799  0.015330  1
  Rb  Rb5  1  0.276201  0.138100  0.015330  1
  Rb  Rb6  1  0.524394  0.048788  0.320537  1
  Rb  Rb7  1  0.138100  0.276201  0.515330  1
  Rb  Rb8  1  0.861900  0.138100  0.015330  1
  Rb  Rb9  1  0.048788  0.524394  0.820537  1
  Rb  Rb10  1  0.475606  0.951212  0.820537  1
  Rb  Rb11  1  0.475606  0.524394  0.820537  1
  Ga  Ga12  1  0.666667  0.333333  0.706500  1
  Ga  Ga13  1  0.333333  0.666667  0.206500  1
  Se  Se14  1  0.420967  0.210483  0.613464  1
  Se  Se15  1  0.579033  0.789517  0.113464  1
  Se  Se16  1  0.666667  0.333333  0.012820  1
  Se  Se17  1  0.789517  0.579033  0.613464  1
  Se  Se18  1  0.210483  0.420967  0.113464  1
  Se  Se19  1  0.333333  0.666667  0.512820  1
  Se  Se20  1  0.210483  0.789517  0.113464  1
  Se  Se21  1  0.789517  0.210483  0.613464  1
  Br  Br22  1  0.000000  0.000000  0.273287  1
  Br  Br23  1  0.000000  0.000000  0.773287  1
