# generated using pymatgen
data_YbYURu3
_symmetry_space_group_name_H-M   'P 1'
_cell_length_a   5.20372936
_cell_length_b   5.20372984
_cell_length_c   5.20373104
_cell_angle_alpha   68.07307975
_cell_angle_beta   68.07308250
_cell_angle_gamma   68.07307370
_symmetry_Int_Tables_number   1
_chemical_formula_structural   YbYURu3
_chemical_formula_sum   'Yb1 Y1 U1 Ru3'
_cell_volume   116.69324887
_cell_formula_units_Z   1
loop_
 _symmetry_equiv_pos_site_id
 _symmetry_equiv_pos_as_xyz
  1  'x, y, z'
loop_
 _atom_site_type_symbol
 _atom_site_label
 _atom_site_symmetry_multiplicity
 _atom_site_fract_x
 _atom_site_fract_y
 _atom_site_fract_z
 _atom_site_occupancy
  Yb  Yb0  1  0.127412  0.127412  0.127412  1
  Y  Y1  1  0.877659  0.877659  0.877659  1
  U  U2  1  0.500511  0.500511  0.500511  1
  Ru  Ru3  1  0.497595  0.999228  0.497595  1
  Ru  Ru4  1  0.999228  0.497595  0.497595  1
  Ru  Ru5  1  0.497595  0.497595  0.999228  1
