# generated using pymatgen
data_Nd4Y12Cd4CoNi3
_symmetry_space_group_name_H-M   'P 1'
_cell_length_a   9.64773782
_cell_length_b   9.64773836
_cell_length_c   9.64773845
_cell_angle_alpha   59.86904459
_cell_angle_beta   59.86904191
_cell_angle_gamma   59.86904599
_symmetry_Int_Tables_number   1
_chemical_formula_structural   Nd4Y12Cd4CoNi3
_chemical_formula_sum   'Nd4 Y12 Cd4 Co1 Ni3'
_cell_volume   633.09530300
_cell_formula_units_Z   1
loop_
 _symmetry_equiv_pos_site_id
 _symmetry_equiv_pos_as_xyz
  1  'x, y, z'
loop_
 _atom_site_type_symbol
 _atom_site_label
 _atom_site_symmetry_multiplicity
 _atom_site_fract_x
 _atom_site_fract_y
 _atom_site_fract_z
 _atom_site_occupancy
  Nd  Nd0  1  0.600538  0.600538  0.600538  1
  Nd  Nd1  1  0.598188  0.598188  0.200883  1
  Nd  Nd2  1  0.598188  0.200883  0.598188  1
  Nd  Nd3  1  0.200883  0.598188  0.598188  1
  Y  Y4  1  0.066697  0.436819  0.436819  1
  Y  Y5  1  0.437363  0.062516  0.062516  1
  Y  Y6  1  0.436819  0.066697  0.436819  1
  Y  Y7  1  0.062516  0.437363  0.062516  1
  Y  Y8  1  0.436819  0.436819  0.066697  1
  Y  Y9  1  0.062516  0.062516  0.437363  1
  Y  Y10  1  0.185397  0.814469  0.814469  1
  Y  Y11  1  0.812444  0.186323  0.186323  1
  Y  Y12  1  0.814469  0.185397  0.814469  1
  Y  Y13  1  0.186323  0.812444  0.186323  1
  Y  Y14  1  0.814469  0.814469  0.185397  1
  Y  Y15  1  0.186323  0.186323  0.812444  1
  Cd  Cd16  1  0.831733  0.831733  0.831733  1
  Cd  Cd17  1  0.831677  0.831677  0.504605  1
  Cd  Cd18  1  0.831677  0.504605  0.831677  1
  Cd  Cd19  1  0.504605  0.831677  0.831677  1
  Co  Co20  1  0.391853  0.391853  0.391853  1
  Ni  Ni21  1  0.391633  0.391633  0.825237  1
  Ni  Ni22  1  0.391633  0.825237  0.391633  1
  Ni  Ni23  1  0.825237  0.391633  0.391633  1
