# generated using pymatgen
data_Tb9Yb(InSi2)2
_symmetry_space_group_name_H-M   'P 1'
_cell_length_a   8.94356217
_cell_length_b   8.94331542
_cell_length_c   8.93617100
_cell_angle_alpha   128.95189171
_cell_angle_beta   128.96222994
_cell_angle_gamma   75.13024681
_symmetry_Int_Tables_number   1
_chemical_formula_structural   Tb9Yb(InSi2)2
_chemical_formula_sum   'Tb9 Yb1 In2 Si4'
_cell_volume   420.68619024
_cell_formula_units_Z   1
loop_
 _symmetry_equiv_pos_site_id
 _symmetry_equiv_pos_as_xyz
  1  'x, y, z'
loop_
 _atom_site_type_symbol
 _atom_site_label
 _atom_site_symmetry_multiplicity
 _atom_site_fract_x
 _atom_site_fract_y
 _atom_site_fract_z
 _atom_site_occupancy
  Tb  Tb0  1  0.531204  0.034269  0.843630  1
  Tb  Tb1  1  0.190664  0.687592  0.156524  1
  Tb  Tb2  1  0.034324  0.190525  0.502934  1
  Tb  Tb3  1  0.687562  0.531445  0.497101  1
  Tb  Tb4  1  0.468796  0.965731  0.156370  1
  Tb  Tb5  1  0.809336  0.312408  0.843476  1
  Tb  Tb6  1  0.965676  0.809475  0.497066  1
  Tb  Tb7  1  0.312438  0.468555  0.502899  1
  Tb  Tb8  1  0.000000  0.000000  0.000000  1
  Yb  Yb9  1  0.500000  0.500000  0.000000  1
  In  In10  1  0.247170  0.247278  0.999902  1
  In  In11  1  0.752830  0.752722  0.000098  1
  Si  Si12  1  0.882258  0.375683  0.257924  1
  Si  Si13  1  0.117742  0.624317  0.742076  1
  Si  Si14  1  0.375517  0.117879  0.493401  1
  Si  Si15  1  0.624483  0.882121  0.506599  1
