# generated using pymatgen
data_EuErF5
_symmetry_space_group_name_H-M   'P 1'
_cell_length_a   8.17722900
_cell_length_b   8.17722959
_cell_length_c   5.75012263
_cell_angle_alpha   89.07090494
_cell_angle_beta   89.07090522
_cell_angle_gamma   149.38462013
_symmetry_Int_Tables_number   1
_chemical_formula_structural   EuErF5
_chemical_formula_sum   'Eu2 Er2 F10'
_cell_volume   195.44245831
_cell_formula_units_Z   2
loop_
 _symmetry_equiv_pos_site_id
 _symmetry_equiv_pos_as_xyz
  1  'x, y, z'
loop_
 _atom_site_type_symbol
 _atom_site_label
 _atom_site_symmetry_multiplicity
 _atom_site_fract_x
 _atom_site_fract_y
 _atom_site_fract_z
 _atom_site_occupancy
  Eu  Eu0  1  0.324163  0.675837  0.750000  1
  Eu  Eu1  1  0.675837  0.324163  0.250000  1
  Er  Er2  1  0.075310  0.924690  0.750000  1
  Er  Er3  1  0.924690  0.075310  0.250000  1
  F  F4  1  0.731589  0.807989  0.601388  1
  F  F5  1  0.807989  0.731589  0.101388  1
  F  F6  1  0.802736  0.179951  0.005053  1
  F  F7  1  0.620909  0.379091  0.750000  1
  F  F8  1  0.820049  0.197264  0.494947  1
  F  F9  1  0.179951  0.802736  0.505053  1
  F  F10  1  0.379091  0.620909  0.250000  1
  F  F11  1  0.197264  0.820049  0.994947  1
  F  F12  1  0.192011  0.268411  0.898612  1
  F  F13  1  0.268411  0.192011  0.398612  1
