# generated using pymatgen
data_La2Tb4CoI10
_symmetry_space_group_name_H-M   'P 1'
_cell_length_a   7.83765404
_cell_length_b   9.86623729
_cell_length_c   9.78782831
_cell_angle_alpha   106.88152689
_cell_angle_beta   95.95771835
_cell_angle_gamma   105.58384598
_symmetry_Int_Tables_number   1
_chemical_formula_structural   La2Tb4CoI10
_chemical_formula_sum   'La2 Tb4 Co1 I10'
_cell_volume   683.92812716
_cell_formula_units_Z   1
loop_
 _symmetry_equiv_pos_site_id
 _symmetry_equiv_pos_as_xyz
  1  'x, y, z'
loop_
 _atom_site_type_symbol
 _atom_site_label
 _atom_site_symmetry_multiplicity
 _atom_site_fract_x
 _atom_site_fract_y
 _atom_site_fract_z
 _atom_site_occupancy
  La  La0  1  0.887171  0.958349  0.229829  1
  La  La1  1  0.112829  0.041651  0.770171  1
  Tb  Tb2  1  0.028547  0.716468  0.914110  1
  Tb  Tb3  1  0.971453  0.283532  0.085890  1
  Tb  Tb4  1  0.654134  0.875119  0.836758  1
  Tb  Tb5  1  0.345866  0.124881  0.163242  1
  Co  Co6  1  0.000000  0.000000  0.000000  1
  I  I7  1  0.650511  0.552256  0.729971  1
  I  I8  1  0.349489  0.447744  0.270029  1
  I  I9  1  0.729366  0.909123  0.540113  1
  I  I10  1  0.270634  0.090877  0.459887  1
  I  I11  1  0.082884  0.378558  0.823064  1
  I  I12  1  0.917116  0.621442  0.176936  1
  I  I13  1  0.445237  0.816187  0.089110  1
  I  I14  1  0.554763  0.183813  0.910890  1
  I  I15  1  0.224869  0.736587  0.656144  1
  I  I16  1  0.775131  0.263413  0.343856  1
