# generated using pymatgen
data_SmY2Er3(Si3Ru)8
_symmetry_space_group_name_H-M   'P 1'
_cell_length_a   10.12544850
_cell_length_b   10.12544932
_cell_length_c   8.14511478
_cell_angle_alpha   90.13221796
_cell_angle_beta   89.86779022
_cell_angle_gamma   132.55967438
_symmetry_Int_Tables_number   1
_chemical_formula_structural   SmY2Er3(Si3Ru)8
_chemical_formula_sum   'Sm1 Y2 Er3 Si24 Ru8'
_cell_volume   615.09241978
_cell_formula_units_Z   1
loop_
 _symmetry_equiv_pos_site_id
 _symmetry_equiv_pos_as_xyz
  1  'x, y, z'
loop_
 _atom_site_type_symbol
 _atom_site_label
 _atom_site_symmetry_multiplicity
 _atom_site_fract_x
 _atom_site_fract_y
 _atom_site_fract_z
 _atom_site_occupancy
  Sm  Sm0  1  0.497662  0.997662  0.250000  1
  Y  Y1  1  0.002101  0.502101  0.750000  1
  Y  Y2  1  0.502725  0.002725  0.750000  1
  Er  Er3  1  0.997454  0.497454  0.250000  1
  Er  Er4  1  0.499923  0.499911  0.500012  1
  Er  Er5  1  0.999911  0.999923  0.999988  1
  Si  Si6  1  0.387364  0.153629  0.003585  1
  Si  Si7  1  0.653629  0.887364  0.496415  1
  Si  Si8  1  0.110769  0.342853  0.503034  1
  Si  Si9  1  0.842853  0.610769  0.996966  1
  Si  Si10  1  0.612737  0.846815  0.994082  1
  Si  Si11  1  0.346815  0.112737  0.505918  1
  Si  Si12  1  0.888920  0.656741  0.494875  1
  Si  Si13  1  0.156741  0.388920  0.005125  1
  Si  Si14  1  0.613381  0.379491  0.227617  1
  Si  Si15  1  0.879491  0.113381  0.272383  1
  Si  Si16  1  0.885831  0.119433  0.728501  1
  Si  Si17  1  0.619433  0.385831  0.771499  1
  Si  Si18  1  0.388899  0.622654  0.771834  1
  Si  Si19  1  0.122654  0.888899  0.728166  1
  Si  Si20  1  0.706222  0.295296  0.999235  1
  Si  Si21  1  0.795296  0.206222  0.500765  1
  Si  Si22  1  0.293771  0.704739  0.999587  1
  Si  Si23  1  0.204739  0.793771  0.500413  1
  Si  Si24  1  0.168256  0.167551  0.332840  1
  Si  Si25  1  0.667551  0.668256  0.167160  1
  Si  Si26  1  0.332041  0.331958  0.832926  1
  Si  Si27  1  0.831958  0.832041  0.667074  1
  Si  Si28  1  0.378401  0.612307  0.228576  1
  Si  Si29  1  0.112307  0.878401  0.271424  1
  Ru  Ru30  1  0.626051  0.626153  0.872816  1
  Ru  Ru31  1  0.126153  0.126051  0.627184  1
  Ru  Ru32  1  0.873733  0.874250  0.372897  1
  Ru  Ru33  1  0.374250  0.373733  0.127103  1
  Ru  Ru34  1  0.327871  0.664910  0.500745  1
  Ru  Ru35  1  0.164910  0.827871  0.999255  1
  Ru  Ru36  1  0.672135  0.335059  0.499396  1
  Ru  Ru37  1  0.835059  0.172135  0.000604  1
