# generated using pymatgen
data_Dy7Ho3Er6(Ga3Co)2
_symmetry_space_group_name_H-M   'P 1'
_cell_length_a   9.97284202
_cell_length_b   9.97284246
_cell_length_c   6.93270000
_cell_angle_alpha   90.00082207
_cell_angle_beta   89.99917888
_cell_angle_gamma   119.99237497
_symmetry_Int_Tables_number   1
_chemical_formula_structural   Dy7Ho3Er6(Ga3Co)2
_chemical_formula_sum   'Dy7 Ho3 Er6 Ga6 Co2'
_cell_volume   597.17868871
_cell_formula_units_Z   1
loop_
 _symmetry_equiv_pos_site_id
 _symmetry_equiv_pos_as_xyz
  1  'x, y, z'
loop_
 _atom_site_type_symbol
 _atom_site_label
 _atom_site_symmetry_multiplicity
 _atom_site_fract_x
 _atom_site_fract_y
 _atom_site_fract_z
 _atom_site_occupancy
  Dy  Dy0  1  0.073354  0.536605  0.207786  1
  Dy  Dy1  1  0.463395  0.926646  0.207786  1
  Dy  Dy2  1  0.536557  0.463443  0.707715  1
  Dy  Dy3  1  0.926790  0.463396  0.707756  1
  Dy  Dy4  1  0.536604  0.073210  0.707756  1
  Dy  Dy5  1  0.999994  0.000006  0.231620  1
  Dy  Dy6  1  0.000034  0.999966  0.731620  1
  Ho  Ho7  1  0.333441  0.666559  0.826996  1
  Ho  Ho8  1  0.666585  0.333415  0.326849  1
  Ho  Ho9  1  0.463241  0.536759  0.207616  1
  Er  Er10  1  0.172929  0.827071  0.511279  1
  Er  Er11  1  0.653937  0.826892  0.511109  1
  Er  Er12  1  0.173108  0.346063  0.511109  1
  Er  Er13  1  0.827060  0.172940  0.011258  1
  Er  Er14  1  0.345952  0.173158  0.011405  1
  Er  Er15  1  0.826842  0.654048  0.011405  1
  Ga  Ga16  1  0.163296  0.836704  0.958752  1
  Ga  Ga17  1  0.673255  0.836514  0.958951  1
  Ga  Ga18  1  0.163486  0.326745  0.958951  1
  Ga  Ga19  1  0.836686  0.163314  0.458823  1
  Ga  Ga20  1  0.326638  0.163332  0.458741  1
  Ga  Ga21  1  0.836668  0.673362  0.458741  1
  Co  Co22  1  0.333489  0.666511  0.445294  1
  Co  Co23  1  0.666657  0.333343  0.945516  1
