# generated using pymatgen
data_Ho2Ga2PdRu
_symmetry_space_group_name_H-M   'P 1'
_cell_length_a   4.36333600
_cell_length_b   6.89758400
_cell_length_c   7.70604200
_cell_angle_alpha   90.00000000
_cell_angle_beta   90.00000000
_cell_angle_gamma   90.00000000
_symmetry_Int_Tables_number   1
_chemical_formula_structural   Ho2Ga2PdRu
_chemical_formula_sum   'Ho4 Ga4 Pd2 Ru2'
_cell_volume   231.92471258
_cell_formula_units_Z   2
loop_
 _symmetry_equiv_pos_site_id
 _symmetry_equiv_pos_as_xyz
  1  'x, y, z'
loop_
 _atom_site_type_symbol
 _atom_site_label
 _atom_site_symmetry_multiplicity
 _atom_site_fract_x
 _atom_site_fract_y
 _atom_site_fract_z
 _atom_site_occupancy
  Ho  Ho0  1  0.250000  0.023746  0.813533  1
  Ho  Ho1  1  0.250000  0.523746  0.686467  1
  Ho  Ho2  1  0.750000  0.987187  0.200850  1
  Ho  Ho3  1  0.750000  0.487187  0.299150  1
  Ga  Ga4  1  0.250000  0.167169  0.421122  1
  Ga  Ga5  1  0.250000  0.667169  0.078878  1
  Ga  Ga6  1  0.750000  0.826240  0.573135  1
  Ga  Ga7  1  0.750000  0.326240  0.926865  1
  Pd  Pd8  1  0.750000  0.217960  0.600350  1
  Pd  Pd9  1  0.750000  0.717960  0.899650  1
  Ru  Ru10  1  0.250000  0.777698  0.399970  1
  Ru  Ru11  1  0.250000  0.277698  0.100030  1
