# generated using pymatgen
data_Th10CuBi6Sb
_symmetry_space_group_name_H-M   'P 1'
_cell_length_a   9.70505700
_cell_length_b   9.70505820
_cell_length_c   6.62005900
_cell_angle_alpha   90.00000000
_cell_angle_beta   90.00000000
_cell_angle_gamma   119.99999933
_symmetry_Int_Tables_number   1
_chemical_formula_structural   Th10CuBi6Sb
_chemical_formula_sum   'Th10 Cu1 Bi6 Sb1'
_cell_volume   539.99374482
_cell_formula_units_Z   1
loop_
 _symmetry_equiv_pos_site_id
 _symmetry_equiv_pos_as_xyz
  1  'x, y, z'
loop_
 _atom_site_type_symbol
 _atom_site_label
 _atom_site_symmetry_multiplicity
 _atom_site_fract_x
 _atom_site_fract_y
 _atom_site_fract_z
 _atom_site_occupancy
  Th  Th0  1  0.730028  0.000000  0.232595  1
  Th  Th1  1  0.000000  0.730028  0.232595  1
  Th  Th2  1  0.269972  0.269972  0.232595  1
  Th  Th3  1  0.269972  0.000000  0.767405  1
  Th  Th4  1  0.000000  0.269972  0.767405  1
  Th  Th5  1  0.730028  0.730028  0.767405  1
  Th  Th6  1  0.333333  0.666667  0.500000  1
  Th  Th7  1  0.666667  0.333333  0.500000  1
  Th  Th8  1  0.666667  0.333333  0.000000  1
  Th  Th9  1  0.333333  0.666667  0.000000  1
  Cu  Cu10  1  0.000000  0.000000  0.000000  1
  Bi  Bi11  1  0.384438  0.000000  0.253726  1
  Bi  Bi12  1  0.000000  0.384438  0.253726  1
  Bi  Bi13  1  0.615562  0.615562  0.253726  1
  Bi  Bi14  1  0.615562  0.000000  0.746274  1
  Bi  Bi15  1  0.000000  0.615562  0.746274  1
  Bi  Bi16  1  0.384438  0.384438  0.746274  1
  Sb  Sb17  1  0.000000  0.000000  0.500000  1
