# generated using pymatgen
data_Dy3Ho2Co16(P4Ru)3
_symmetry_space_group_name_H-M   'P 1'
_cell_length_a   12.01901703
_cell_length_b   12.01901816
_cell_length_c   3.70643400
_cell_angle_alpha   90.00000000
_cell_angle_beta   90.00000000
_cell_angle_gamma   119.99160537
_symmetry_Int_Tables_number   1
_chemical_formula_structural   Dy3Ho2Co16(P4Ru)3
_chemical_formula_sum   'Dy3 Ho2 Co16 P12 Ru3'
_cell_volume   463.72613762
_cell_formula_units_Z   1
loop_
 _symmetry_equiv_pos_site_id
 _symmetry_equiv_pos_as_xyz
  1  'x, y, z'
loop_
 _atom_site_type_symbol
 _atom_site_label
 _atom_site_symmetry_multiplicity
 _atom_site_fract_x
 _atom_site_fract_y
 _atom_site_fract_z
 _atom_site_occupancy
  Dy  Dy0  1  0.666577  0.333269  0.000000  1
  Dy  Dy1  1  0.333269  0.666577  0.000000  1
  Dy  Dy2  1  0.815246  0.815246  0.500000  1
  Ho  Ho3  1  0.184966  0.000105  0.500000  1
  Ho  Ho4  1  0.000105  0.184966  0.500000  1
  Co  Co5  1  0.874296  0.357871  0.500000  1
  Co  Co6  1  0.642030  0.516226  0.500000  1
  Co  Co7  1  0.483487  0.125741  0.500000  1
  Co  Co8  1  0.357871  0.874296  0.500000  1
  Co  Co9  1  0.516226  0.642030  0.500000  1
  Co  Co10  1  0.125741  0.483487  0.500000  1
  Co  Co11  1  0.804187  0.180002  0.000000  1
  Co  Co12  1  0.820220  0.624061  0.000000  1
  Co  Co13  1  0.375632  0.195788  0.000000  1
  Co  Co14  1  0.180002  0.804187  0.000000  1
  Co  Co15  1  0.624061  0.820220  0.000000  1
  Co  Co16  1  0.195788  0.375632  0.000000  1
  Co  Co17  1  0.282471  0.282471  0.500000  1
  Co  Co18  1  0.717433  0.000216  0.500000  1
  Co  Co19  1  0.000216  0.717433  0.500000  1
  Co  Co20  1  0.000218  0.000218  0.000000  1
  P  P21  1  0.687200  0.165936  0.500000  1
  P  P22  1  0.834173  0.521398  0.500000  1
  P  P23  1  0.478501  0.312639  0.500000  1
  P  P24  1  0.165936  0.687200  0.500000  1
  P  P25  1  0.521398  0.834173  0.500000  1
  P  P26  1  0.312639  0.478501  0.500000  1
  P  P27  1  0.179786  0.179786  0.000000  1
  P  P28  1  0.820379  0.000389  0.000000  1
  P  P29  1  0.000389  0.820379  0.000000  1
  P  P30  1  0.636163  0.636163  0.000000  1
  P  P31  1  0.363503  0.000012  0.000000  1
  P  P32  1  0.000012  0.363503  0.000000  1
  Ru  Ru33  1  0.445727  0.445727  0.000000  1
  Ru  Ru34  1  0.554008  0.000139  0.000000  1
  Ru  Ru35  1  0.000139  0.554008  0.000000  1
