# generated using pymatgen
data_Ho2Tm5Lu3(CoSb2)2
_symmetry_space_group_name_H-M   'P 1'
_cell_length_a   7.72819200
_cell_length_b   8.72834547
_cell_length_c   12.03371865
_cell_angle_alpha   90.03758527
_cell_angle_beta   90.00000000
_cell_angle_gamma   90.00000000
_symmetry_Int_Tables_number   1
_chemical_formula_structural   Ho2Tm5Lu3(CoSb2)2
_chemical_formula_sum   'Ho4 Tm10 Lu6 Co4 Sb8'
_cell_volume   811.72624967
_cell_formula_units_Z   2
loop_
 _symmetry_equiv_pos_site_id
 _symmetry_equiv_pos_as_xyz
  1  'x, y, z'
loop_
 _atom_site_type_symbol
 _atom_site_label
 _atom_site_symmetry_multiplicity
 _atom_site_fract_x
 _atom_site_fract_y
 _atom_site_fract_z
 _atom_site_occupancy
  Ho  Ho0  1  0.623171  0.750152  0.308136  1
  Ho  Ho1  1  0.123171  0.249848  0.191864  1
  Ho  Ho2  1  0.377404  0.249707  0.691801  1
  Ho  Ho3  1  0.877404  0.750293  0.808199  1
  Tm  Tm4  1  0.156046  0.750238  0.204014  1
  Tm  Tm5  1  0.656046  0.249762  0.295986  1
  Tm  Tm6  1  0.844068  0.249912  0.795674  1
  Tm  Tm7  1  0.344068  0.750088  0.704326  1
  Tm  Tm8  1  0.449178  0.750189  0.997724  1
  Tm  Tm9  1  0.949178  0.249811  0.502276  1
  Tm  Tm10  1  0.550045  0.249647  0.002149  1
  Tm  Tm11  1  0.050045  0.750353  0.497851  1
  Tm  Tm12  1  0.823594  0.536756  0.065448  1
  Tm  Tm13  1  0.323594  0.463244  0.434552  1
  Lu  Lu14  1  0.824920  0.963129  0.065305  1
  Lu  Lu15  1  0.324920  0.036871  0.434695  1
  Lu  Lu16  1  0.175409  0.463352  0.934470  1
  Lu  Lu17  1  0.675409  0.536648  0.565530  1
  Lu  Lu18  1  0.174970  0.036765  0.934580  1
  Lu  Lu19  1  0.674970  0.963235  0.565420  1
  Co  Co20  1  0.433173  0.750409  0.491386  1
  Co  Co21  1  0.933173  0.249591  0.008614  1
  Co  Co22  1  0.568039  0.249488  0.508903  1
  Co  Co23  1  0.068039  0.750512  0.991097  1
  Sb  Sb24  1  0.931596  0.991626  0.327901  1
  Sb  Sb25  1  0.431596  0.008374  0.172099  1
  Sb  Sb26  1  0.068593  0.491641  0.672072  1
  Sb  Sb27  1  0.568593  0.508359  0.827928  1
  Sb  Sb28  1  0.068506  0.008368  0.672064  1
  Sb  Sb29  1  0.568506  0.991632  0.827936  1
  Sb  Sb30  1  0.931289  0.508454  0.327913  1
  Sb  Sb31  1  0.431289  0.491546  0.172087  1
