# generated using pymatgen
data_Dy2ErHfMg2Rh3
_symmetry_space_group_name_H-M   'P 1'
_cell_length_a   7.23431700
_cell_length_b   7.33222406
_cell_length_c   4.14300800
_cell_angle_alpha   90.00000000
_cell_angle_beta   90.00000000
_cell_angle_gamma   119.55924775
_symmetry_Int_Tables_number   1
_chemical_formula_structural   Dy2ErHfMg2Rh3
_chemical_formula_sum   'Dy2 Er1 Hf1 Mg2 Rh3'
_cell_volume   191.15753483
_cell_formula_units_Z   1
loop_
 _symmetry_equiv_pos_site_id
 _symmetry_equiv_pos_as_xyz
  1  'x, y, z'
loop_
 _atom_site_type_symbol
 _atom_site_label
 _atom_site_symmetry_multiplicity
 _atom_site_fract_x
 _atom_site_fract_y
 _atom_site_fract_z
 _atom_site_occupancy
  Dy  Dy0  1  0.991610  0.578362  0.500000  1
  Dy  Dy1  1  0.413247  0.421638  0.500000  1
  Er  Er2  1  0.602280  0.000000  0.500000  1
  Hf  Hf3  1  0.249297  0.000000  0.000000  1
  Mg  Mg4  1  0.751472  0.750828  0.000000  1
  Mg  Mg5  1  0.000644  0.249172  0.000000  1
  Rh  Rh6  1  0.644240  0.317838  0.000000  1
  Rh  Rh7  1  0.326400  0.682162  0.000000  1
  Rh  Rh8  1  0.020809  0.000000  0.500000  1
