# generated using pymatgen
data_Sm6RuCl10
_symmetry_space_group_name_H-M   'P 1'
_cell_length_a   7.32174364
_cell_length_b   8.91408646
_cell_length_c   9.25282017
_cell_angle_alpha   109.15585481
_cell_angle_beta   96.64499843
_cell_angle_gamma   106.67651618
_symmetry_Int_Tables_number   1
_chemical_formula_structural   Sm6RuCl10
_chemical_formula_sum   'Sm6 Ru1 Cl10'
_cell_volume   531.56658147
_cell_formula_units_Z   1
loop_
 _symmetry_equiv_pos_site_id
 _symmetry_equiv_pos_as_xyz
  1  'x, y, z'
loop_
 _atom_site_type_symbol
 _atom_site_label
 _atom_site_symmetry_multiplicity
 _atom_site_fract_x
 _atom_site_fract_y
 _atom_site_fract_z
 _atom_site_occupancy
  Sm  Sm0  1  0.141926  0.060219  0.750110  1
  Sm  Sm1  1  0.622069  0.846616  0.801256  1
  Sm  Sm2  1  0.858074  0.939781  0.249890  1
  Sm  Sm3  1  0.029242  0.703546  0.906076  1
  Sm  Sm4  1  0.377931  0.153384  0.198744  1
  Sm  Sm5  1  0.970758  0.296454  0.093924  1
  Ru  Ru6  1  0.000000  0.000000  0.000000  1
  Cl  Cl7  1  0.202680  0.750969  0.656844  1
  Cl  Cl8  1  0.646964  0.537601  0.724723  1
  Cl  Cl9  1  0.239346  0.079089  0.448335  1
  Cl  Cl10  1  0.797320  0.249031  0.343156  1
  Cl  Cl11  1  0.554161  0.168854  0.925439  1
  Cl  Cl12  1  0.760654  0.920911  0.551665  1
  Cl  Cl13  1  0.910036  0.628280  0.162057  1
  Cl  Cl14  1  0.353036  0.462399  0.275277  1
  Cl  Cl15  1  0.089964  0.371720  0.837943  1
  Cl  Cl16  1  0.445839  0.831146  0.074561  1
