# generated using pymatgen
data_Ho4Ga17SiIr6
_symmetry_space_group_name_H-M   'P 1'
_cell_length_a   7.58016448
_cell_length_b   7.56308051
_cell_length_c   9.48118545
_cell_angle_alpha   90.07255695
_cell_angle_beta   89.76716733
_cell_angle_gamma   119.84256471
_symmetry_Int_Tables_number   1
_chemical_formula_structural   Ho4Ga17SiIr6
_chemical_formula_sum   'Ho4 Ga17 Si1 Ir6'
_cell_volume   471.46956847
_cell_formula_units_Z   1
loop_
 _symmetry_equiv_pos_site_id
 _symmetry_equiv_pos_as_xyz
  1  'x, y, z'
loop_
 _atom_site_type_symbol
 _atom_site_label
 _atom_site_symmetry_multiplicity
 _atom_site_fract_x
 _atom_site_fract_y
 _atom_site_fract_z
 _atom_site_occupancy
  Ho  Ho0  1  0.997443  0.664426  0.248032  1
  Ho  Ho1  1  0.002086  0.330402  0.751381  1
  Ho  Ho2  1  0.675823  0.004109  0.248144  1
  Ho  Ho3  1  0.329086  0.001798  0.749084  1
  Ga  Ga4  1  0.130469  0.129342  0.250793  1
  Ga  Ga5  1  0.871728  0.874016  0.750833  1
  Ga  Ga6  1  0.998533  0.670684  0.917149  1
  Ga  Ga7  1  0.000059  0.665306  0.580546  1
  Ga  Ga8  1  0.334171  0.997461  0.418541  1
  Ga  Ga9  1  0.000561  0.335099  0.420380  1
  Ga  Ga10  1  0.664824  0.000153  0.580628  1
  Ga  Ga11  1  0.657424  0.994531  0.917240  1
  Ga  Ga12  1  0.333763  0.997425  0.081756  1
  Ga  Ga13  1  0.332179  0.331304  0.564949  1
  Ga  Ga14  1  0.669567  0.670009  0.433840  1
  Ga  Ga15  1  0.668526  0.670203  0.068845  1
  Ga  Ga16  1  0.338151  0.332275  0.933446  1
  Ga  Ga17  1  0.341904  0.547855  0.251732  1
  Ga  Ga18  1  0.661065  0.451325  0.751187  1
  Ga  Ga19  1  0.547617  0.339523  0.250897  1
  Ga  Ga20  1  0.450967  0.658177  0.750526  1
  Si  Si21  1  0.999821  0.334696  0.072730  1
  Ir  Ir22  1  0.683798  0.329520  0.003500  1
  Ir  Ir23  1  0.312795  0.656508  0.001724  1
  Ir  Ir24  1  0.328228  0.671214  0.500760  1
  Ir  Ir25  1  0.671634  0.328236  0.500078  1
  Ir  Ir26  1  0.998060  0.014262  0.001388  1
  Ir  Ir27  1  0.999721  0.000139  0.499891  1
