# generated using pymatgen
data_Tm2Al9Ni2Os
_symmetry_space_group_name_H-M   'P 1'
_cell_length_a   7.43247539
_cell_length_b   7.43246635
_cell_length_c   9.30343500
_cell_angle_alpha   90.00000000
_cell_angle_beta   90.00000000
_cell_angle_gamma   118.57512886
_symmetry_Int_Tables_number   1
_chemical_formula_structural   Tm2Al9Ni2Os
_chemical_formula_sum   'Tm4 Al18 Ni4 Os2'
_cell_volume   451.33455485
_cell_formula_units_Z   2
loop_
 _symmetry_equiv_pos_site_id
 _symmetry_equiv_pos_as_xyz
  1  'x, y, z'
loop_
 _atom_site_type_symbol
 _atom_site_label
 _atom_site_symmetry_multiplicity
 _atom_site_fract_x
 _atom_site_fract_y
 _atom_site_fract_z
 _atom_site_occupancy
  Tm  Tm0  1  0.994147  0.681258  0.250000  1
  Tm  Tm1  1  0.005853  0.318742  0.750000  1
  Tm  Tm2  1  0.681258  0.994146  0.250000  1
  Tm  Tm3  1  0.318742  0.005854  0.750000  1
  Al  Al4  1  0.136908  0.136908  0.250000  1
  Al  Al5  1  0.863092  0.863092  0.750000  1
  Al  Al6  1  0.998567  0.340115  0.074322  1
  Al  Al7  1  0.001433  0.659885  0.925678  1
  Al  Al8  1  0.001433  0.659885  0.574322  1
  Al  Al9  1  0.340115  0.998567  0.425678  1
  Al  Al10  1  0.998567  0.340115  0.425678  1
  Al  Al11  1  0.659885  0.001433  0.574322  1
  Al  Al12  1  0.659885  0.001433  0.925678  1
  Al  Al13  1  0.340115  0.998567  0.074322  1
  Al  Al14  1  0.334920  0.334920  0.548042  1
  Al  Al15  1  0.665080  0.665080  0.451958  1
  Al  Al16  1  0.665080  0.665080  0.048042  1
  Al  Al17  1  0.334920  0.334920  0.951958  1
  Al  Al18  1  0.343313  0.560262  0.250000  1
  Al  Al19  1  0.656687  0.439738  0.750000  1
  Al  Al20  1  0.560262  0.343313  0.250000  1
  Al  Al21  1  0.439738  0.656687  0.750000  1
  Ni  Ni22  1  0.671184  0.328816  0.000000  1
  Ni  Ni23  1  0.328816  0.671184  0.000000  1
  Ni  Ni24  1  0.328816  0.671184  0.500000  1
  Ni  Ni25  1  0.671184  0.328816  0.500000  1
  Os  Os26  1  0.000000  0.000000  0.000000  1
  Os  Os27  1  0.000000  0.000000  0.500000  1
