# generated using pymatgen
data_Sc12Mn2FeSi12Pt
_symmetry_space_group_name_H-M   'P 1'
_cell_length_a   3.98912100
_cell_length_b   10.19912504
_cell_length_c   11.68536268
_cell_angle_alpha   89.89776250
_cell_angle_beta   89.99996600
_cell_angle_gamma   89.99994879
_symmetry_Int_Tables_number   1
_chemical_formula_structural   Sc12Mn2FeSi12Pt
_chemical_formula_sum   'Sc12 Mn2 Fe1 Si12 Pt1'
_cell_volume   475.42457889
_cell_formula_units_Z   1
loop_
 _symmetry_equiv_pos_site_id
 _symmetry_equiv_pos_as_xyz
  1  'x, y, z'
loop_
 _atom_site_type_symbol
 _atom_site_label
 _atom_site_symmetry_multiplicity
 _atom_site_fract_x
 _atom_site_fract_y
 _atom_site_fract_z
 _atom_site_occupancy
  Sc  Sc0  1  0.250001  0.879490  0.022714  1
  Sc  Sc1  1  0.250000  0.618870  0.523726  1
  Sc  Sc2  1  0.749999  0.125327  0.979965  1
  Sc  Sc3  1  0.750002  0.379199  0.476906  1
  Sc  Sc4  1  0.249999  0.921562  0.603744  1
  Sc  Sc5  1  0.250000  0.578845  0.101615  1
  Sc  Sc6  1  0.750001  0.078041  0.399551  1
  Sc  Sc7  1  0.750000  0.422520  0.899302  1
  Sc  Sc8  1  0.250001  0.652343  0.797658  1
  Sc  Sc9  1  0.250000  0.838083  0.299753  1
  Sc  Sc10  1  0.750000  0.339402  0.199946  1
  Sc  Sc11  1  0.749998  0.166206  0.698933  1
  Mn  Mn12  1  0.249999  0.112741  0.176262  1
  Mn  Mn13  1  0.750000  0.612877  0.324072  1
  Fe  Fe14  1  0.250000  0.390111  0.675786  1
  Si  Si15  1  0.250000  0.021965  0.824206  1
  Si  Si16  1  0.250000  0.485601  0.322698  1
  Si  Si17  1  0.750000  0.985233  0.177495  1
  Si  Si18  1  0.750000  0.503003  0.678892  1
  Si  Si19  1  0.249999  0.257921  0.837114  1
  Si  Si20  1  0.250000  0.246636  0.341787  1
  Si  Si21  1  0.750000  0.746842  0.158656  1
  Si  Si22  1  0.750000  0.745304  0.655520  1
  Si  Si23  1  0.250000  0.201203  0.546297  1
  Si  Si24  1  0.250000  0.306457  0.043179  1
  Si  Si25  1  0.750000  0.805098  0.455891  1
  Si  Si26  1  0.750000  0.690935  0.956498  1
  Pt  Pt27  1  0.750001  0.888185  0.821832  1
