# generated using pymatgen
data_Nb5Tl2WS12
_symmetry_space_group_name_H-M   'P 1'
_cell_length_a   5.68086800
_cell_length_b   5.68086750
_cell_length_c   15.63815900
_cell_angle_alpha   90.00000000
_cell_angle_beta   90.00000000
_cell_angle_gamma   119.99999128
_symmetry_Int_Tables_number   1
_chemical_formula_structural   Nb5Tl2WS12
_chemical_formula_sum   'Nb5 Tl2 W1 S12'
_cell_volume   437.06462006
_cell_formula_units_Z   1
loop_
 _symmetry_equiv_pos_site_id
 _symmetry_equiv_pos_as_xyz
  1  'x, y, z'
loop_
 _atom_site_type_symbol
 _atom_site_label
 _atom_site_symmetry_multiplicity
 _atom_site_fract_x
 _atom_site_fract_y
 _atom_site_fract_z
 _atom_site_occupancy
  Nb  Nb0  1  0.000000  0.000000  0.250000  1
  Nb  Nb1  1  0.333333  0.666667  0.250000  1
  Nb  Nb2  1  0.666667  0.333333  0.750000  1
  Nb  Nb3  1  0.666667  0.333333  0.250000  1
  Nb  Nb4  1  0.333333  0.666667  0.750000  1
  Tl  Tl5  1  0.000000  0.000000  0.001988  1
  Tl  Tl6  1  0.000000  0.000000  0.498012  1
  W  W7  1  0.000000  0.000000  0.750000  1
  S  S8  1  0.336308  0.000000  0.148835  1
  S  S9  1  0.000000  0.336308  0.148835  1
  S  S10  1  0.663692  0.663692  0.148835  1
  S  S11  1  0.328360  0.328360  0.650525  1
  S  S12  1  0.663692  0.663692  0.351165  1
  S  S13  1  0.671640  0.000000  0.650525  1
  S  S14  1  0.000000  0.671640  0.650525  1
  S  S15  1  0.000000  0.671640  0.849475  1
  S  S16  1  0.328360  0.328360  0.849475  1
  S  S17  1  0.000000  0.336308  0.351165  1
  S  S18  1  0.336308  0.000000  0.351165  1
  S  S19  1  0.671640  0.000000  0.849475  1
