# generated using pymatgen
data_Sr2Tb2HgPb11
_symmetry_space_group_name_H-M   'P 1'
_cell_length_a   10.06485900
_cell_length_b   6.92922767
_cell_length_c   6.93184996
_cell_angle_alpha   89.65411897
_cell_angle_beta   90.00000000
_cell_angle_gamma   90.00000000
_symmetry_Int_Tables_number   1
_chemical_formula_structural   Sr2Tb2HgPb11
_chemical_formula_sum   'Sr2 Tb2 Hg1 Pb11'
_cell_volume   483.43018789
_cell_formula_units_Z   1
loop_
 _symmetry_equiv_pos_site_id
 _symmetry_equiv_pos_as_xyz
  1  'x, y, z'
loop_
 _atom_site_type_symbol
 _atom_site_label
 _atom_site_symmetry_multiplicity
 _atom_site_fract_x
 _atom_site_fract_y
 _atom_site_fract_z
 _atom_site_occupancy
  Sr  Sr0  1  0.750000  0.995462  0.999328  1
  Sr  Sr1  1  0.750000  0.507523  0.498320  1
  Tb  Tb2  1  0.250000  0.007050  0.002500  1
  Tb  Tb3  1  0.250000  0.498675  0.504421  1
  Hg  Hg4  1  0.750000  0.494013  0.996934  1
  Pb  Pb5  1  0.005705  0.243348  0.742961  1
  Pb  Pb6  1  0.494877  0.252408  0.249106  1
  Pb  Pb7  1  0.492233  0.751223  0.250180  1
  Pb  Pb8  1  0.007025  0.746255  0.754473  1
  Pb  Pb9  1  0.007767  0.751223  0.250180  1
  Pb  Pb10  1  0.492975  0.746255  0.754473  1
  Pb  Pb11  1  0.494295  0.243348  0.742961  1
  Pb  Pb12  1  0.005123  0.252408  0.249106  1
  Pb  Pb13  1  0.250000  0.997744  0.502032  1
  Pb  Pb14  1  0.250000  0.506216  0.004084  1
  Pb  Pb15  1  0.750000  0.006847  0.498939  1
