# generated using pymatgen
data_Tb4Dy3Tm4In9Ni4
_symmetry_space_group_name_H-M   'P 1'
_cell_length_a   3.62265000
_cell_length_b   12.99411174
_cell_length_c   12.99411006
_cell_angle_alpha   112.32376360
_cell_angle_beta   90.00000000
_cell_angle_gamma   90.00000000
_symmetry_Int_Tables_number   1
_chemical_formula_structural   Tb4Dy3Tm4In9Ni4
_chemical_formula_sum   'Tb4 Dy3 Tm4 In9 Ni4'
_cell_volume   565.82975611
_cell_formula_units_Z   1
loop_
 _symmetry_equiv_pos_site_id
 _symmetry_equiv_pos_as_xyz
  1  'x, y, z'
loop_
 _atom_site_type_symbol
 _atom_site_label
 _atom_site_symmetry_multiplicity
 _atom_site_fract_x
 _atom_site_fract_y
 _atom_site_fract_z
 _atom_site_occupancy
  Tb  Tb0  1  0.000000  0.159596  0.840404  1
  Tb  Tb1  1  0.000000  0.840332  0.159668  1
  Tb  Tb2  1  0.000000  0.373265  0.626735  1
  Tb  Tb3  1  0.000000  0.000031  0.999969  1
  Dy  Dy4  1  0.000000  0.626879  0.373121  1
  Dy  Dy5  1  0.000000  0.687803  0.687669  1
  Dy  Dy6  1  0.000000  0.312331  0.312197  1
  Tm  Tm7  1  0.000000  0.918114  0.581829  1
  Tm  Tm8  1  0.000000  0.081375  0.417962  1
  Tm  Tm9  1  0.000000  0.582038  0.918625  1
  Tm  Tm10  1  0.000000  0.418171  0.081886  1
  In  In11  1  0.500000  0.154980  0.630906  1
  In  In12  1  0.500000  0.844344  0.369031  1
  In  In13  1  0.500000  0.630969  0.155656  1
  In  In14  1  0.500000  0.369094  0.845020  1
  In  In15  1  0.500000  0.921666  0.778383  1
  In  In16  1  0.500000  0.078238  0.221525  1
  In  In17  1  0.500000  0.778475  0.921762  1
  In  In18  1  0.500000  0.221617  0.078334  1
  In  In19  1  0.500000  0.500488  0.499512  1
  Ni  Ni20  1  0.500000  0.753374  0.549662  1
  Ni  Ni21  1  0.500000  0.245649  0.449168  1
  Ni  Ni22  1  0.500000  0.550832  0.754351  1
  Ni  Ni23  1  0.500000  0.450338  0.246626  1
