# generated using pymatgen
data_Nd16Hg4OsPt3
_symmetry_space_group_name_H-M   'P 1'
_cell_length_a   10.00896806
_cell_length_b   10.00896824
_cell_length_c   10.00896750
_cell_angle_alpha   59.65075037
_cell_angle_beta   59.65074947
_cell_angle_gamma   59.65075208
_symmetry_Int_Tables_number   1
_chemical_formula_structural   Nd16Hg4OsPt3
_chemical_formula_sum   'Nd16 Hg4 Os1 Pt3'
_cell_volume   703.38447170
_cell_formula_units_Z   1
loop_
 _symmetry_equiv_pos_site_id
 _symmetry_equiv_pos_as_xyz
  1  'x, y, z'
loop_
 _atom_site_type_symbol
 _atom_site_label
 _atom_site_symmetry_multiplicity
 _atom_site_fract_x
 _atom_site_fract_y
 _atom_site_fract_z
 _atom_site_occupancy
  Nd  Nd0  1  0.602636  0.602636  0.602636  1
  Nd  Nd1  1  0.599554  0.599554  0.197360  1
  Nd  Nd2  1  0.599554  0.197360  0.599554  1
  Nd  Nd3  1  0.197360  0.599554  0.599554  1
  Nd  Nd4  1  0.065731  0.439156  0.439156  1
  Nd  Nd5  1  0.438559  0.058221  0.058221  1
  Nd  Nd6  1  0.439156  0.065731  0.439156  1
  Nd  Nd7  1  0.058221  0.438559  0.058221  1
  Nd  Nd8  1  0.439156  0.439156  0.065731  1
  Nd  Nd9  1  0.058221  0.058221  0.438559  1
  Nd  Nd10  1  0.188375  0.813393  0.813393  1
  Nd  Nd11  1  0.806523  0.188540  0.188540  1
  Nd  Nd12  1  0.813393  0.188375  0.813393  1
  Nd  Nd13  1  0.188540  0.806523  0.188540  1
  Nd  Nd14  1  0.813393  0.813393  0.188375  1
  Nd  Nd15  1  0.188540  0.188540  0.806523  1
  Hg  Hg16  1  0.833794  0.833794  0.833794  1
  Hg  Hg17  1  0.834524  0.834524  0.495748  1
  Hg  Hg18  1  0.834524  0.495748  0.834524  1
  Hg  Hg19  1  0.495748  0.834524  0.834524  1
  Os  Os20  1  0.393219  0.393219  0.393219  1
  Pt  Pt21  1  0.394774  0.394774  0.821732  1
  Pt  Pt22  1  0.394774  0.821732  0.394774  1
  Pt  Pt23  1  0.821732  0.394774  0.394774  1
