# generated using pymatgen
data_CaPrGa12Cu
_symmetry_space_group_name_H-M   'P 1'
_cell_length_a   6.17198800
_cell_length_b   6.17198800
_cell_length_c   15.32790700
_cell_angle_alpha   90.00000000
_cell_angle_beta   90.00000000
_cell_angle_gamma   90.00000000
_symmetry_Int_Tables_number   1
_chemical_formula_structural   CaPrGa12Cu
_chemical_formula_sum   'Ca2 Pr2 Ga24 Cu2'
_cell_volume   583.89264236
_cell_formula_units_Z   2
loop_
 _symmetry_equiv_pos_site_id
 _symmetry_equiv_pos_as_xyz
  1  'x, y, z'
loop_
 _atom_site_type_symbol
 _atom_site_label
 _atom_site_symmetry_multiplicity
 _atom_site_fract_x
 _atom_site_fract_y
 _atom_site_fract_z
 _atom_site_occupancy
  Ca  Ca0  1  0.000000  0.500000  0.244056  1
  Ca  Ca1  1  0.500000  0.000000  0.244056  1
  Pr  Pr2  1  0.000000  0.500000  0.756050  1
  Pr  Pr3  1  0.500000  0.000000  0.756050  1
  Ga  Ga4  1  0.670894  0.170894  0.430023  1
  Ga  Ga5  1  0.669253  0.830747  0.569182  1
  Ga  Ga6  1  0.169253  0.669253  0.569182  1
  Ga  Ga7  1  0.830747  0.330747  0.569182  1
  Ga  Ga8  1  0.500000  0.500000  0.181102  1
  Ga  Ga9  1  0.500000  0.500000  0.818953  1
  Ga  Ga10  1  0.000000  0.000000  0.818953  1
  Ga  Ga11  1  0.000000  0.000000  0.181102  1
  Ga  Ga12  1  0.500000  0.500000  0.343002  1
  Ga  Ga13  1  0.500000  0.500000  0.656891  1
  Ga  Ga14  1  0.000000  0.000000  0.656891  1
  Ga  Ga15  1  0.000000  0.000000  0.343002  1
  Ga  Ga16  1  0.250132  0.750132  0.915710  1
  Ga  Ga17  1  0.249868  0.250132  0.915710  1
  Ga  Ga18  1  0.750132  0.749868  0.915710  1
  Ga  Ga19  1  0.249895  0.250105  0.085842  1
  Ga  Ga20  1  0.750105  0.749895  0.085842  1
  Ga  Ga21  1  0.749868  0.249868  0.915710  1
  Ga  Ga22  1  0.749895  0.249895  0.085842  1
  Ga  Ga23  1  0.250105  0.750105  0.085842  1
  Ga  Ga24  1  0.329106  0.829106  0.430023  1
  Ga  Ga25  1  0.170894  0.329106  0.430023  1
  Ga  Ga26  1  0.829106  0.670894  0.430023  1
  Ga  Ga27  1  0.330747  0.169253  0.569182  1
  Cu  Cu28  1  0.500000  0.000000  0.998435  1
  Cu  Cu29  1  0.000000  0.500000  0.998435  1
