# generated using pymatgen
data_Pr2Nd10Co2I17
_symmetry_space_group_name_H-M   'P 1'
_cell_length_a   9.99830897
_cell_length_b   11.98336483
_cell_length_c   11.96781793
_cell_angle_alpha   93.13282677
_cell_angle_beta   104.54808526
_cell_angle_gamma   114.92278287
_symmetry_Int_Tables_number   1
_chemical_formula_structural   Pr2Nd10Co2I17
_chemical_formula_sum   'Pr2 Nd10 Co2 I17'
_cell_volume   1237.46139205
_cell_formula_units_Z   1
loop_
 _symmetry_equiv_pos_site_id
 _symmetry_equiv_pos_as_xyz
  1  'x, y, z'
loop_
 _atom_site_type_symbol
 _atom_site_label
 _atom_site_symmetry_multiplicity
 _atom_site_fract_x
 _atom_site_fract_y
 _atom_site_fract_z
 _atom_site_occupancy
  Pr  Pr0  1  0.056472  0.509271  0.322165  1
  Pr  Pr1  1  0.990640  0.810534  0.582678  1
  Nd  Nd2  1  0.645969  0.239445  0.281597  1
  Nd  Nd3  1  0.008403  0.189430  0.416144  1
  Nd  Nd4  1  0.215126  0.665882  0.987082  1
  Nd  Nd5  1  0.261096  0.982040  0.892944  1
  Nd  Nd6  1  0.353802  0.759988  0.718477  1
  Nd  Nd7  1  0.944445  0.491735  0.678700  1
  Nd  Nd8  1  0.739084  0.017980  0.107206  1
  Nd  Nd9  1  0.149510  0.287926  0.149929  1
  Nd  Nd10  1  0.784690  0.333707  0.012757  1
  Nd  Nd11  1  0.850382  0.711681  0.850118  1
  Co  Co12  1  0.102744  0.737668  0.784766  1
  Co  Co13  1  0.897062  0.261691  0.215374  1
  I  I14  1  0.779991  0.527516  0.417498  1
  I  I15  1  0.639098  0.416652  0.760163  1
  I  I16  1  0.842279  0.894439  0.324452  1
  I  I17  1  0.326509  0.212518  0.369192  1
  I  I18  1  0.158247  0.107077  0.675548  1
  I  I19  1  0.590046  0.055455  0.839642  1
  I  I20  1  0.754674  0.184815  0.539554  1
  I  I21  1  0.550002  0.708262  0.955033  1
  I  I22  1  0.362080  0.583382  0.239226  1
  I  I23  1  0.218656  0.471063  0.583381  1
  I  I24  1  0.057251  0.361179  0.891424  1
  I  I25  1  0.450063  0.291784  0.044996  1
  I  I26  1  0.000004  0.999933  0.999937  1
  I  I27  1  0.247293  0.816173  0.460565  1
  I  I28  1  0.409844  0.944449  0.160324  1
  I  I29  1  0.672286  0.787308  0.631194  1
  I  I30  1  0.942252  0.639017  0.107932  1
