# generated using pymatgen
data_Tm5Lu11MgCo4Ag3
_symmetry_space_group_name_H-M   'P 1'
_cell_length_a   9.26202339
_cell_length_b   9.26632113
_cell_length_c   9.26632108
_cell_angle_alpha   59.99243580
_cell_angle_beta   59.96974494
_cell_angle_gamma   59.96974024
_symmetry_Int_Tables_number   1
_chemical_formula_structural   Tm5Lu11MgCo4Ag3
_chemical_formula_sum   'Tm5 Lu11 Mg1 Co4 Ag3'
_cell_volume   562.05910093
_cell_formula_units_Z   1
loop_
 _symmetry_equiv_pos_site_id
 _symmetry_equiv_pos_as_xyz
  1  'x, y, z'
loop_
 _atom_site_type_symbol
 _atom_site_label
 _atom_site_symmetry_multiplicity
 _atom_site_fract_x
 _atom_site_fract_y
 _atom_site_fract_z
 _atom_site_occupancy
  Tm  Tm0  1  0.561580  0.937531  0.937531  1
  Tm  Tm1  1  0.561747  0.937361  0.563346  1
  Tm  Tm2  1  0.935468  0.562431  0.939525  1
  Tm  Tm3  1  0.561747  0.563346  0.937361  1
  Tm  Tm4  1  0.935468  0.939525  0.562431  1
  Lu  Lu5  1  0.346148  0.345291  0.345291  1
  Lu  Lu6  1  0.346224  0.345204  0.963405  1
  Lu  Lu7  1  0.346224  0.963405  0.345204  1
  Lu  Lu8  1  0.952920  0.349126  0.349126  1
  Lu  Lu9  1  0.809974  0.188886  0.188886  1
  Lu  Lu10  1  0.185507  0.813985  0.813985  1
  Lu  Lu11  1  0.185447  0.813880  0.186663  1
  Lu  Lu12  1  0.810004  0.189011  0.812165  1
  Lu  Lu13  1  0.185447  0.186663  0.813880  1
  Lu  Lu14  1  0.810004  0.812165  0.189011  1
  Lu  Lu15  1  0.935330  0.562444  0.562444  1
  Mg  Mg16  1  0.287373  0.570856  0.570856  1
  Co  Co17  1  0.138633  0.142503  0.142503  1
  Co  Co18  1  0.138646  0.142587  0.576265  1
  Co  Co19  1  0.138646  0.576265  0.142587  1
  Co  Co20  1  0.576298  0.141240  0.141240  1
  Ag  Ag21  1  0.583843  0.582841  0.582841  1
  Ag  Ag22  1  0.583662  0.582872  0.250580  1
  Ag  Ag23  1  0.583662  0.250580  0.582872  1
