# generated using pymatgen
data_La3Pr7(Sn2Ru3)2
_symmetry_space_group_name_H-M   'P 1'
_cell_length_a   8.75629615
_cell_length_b   8.83579324
_cell_length_c   8.75629607
_cell_angle_alpha   109.08494588
_cell_angle_beta   109.20518516
_cell_angle_gamma   109.75754992
_symmetry_Int_Tables_number   1
_chemical_formula_structural   La3Pr7(Sn2Ru3)2
_chemical_formula_sum   'La3 Pr7 Sn4 Ru6'
_cell_volume   523.83909973
_cell_formula_units_Z   1
loop_
 _symmetry_equiv_pos_site_id
 _symmetry_equiv_pos_as_xyz
  1  'x, y, z'
loop_
 _atom_site_type_symbol
 _atom_site_label
 _atom_site_symmetry_multiplicity
 _atom_site_fract_x
 _atom_site_fract_y
 _atom_site_fract_z
 _atom_site_occupancy
  La  La0  1  0.250192  0.689173  0.442741  1
  La  La1  1  0.753569  0.810827  0.061018  1
  La  La2  1  0.440211  0.250000  0.690211  1
  Pr  Pr3  1  0.688497  0.437792  0.251928  1
  Pr  Pr4  1  0.062307  0.750000  0.812307  1
  Pr  Pr5  1  0.814136  0.062208  0.750705  1
  Pr  Pr6  1  0.210457  0.208831  0.206856  1
  Pr  Pr7  1  0.497419  0.995681  0.289698  1
  Pr  Pr8  1  0.294015  0.504319  0.001738  1
  Pr  Pr9  1  0.998024  0.291169  0.501626  1
  Sn  Sn10  1  0.595252  0.595494  0.593667  1
  Sn  Sn11  1  0.503036  0.003826  0.910669  1
  Sn  Sn12  1  0.906844  0.496174  0.999211  1
  Sn  Sn13  1  0.998173  0.904506  0.499758  1
  Ru  Ru14  1  0.254858  0.135050  0.873039  1
  Ru  Ru15  1  0.737988  0.364950  0.619807  1
  Ru  Ru16  1  0.881303  0.250000  0.131304  1
  Ru  Ru17  1  0.120624  0.870983  0.244086  1
  Ru  Ru18  1  0.619995  0.750000  0.369995  1
  Ru  Ru19  1  0.373101  0.629016  0.749640  1
