# generated using pymatgen
data_Er2Al9FePt2
_symmetry_space_group_name_H-M   'P 1'
_cell_length_a   7.53121509
_cell_length_b   7.53121501
_cell_length_c   9.41165900
_cell_angle_alpha   90.00000000
_cell_angle_beta   90.00000000
_cell_angle_gamma   119.40810011
_symmetry_Int_Tables_number   1
_chemical_formula_structural   Er2Al9FePt2
_chemical_formula_sum   'Er4 Al18 Fe2 Pt4'
_cell_volume   465.03584663
_cell_formula_units_Z   2
loop_
 _symmetry_equiv_pos_site_id
 _symmetry_equiv_pos_as_xyz
  1  'x, y, z'
loop_
 _atom_site_type_symbol
 _atom_site_label
 _atom_site_symmetry_multiplicity
 _atom_site_fract_x
 _atom_site_fract_y
 _atom_site_fract_z
 _atom_site_occupancy
  Er  Er0  1  0.995287  0.674108  0.250164  1
  Er  Er1  1  0.004713  0.325892  0.750164  1
  Er  Er2  1  0.674108  0.995287  0.249836  1
  Er  Er3  1  0.325892  0.004713  0.749836  1
  Al  Al4  1  0.136562  0.136562  0.250000  1
  Al  Al5  1  0.863438  0.863438  0.750000  1
  Al  Al6  1  0.342435  0.332946  0.551954  1
  Al  Al7  1  0.657565  0.667054  0.051954  1
  Al  Al8  1  0.332946  0.342435  0.948046  1
  Al  Al9  1  0.667054  0.657565  0.448046  1
  Al  Al10  1  0.340119  0.553614  0.241883  1
  Al  Al11  1  0.659881  0.446386  0.741883  1
  Al  Al12  1  0.553614  0.340119  0.258117  1
  Al  Al13  1  0.446386  0.659881  0.758117  1
  Al  Al14  1  0.009803  0.346507  0.074874  1
  Al  Al15  1  0.990197  0.653493  0.574874  1
  Al  Al16  1  0.346507  0.009803  0.425126  1
  Al  Al17  1  0.653493  0.990197  0.925126  1
  Al  Al18  1  0.012674  0.664899  0.924604  1
  Al  Al19  1  0.987326  0.335101  0.424604  1
  Al  Al20  1  0.664899  0.012674  0.575396  1
  Al  Al21  1  0.335101  0.987326  0.075396  1
  Fe  Fe22  1  0.329220  0.670780  0.000000  1
  Fe  Fe23  1  0.670780  0.329220  0.500000  1
  Pt  Pt24  1  0.000062  0.999938  0.000000  1
  Pt  Pt25  1  0.999938  0.000062  0.500000  1
  Pt  Pt26  1  0.672070  0.327930  0.000000  1
  Pt  Pt27  1  0.327930  0.672070  0.500000  1
