# generated using pymatgen
data_LaAl5Cu6
_symmetry_space_group_name_H-M   'P 1'
_cell_length_a   10.42772085
_cell_length_b   8.22745411
_cell_length_c   7.95188757
_cell_angle_alpha   80.27257777
_cell_angle_beta   51.03677997
_cell_angle_gamma   48.72382551
_symmetry_Int_Tables_number   1
_chemical_formula_structural   LaAl5Cu6
_chemical_formula_sum   'La2 Al10 Cu12'
_cell_volume   361.65765587
_cell_formula_units_Z   2
loop_
 _symmetry_equiv_pos_site_id
 _symmetry_equiv_pos_as_xyz
  1  'x, y, z'
loop_
 _atom_site_type_symbol
 _atom_site_label
 _atom_site_symmetry_multiplicity
 _atom_site_fract_x
 _atom_site_fract_y
 _atom_site_fract_z
 _atom_site_occupancy
  La  La0  1  0.000005  0.000955  0.999716  1
  La  La1  1  0.249995  0.249045  0.250284  1
  Al  Al2  1  0.498661  0.500937  0.501666  1
  Al  Al3  1  0.751339  0.749063  0.748334  1
  Al  Al4  1  0.760553  0.066387  0.827778  1
  Al  Al5  1  0.828413  0.344414  0.759289  1
  Al  Al6  1  0.067956  0.759787  0.344219  1
  Al  Al7  1  0.343290  0.828780  0.068559  1
  Al  Al8  1  0.489447  0.183613  0.422222  1
  Al  Al9  1  0.421587  0.905586  0.490711  1
  Al  Al10  1  0.182044  0.490213  0.905781  1
  Al  Al11  1  0.906710  0.421220  0.181441  1
  Cu  Cu12  1  0.625000  0.125000  0.625000  1
  Cu  Cu13  1  0.625000  0.625000  0.625000  1
  Cu  Cu14  1  0.125000  0.625000  0.625000  1
  Cu  Cu15  1  0.625000  0.625000  0.125000  1
  Cu  Cu16  1  0.487581  0.436879  0.184437  1
  Cu  Cu17  1  0.184220  0.891735  0.487352  1
  Cu  Cu18  1  0.436857  0.487781  0.891021  1
  Cu  Cu19  1  0.891618  0.183602  0.436427  1
  Cu  Cu20  1  0.762419  0.813121  0.065563  1
  Cu  Cu21  1  0.065780  0.358265  0.762648  1
  Cu  Cu22  1  0.813143  0.762219  0.358979  1
  Cu  Cu23  1  0.358382  0.066398  0.813573  1
