# generated using pymatgen
data_Ho2Tm2Al17GaIr6
_symmetry_space_group_name_H-M   'P 1'
_cell_length_a   7.53202944
_cell_length_b   7.53202248
_cell_length_c   9.46869800
_cell_angle_alpha   90.00000000
_cell_angle_beta   90.00000000
_cell_angle_gamma   119.41352647
_symmetry_Int_Tables_number   1
_chemical_formula_structural   Ho2Tm2Al17GaIr6
_chemical_formula_sum   'Ho2 Tm2 Al17 Ga1 Ir6'
_cell_volume   467.92995243
_cell_formula_units_Z   1
loop_
 _symmetry_equiv_pos_site_id
 _symmetry_equiv_pos_as_xyz
  1  'x, y, z'
loop_
 _atom_site_type_symbol
 _atom_site_label
 _atom_site_symmetry_multiplicity
 _atom_site_fract_x
 _atom_site_fract_y
 _atom_site_fract_z
 _atom_site_occupancy
  Ho  Ho0  1  0.993891  0.674985  0.250000  1
  Ho  Ho1  1  0.674986  0.993889  0.250000  1
  Tm  Tm2  1  0.004936  0.327305  0.750000  1
  Tm  Tm3  1  0.327306  0.004937  0.750000  1
  Al  Al4  1  0.870124  0.870124  0.750000  1
  Al  Al5  1  0.001330  0.335840  0.073215  1
  Al  Al6  1  0.998933  0.664193  0.924944  1
  Al  Al7  1  0.998933  0.664193  0.575056  1
  Al  Al8  1  0.335840  0.001330  0.426786  1
  Al  Al9  1  0.001330  0.335840  0.426785  1
  Al  Al10  1  0.664193  0.998933  0.575057  1
  Al  Al11  1  0.664193  0.998933  0.924943  1
  Al  Al12  1  0.335840  0.001330  0.073214  1
  Al  Al13  1  0.332897  0.332897  0.555020  1
  Al  Al14  1  0.665633  0.665633  0.448908  1
  Al  Al15  1  0.665633  0.665633  0.051092  1
  Al  Al16  1  0.332897  0.332897  0.944980  1
  Al  Al17  1  0.338675  0.549952  0.250000  1
  Al  Al18  1  0.660682  0.450345  0.750000  1
  Al  Al19  1  0.549952  0.338675  0.250000  1
  Al  Al20  1  0.450345  0.660682  0.750000  1
  Ga  Ga21  1  0.135260  0.135260  0.250000  1
  Ir  Ir22  1  0.671288  0.327220  0.999923  1
  Ir  Ir23  1  0.327219  0.671288  0.999923  1
  Ir  Ir24  1  0.327219  0.671288  0.500077  1
  Ir  Ir25  1  0.671288  0.327220  0.500077  1
  Ir  Ir26  1  0.999589  0.999589  0.997392  1
  Ir  Ir27  1  0.999589  0.999589  0.502608  1
