# generated using pymatgen
data_Ca4Dy2(CdIn)3
_symmetry_space_group_name_H-M   'P 1'
_cell_length_a   5.38286306
_cell_length_b   7.61795300
_cell_length_c   16.28630826
_cell_angle_alpha   90.00000000
_cell_angle_beta   90.00181790
_cell_angle_gamma   90.00000000
_symmetry_Int_Tables_number   1
_chemical_formula_structural   Ca4Dy2(CdIn)3
_chemical_formula_sum   'Ca8 Dy4 Cd6 In6'
_cell_volume   667.84283462
_cell_formula_units_Z   2
loop_
 _symmetry_equiv_pos_site_id
 _symmetry_equiv_pos_as_xyz
  1  'x, y, z'
loop_
 _atom_site_type_symbol
 _atom_site_label
 _atom_site_symmetry_multiplicity
 _atom_site_fract_x
 _atom_site_fract_y
 _atom_site_fract_z
 _atom_site_occupancy
  Ca  Ca0  1  0.499992  0.249267  0.333811  1
  Ca  Ca1  1  0.499992  0.750734  0.333811  1
  Ca  Ca2  1  0.999990  0.251371  0.499065  1
  Ca  Ca3  1  0.999990  0.748630  0.499067  1
  Ca  Ca4  1  0.499999  0.248623  0.667595  1
  Ca  Ca5  1  0.500003  0.751378  0.667595  1
  Ca  Ca6  1  0.000017  0.250737  0.832858  1
  Ca  Ca7  1  0.000019  0.749263  0.832859  1
  Dy  Dy8  1  0.499997  0.253013  0.999407  1
  Dy  Dy9  1  0.499997  0.746987  0.999407  1
  Dy  Dy10  1  0.999987  0.246997  0.167265  1
  Dy  Dy11  1  0.999988  0.753003  0.167265  1
  Cd  Cd12  1  0.999994  0.000000  0.001159  1
  Cd  Cd13  1  0.499982  0.500000  0.165521  1
  Cd  Cd14  1  0.999993  0.000000  0.330875  1
  Cd  Cd15  1  0.499991  0.500000  0.500245  1
  Cd  Cd16  1  0.000000  0.000001  0.666434  1
  Cd  Cd17  1  0.500012  0.500000  0.835746  1
  In  In18  1  0.999998  0.500000  0.003163  1
  In  In19  1  0.499997  0.000000  0.163507  1
  In  In20  1  0.999997  0.500000  0.326568  1
  In  In21  1  0.500007  0.000000  0.499464  1
  In  In22  1  0.999994  0.500000  0.667197  1
  In  In23  1  0.500062  0.000000  0.840119  1
