# generated using pymatgen
data_Y2Ga9PdRu2
_symmetry_space_group_name_H-M   'P 1'
_cell_length_a   7.55029865
_cell_length_b   7.55029800
_cell_length_c   9.66877000
_cell_angle_alpha   90.00000000
_cell_angle_beta   90.00000000
_cell_angle_gamma   119.36734452
_symmetry_Int_Tables_number   1
_chemical_formula_structural   Y2Ga9PdRu2
_chemical_formula_sum   'Y4 Ga18 Pd2 Ru4'
_cell_volume   480.35640333
_cell_formula_units_Z   2
loop_
 _symmetry_equiv_pos_site_id
 _symmetry_equiv_pos_as_xyz
  1  'x, y, z'
loop_
 _atom_site_type_symbol
 _atom_site_label
 _atom_site_symmetry_multiplicity
 _atom_site_fract_x
 _atom_site_fract_y
 _atom_site_fract_z
 _atom_site_occupancy
  Y  Y0  1  0.997173  0.673023  0.250000  1
  Y  Y1  1  0.002827  0.326977  0.750000  1
  Y  Y2  1  0.673023  0.997173  0.250000  1
  Y  Y3  1  0.326977  0.002827  0.750000  1
  Ga  Ga4  1  0.133720  0.133720  0.250000  1
  Ga  Ga5  1  0.866280  0.866280  0.750000  1
  Ga  Ga6  1  0.004407  0.340491  0.079266  1
  Ga  Ga7  1  0.995593  0.659509  0.920734  1
  Ga  Ga8  1  0.995593  0.659509  0.579266  1
  Ga  Ga9  1  0.340491  0.004407  0.420734  1
  Ga  Ga10  1  0.004407  0.340491  0.420734  1
  Ga  Ga11  1  0.659509  0.995593  0.579266  1
  Ga  Ga12  1  0.659509  0.995593  0.920734  1
  Ga  Ga13  1  0.340491  0.004407  0.079266  1
  Ga  Ga14  1  0.342299  0.342299  0.564696  1
  Ga  Ga15  1  0.657701  0.657701  0.435304  1
  Ga  Ga16  1  0.657701  0.657701  0.064696  1
  Ga  Ga17  1  0.342299  0.342299  0.935304  1
  Ga  Ga18  1  0.335508  0.550961  0.250000  1
  Ga  Ga19  1  0.664492  0.449039  0.750000  1
  Ga  Ga20  1  0.550961  0.335508  0.250000  1
  Ga  Ga21  1  0.449039  0.664492  0.750000  1
  Pd  Pd22  1  0.000000  0.000000  0.000000  1
  Pd  Pd23  1  0.000000  0.000000  0.500000  1
  Ru  Ru24  1  0.674131  0.325869  0.000000  1
  Ru  Ru25  1  0.325869  0.674131  0.000000  1
  Ru  Ru26  1  0.325869  0.674131  0.500000  1
  Ru  Ru27  1  0.674131  0.325869  0.500000  1
