# generated using pymatgen
data_TiNb9(CoB)10
_symmetry_space_group_name_H-M   'P 1'
_cell_length_a   3.27885800
_cell_length_b   5.92620563
_cell_length_c   17.02236421
_cell_angle_alpha   90.14468767
_cell_angle_beta   90.00000000
_cell_angle_gamma   90.00000000
_symmetry_Int_Tables_number   1
_chemical_formula_structural   TiNb9(CoB)10
_chemical_formula_sum   'Ti1 Nb9 Co10 B10'
_cell_volume   330.76368322
_cell_formula_units_Z   1
loop_
 _symmetry_equiv_pos_site_id
 _symmetry_equiv_pos_as_xyz
  1  'x, y, z'
loop_
 _atom_site_type_symbol
 _atom_site_label
 _atom_site_symmetry_multiplicity
 _atom_site_fract_x
 _atom_site_fract_y
 _atom_site_fract_z
 _atom_site_occupancy
  Ti  Ti0  1  0.500000  0.021552  0.874344  1
  Nb  Nb1  1  0.000000  0.472665  0.320464  1
  Nb  Nb2  1  0.000000  0.473637  0.679921  1
  Nb  Nb3  1  0.500000  0.526476  0.178555  1
  Nb  Nb4  1  0.500000  0.527445  0.821665  1
  Nb  Nb5  1  0.000000  0.977825  0.375327  1
  Nb  Nb6  1  0.000000  0.977745  0.625426  1
  Nb  Nb7  1  0.500000  0.022526  0.123704  1
  Nb  Nb8  1  0.000000  0.353743  0.500424  1
  Nb  Nb9  1  0.500000  0.644721  0.998666  1
  Co  Co10  1  0.000000  0.856601  0.225943  1
  Co  Co11  1  0.000000  0.859396  0.776762  1
  Co  Co12  1  0.500000  0.143568  0.273193  1
  Co  Co13  1  0.500000  0.145269  0.727663  1
  Co  Co14  1  0.000000  0.349070  0.070129  1
  Co  Co15  1  0.000000  0.345090  0.928009  1
  Co  Co16  1  0.500000  0.650410  0.428886  1
  Co  Co17  1  0.500000  0.651529  0.571343  1
  Co  Co18  1  0.000000  0.993424  0.998428  1
  Co  Co19  1  0.500000  0.004438  0.500390  1
  B  B20  1  0.000000  0.229010  0.202370  1
  B  B21  1  0.000000  0.228918  0.799057  1
  B  B22  1  0.500000  0.770781  0.296781  1
  B  B23  1  0.500000  0.773328  0.704483  1
  B  B24  1  0.000000  0.728613  0.100324  1
  B  B25  1  0.000000  0.734317  0.898569  1
  B  B26  1  0.500000  0.270835  0.398946  1
  B  B27  1  0.500000  0.270751  0.601875  1
  B  B28  1  0.000000  0.765308  0.500155  1
  B  B29  1  0.500000  0.231009  0.998196  1
