# generated using pymatgen
data_Ta9Al4Ge
_symmetry_space_group_name_H-M   'P 1'
_cell_length_a   9.93542677
_cell_length_b   9.93542921
_cell_length_c   9.93542734
_cell_angle_alpha   93.88171485
_cell_angle_beta   93.88167643
_cell_angle_gamma   149.83782048
_symmetry_Int_Tables_number   1
_chemical_formula_structural   Ta9Al4Ge
_chemical_formula_sum   'Ta18 Al8 Ge2'
_cell_volume   475.80681737
_cell_formula_units_Z   2
loop_
 _symmetry_equiv_pos_site_id
 _symmetry_equiv_pos_as_xyz
  1  'x, y, z'
loop_
 _atom_site_type_symbol
 _atom_site_label
 _atom_site_symmetry_multiplicity
 _atom_site_fract_x
 _atom_site_fract_y
 _atom_site_fract_z
 _atom_site_occupancy
  Ta  Ta0  1  0.564000  0.791191  0.355190  1
  Ta  Ta1  1  0.084397  0.156951  0.241348  1
  Ta  Ta2  1  0.584397  0.343049  0.927445  1
  Ta  Ta3  1  0.656949  0.584397  0.241348  1
  Ta  Ta4  1  0.343051  0.415603  0.758652  1
  Ta  Ta5  1  0.791191  0.436001  0.227191  1
  Ta  Ta6  1  0.415603  0.656951  0.072555  1
  Ta  Ta7  1  0.156952  0.915603  0.072553  1
  Ta  Ta8  1  0.708810  0.936001  0.644810  1
  Ta  Ta9  1  0.436000  0.208809  0.644810  1
  Ta  Ta10  1  0.915603  0.843049  0.758652  1
  Ta  Ta11  1  0.063999  0.708809  0.772809  1
  Ta  Ta12  1  0.208809  0.563999  0.772809  1
  Ta  Ta13  1  0.250000  0.750000  0.500000  1
  Ta  Ta14  1  0.291190  0.063999  0.355190  1
  Ta  Ta15  1  0.750000  0.250000  0.500000  1
  Ta  Ta16  1  0.843048  0.084397  0.927447  1
  Ta  Ta17  1  0.936001  0.291191  0.227191  1
  Al  Al18  1  0.372357  0.872357  0.244714  1
  Al  Al19  1  0.872357  0.627643  0.500000  1
  Al  Al20  1  0.500000  0.000000  0.000000  1
  Al  Al21  1  0.127643  0.372357  0.500000  1
  Al  Al22  1  0.627643  0.127643  0.755286  1
  Al  Al23  1  0.000000  0.500000  0.000000  1
  Al  Al24  1  0.500000  0.500000  0.500000  1
  Al  Al25  1  0.000000  0.000000  0.500000  1
  Ge  Ge26  1  0.749999  0.750000  0.999999  1
  Ge  Ge27  1  0.250001  0.250000  0.000001  1
