# generated using pymatgen
data_Ho4ReSi8Tc5
_symmetry_space_group_name_H-M   'P 1'
_cell_length_a   6.77784407
_cell_length_b   6.75905443
_cell_length_c   6.75972926
_cell_angle_alpha   69.97934085
_cell_angle_beta   89.99436189
_cell_angle_gamma   89.95785617
_symmetry_Int_Tables_number   1
_chemical_formula_structural   Ho4ReSi8Tc5
_chemical_formula_sum   'Ho4 Re1 Si8 Tc5'
_cell_volume   290.96147218
_cell_formula_units_Z   1
loop_
 _symmetry_equiv_pos_site_id
 _symmetry_equiv_pos_as_xyz
  1  'x, y, z'
loop_
 _atom_site_type_symbol
 _atom_site_label
 _atom_site_symmetry_multiplicity
 _atom_site_fract_x
 _atom_site_fract_y
 _atom_site_fract_z
 _atom_site_occupancy
  Ho  Ho0  1  0.667431  0.442276  0.190964  1
  Ho  Ho1  1  0.167703  0.057464  0.810054  1
  Ho  Ho2  1  0.331831  0.557781  0.808931  1
  Ho  Ho3  1  0.832102  0.941855  0.192817  1
  Re  Re4  1  0.349164  0.741453  0.239572  1
  Si  Si5  1  0.449584  0.122355  0.101812  1
  Si  Si6  1  0.947331  0.378821  0.895475  1
  Si  Si7  1  0.551788  0.876434  0.897612  1
  Si  Si8  1  0.049928  0.623457  0.101241  1
  Si  Si9  1  0.858840  0.133175  0.512406  1
  Si  Si10  1  0.359261  0.366664  0.488692  1
  Si  Si11  1  0.141835  0.869799  0.487755  1
  Si  Si12  1  0.642308  0.630165  0.515002  1
  Tc  Tc13  1  0.499330  0.998833  0.499905  1
  Tc  Tc14  1  0.999959  0.499273  0.499390  1
  Tc  Tc15  1  0.150788  0.244065  0.238117  1
  Tc  Tc16  1  0.648960  0.255541  0.760614  1
  Tc  Tc17  1  0.851859  0.760586  0.759641  1
