# generated using pymatgen
data_Ho8Cd3SnPd8
_symmetry_space_group_name_H-M   'P 1'
_cell_length_a   7.75330400
_cell_length_b   7.75330400
_cell_length_c   7.34903700
_cell_angle_alpha   90.00000000
_cell_angle_beta   90.00000000
_cell_angle_gamma   90.00000000
_symmetry_Int_Tables_number   1
_chemical_formula_structural   Ho8Cd3SnPd8
_chemical_formula_sum   'Ho8 Cd3 Sn1 Pd8'
_cell_volume   441.77797392
_cell_formula_units_Z   1
loop_
 _symmetry_equiv_pos_site_id
 _symmetry_equiv_pos_as_xyz
  1  'x, y, z'
loop_
 _atom_site_type_symbol
 _atom_site_label
 _atom_site_symmetry_multiplicity
 _atom_site_fract_x
 _atom_site_fract_y
 _atom_site_fract_z
 _atom_site_occupancy
  Ho  Ho0  1  0.843683  0.167829  0.499460  1
  Ho  Ho1  1  0.156317  0.832171  0.499460  1
  Ho  Ho2  1  0.332171  0.343683  0.000540  1
  Ho  Ho3  1  0.667829  0.656317  0.000540  1
  Ho  Ho4  1  0.685851  0.675289  0.499700  1
  Ho  Ho5  1  0.314149  0.324711  0.499700  1
  Ho  Ho6  1  0.175289  0.814149  0.000300  1
  Ho  Ho7  1  0.824711  0.185851  0.000300  1
  Cd  Cd8  1  0.500000  0.000000  0.250000  1
  Cd  Cd9  1  0.000000  0.500000  0.750000  1
  Cd  Cd10  1  0.500000  0.000000  0.750000  1
  Sn  Sn11  1  0.000000  0.500000  0.250000  1
  Pd  Pd12  1  0.624144  0.367672  0.270973  1
  Pd  Pd13  1  0.375856  0.632328  0.270973  1
  Pd  Pd14  1  0.132970  0.125626  0.770389  1
  Pd  Pd15  1  0.867030  0.874374  0.770389  1
  Pd  Pd16  1  0.374374  0.632970  0.729611  1
  Pd  Pd17  1  0.625626  0.367030  0.729611  1
  Pd  Pd18  1  0.867672  0.875856  0.229027  1
  Pd  Pd19  1  0.132328  0.124144  0.229027  1
