# generated using pymatgen
data_TaNbV2Si2(B2W3)2
_symmetry_space_group_name_H-M   'P 1'
_cell_length_a   6.99745958
_cell_length_b   6.99745916
_cell_length_c   6.97856300
_cell_angle_alpha   129.01295284
_cell_angle_beta   129.01295004
_cell_angle_gamma   74.95850741
_symmetry_Int_Tables_number   1
_chemical_formula_structural   TaNbV2Si2(B2W3)2
_chemical_formula_sum   'Ta1 Nb1 V2 Si2 B4 W6'
_cell_volume   200.93552179
_cell_formula_units_Z   1
loop_
 _symmetry_equiv_pos_site_id
 _symmetry_equiv_pos_as_xyz
  1  'x, y, z'
loop_
 _atom_site_type_symbol
 _atom_site_label
 _atom_site_symmetry_multiplicity
 _atom_site_fract_x
 _atom_site_fract_y
 _atom_site_fract_z
 _atom_site_occupancy
  Ta  Ta0  1  0.525641  0.693651  0.500611  1
  Nb  Nb1  1  0.307200  0.806203  0.832118  1
  V  V2  1  0.001095  0.000270  0.000957  1
  V  V3  1  0.500216  0.499214  0.999935  1
  Si  Si4  1  0.247395  0.249485  0.996922  1
  Si  Si5  1  0.756079  0.750228  0.006428  1
  B  B6  1  0.624186  0.125853  0.750059  1
  B  B7  1  0.124519  0.372717  0.497595  1
  B  B8  1  0.873949  0.624550  0.496510  1
  B  B9  1  0.374149  0.876738  0.253205  1
  W  W10  1  0.029177  0.529039  0.832610  1
  W  W11  1  0.697748  0.197339  0.168888  1
  W  W12  1  0.969212  0.467817  0.161877  1
  W  W13  1  0.194510  0.031875  0.501322  1
  W  W14  1  0.471666  0.303611  0.500759  1
  W  W15  1  0.803256  0.971408  0.500204  1
