# generated using pymatgen
data_MnSe27
_symmetry_space_group_name_H-M   'P 1'
_cell_length_a   15.26200358
_cell_length_b   15.26200274
_cell_length_c   15.26200332
_cell_angle_alpha   118.59434808
_cell_angle_beta   118.59434256
_cell_angle_gamma   118.59433839
_symmetry_Int_Tables_number   1
_chemical_formula_structural   MnSe27
_chemical_formula_sum   'Mn1 Se27'
_cell_volume   1087.31721346
_cell_formula_units_Z   1
loop_
 _symmetry_equiv_pos_site_id
 _symmetry_equiv_pos_as_xyz
  1  'x, y, z'
loop_
 _atom_site_type_symbol
 _atom_site_label
 _atom_site_symmetry_multiplicity
 _atom_site_fract_x
 _atom_site_fract_y
 _atom_site_fract_z
 _atom_site_occupancy
  Mn  Mn0  1  0.007106  0.007106  0.007106  1
  Se  Se1  1  0.005207  0.628453  0.628453  1
  Se  Se2  1  0.628453  0.628453  0.005207  1
  Se  Se3  1  0.628453  0.005207  0.628453  1
  Se  Se4  1  0.245236  0.879459  0.735892  1
  Se  Se5  1  0.879459  0.735892  0.245236  1
  Se  Se6  1  0.735892  0.245236  0.879459  1
  Se  Se7  1  0.879459  0.245236  0.735892  1
  Se  Se8  1  0.245236  0.735892  0.879459  1
  Se  Se9  1  0.735892  0.879459  0.245236  1
  Se  Se10  1  0.082563  0.626784  0.424926  1
  Se  Se11  1  0.626784  0.424926  0.082563  1
  Se  Se12  1  0.424926  0.082563  0.626784  1
  Se  Se13  1  0.626784  0.082563  0.424926  1
  Se  Se14  1  0.082563  0.424926  0.626784  1
  Se  Se15  1  0.424926  0.626784  0.082563  1
  Se  Se16  1  0.364823  0.749817  0.606199  1
  Se  Se17  1  0.749817  0.606199  0.364823  1
  Se  Se18  1  0.606199  0.364823  0.749817  1
  Se  Se19  1  0.749817  0.364823  0.606199  1
  Se  Se20  1  0.364823  0.606199  0.749817  1
  Se  Se21  1  0.606199  0.749817  0.364823  1
  Se  Se22  1  0.177242  0.439062  0.439062  1
  Se  Se23  1  0.439062  0.439062  0.177242  1
  Se  Se24  1  0.439062  0.177242  0.439062  1
  Se  Se25  1  0.188794  0.051161  0.051161  1
  Se  Se26  1  0.051161  0.051161  0.188794  1
  Se  Se27  1  0.051161  0.188794  0.051161  1
