# generated using pymatgen
data_ErLuSi5IrRh2
_symmetry_space_group_name_H-M   'P 1'
_cell_length_a   8.12591375
_cell_length_b   8.10968135
_cell_length_c   8.10968037
_cell_angle_alpha   138.60581385
_cell_angle_beta   104.38359689
_cell_angle_gamma   90.05214817
_symmetry_Int_Tables_number   1
_chemical_formula_structural   ErLuSi5IrRh2
_chemical_formula_sum   'Er2 Lu2 Si10 Ir2 Rh4'
_cell_volume   327.34205502
_cell_formula_units_Z   2
loop_
 _symmetry_equiv_pos_site_id
 _symmetry_equiv_pos_as_xyz
  1  'x, y, z'
loop_
 _atom_site_type_symbol
 _atom_site_label
 _atom_site_symmetry_multiplicity
 _atom_site_fract_x
 _atom_site_fract_y
 _atom_site_fract_z
 _atom_site_occupancy
  Er  Er0  1  0.096863  0.367729  0.729134  1
  Er  Er1  1  0.903137  0.632270  0.270866  1
  Lu  Lu2  1  0.638899  0.868371  0.770527  1
  Lu  Lu3  1  0.361101  0.131629  0.229473  1
  Si  Si4  1  0.276287  0.028740  0.751092  1
  Si  Si5  1  0.723713  0.971260  0.248908  1
  Si  Si6  1  0.723713  0.474805  0.752454  1
  Si  Si7  1  0.276287  0.525195  0.247546  1
  Si  Si8  1  0.450344  0.606039  0.844304  1
  Si  Si9  1  0.549656  0.393961  0.155696  1
  Si  Si10  1  0.762767  0.105744  0.657024  1
  Si  Si11  1  0.237233  0.894256  0.342976  1
  Si  Si12  1  0.000000  0.749294  0.749294  1
  Si  Si13  1  0.000000  0.250706  0.250706  1
  Ir  Ir14  1  0.254600  0.640809  0.613791  1
  Ir  Ir15  1  0.745400  0.359191  0.386209  1
  Rh  Rh16  1  0.026501  0.139020  0.887481  1
  Rh  Rh17  1  0.973499  0.860980  0.112519  1
  Rh  Rh18  1  0.500000  0.749754  0.249754  1
  Rh  Rh19  1  0.500000  0.250246  0.750246  1
