# generated using pymatgen
data_Ho4Er4B24Rh3W
_symmetry_space_group_name_H-M   'P 1'
_cell_length_a   3.64703100
_cell_length_b   9.15976818
_cell_length_c   11.52745900
_cell_angle_alpha   90.23989378
_cell_angle_beta   90.00000000
_cell_angle_gamma   90.00000000
_symmetry_Int_Tables_number   1
_chemical_formula_structural   Ho4Er4B24Rh3W
_chemical_formula_sum   'Ho4 Er4 B24 Rh3 W1'
_cell_volume   385.08244197
_cell_formula_units_Z   1
loop_
 _symmetry_equiv_pos_site_id
 _symmetry_equiv_pos_as_xyz
  1  'x, y, z'
loop_
 _atom_site_type_symbol
 _atom_site_label
 _atom_site_symmetry_multiplicity
 _atom_site_fract_x
 _atom_site_fract_y
 _atom_site_fract_z
 _atom_site_occupancy
  Ho  Ho0  1  0.500000  0.318784  0.410663  1
  Ho  Ho1  1  0.500000  0.676630  0.584964  1
  Ho  Ho2  1  0.500000  0.178767  0.916589  1
  Ho  Ho3  1  0.500000  0.823534  0.086686  1
  Er  Er4  1  0.500000  0.445716  0.125527  1
  Er  Er5  1  0.500000  0.557424  0.871440  1
  Er  Er6  1  0.500000  0.056037  0.629231  1
  Er  Er7  1  0.500000  0.944205  0.374665  1
  B  B8  1  0.000000  0.106522  0.472887  1
  B  B9  1  0.000000  0.891722  0.530777  1
  B  B10  1  0.000000  0.395583  0.969047  1
  B  B11  1  0.000000  0.608816  0.028292  1
  B  B12  1  0.000000  0.131788  0.317356  1
  B  B13  1  0.000000  0.866870  0.684037  1
  B  B14  1  0.000000  0.368789  0.815868  1
  B  B15  1  0.000000  0.632950  0.183814  1
  B  B16  1  0.000000  0.051672  0.064602  1
  B  B17  1  0.000000  0.946686  0.932893  1
  B  B18  1  0.000000  0.444881  0.565475  1
  B  B19  1  0.000000  0.552596  0.433693  1
  B  B20  1  0.000000  0.483260  0.287291  1
  B  B21  1  0.000000  0.517158  0.711774  1
  B  B22  1  0.000000  0.017483  0.787752  1
  B  B23  1  0.000000  0.979450  0.214229  1
  B  B24  1  0.000000  0.251468  0.078319  1
  B  B25  1  0.000000  0.751598  0.919404  1
  B  B26  1  0.000000  0.250085  0.579641  1
  B  B27  1  0.000000  0.748185  0.421101  1
  B  B28  1  0.000000  0.295661  0.235957  1
  B  B29  1  0.000000  0.706625  0.763560  1
  B  B30  1  0.000000  0.208268  0.736018  1
  B  B31  1  0.000000  0.791607  0.266393  1
  Rh  Rh32  1  0.500000  0.861068  0.820626  1
  Rh  Rh33  1  0.500000  0.361294  0.678885  1
  Rh  Rh34  1  0.500000  0.638589  0.321289  1
  W  W35  1  0.500000  0.138229  0.179254  1
