# generated using pymatgen
data_La2Dy3Co2
_symmetry_space_group_name_H-M   'P 1'
_cell_length_a   8.89001507
_cell_length_b   8.89001582
_cell_length_c   6.92745798
_cell_angle_alpha   84.67855854
_cell_angle_beta   84.67856164
_cell_angle_gamma   42.52180521
_symmetry_Int_Tables_number   1
_chemical_formula_structural   La2Dy3Co2
_chemical_formula_sum   'La4 Dy6 Co4'
_cell_volume   368.19792878
_cell_formula_units_Z   2
loop_
 _symmetry_equiv_pos_site_id
 _symmetry_equiv_pos_as_xyz
  1  'x, y, z'
loop_
 _atom_site_type_symbol
 _atom_site_label
 _atom_site_symmetry_multiplicity
 _atom_site_fract_x
 _atom_site_fract_y
 _atom_site_fract_z
 _atom_site_occupancy
  La  La0  1  0.016651  0.788621  0.902507  1
  La  La1  1  0.211379  0.983349  0.597493  1
  La  La2  1  0.983349  0.211379  0.097493  1
  La  La3  1  0.788621  0.016651  0.402507  1
  Dy  Dy4  1  0.358712  0.214684  0.823302  1
  Dy  Dy5  1  0.785316  0.641288  0.676698  1
  Dy  Dy6  1  0.641288  0.785316  0.176698  1
  Dy  Dy7  1  0.214684  0.358712  0.323302  1
  Dy  Dy8  1  0.572004  0.427996  0.750000  1
  Dy  Dy9  1  0.427996  0.572004  0.250000  1
  Co  Co10  1  0.175033  0.599966  0.582871  1
  Co  Co11  1  0.400034  0.824967  0.917129  1
  Co  Co12  1  0.824967  0.400034  0.417129  1
  Co  Co13  1  0.599966  0.175033  0.082871  1
