# generated using pymatgen
data_GdCoPN
_symmetry_space_group_name_H-M   'P 1'
_cell_length_a   3.65270000
_cell_length_b   3.65270000
_cell_length_c   7.88440700
_cell_angle_alpha   90.00000000
_cell_angle_beta   90.00000000
_cell_angle_gamma   90.00000000
_symmetry_Int_Tables_number   1
_chemical_formula_structural   GdCoPN
_chemical_formula_sum   'Gd2 Co2 P2 N2'
_cell_volume   105.19547140
_cell_formula_units_Z   2
loop_
 _symmetry_equiv_pos_site_id
 _symmetry_equiv_pos_as_xyz
  1  'x, y, z'
loop_
 _atom_site_type_symbol
 _atom_site_label
 _atom_site_symmetry_multiplicity
 _atom_site_fract_x
 _atom_site_fract_y
 _atom_site_fract_z
 _atom_site_occupancy
  Gd  Gd0  1  0.500001  0.000000  0.166213  1
  Gd  Gd1  1  0.000000  0.500001  0.833787  1
  Co  Co2  1  0.000000  0.000000  0.500000  1
  Co  Co3  1  0.500001  0.500001  0.500000  1
  P  P4  1  0.000000  0.500001  0.347289  1
  P  P5  1  0.500001  0.000000  0.652711  1
  N  N6  1  0.000000  0.500001  0.130649  1
  N  N7  1  0.500001  0.000000  0.869350  1
