# generated using pymatgen
data_Ba8LiH(W2N7)2
_symmetry_space_group_name_H-M   'P 1'
_cell_length_a   15.80477923
_cell_length_b   6.53624000
_cell_length_c   10.56272557
_cell_angle_alpha   90.00000000
_cell_angle_beta   99.71313206
_cell_angle_gamma   90.00000000
_symmetry_Int_Tables_number   1
_chemical_formula_structural   Ba8LiH(W2N7)2
_chemical_formula_sum   'Ba16 Li2 H2 W8 N28'
_cell_volume   1075.52789629
_cell_formula_units_Z   2
loop_
 _symmetry_equiv_pos_site_id
 _symmetry_equiv_pos_as_xyz
  1  'x, y, z'
loop_
 _atom_site_type_symbol
 _atom_site_label
 _atom_site_symmetry_multiplicity
 _atom_site_fract_x
 _atom_site_fract_y
 _atom_site_fract_z
 _atom_site_occupancy
  Ba  Ba0  1  0.378981  0.854472  0.077801  1
  Ba  Ba1  1  0.924798  0.772249  0.072903  1
  Ba  Ba2  1  0.987161  0.277391  0.235805  1
  Ba  Ba3  1  0.250001  0.312664  0.250000  1
  Ba  Ba4  1  0.750000  0.037058  0.250001  1
  Ba  Ba5  1  0.512839  0.277391  0.264194  1
  Ba  Ba6  1  0.575202  0.772249  0.427097  1
  Ba  Ba7  1  0.121019  0.854472  0.422200  1
  Ba  Ba8  1  0.878194  0.148277  0.573871  1
  Ba  Ba9  1  0.425272  0.225397  0.582302  1
  Ba  Ba10  1  0.488367  0.716973  0.750368  1
  Ba  Ba11  1  0.250000  0.015080  0.750000  1
  Ba  Ba12  1  0.750000  0.679282  0.750000  1
  Ba  Ba13  1  0.011633  0.716973  0.749633  1
  Ba  Ba14  1  0.074728  0.225397  0.917698  1
  Ba  Ba15  1  0.621807  0.148277  0.926129  1
  Li  Li16  1  0.262488  0.545262  0.630550  1
  Li  Li17  1  0.237512  0.545262  0.869449  1
  H  H18  1  0.794053  0.497615  0.207106  1
  H  H19  1  0.705947  0.497615  0.292894  1
  W  W20  1  0.597775  0.670733  0.079665  1
  W  W21  1  0.155524  0.771650  0.104851  1
  W  W22  1  0.344476  0.771650  0.395150  1
  W  W23  1  0.902225  0.670733  0.420335  1
  W  W24  1  0.097055  0.332052  0.573849  1
  W  W25  1  0.651417  0.216331  0.610404  1
  W  W26  1  0.848583  0.216331  0.889597  1
  W  W27  1  0.402945  0.332052  0.926152  1
  N  N28  1  0.498682  0.506426  0.009174  1
  N  N29  1  0.329913  0.272817  0.041231  1
  N  N30  1  0.820515  0.148207  0.048807  1
  N  N31  1  0.095964  0.525966  0.107415  1
  N  N32  1  0.081433  0.982700  0.134589  1
  N  N33  1  0.568204  0.921421  0.141986  1
  N  N34  1  0.653043  0.516448  0.223510  1
  N  N35  1  0.250001  0.763647  0.250000  1
  N  N36  1  0.846957  0.516448  0.276490  1
  N  N37  1  0.931796  0.921421  0.358014  1
  N  N38  1  0.418567  0.982700  0.365411  1
  N  N39  1  0.404037  0.525966  0.392585  1
  N  N40  1  0.679485  0.148207  0.451193  1
  N  N41  1  0.170087  0.272817  0.458768  1
  N  N42  1  0.001318  0.506426  0.490826  1
  N  N43  1  0.844953  0.732978  0.552380  1
  N  N44  1  0.303917  0.815873  0.550626  1
  N  N45  1  0.590837  0.462749  0.609351  1
  N  N46  1  0.579245  0.008827  0.649658  1
  N  N47  1  0.064356  0.081413  0.636501  1
  N  N48  1  0.154158  0.474351  0.714986  1
  N  N49  1  0.750000  0.235093  0.750000  1
  N  N50  1  0.345842  0.474351  0.785014  1
  N  N51  1  0.435645  0.081413  0.863500  1
  N  N52  1  0.920756  0.008827  0.850343  1
  N  N53  1  0.909163  0.462749  0.890649  1
  N  N54  1  0.196083  0.815873  0.949374  1
  N  N55  1  0.655046  0.732978  0.947620  1
