# generated using pymatgen
data_Yb3HoIr3RuO14
_symmetry_space_group_name_H-M   'P 1'
_cell_length_a   7.20782744
_cell_length_b   7.20782727
_cell_length_c   7.22259701
_cell_angle_alpha   60.06762380
_cell_angle_beta   60.06762537
_cell_angle_gamma   60.00000867
_symmetry_Int_Tables_number   1
_chemical_formula_structural   Yb3HoIr3RuO14
_chemical_formula_sum   'Yb3 Ho1 Ir3 Ru1 O14'
_cell_volume   265.60137699
_cell_formula_units_Z   1
loop_
 _symmetry_equiv_pos_site_id
 _symmetry_equiv_pos_as_xyz
  1  'x, y, z'
loop_
 _atom_site_type_symbol
 _atom_site_label
 _atom_site_symmetry_multiplicity
 _atom_site_fract_x
 _atom_site_fract_y
 _atom_site_fract_z
 _atom_site_occupancy
  Yb  Yb0  1  0.625000  0.125000  0.625000  1
  Yb  Yb1  1  0.125000  0.625000  0.625000  1
  Yb  Yb2  1  0.625000  0.625000  0.625000  1
  Ho  Ho3  1  0.625000  0.625000  0.125000  1
  Ir  Ir4  1  0.125000  0.625000  0.125000  1
  Ir  Ir5  1  0.625000  0.125000  0.125000  1
  Ir  Ir6  1  0.125000  0.125000  0.125000  1
  Ru  Ru7  1  0.125000  0.125000  0.625000  1
  O  O8  1  0.449766  0.050563  0.449108  1
  O  O9  1  0.199437  0.800234  0.800892  1
  O  O10  1  0.794045  0.209090  0.202821  1
  O  O11  1  0.209090  0.794045  0.202821  1
  O  O12  1  0.794045  0.794045  0.202821  1
  O  O13  1  0.199437  0.199437  0.800892  1
  O  O14  1  0.455955  0.455955  0.047179  1
  O  O15  1  0.050563  0.449766  0.449108  1
  O  O16  1  0.455955  0.040910  0.047179  1
  O  O17  1  0.050563  0.050563  0.449108  1
  O  O18  1  0.800234  0.199437  0.800892  1
  O  O19  1  0.040910  0.455955  0.047179  1
  O  O20  1  0.503043  0.503043  0.490870  1
  O  O21  1  0.746957  0.746957  0.759130  1
