# generated using pymatgen
data_Nd2NbGa6
_symmetry_space_group_name_H-M   'P 1'
_cell_length_a   6.41969975
_cell_length_b   6.41969888
_cell_length_c   6.41969900
_cell_angle_alpha   59.99999424
_cell_angle_beta   59.99999873
_cell_angle_gamma   60.00000061
_symmetry_Int_Tables_number   1
_chemical_formula_structural   Nd2NbGa6
_chemical_formula_sum   'Nd2 Nb1 Ga6'
_cell_volume   187.08071518
_cell_formula_units_Z   1
loop_
 _symmetry_equiv_pos_site_id
 _symmetry_equiv_pos_as_xyz
  1  'x, y, z'
loop_
 _atom_site_type_symbol
 _atom_site_label
 _atom_site_symmetry_multiplicity
 _atom_site_fract_x
 _atom_site_fract_y
 _atom_site_fract_z
 _atom_site_occupancy
  Nd  Nd0  1  0.250000  0.250000  0.250000  1
  Nd  Nd1  1  0.750001  0.750001  0.750001  1
  Nb  Nb2  1  0.000000  0.000000  0.000000  1
  Ga  Ga3  1  0.711569  0.288431  0.288431  1
  Ga  Ga4  1  0.288431  0.711569  0.288431  1
  Ga  Ga5  1  0.711568  0.711568  0.288432  1
  Ga  Ga6  1  0.288431  0.288431  0.711569  1
  Ga  Ga7  1  0.711568  0.288432  0.711568  1
  Ga  Ga8  1  0.288432  0.711568  0.711568  1
