# generated using pymatgen
data_Dy2Tm4Al24Ir3Os5
_symmetry_space_group_name_H-M   'P 1'
_cell_length_a   8.79540819
_cell_length_b   8.82715834
_cell_length_c   9.56773314
_cell_angle_alpha   89.82855045
_cell_angle_beta   90.18265589
_cell_angle_gamma   119.98076010
_symmetry_Int_Tables_number   1
_chemical_formula_structural   Dy2Tm4Al24Ir3Os5
_chemical_formula_sum   'Dy2 Tm4 Al24 Ir3 Os5'
_cell_volume   643.42509302
_cell_formula_units_Z   1
loop_
 _symmetry_equiv_pos_site_id
 _symmetry_equiv_pos_as_xyz
  1  'x, y, z'
loop_
 _atom_site_type_symbol
 _atom_site_label
 _atom_site_symmetry_multiplicity
 _atom_site_fract_x
 _atom_site_fract_y
 _atom_site_fract_z
 _atom_site_occupancy
  Dy  Dy0  1  0.194636  0.384822  0.251045  1
  Dy  Dy1  1  0.805364  0.615178  0.748955  1
  Tm  Tm2  1  0.609242  0.807369  0.251622  1
  Tm  Tm3  1  0.390758  0.192631  0.748378  1
  Tm  Tm4  1  0.199563  0.811252  0.250001  1
  Tm  Tm5  1  0.800437  0.188748  0.749999  1
  Al  Al6  1  0.333356  0.667557  0.025059  1
  Al  Al7  1  0.666644  0.332443  0.974941  1
  Al  Al8  1  0.666118  0.332821  0.523714  1
  Al  Al9  1  0.333882  0.667179  0.476286  1
  Al  Al10  1  0.164154  0.326232  0.577214  1
  Al  Al11  1  0.835846  0.673768  0.422786  1
  Al  Al12  1  0.672424  0.835728  0.575590  1
  Al  Al13  1  0.837420  0.673848  0.077005  1
  Al  Al14  1  0.327576  0.164272  0.424410  1
  Al  Al15  1  0.162580  0.326152  0.922995  1
  Al  Al16  1  0.164195  0.836979  0.575643  1
  Al  Al17  1  0.327064  0.162512  0.075136  1
  Al  Al18  1  0.835805  0.163021  0.424357  1
  Al  Al19  1  0.672936  0.837488  0.924864  1
  Al  Al20  1  0.835577  0.162686  0.076092  1
  Al  Al21  1  0.164423  0.837314  0.923908  1
  Al  Al22  1  0.563292  0.125374  0.249515  1
  Al  Al23  1  0.436708  0.874626  0.750485  1
  Al  Al24  1  0.876588  0.439305  0.249496  1
  Al  Al25  1  0.123412  0.560695  0.750504  1
  Al  Al26  1  0.563337  0.439692  0.250319  1
  Al  Al27  1  0.436663  0.560308  0.749681  1
  Al  Al28  1  0.999757  0.999757  0.250012  1
  Al  Al29  1  0.000243  0.000243  0.749988  1
  Ir  Ir30  1  0.000000  0.500000  0.000000  1
  Ir  Ir31  1  0.500000  0.500000  0.000000  1
  Ir  Ir32  1  0.000000  0.500000  0.500000  1
  Os  Os33  1  0.500000  0.000000  0.000000  1
  Os  Os34  1  0.500000  0.000000  0.500000  1
  Os  Os35  1  0.500000  0.500000  0.500000  1
  Os  Os36  1  0.000000  0.000000  0.000000  1
  Os  Os37  1  0.000000  0.000000  0.500000  1
