# generated using pymatgen
data_Tb13Lu3InAg3PdRh3
_symmetry_space_group_name_H-M   'P 1'
_cell_length_a   9.53206497
_cell_length_b   9.57458333
_cell_length_c   9.57022500
_cell_angle_alpha   60.30570619
_cell_angle_beta   60.06109766
_cell_angle_gamma   59.96150104
_symmetry_Int_Tables_number   1
_chemical_formula_structural   Tb13Lu3InAg3PdRh3
_chemical_formula_sum   'Tb13 Lu3 In1 Ag3 Pd1 Rh3'
_cell_volume   619.12910470
_cell_formula_units_Z   1
loop_
 _symmetry_equiv_pos_site_id
 _symmetry_equiv_pos_as_xyz
  1  'x, y, z'
loop_
 _atom_site_type_symbol
 _atom_site_label
 _atom_site_symmetry_multiplicity
 _atom_site_fract_x
 _atom_site_fract_y
 _atom_site_fract_z
 _atom_site_occupancy
  Tb  Tb0  1  0.647077  0.055642  0.649682  1
  Tb  Tb1  1  0.066274  0.062763  0.437558  1
  Tb  Tb2  1  0.438286  0.436361  0.061196  1
  Tb  Tb3  1  0.647015  0.648896  0.645667  1
  Tb  Tb4  1  0.809270  0.186295  0.192746  1
  Tb  Tb5  1  0.186021  0.814723  0.813726  1
  Tb  Tb6  1  0.059130  0.648040  0.644716  1
  Tb  Tb7  1  0.439441  0.063659  0.061727  1
  Tb  Tb8  1  0.439861  0.060646  0.436454  1
  Tb  Tb9  1  0.068102  0.437031  0.061569  1
  Tb  Tb10  1  0.646207  0.650339  0.057399  1
  Tb  Tb11  1  0.185565  0.816435  0.187701  1
  Tb  Tb12  1  0.069699  0.434571  0.433431  1
  Lu  Lu13  1  0.812976  0.809947  0.188461  1
  Lu  Lu14  1  0.813202  0.184894  0.809642  1
  Lu  Lu15  1  0.191302  0.185415  0.812981  1
  In  In16  1  0.738252  0.421049  0.421329  1
  Ag  Ag17  1  0.416127  0.418185  0.418057  1
  Ag  Ag18  1  0.415360  0.416337  0.748621  1
  Ag  Ag19  1  0.415396  0.749101  0.416443  1
  Pd  Pd20  1  0.858082  0.426693  0.855244  1
  Rh  Rh21  1  0.856155  0.858235  0.860006  1
  Rh  Rh22  1  0.853021  0.855500  0.428962  1
  Rh  Rh23  1  0.428180  0.859241  0.856681  1
