# generated using pymatgen
data_Tm3Lu7InSn5
_symmetry_space_group_name_H-M   'P 1'
_cell_length_a   8.80346416
_cell_length_b   8.80346399
_cell_length_c   6.43544000
_cell_angle_alpha   90.00000000
_cell_angle_beta   90.00000000
_cell_angle_gamma   120.07726464
_symmetry_Int_Tables_number   1
_chemical_formula_structural   Tm3Lu7InSn5
_chemical_formula_sum   'Tm3 Lu7 In1 Sn5'
_cell_volume   431.59600351
_cell_formula_units_Z   1
loop_
 _symmetry_equiv_pos_site_id
 _symmetry_equiv_pos_as_xyz
  1  'x, y, z'
loop_
 _atom_site_type_symbol
 _atom_site_label
 _atom_site_symmetry_multiplicity
 _atom_site_fract_x
 _atom_site_fract_y
 _atom_site_fract_z
 _atom_site_occupancy
  Tm  Tm0  1  0.235832  0.235832  0.250000  1
  Tm  Tm1  1  0.761985  0.998855  0.250000  1
  Tm  Tm2  1  0.998855  0.761985  0.250000  1
  Lu  Lu3  1  0.665711  0.333375  0.998899  1
  Lu  Lu4  1  0.333375  0.665711  0.998899  1
  Lu  Lu5  1  0.333375  0.665711  0.501101  1
  Lu  Lu6  1  0.665711  0.333375  0.501101  1
  Lu  Lu7  1  0.762972  0.762972  0.750000  1
  Lu  Lu8  1  0.238283  0.002999  0.750000  1
  Lu  Lu9  1  0.002999  0.238283  0.750000  1
  In  In10  1  0.397609  0.397609  0.750000  1
  Sn  Sn11  1  0.605779  0.000801  0.750000  1
  Sn  Sn12  1  0.000801  0.605779  0.750000  1
  Sn  Sn13  1  0.602618  0.602618  0.250000  1
  Sn  Sn14  1  0.395110  0.998987  0.250000  1
  Sn  Sn15  1  0.998987  0.395110  0.250000  1
