# generated using pymatgen
data_Er8Ta6Ti5Si16Pd
_symmetry_space_group_name_H-M   'P 1'
_cell_length_a   7.01238663
_cell_length_b   7.02230488
_cell_length_c   12.85061128
_cell_angle_alpha   90.15886068
_cell_angle_beta   89.86306969
_cell_angle_gamma   89.62453118
_symmetry_Int_Tables_number   1
_chemical_formula_structural   Er8Ta6Ti5Si16Pd
_chemical_formula_sum   'Er8 Ta6 Ti5 Si16 Pd1'
_cell_volume   632.78629800
_cell_formula_units_Z   1
loop_
 _symmetry_equiv_pos_site_id
 _symmetry_equiv_pos_as_xyz
  1  'x, y, z'
loop_
 _atom_site_type_symbol
 _atom_site_label
 _atom_site_symmetry_multiplicity
 _atom_site_fract_x
 _atom_site_fract_y
 _atom_site_fract_z
 _atom_site_occupancy
  Er  Er0  1  0.342263  0.001220  0.467100  1
  Er  Er1  1  0.497072  0.841564  0.718030  1
  Er  Er2  1  0.501131  0.157973  0.215511  1
  Er  Er3  1  0.841732  0.497980  0.282027  1
  Er  Er4  1  0.158169  0.501678  0.783757  1
  Er  Er5  1  0.657158  0.000551  0.969170  1
  Er  Er6  1  0.001374  0.342353  0.532626  1
  Er  Er7  1  0.000149  0.658359  0.031294  1
  Ta  Ta8  1  0.173930  0.826598  0.248627  1
  Ta  Ta9  1  0.826071  0.174867  0.750650  1
  Ta  Ta10  1  0.672101  0.671072  0.499974  1
  Ta  Ta11  1  0.147029  0.005270  0.875199  1
  Ta  Ta12  1  0.494885  0.652548  0.123307  1
  Ta  Ta13  1  0.506869  0.349170  0.626453  1
  Ti  Ti14  1  0.654123  0.494682  0.876825  1
  Ti  Ti15  1  0.349144  0.506949  0.374639  1
  Ti  Ti16  1  0.848428  0.991477  0.373731  1
  Ti  Ti17  1  0.005754  0.145794  0.124135  1
  Ti  Ti18  1  0.990446  0.848080  0.626581  1
  Si  Si19  1  0.202506  0.133884  0.682346  1
  Si  Si20  1  0.373313  0.710588  0.930105  1
  Si  Si21  1  0.633301  0.295372  0.432088  1
  Si  Si22  1  0.714409  0.369931  0.071102  1
  Si  Si23  1  0.294467  0.635034  0.567642  1
  Si  Si24  1  0.797716  0.866408  0.182317  1
  Si  Si25  1  0.134286  0.202317  0.316331  1
  Si  Si26  1  0.862780  0.796741  0.818210  1
  Si  Si27  1  0.289038  0.946829  0.063101  1
  Si  Si28  1  0.546315  0.793671  0.314119  1
  Si  Si29  1  0.450343  0.208429  0.814722  1
  Si  Si30  1  0.795630  0.547792  0.686463  1
  Si  Si31  1  0.207462  0.450160  0.186596  1
  Si  Si32  1  0.708953  0.045698  0.563112  1
  Si  Si33  1  0.945858  0.292270  0.936576  1
  Si  Si34  1  0.046768  0.707484  0.435866  1
  Pd  Pd35  1  0.329031  0.329210  0.999668  1
