# generated using pymatgen
data_Y4Cu3Ir
_symmetry_space_group_name_H-M   'P 1'
_cell_length_a   4.42180400
_cell_length_b   5.50576866
_cell_length_c   7.15035695
_cell_angle_alpha   90.05765583
_cell_angle_beta   90.00000000
_cell_angle_gamma   90.00000000
_symmetry_Int_Tables_number   1
_chemical_formula_structural   Y4Cu3Ir
_chemical_formula_sum   'Y4 Cu3 Ir1'
_cell_volume   174.07842573
_cell_formula_units_Z   1
loop_
 _symmetry_equiv_pos_site_id
 _symmetry_equiv_pos_as_xyz
  1  'x, y, z'
loop_
 _atom_site_type_symbol
 _atom_site_label
 _atom_site_symmetry_multiplicity
 _atom_site_fract_x
 _atom_site_fract_y
 _atom_site_fract_z
 _atom_site_occupancy
  Y  Y0  1  0.250000  0.367336  0.677994  1
  Y  Y1  1  0.250000  0.129308  0.184363  1
  Y  Y2  1  0.750000  0.640453  0.327032  1
  Y  Y3  1  0.750000  0.864316  0.809235  1
  Cu  Cu4  1  0.250000  0.620903  0.034182  1
  Cu  Cu5  1  0.750000  0.136710  0.461032  1
  Cu  Cu6  1  0.750000  0.379399  0.971280  1
  Ir  Ir7  1  0.250000  0.861574  0.534883  1
