# generated using pymatgen
data_CaPrAl20IrRu3
_symmetry_space_group_name_H-M   'P 1'
_cell_length_a   6.88701007
_cell_length_b   6.89147896
_cell_length_c   9.20391825
_cell_angle_alpha   90.02660213
_cell_angle_beta   90.08881655
_cell_angle_gamma   96.70803000
_symmetry_Int_Tables_number   1
_chemical_formula_structural   CaPrAl20IrRu3
_chemical_formula_sum   'Ca1 Pr1 Al20 Ir1 Ru3'
_cell_volume   433.84242012
_cell_formula_units_Z   1
loop_
 _symmetry_equiv_pos_site_id
 _symmetry_equiv_pos_as_xyz
  1  'x, y, z'
loop_
 _atom_site_type_symbol
 _atom_site_label
 _atom_site_symmetry_multiplicity
 _atom_site_fract_x
 _atom_site_fract_y
 _atom_site_fract_z
 _atom_site_occupancy
  Ca  Ca0  1  0.875298  0.126045  0.749906  1
  Pr  Pr1  1  0.123366  0.875202  0.249768  1
  Al  Al2  1  0.412778  0.142399  0.748405  1
  Al  Al3  1  0.139225  0.410645  0.250511  1
  Al  Al4  1  0.590333  0.860140  0.251450  1
  Al  Al5  1  0.858059  0.585587  0.749557  1
  Al  Al6  1  0.520636  0.779206  0.747707  1
  Al  Al7  1  0.777803  0.516891  0.249699  1
  Al  Al8  1  0.482845  0.222431  0.252447  1
  Al  Al9  1  0.220186  0.479396  0.750333  1
  Al  Al10  1  0.840722  0.158764  0.400202  1
  Al  Al11  1  0.161780  0.839211  0.601471  1
  Al  Al12  1  0.842440  0.160060  0.101227  1
  Al  Al13  1  0.159083  0.838157  0.897185  1
  Al  Al14  1  0.623529  0.376935  0.547774  1
  Al  Al15  1  0.377985  0.621980  0.448415  1
  Al  Al16  1  0.623803  0.379422  0.951805  1
  Al  Al17  1  0.377001  0.619966  0.052518  1
  Al  Al18  1  0.774740  0.774096  0.999674  1
  Al  Al19  1  0.773210  0.774464  0.502034  1
  Al  Al20  1  0.223012  0.227652  0.997088  1
  Al  Al21  1  0.224851  0.227350  0.501026  1
  Ir  Ir22  1  0.498957  0.000913  0.999512  1
  Ru  Ru23  1  0.999567  0.500958  0.999546  1
  Ru  Ru24  1  0.498919  0.000588  0.500381  1
  Ru  Ru25  1  0.999873  0.501540  0.500357  1
