# generated using pymatgen
data_HoPa3Al18(Os2Pd)2
_symmetry_space_group_name_H-M   'P 1'
_cell_length_a   7.63806340
_cell_length_b   7.65398680
_cell_length_c   9.39696900
_cell_angle_alpha   90.00000000
_cell_angle_beta   90.00000000
_cell_angle_gamma   120.04785434
_symmetry_Int_Tables_number   1
_chemical_formula_structural   HoPa3Al18(Os2Pd)2
_chemical_formula_sum   'Ho1 Pa3 Al18 Os4 Pd2'
_cell_volume   475.53202407
_cell_formula_units_Z   1
loop_
 _symmetry_equiv_pos_site_id
 _symmetry_equiv_pos_as_xyz
  1  'x, y, z'
loop_
 _atom_site_type_symbol
 _atom_site_label
 _atom_site_symmetry_multiplicity
 _atom_site_fract_x
 _atom_site_fract_y
 _atom_site_fract_z
 _atom_site_occupancy
  Ho  Ho0  1  0.331278  0.006492  0.750000  1
  Pa  Pa1  1  0.998116  0.661108  0.250000  1
  Pa  Pa2  1  0.000101  0.336492  0.750000  1
  Pa  Pa3  1  0.661146  0.996544  0.250000  1
  Al  Al4  1  0.127379  0.124314  0.250000  1
  Al  Al5  1  0.869382  0.873216  0.750000  1
  Al  Al6  1  0.006301  0.334629  0.075862  1
  Al  Al7  1  0.999708  0.666493  0.922681  1
  Al  Al8  1  0.999708  0.666493  0.577319  1
  Al  Al9  1  0.337579  0.005116  0.427708  1
  Al  Al10  1  0.006301  0.334629  0.424138  1
  Al  Al11  1  0.657840  0.995739  0.577833  1
  Al  Al12  1  0.657840  0.995739  0.922167  1
  Al  Al13  1  0.337579  0.005116  0.072292  1
  Al  Al14  1  0.341365  0.339604  0.557671  1
  Al  Al15  1  0.661551  0.661307  0.445579  1
  Al  Al16  1  0.661551  0.661307  0.054421  1
  Al  Al17  1  0.341365  0.339604  0.942329  1
  Al  Al18  1  0.340577  0.543268  0.250000  1
  Al  Al19  1  0.661742  0.451850  0.750000  1
  Al  Al20  1  0.544234  0.336858  0.250000  1
  Al  Al21  1  0.448691  0.661055  0.750000  1
  Os  Os22  1  0.678918  0.328174  0.002454  1
  Os  Os23  1  0.326066  0.673305  0.003566  1
  Os  Os24  1  0.326066  0.673305  0.496434  1
  Os  Os25  1  0.678918  0.328174  0.497546  1
  Pd  Pd26  1  0.999350  0.000035  0.000545  1
  Pd  Pd27  1  0.999350  0.000035  0.499455  1
