# generated using pymatgen
data_Dy7Er(ScGa5)4
_symmetry_space_group_name_H-M   'P 1'
_cell_length_a   6.01516724
_cell_length_b   9.47387711
_cell_length_c   11.35721632
_cell_angle_alpha   89.99863651
_cell_angle_beta   89.97281259
_cell_angle_gamma   89.98259725
_symmetry_Int_Tables_number   1
_chemical_formula_structural   Dy7Er(ScGa5)4
_chemical_formula_sum   'Dy7 Er1 Sc4 Ga20'
_cell_volume   647.21307492
_cell_formula_units_Z   1
loop_
 _symmetry_equiv_pos_site_id
 _symmetry_equiv_pos_as_xyz
  1  'x, y, z'
loop_
 _atom_site_type_symbol
 _atom_site_label
 _atom_site_symmetry_multiplicity
 _atom_site_fract_x
 _atom_site_fract_y
 _atom_site_fract_z
 _atom_site_occupancy
  Dy  Dy0  1  0.891018  0.510399  0.352157  1
  Dy  Dy1  1  0.608958  0.989611  0.852132  1
  Dy  Dy2  1  0.108955  0.010355  0.647911  1
  Dy  Dy3  1  0.391145  0.489654  0.147533  1
  Dy  Dy4  1  0.108855  0.489655  0.648062  1
  Dy  Dy5  1  0.391157  0.010380  0.147777  1
  Dy  Dy6  1  0.891021  0.989676  0.352172  1
  Er  Er7  1  0.608866  0.510408  0.852096  1
  Sc  Sc8  1  0.849550  0.749887  0.074280  1
  Sc  Sc9  1  0.650337  0.749962  0.574525  1
  Sc  Sc10  1  0.150726  0.249978  0.925521  1
  Sc  Sc11  1  0.349597  0.250019  0.425656  1
  Ga  Ga12  1  0.877328  0.050501  0.089159  1
  Ga  Ga13  1  0.622600  0.449680  0.589600  1
  Ga  Ga14  1  0.123120  0.550332  0.910701  1
  Ga  Ga15  1  0.377376  0.949511  0.410833  1
  Ga  Ga16  1  0.122630  0.949415  0.910822  1
  Ga  Ga17  1  0.377367  0.550472  0.410828  1
  Ga  Ga18  1  0.877229  0.449620  0.088979  1
  Ga  Ga19  1  0.622579  0.050473  0.589161  1
  Ga  Ga20  1  0.165415  0.749996  0.248440  1
  Ga  Ga21  1  0.334780  0.749659  0.748650  1
  Ga  Ga22  1  0.834193  0.250410  0.751840  1
  Ga  Ga23  1  0.665524  0.250027  0.251481  1
  Ga  Ga24  1  0.379537  0.749820  0.004029  1
  Ga  Ga25  1  0.120754  0.750001  0.504132  1
  Ga  Ga26  1  0.620730  0.250499  0.995369  1
  Ga  Ga27  1  0.879224  0.250041  0.495932  1
  Ga  Ga28  1  0.603968  0.750007  0.296239  1
  Ga  Ga29  1  0.895421  0.749465  0.796398  1
  Ga  Ga30  1  0.396076  0.250082  0.703856  1
  Ga  Ga31  1  0.103964  0.250008  0.203732  1
