# generated using pymatgen
data_Ho12ZnCdNi4
_symmetry_space_group_name_H-M   'P 1'
_cell_length_a   8.29725923
_cell_length_b   8.29724768
_cell_length_c   8.29725966
_cell_angle_alpha   112.89951688
_cell_angle_beta   109.64580959
_cell_angle_gamma   105.94296251
_symmetry_Int_Tables_number   1
_chemical_formula_structural   Ho12ZnCdNi4
_chemical_formula_sum   'Ho12 Zn1 Cd1 Ni4'
_cell_volume   438.10634287
_cell_formula_units_Z   1
loop_
 _symmetry_equiv_pos_site_id
 _symmetry_equiv_pos_as_xyz
  1  'x, y, z'
loop_
 _atom_site_type_symbol
 _atom_site_label
 _atom_site_symmetry_multiplicity
 _atom_site_fract_x
 _atom_site_fract_y
 _atom_site_fract_z
 _atom_site_occupancy
  Ho  Ho0  1  0.425976  0.230443  0.195532  1
  Ho  Ho1  1  0.574024  0.769557  0.804468  1
  Ho  Ho2  1  0.034911  0.230443  0.804468  1
  Ho  Ho3  1  0.965089  0.769557  0.195532  1
  Ho  Ho4  1  0.180134  0.289209  0.469344  1
  Ho  Ho5  1  0.819866  0.710791  0.530656  1
  Ho  Ho6  1  0.180135  0.710791  0.890926  1
  Ho  Ho7  1  0.819865  0.289209  0.109074  1
  Ho  Ho8  1  0.323836  0.631674  0.307838  1
  Ho  Ho9  1  0.676164  0.368326  0.692162  1
  Ho  Ho10  1  0.323836  0.015997  0.692161  1
  Ho  Ho11  1  0.676164  0.984003  0.307839  1
  Zn  Zn12  1  0.000000  0.000000  0.000000  1
  Cd  Cd13  1  0.500000  0.500000  0.000000  1
  Ni  Ni14  1  0.351279  0.000000  0.351279  1
  Ni  Ni15  1  0.648721  0.000000  0.648721  1
  Ni  Ni16  1  0.123555  0.623555  0.500000  1
  Ni  Ni17  1  0.876445  0.376445  0.500000  1
