# generated using pymatgen
data_Cs4HfZr7Se16
_symmetry_space_group_name_H-M   'P 1'
_cell_length_a   6.61204402
_cell_length_b   7.65603900
_cell_length_c   17.77428800
_cell_angle_alpha   90.00000000
_cell_angle_beta   90.00400340
_cell_angle_gamma   90.00000000
_symmetry_Int_Tables_number   1
_chemical_formula_structural   Cs4HfZr7Se16
_chemical_formula_sum   'Cs4 Hf1 Zr7 Se16'
_cell_volume   899.77119328
_cell_formula_units_Z   1
loop_
 _symmetry_equiv_pos_site_id
 _symmetry_equiv_pos_as_xyz
  1  'x, y, z'
loop_
 _atom_site_type_symbol
 _atom_site_label
 _atom_site_symmetry_multiplicity
 _atom_site_fract_x
 _atom_site_fract_y
 _atom_site_fract_z
 _atom_site_occupancy
  Cs  Cs0  1  0.355447  0.000000  0.999510  1
  Cs  Cs1  1  0.641484  0.500000  0.500636  1
  Cs  Cs2  1  0.027950  0.000000  0.500292  1
  Cs  Cs3  1  0.969318  0.500000  0.999919  1
  Hf  Hf4  1  0.003084  0.000000  0.249081  1
  Zr  Zr5  1  0.002234  0.000000  0.750684  1
  Zr  Zr6  1  0.999329  0.500000  0.250483  1
  Zr  Zr7  1  0.996260  0.500000  0.749418  1
  Zr  Zr8  1  0.501627  0.251814  0.250053  1
  Zr  Zr9  1  0.499211  0.750110  0.750075  1
  Zr  Zr10  1  0.501627  0.748186  0.250053  1
  Zr  Zr11  1  0.499211  0.249890  0.750075  1
  Se  Se12  1  0.836998  0.245991  0.340529  1
  Se  Se13  1  0.833151  0.751517  0.658577  1
  Se  Se14  1  0.165847  0.751483  0.159513  1
  Se  Se15  1  0.165313  0.251523  0.841454  1
  Se  Se16  1  0.165847  0.248517  0.159513  1
  Se  Se17  1  0.165313  0.748477  0.841454  1
  Se  Se18  1  0.836998  0.754009  0.340529  1
  Se  Se19  1  0.833151  0.248483  0.658577  1
  Se  Se20  1  0.675074  0.000000  0.160766  1
  Se  Se21  1  0.669985  0.000000  0.840247  1
  Se  Se22  1  0.330777  0.500000  0.340761  1
  Se  Se23  1  0.328559  0.500000  0.659777  1
  Se  Se24  1  0.334148  0.000000  0.338618  1
  Se  Se25  1  0.337414  0.000000  0.659660  1
  Se  Se26  1  0.663424  0.500000  0.159448  1
  Se  Se27  1  0.661215  0.500000  0.840296  1
