# generated using pymatgen
data_Sc5Ta3(Ni4As3)4
_symmetry_space_group_name_H-M   'P 1'
_cell_length_a   12.60002500
_cell_length_b   12.60002461
_cell_length_c   3.79900600
_cell_angle_alpha   90.00000000
_cell_angle_beta   90.00000000
_cell_angle_gamma   120.00000365
_symmetry_Int_Tables_number   1
_chemical_formula_structural   Sc5Ta3(Ni4As3)4
_chemical_formula_sum   'Sc5 Ta3 Ni16 As12'
_cell_volume   522.32810593
_cell_formula_units_Z   1
loop_
 _symmetry_equiv_pos_site_id
 _symmetry_equiv_pos_as_xyz
  1  'x, y, z'
loop_
 _atom_site_type_symbol
 _atom_site_label
 _atom_site_symmetry_multiplicity
 _atom_site_fract_x
 _atom_site_fract_y
 _atom_site_fract_z
 _atom_site_occupancy
  Sc  Sc0  1  0.666667  0.333333  0.000000  1
  Sc  Sc1  1  0.182993  0.182747  0.500000  1
  Sc  Sc2  1  0.817253  0.000246  0.500000  1
  Sc  Sc3  1  0.999754  0.817007  0.500000  1
  Sc  Sc4  1  0.333333  0.666667  0.000000  1
  Ta  Ta5  1  0.558244  0.558701  0.000000  1
  Ta  Ta6  1  0.441299  0.999543  0.000000  1
  Ta  Ta7  1  0.000457  0.441756  0.000000  1
  Ni  Ni8  1  0.719323  0.721277  0.500000  1
  Ni  Ni9  1  0.278723  0.998048  0.500000  1
  Ni  Ni10  1  0.001952  0.280677  0.500000  1
  Ni  Ni11  1  0.179478  0.372924  0.000000  1
  Ni  Ni12  1  0.627076  0.806554  0.000000  1
  Ni  Ni13  1  0.193446  0.820522  0.000000  1
  Ni  Ni14  1  0.806541  0.628664  0.000000  1
  Ni  Ni15  1  0.822124  0.193459  0.000000  1
  Ni  Ni16  1  0.371336  0.177876  0.000000  1
  Ni  Ni17  1  0.359055  0.481424  0.500000  1
  Ni  Ni18  1  0.518576  0.877632  0.500000  1
  Ni  Ni19  1  0.122368  0.640945  0.500000  1
  Ni  Ni20  1  0.876865  0.518109  0.500000  1
  Ni  Ni21  1  0.641246  0.123135  0.500000  1
  Ni  Ni22  1  0.481891  0.358754  0.500000  1
  Ni  Ni23  1  0.000000  0.000000  0.000000  1
  As  As24  1  0.824643  0.825363  0.000000  1
  As  As25  1  0.174637  0.999280  0.000000  1
  As  As26  1  0.000720  0.175357  0.000000  1
  As  As27  1  0.172779  0.486044  0.500000  1
  As  As28  1  0.513956  0.686734  0.500000  1
  As  As29  1  0.313266  0.827221  0.500000  1
  As  As30  1  0.686789  0.515313  0.500000  1
  As  As31  1  0.828525  0.313211  0.500000  1
  As  As32  1  0.484687  0.171475  0.500000  1
  As  As33  1  0.354437  0.353947  0.000000  1
  As  As34  1  0.646053  0.000489  0.000000  1
  As  As35  1  0.999511  0.645563  0.000000  1
