# generated using pymatgen
data_Ho(Tm2Co)2
_symmetry_space_group_name_H-M   'P 1'
_cell_length_a   6.22239973
_cell_length_b   6.87613956
_cell_length_c   8.40090606
_cell_angle_alpha   96.49964721
_cell_angle_beta   111.73666022
_cell_angle_gamma   90.00000236
_symmetry_Int_Tables_number   1
_chemical_formula_structural   Ho(Tm2Co)2
_chemical_formula_sum   'Ho2 Tm8 Co4'
_cell_volume   331.39566397
_cell_formula_units_Z   2
loop_
 _symmetry_equiv_pos_site_id
 _symmetry_equiv_pos_as_xyz
  1  'x, y, z'
loop_
 _atom_site_type_symbol
 _atom_site_label
 _atom_site_symmetry_multiplicity
 _atom_site_fract_x
 _atom_site_fract_y
 _atom_site_fract_z
 _atom_site_occupancy
  Ho  Ho0  1  0.794200  0.087217  0.811190  1
  Ho  Ho1  1  0.983010  0.412783  0.188810  1
  Tm  Tm2  1  0.205877  0.912614  0.188328  1
  Tm  Tm3  1  0.017550  0.587386  0.811672  1
  Tm  Tm4  1  0.212719  0.183654  0.566385  1
  Tm  Tm5  1  0.646334  0.316346  0.433615  1
  Tm  Tm6  1  0.786135  0.815698  0.433246  1
  Tm  Tm7  1  0.352889  0.684302  0.566754  1
  Tm  Tm8  1  0.426958  0.250000  0.000000  1
  Tm  Tm9  1  0.572859  0.750000  0.000000  1
  Co  Co10  1  0.601579  0.427970  0.777576  1
  Co  Co11  1  0.824002  0.072030  0.222424  1
  Co  Co12  1  0.398608  0.572792  0.221330  1
  Co  Co13  1  0.177280  0.927208  0.778670  1
