# generated using pymatgen
data_Y4Ti2Sn5
_symmetry_space_group_name_H-M   'P 1'
_cell_length_a   11.21427947
_cell_length_b   11.21427932
_cell_length_c   11.21427893
_cell_angle_alpha   148.53749221
_cell_angle_beta   131.32340577
_cell_angle_gamma   59.11675224
_symmetry_Int_Tables_number   1
_chemical_formula_structural   Y4Ti2Sn5
_chemical_formula_sum   'Y8 Ti4 Sn10'
_cell_volume   548.29967099
_cell_formula_units_Z   2
loop_
 _symmetry_equiv_pos_site_id
 _symmetry_equiv_pos_as_xyz
  1  'x, y, z'
loop_
 _atom_site_type_symbol
 _atom_site_label
 _atom_site_symmetry_multiplicity
 _atom_site_fract_x
 _atom_site_fract_y
 _atom_site_fract_z
 _atom_site_occupancy
  Y  Y0  1  0.668771  0.441061  0.227709  1
  Y  Y1  1  0.331229  0.558939  0.772291  1
  Y  Y2  1  0.213351  0.941061  0.272291  1
  Y  Y3  1  0.786649  0.058939  0.727709  1
  Y  Y4  1  0.254822  0.146190  0.108632  1
  Y  Y5  1  0.745178  0.853810  0.891368  1
  Y  Y6  1  0.037558  0.646190  0.391368  1
  Y  Y7  1  0.962442  0.353810  0.608632  1
  Ti  Ti8  1  0.302746  0.552746  0.250000  1
  Ti  Ti9  1  0.697254  0.447254  0.750000  1
  Ti  Ti10  1  0.697254  0.947254  0.250000  1
  Ti  Ti11  1  0.302746  0.052746  0.750000  1
  Sn  Sn12  1  0.585571  0.287614  0.297957  1
  Sn  Sn13  1  0.414429  0.712386  0.702043  1
  Sn  Sn14  1  0.989657  0.787614  0.202043  1
  Sn  Sn15  1  0.010343  0.212386  0.797957  1
  Sn  Sn16  1  0.000000  0.250000  0.250000  1
  Sn  Sn17  1  0.000000  0.750000  0.750000  1
  Sn  Sn18  1  0.487295  0.084345  0.402947  1
  Sn  Sn19  1  0.512705  0.915655  0.597053  1
  Sn  Sn20  1  0.681398  0.584345  0.097053  1
  Sn  Sn21  1  0.318602  0.415655  0.902947  1
