# generated using pymatgen
data_Zr6Ti2Al15Ir7
_symmetry_space_group_name_H-M   'P 1'
_cell_length_a   8.84100557
_cell_length_b   8.84100494
_cell_length_c   8.84100540
_cell_angle_alpha   120.21442379
_cell_angle_beta   119.76141684
_cell_angle_gamma   90.02137342
_symmetry_Int_Tables_number   1
_chemical_formula_structural   Zr6Ti2Al15Ir7
_chemical_formula_sum   'Zr6 Ti2 Al15 Ir7'
_cell_volume   488.72068751
_cell_formula_units_Z   1
loop_
 _symmetry_equiv_pos_site_id
 _symmetry_equiv_pos_as_xyz
  1  'x, y, z'
loop_
 _atom_site_type_symbol
 _atom_site_label
 _atom_site_symmetry_multiplicity
 _atom_site_fract_x
 _atom_site_fract_y
 _atom_site_fract_z
 _atom_site_occupancy
  Zr  Zr0  1  0.794150  0.291033  0.077431  1
  Zr  Zr1  1  0.213602  0.291033  0.496883  1
  Zr  Zr2  1  0.206171  0.706171  0.500000  1
  Zr  Zr3  1  0.213602  0.716719  0.922569  1
  Zr  Zr4  1  0.794150  0.716719  0.503117  1
  Zr  Zr5  1  0.784126  0.284126  0.500000  1
  Ti  Ti6  1  0.379750  0.123618  0.743868  1
  Ti  Ti7  1  0.379750  0.635882  0.256132  1
  Al  Al8  1  0.995065  0.495065  0.500000  1
  Al  Al9  1  0.160846  0.338734  0.177886  1
  Al  Al10  1  0.160846  0.982961  0.822114  1
  Al  Al11  1  0.156798  0.341524  0.815272  1
  Al  Al12  1  0.526251  0.341524  0.184728  1
  Al  Al13  1  0.839633  0.658679  0.819047  1
  Al  Al14  1  0.839633  0.020584  0.180953  1
  Al  Al15  1  0.838096  0.660182  0.177914  1
  Al  Al16  1  0.482268  0.660182  0.822086  1
  Al  Al17  1  0.379922  0.121851  0.258071  1
  Al  Al18  1  0.863781  0.121851  0.741929  1
  Al  Al19  1  0.620310  0.876331  0.256021  1
  Al  Al20  1  0.620310  0.364289  0.743979  1
  Al  Al21  1  0.618705  0.877475  0.741230  1
  Al  Al22  1  0.136244  0.877475  0.258770  1
  Ir  Ir23  1  0.001823  0.000306  0.501950  1
  Ir  Ir24  1  0.498356  0.000306  0.998483  1
  Ir  Ir25  1  0.497400  0.497400  0.000000  1
  Ir  Ir26  1  0.498356  0.499873  0.498050  1
  Ir  Ir27  1  0.001823  0.499873  0.001517  1
  Ir  Ir28  1  0.999972  0.999972  0.000000  1
  Ir  Ir29  1  0.498253  0.998253  0.500000  1
