# generated using pymatgen
data_Dy5Zr2P12Ir15Rh2
_symmetry_space_group_name_H-M   'P 1'
_cell_length_a   12.68321520
_cell_length_b   12.90589959
_cell_length_c   3.98155400
_cell_angle_alpha   90.00000000
_cell_angle_beta   90.00000000
_cell_angle_gamma   119.45106451
_symmetry_Int_Tables_number   1
_chemical_formula_structural   Dy5Zr2P12Ir15Rh2
_chemical_formula_sum   'Dy5 Zr2 P12 Ir15 Rh2'
_cell_volume   567.51412999
_cell_formula_units_Z   1
loop_
 _symmetry_equiv_pos_site_id
 _symmetry_equiv_pos_as_xyz
  1  'x, y, z'
loop_
 _atom_site_type_symbol
 _atom_site_label
 _atom_site_symmetry_multiplicity
 _atom_site_fract_x
 _atom_site_fract_y
 _atom_site_fract_z
 _atom_site_occupancy
  Dy  Dy0  1  0.329803  0.661570  0.500000  1
  Dy  Dy1  1  0.668291  0.338410  0.500000  1
  Dy  Dy2  1  0.000539  0.815117  0.000000  1
  Dy  Dy3  1  0.184773  0.184307  0.000000  1
  Dy  Dy4  1  0.811643  0.000552  0.000000  1
  Zr  Zr5  1  0.997611  0.446241  0.500000  1
  Zr  Zr6  1  0.550987  0.553773  0.500000  1
  P  P7  1  0.006067  0.650734  0.500000  1
  P  P8  1  0.355094  0.348854  0.500000  1
  P  P9  1  0.641740  0.999399  0.500000  1
  P  P10  1  0.515456  0.687474  0.000000  1
  P  P11  1  0.311379  0.826546  0.000000  1
  P  P12  1  0.164761  0.481410  0.000000  1
  P  P13  1  0.484706  0.172981  0.000000  1
  P  P14  1  0.683558  0.518957  0.000000  1
  P  P15  1  0.828283  0.313335  0.000000  1
  P  P16  1  0.998991  0.174147  0.500000  1
  P  P17  1  0.825168  0.825745  0.500000  1
  P  P18  1  0.182280  0.998981  0.500000  1
  Ir  Ir19  1  0.126836  0.644037  0.000000  1
  Ir  Ir20  1  0.355057  0.495682  0.000000  1
  Ir  Ir21  1  0.483046  0.355542  0.000000  1
  Ir  Ir22  1  0.859078  0.504386  0.000000  1
  Ir  Ir23  1  0.642279  0.136213  0.000000  1
  Ir  Ir24  1  0.997253  0.277096  0.000000  1
  Ir  Ir25  1  0.720664  0.723181  0.000000  1
  Ir  Ir26  1  0.287830  0.000161  0.000000  1
  Ir  Ir27  1  0.625065  0.808426  0.500000  1
  Ir  Ir28  1  0.203139  0.824801  0.500000  1
  Ir  Ir29  1  0.178154  0.365702  0.500000  1
  Ir  Ir30  1  0.378226  0.174662  0.500000  1
  Ir  Ir31  1  0.812082  0.633869  0.500000  1
  Ir  Ir32  1  0.816683  0.190828  0.500000  1
  Ir  Ir33  1  0.004424  0.000326  0.500000  1
  Rh  Rh34  1  0.506131  0.864647  0.000000  1
  Rh  Rh35  1  0.462928  0.001908  0.500000  1
