# generated using pymatgen
data_Tb2Dy4BiSbO14
_symmetry_space_group_name_H-M   'P 1'
_cell_length_a   6.49672151
_cell_length_b   6.51545091
_cell_length_c   7.65438176
_cell_angle_alpha   106.65781871
_cell_angle_beta   89.98383580
_cell_angle_gamma   98.29200760
_symmetry_Int_Tables_number   1
_chemical_formula_structural   Tb2Dy4BiSbO14
_chemical_formula_sum   'Tb2 Dy4 Bi1 Sb1 O14'
_cell_volume   306.87246697
_cell_formula_units_Z   1
loop_
 _symmetry_equiv_pos_site_id
 _symmetry_equiv_pos_as_xyz
  1  'x, y, z'
loop_
 _atom_site_type_symbol
 _atom_site_label
 _atom_site_symmetry_multiplicity
 _atom_site_fract_x
 _atom_site_fract_y
 _atom_site_fract_z
 _atom_site_occupancy
  Tb  Tb0  1  0.265662  0.525932  0.388479  1
  Tb  Tb1  1  0.266566  0.537582  0.884383  1
  Dy  Dy2  1  0.733251  0.462624  0.115576  1
  Dy  Dy3  1  0.733193  0.472831  0.610731  1
  Dy  Dy4  1  0.539870  0.995385  0.752466  1
  Dy  Dy5  1  0.460734  0.004881  0.247620  1
  Bi  Bi6  1  0.999619  0.999758  0.499863  1
  Sb  Sb7  1  0.999626  0.999838  0.000096  1
  O  O8  1  0.697821  0.073735  0.490702  1
  O  O9  1  0.928693  0.685117  0.973731  1
  O  O10  1  0.709408  0.069637  0.050605  1
  O  O11  1  0.927891  0.648496  0.384598  1
  O  O12  1  0.886358  0.909900  0.736245  1
  O  O13  1  0.558805  0.352320  0.834345  1
  O  O14  1  0.547029  0.360973  0.343139  1
  O  O15  1  0.455384  0.638908  0.656655  1
  O  O16  1  0.443954  0.648047  0.165836  1
  O  O17  1  0.113891  0.089646  0.263753  1
  O  O18  1  0.070041  0.351536  0.614751  1
  O  O19  1  0.290253  0.931035  0.949323  1
  O  O20  1  0.070129  0.314937  0.027417  1
  O  O21  1  0.301821  0.926883  0.509686  1
