# generated using pymatgen
data_Na4Co9Ni11P12
_symmetry_space_group_name_H-M   'P 1'
_cell_length_a   3.60557100
_cell_length_b   10.26546643
_cell_length_c   11.84745176
_cell_angle_alpha   90.05304149
_cell_angle_beta   90.00000000
_cell_angle_gamma   90.00000000
_symmetry_Int_Tables_number   1
_chemical_formula_structural   Na4Co9Ni11P12
_chemical_formula_sum   'Na4 Co9 Ni11 P12'
_cell_volume   438.50798105
_cell_formula_units_Z   1
loop_
 _symmetry_equiv_pos_site_id
 _symmetry_equiv_pos_as_xyz
  1  'x, y, z'
loop_
 _atom_site_type_symbol
 _atom_site_label
 _atom_site_symmetry_multiplicity
 _atom_site_fract_x
 _atom_site_fract_y
 _atom_site_fract_z
 _atom_site_occupancy
  Na  Na0  1  0.250000  0.580746  0.705614  1
  Na  Na1  1  0.250000  0.919838  0.205268  1
  Na  Na2  1  0.750000  0.419448  0.294964  1
  Na  Na3  1  0.750000  0.080354  0.794213  1
  Co  Co4  1  0.750000  0.719684  0.327499  1
  Co  Co5  1  0.250000  0.877138  0.698588  1
  Co  Co6  1  0.250000  0.622991  0.198370  1
  Co  Co7  1  0.750000  0.121879  0.301291  1
  Co  Co8  1  0.750000  0.376831  0.801424  1
  Co  Co9  1  0.250000  0.463834  0.933036  1
  Co  Co10  1  0.250000  0.035192  0.432066  1
  Co  Co11  1  0.750000  0.537063  0.067519  1
  Co  Co12  1  0.750000  0.963900  0.566618  1
  Ni  Ni13  1  0.250000  0.712650  0.989710  1
  Ni  Ni14  1  0.250000  0.788605  0.488930  1
  Ni  Ni15  1  0.750000  0.287271  0.010325  1
  Ni  Ni16  1  0.750000  0.213521  0.509322  1
  Ni  Ni17  1  0.250000  0.408119  0.484218  1
  Ni  Ni18  1  0.250000  0.092675  0.984704  1
  Ni  Ni19  1  0.750000  0.592833  0.516233  1
  Ni  Ni20  1  0.750000  0.906542  0.015694  1
  Ni  Ni21  1  0.250000  0.221525  0.173401  1
  Ni  Ni22  1  0.250000  0.278823  0.673313  1
  Ni  Ni23  1  0.750000  0.778539  0.826395  1
  P  P24  1  0.250000  0.425585  0.114381  1
  P  P25  1  0.250000  0.074837  0.613542  1
  P  P26  1  0.750000  0.574932  0.885939  1
  P  P27  1  0.750000  0.921275  0.385079  1
  P  P28  1  0.250000  0.267372  0.865411  1
  P  P29  1  0.250000  0.231999  0.365529  1
  P  P30  1  0.750000  0.733101  0.138115  1
  P  P31  1  0.750000  0.767698  0.634340  1
  P  P32  1  0.250000  0.604195  0.387769  1
  P  P33  1  0.250000  0.898936  0.888982  1
  P  P34  1  0.750000  0.399478  0.610851  1
  P  P35  1  0.750000  0.100591  0.111350  1
