# generated using pymatgen
data_Dy6Ho4AlSb5
_symmetry_space_group_name_H-M   'P 1'
_cell_length_a   8.93057001
_cell_length_b   8.91953404
_cell_length_c   6.37867501
_cell_angle_alpha   90.00772105
_cell_angle_beta   89.99579248
_cell_angle_gamma   120.04133670
_symmetry_Int_Tables_number   1
_chemical_formula_structural   Dy6Ho4AlSb5
_chemical_formula_sum   'Dy6 Ho4 Al1 Sb5'
_cell_volume   439.84676319
_cell_formula_units_Z   1
loop_
 _symmetry_equiv_pos_site_id
 _symmetry_equiv_pos_as_xyz
  1  'x, y, z'
loop_
 _atom_site_type_symbol
 _atom_site_label
 _atom_site_symmetry_multiplicity
 _atom_site_fract_x
 _atom_site_fract_y
 _atom_site_fract_z
 _atom_site_occupancy
  Dy  Dy0  1  0.334889  0.673274  0.999138  1
  Dy  Dy1  1  0.752401  0.000022  0.749985  1
  Dy  Dy2  1  0.754981  0.755719  0.250012  1
  Dy  Dy3  1  0.999401  0.244368  0.250034  1
  Dy  Dy4  1  0.009181  0.763307  0.749971  1
  Dy  Dy5  1  0.245897  0.236723  0.749927  1
  Ho  Ho6  1  0.661512  0.326655  0.500951  1
  Ho  Ho7  1  0.661417  0.326498  0.999002  1
  Ho  Ho8  1  0.334847  0.673300  0.500906  1
  Ho  Ho9  1  0.241834  0.000050  0.250106  1
  Al  Al10  1  0.397062  0.000351  0.749661  1
  Sb  Sb11  1  0.389671  0.391956  0.250282  1
  Sb  Sb12  1  0.997013  0.607698  0.250237  1
  Sb  Sb13  1  0.001639  0.390690  0.749717  1
  Sb  Sb14  1  0.611318  0.609060  0.749730  1
  Sb  Sb15  1  0.606936  0.000329  0.250343  1
