# generated using pymatgen
data_Na5Hg13
_symmetry_space_group_name_H-M   'P 1'
_cell_length_a   16.38702547
_cell_length_b   16.38702465
_cell_length_c   6.89117496
_cell_angle_alpha   98.99612930
_cell_angle_beta   98.99612849
_cell_angle_gamma   14.67163193
_symmetry_Int_Tables_number   1
_chemical_formula_structural   Na5Hg13
_chemical_formula_sum   'Na5 Hg13'
_cell_volume   462.83591698
_cell_formula_units_Z   1
loop_
 _symmetry_equiv_pos_site_id
 _symmetry_equiv_pos_as_xyz
  1  'x, y, z'
loop_
 _atom_site_type_symbol
 _atom_site_label
 _atom_site_symmetry_multiplicity
 _atom_site_fract_x
 _atom_site_fract_y
 _atom_site_fract_z
 _atom_site_occupancy
  Na  Na0  1  0.000000  0.000000  0.000000  1
  Na  Na1  1  0.670506  0.670506  0.324479  1
  Na  Na2  1  0.893300  0.893300  0.417498  1
  Na  Na3  1  0.106700  0.106700  0.582503  1
  Na  Na4  1  0.329494  0.329494  0.675521  1
  Hg  Hg5  1  0.108507  0.108507  0.065766  1
  Hg  Hg6  1  0.221587  0.221587  0.103450  1
  Hg  Hg7  1  0.337797  0.337797  0.180994  1
  Hg  Hg8  1  0.451197  0.451197  0.224710  1
  Hg  Hg9  1  0.561925  0.561925  0.280686  1
  Hg  Hg10  1  0.777890  0.777890  0.382998  1
  Hg  Hg11  1  0.000000  0.000000  0.500000  1
  Hg  Hg12  1  0.222110  0.222110  0.617003  1
  Hg  Hg13  1  0.438075  0.438075  0.719314  1
  Hg  Hg14  1  0.548803  0.548803  0.775289  1
  Hg  Hg15  1  0.662202  0.662202  0.819006  1
  Hg  Hg16  1  0.778412  0.778412  0.896549  1
  Hg  Hg17  1  0.891494  0.891494  0.934235  1
