# generated using pymatgen
data_Tb5TmAl20(SiOs2)4
_symmetry_space_group_name_H-M   'P 1'
_cell_length_a   8.69998600
_cell_length_b   8.70197060
_cell_length_c   9.64127500
_cell_angle_alpha   90.00000000
_cell_angle_beta   90.00000000
_cell_angle_gamma   119.99244840
_symmetry_Int_Tables_number   1
_chemical_formula_structural   Tb5TmAl20(SiOs2)4
_chemical_formula_sum   'Tb5 Tm1 Al20 Si4 Os8'
_cell_volume   632.17062304
_cell_formula_units_Z   1
loop_
 _symmetry_equiv_pos_site_id
 _symmetry_equiv_pos_as_xyz
  1  'x, y, z'
loop_
 _atom_site_type_symbol
 _atom_site_label
 _atom_site_symmetry_multiplicity
 _atom_site_fract_x
 _atom_site_fract_y
 _atom_site_fract_z
 _atom_site_occupancy
  Tb  Tb0  1  0.805073  0.610145  0.750000  1
  Tb  Tb1  1  0.609970  0.804699  0.250000  1
  Tb  Tb2  1  0.389604  0.194812  0.750000  1
  Tb  Tb3  1  0.194729  0.804699  0.250000  1
  Tb  Tb4  1  0.805207  0.194812  0.750000  1
  Tm  Tm5  1  0.196663  0.393327  0.250000  1
  Al  Al6  1  0.165061  0.330121  0.576029  1
  Al  Al7  1  0.834864  0.669728  0.423292  1
  Al  Al8  1  0.669739  0.834842  0.576512  1
  Al  Al9  1  0.834864  0.669728  0.076708  1
  Al  Al10  1  0.329801  0.165232  0.423036  1
  Al  Al11  1  0.165061  0.330121  0.923971  1
  Al  Al12  1  0.165104  0.834842  0.576512  1
  Al  Al13  1  0.329801  0.165232  0.076964  1
  Al  Al14  1  0.835430  0.165232  0.423036  1
  Al  Al15  1  0.669739  0.834842  0.923488  1
  Al  Al16  1  0.835430  0.165232  0.076964  1
  Al  Al17  1  0.165104  0.834842  0.923488  1
  Al  Al18  1  0.563987  0.127974  0.250000  1
  Al  Al19  1  0.436036  0.872071  0.750000  1
  Al  Al20  1  0.872776  0.435888  0.250000  1
  Al  Al21  1  0.127748  0.563749  0.750000  1
  Al  Al22  1  0.563111  0.435888  0.250000  1
  Al  Al23  1  0.436002  0.563749  0.750000  1
  Al  Al24  1  0.001073  0.002145  0.250000  1
  Al  Al25  1  0.999966  0.999933  0.750000  1
  Si  Si26  1  0.332935  0.665872  0.037799  1
  Si  Si27  1  0.666558  0.333115  0.963039  1
  Si  Si28  1  0.666558  0.333115  0.536961  1
  Si  Si29  1  0.332935  0.665872  0.462201  1
  Os  Os30  1  0.499863  0.999726  0.000143  1
  Os  Os31  1  0.000310  0.499711  0.000524  1
  Os  Os32  1  0.499863  0.999726  0.499857  1
  Os  Os33  1  0.499401  0.499711  0.000524  1
  Os  Os34  1  0.000310  0.499711  0.499476  1
  Os  Os35  1  0.499401  0.499711  0.499476  1
  Os  Os36  1  0.999961  0.999922  0.000132  1
  Os  Os37  1  0.999961  0.999922  0.499868  1
