# generated using pymatgen
data_Ca4DyEr(Si3Os)8
_symmetry_space_group_name_H-M   'P 1'
_cell_length_a   10.17785525
_cell_length_b   10.17765949
_cell_length_c   8.17406002
_cell_angle_alpha   89.93722215
_cell_angle_beta   90.07746563
_cell_angle_gamma   132.63644957
_symmetry_Int_Tables_number   1
_chemical_formula_structural   Ca4DyEr(Si3Os)8
_chemical_formula_sum   'Ca4 Dy1 Er1 Si24 Os8'
_cell_volume   622.90595192
_cell_formula_units_Z   1
loop_
 _symmetry_equiv_pos_site_id
 _symmetry_equiv_pos_as_xyz
  1  'x, y, z'
loop_
 _atom_site_type_symbol
 _atom_site_label
 _atom_site_symmetry_multiplicity
 _atom_site_fract_x
 _atom_site_fract_y
 _atom_site_fract_z
 _atom_site_occupancy
  Ca  Ca0  1  0.499442  0.999547  0.750196  1
  Ca  Ca1  1  0.000592  0.500622  0.249884  1
  Ca  Ca2  1  0.499813  0.999734  0.249889  1
  Ca  Ca3  1  0.999710  0.999831  0.000051  1
  Dy  Dy4  1  0.998166  0.498060  0.750248  1
  Er  Er5  1  0.499705  0.499714  0.499727  1
  Si  Si6  1  0.793019  0.204233  0.498375  1
  Si  Si7  1  0.703729  0.293402  0.001723  1
  Si  Si8  1  0.206599  0.794887  0.499417  1
  Si  Si9  1  0.295292  0.706133  0.000651  1
  Si  Si10  1  0.665535  0.668639  0.167167  1
  Si  Si11  1  0.166120  0.162825  0.330185  1
  Si  Si12  1  0.835539  0.834119  0.669441  1
  Si  Si13  1  0.331719  0.333061  0.833121  1
  Si  Si14  1  0.846150  0.612724  0.992495  1
  Si  Si15  1  0.110147  0.344515  0.506745  1
  Si  Si16  1  0.654415  0.889316  0.493726  1
  Si  Si17  1  0.386664  0.152753  0.007002  1
  Si  Si18  1  0.154497  0.387959  0.006466  1
  Si  Si19  1  0.890540  0.656174  0.494408  1
  Si  Si20  1  0.122437  0.889231  0.728740  1
  Si  Si21  1  0.389256  0.622848  0.772396  1
  Si  Si22  1  0.377034  0.611199  0.228730  1
  Si  Si23  1  0.111253  0.877298  0.270087  1
  Si  Si24  1  0.877229  0.111173  0.270164  1
  Si  Si25  1  0.611188  0.376927  0.228752  1
  Si  Si26  1  0.623668  0.390128  0.772475  1
  Si  Si27  1  0.890044  0.123202  0.728626  1
  Si  Si28  1  0.612945  0.847615  0.993778  1
  Si  Si29  1  0.345943  0.110423  0.505368  1
  Os  Os30  1  0.625706  0.625832  0.872811  1
  Os  Os31  1  0.129759  0.129703  0.623251  1
  Os  Os32  1  0.374465  0.373878  0.127657  1
  Os  Os33  1  0.869899  0.870578  0.376332  1
  Os  Os34  1  0.168428  0.828873  0.998221  1
  Os  Os35  1  0.330218  0.667158  0.501735  1
  Os  Os36  1  0.832069  0.172369  0.998060  1
  Os  Os37  1  0.671071  0.333319  0.501897  1
