# generated using pymatgen
data_Ce8Si12PdRh3
_symmetry_space_group_name_H-M   'P 1'
_cell_length_a   8.23510100
_cell_length_b   8.23510190
_cell_length_c   8.30312100
_cell_angle_alpha   90.00000000
_cell_angle_beta   90.00000000
_cell_angle_gamma   119.99999236
_symmetry_Int_Tables_number   1
_chemical_formula_structural   Ce8Si12PdRh3
_chemical_formula_sum   'Ce8 Si12 Pd1 Rh3'
_cell_volume   487.65192125
_cell_formula_units_Z   1
loop_
 _symmetry_equiv_pos_site_id
 _symmetry_equiv_pos_as_xyz
  1  'x, y, z'
loop_
 _atom_site_type_symbol
 _atom_site_label
 _atom_site_symmetry_multiplicity
 _atom_site_fract_x
 _atom_site_fract_y
 _atom_site_fract_z
 _atom_site_occupancy
  Ce  Ce0  1  0.000000  0.000000  0.249935  1
  Ce  Ce1  1  0.000000  0.000000  0.750161  1
  Ce  Ce2  1  0.502112  0.497888  0.247170  1
  Ce  Ce3  1  0.502112  0.004224  0.247170  1
  Ce  Ce4  1  0.995776  0.497888  0.247170  1
  Ce  Ce5  1  0.501853  0.498147  0.752725  1
  Ce  Ce6  1  0.501853  0.003705  0.752725  1
  Ce  Ce7  1  0.996295  0.498147  0.752725  1
  Si  Si8  1  0.164020  0.835980  0.500809  1
  Si  Si9  1  0.164020  0.328042  0.500809  1
  Si  Si10  1  0.671958  0.835980  0.500809  1
  Si  Si11  1  0.834131  0.165869  0.500580  1
  Si  Si12  1  0.834131  0.668263  0.500580  1
  Si  Si13  1  0.331737  0.165869  0.500580  1
  Si  Si14  1  0.835112  0.164888  0.999449  1
  Si  Si15  1  0.835112  0.670222  0.999449  1
  Si  Si16  1  0.329778  0.164888  0.999449  1
  Si  Si17  1  0.165735  0.834265  0.999484  1
  Si  Si18  1  0.165735  0.331473  0.999484  1
  Si  Si19  1  0.668527  0.834265  0.999484  1
  Pd  Pd20  1  0.333333  0.666667  0.498974  1
  Rh  Rh21  1  0.666667  0.333333  0.500450  1
  Rh  Rh22  1  0.666667  0.333333  0.999332  1
  Rh  Rh23  1  0.333333  0.666667  0.000497  1
