# generated using pymatgen
data_Np5WBr30
_symmetry_space_group_name_H-M   'P 1'
_cell_length_a   15.91384719
_cell_length_b   15.88309110
_cell_length_c   7.59732123
_cell_angle_alpha   87.85404125
_cell_angle_beta   87.81770553
_cell_angle_gamma   83.67763213
_symmetry_Int_Tables_number   1
_chemical_formula_structural   Np5WBr30
_chemical_formula_sum   'Np5 W1 Br30'
_cell_volume   1906.17445174
_cell_formula_units_Z   1
loop_
 _symmetry_equiv_pos_site_id
 _symmetry_equiv_pos_as_xyz
  1  'x, y, z'
loop_
 _atom_site_type_symbol
 _atom_site_label
 _atom_site_symmetry_multiplicity
 _atom_site_fract_x
 _atom_site_fract_y
 _atom_site_fract_z
 _atom_site_occupancy
  Np  Np0  1  0.430007  0.236063  0.481324  1
  Np  Np1  1  0.769456  0.564711  0.518448  1
  Np  Np2  1  0.565395  0.768226  0.518711  1
  Np  Np3  1  0.101688  0.897872  0.000301  1
  Np  Np4  1  0.898818  0.101385  0.999977  1
  W  W5  1  0.233582  0.432829  0.481947  1
  Br  Br6  1  0.519712  0.333178  0.274818  1
  Br  Br7  1  0.676002  0.472098  0.723622  1
  Br  Br8  1  0.473748  0.672864  0.723752  1
  Br  Br9  1  0.330667  0.507111  0.292784  1
  Br  Br10  1  0.558289  0.202103  0.690791  1
  Br  Br11  1  0.804316  0.436695  0.306877  1
  Br  Br12  1  0.047422  0.047021  0.796064  1
  Br  Br13  1  0.952731  0.952578  0.203948  1
  Br  Br14  1  0.866578  0.233666  0.783905  1
  Br  Br15  1  0.766783  0.133709  0.215652  1
  Br  Br16  1  0.133533  0.765428  0.217670  1
  Br  Br17  1  0.233659  0.866098  0.783413  1
  Br  Br18  1  0.989943  0.189366  0.192836  1
  Br  Br19  1  0.811301  0.010303  0.807276  1
  Br  Br20  1  0.010259  0.810214  0.807264  1
  Br  Br21  1  0.188765  0.989676  0.193003  1
  Br  Br22  1  0.281630  0.298544  0.287568  1
  Br  Br23  1  0.711290  0.710308  0.715229  1
  Br  Br24  1  0.112639  0.469377  0.296772  1
  Br  Br25  1  0.530238  0.896494  0.728840  1
  Br  Br26  1  0.898743  0.529836  0.727252  1
  Br  Br27  1  0.463491  0.107930  0.270719  1
  Br  Br28  1  0.159824  0.335292  0.671341  1
  Br  Br29  1  0.660449  0.859820  0.314039  1
  Br  Br30  1  0.859964  0.660290  0.312707  1
  Br  Br31  1  0.333270  0.145757  0.687408  1
  Br  Br32  1  0.367938  0.384769  0.675367  1
  Br  Br33  1  0.623256  0.621785  0.323197  1
  Br  Br34  1  0.196948  0.553789  0.667957  1
  Br  Br35  1  0.437664  0.802816  0.307221  1
