# generated using pymatgen
data_Ho2Ge2Os2C
_symmetry_space_group_name_H-M   'P 1'
_cell_length_a   5.87736348
_cell_length_b   5.87736379
_cell_length_c   6.83567288
_cell_angle_alpha   125.17677480
_cell_angle_beta   125.17677545
_cell_angle_gamma   41.27194512
_symmetry_Int_Tables_number   1
_chemical_formula_structural   Ho2Ge2Os2C
_chemical_formula_sum   'Ho2 Ge2 Os2 C1'
_cell_volume   122.74629001
_cell_formula_units_Z   1
loop_
 _symmetry_equiv_pos_site_id
 _symmetry_equiv_pos_as_xyz
  1  'x, y, z'
loop_
 _atom_site_type_symbol
 _atom_site_label
 _atom_site_symmetry_multiplicity
 _atom_site_fract_x
 _atom_site_fract_y
 _atom_site_fract_z
 _atom_site_occupancy
  Ho  Ho0  1  0.561478  0.561478  0.292719  1
  Ho  Ho1  1  0.438522  0.438522  0.707280  1
  Ge  Ge2  1  0.846205  0.846205  0.311761  1
  Ge  Ge3  1  0.153795  0.153795  0.688237  1
  Os  Os4  1  0.202856  0.202856  0.100916  1
  Os  Os5  1  0.797143  0.797143  0.899083  1
  C  C6  1  0.000000  0.000000  0.000000  1
