# generated using pymatgen
data_Tm3LuMnOs7
_symmetry_space_group_name_H-M   'P 1'
_cell_length_a   5.30864700
_cell_length_b   5.30864798
_cell_length_c   8.67072200
_cell_angle_alpha   90.00000000
_cell_angle_beta   90.00000000
_cell_angle_gamma   120.00000015
_symmetry_Int_Tables_number   1
_chemical_formula_structural   Tm3LuMnOs7
_chemical_formula_sum   'Tm3 Lu1 Mn1 Os7'
_cell_volume   211.61851796
_cell_formula_units_Z   1
loop_
 _symmetry_equiv_pos_site_id
 _symmetry_equiv_pos_as_xyz
  1  'x, y, z'
loop_
 _atom_site_type_symbol
 _atom_site_label
 _atom_site_symmetry_multiplicity
 _atom_site_fract_x
 _atom_site_fract_y
 _atom_site_fract_z
 _atom_site_occupancy
  Tm  Tm0  1  0.333333  0.666667  0.435239  1
  Tm  Tm1  1  0.666667  0.333333  0.563849  1
  Tm  Tm2  1  0.666667  0.333333  0.931428  1
  Lu  Lu3  1  0.333333  0.666667  0.068302  1
  Mn  Mn4  1  0.000000  0.000000  0.001865  1
  Os  Os5  1  0.171269  0.342538  0.753148  1
  Os  Os6  1  0.171269  0.828731  0.753148  1
  Os  Os7  1  0.342641  0.171320  0.246582  1
  Os  Os8  1  0.828680  0.657359  0.246582  1
  Os  Os9  1  0.657462  0.828731  0.753148  1
  Os  Os10  1  0.828680  0.171320  0.246582  1
  Os  Os11  1  0.000000  0.000000  0.500127  1
