# generated using pymatgen
data_Tb2DyCd3Ga2Cu
_symmetry_space_group_name_H-M   'P 1'
_cell_length_a   7.33245127
_cell_length_b   7.33011364
_cell_length_c   4.25716417
_cell_angle_alpha   89.99949172
_cell_angle_beta   90.00029102
_cell_angle_gamma   120.00562360
_symmetry_Int_Tables_number   1
_chemical_formula_structural   Tb2DyCd3Ga2Cu
_chemical_formula_sum   'Tb2 Dy1 Cd3 Ga2 Cu1'
_cell_volume   198.14645680
_cell_formula_units_Z   1
loop_
 _symmetry_equiv_pos_site_id
 _symmetry_equiv_pos_as_xyz
  1  'x, y, z'
loop_
 _atom_site_type_symbol
 _atom_site_label
 _atom_site_symmetry_multiplicity
 _atom_site_fract_x
 _atom_site_fract_y
 _atom_site_fract_z
 _atom_site_occupancy
  Tb  Tb0  1  0.999977  0.411631  0.499946  1
  Tb  Tb1  1  0.588302  0.588376  0.499930  1
  Dy  Dy2  1  0.411283  0.000046  0.499939  1
  Cd  Cd3  1  0.000276  0.755799  0.000095  1
  Cd  Cd4  1  0.244466  0.244208  0.000066  1
  Cd  Cd5  1  0.755352  0.000032  0.999991  1
  Ga  Ga6  1  0.333658  0.667232  0.999929  1
  Ga  Ga7  1  0.666479  0.332841  0.999937  1
  Cu  Cu8  1  0.000207  0.999836  0.500166  1
