# generated using pymatgen
data_Dy3Y7Sn5Bi
_symmetry_space_group_name_H-M   'P 1'
_cell_length_a   9.02386214
_cell_length_b   9.02352854
_cell_length_c   6.52988300
_cell_angle_alpha   90.00065536
_cell_angle_beta   89.99633741
_cell_angle_gamma   120.01865502
_symmetry_Int_Tables_number   1
_chemical_formula_structural   Dy3Y7Sn5Bi
_chemical_formula_sum   'Dy3 Y7 Sn5 Bi1'
_cell_volume   460.38716714
_cell_formula_units_Z   1
loop_
 _symmetry_equiv_pos_site_id
 _symmetry_equiv_pos_as_xyz
  1  'x, y, z'
loop_
 _atom_site_type_symbol
 _atom_site_label
 _atom_site_symmetry_multiplicity
 _atom_site_fract_x
 _atom_site_fract_y
 _atom_site_fract_z
 _atom_site_occupancy
  Dy  Dy0  1  0.330141  0.667330  0.499280  1
  Dy  Dy1  1  0.667303  0.330117  0.499351  1
  Dy  Dy2  1  0.330146  0.667343  0.000700  1
  Y  Y3  1  0.760581  0.760603  0.250063  1
  Y  Y4  1  0.999688  0.240412  0.250080  1
  Y  Y5  1  0.761292  0.005216  0.749906  1
  Y  Y6  1  0.240403  0.999635  0.250065  1
  Y  Y7  1  0.005260  0.761319  0.749933  1
  Y  Y8  1  0.237035  0.237039  0.749968  1
  Y  Y9  1  0.667320  0.330189  0.000702  1
  Sn  Sn10  1  0.395163  0.000366  0.749835  1
  Sn  Sn11  1  0.605597  0.998706  0.250170  1
  Sn  Sn12  1  0.000535  0.395238  0.749840  1
  Sn  Sn13  1  0.393715  0.393809  0.250126  1
  Sn  Sn14  1  0.998932  0.605712  0.250139  1
  Bi  Bi15  1  0.606888  0.606968  0.749842  1
