# generated using pymatgen
data_Li2AcDySi2Pb
_symmetry_space_group_name_H-M   'P 1'
_cell_length_a   9.93763500
_cell_length_b   9.93763194
_cell_length_c   7.14025000
_cell_angle_alpha   90.00000000
_cell_angle_beta   90.00000000
_cell_angle_gamma   153.53951205
_symmetry_Int_Tables_number   1
_chemical_formula_structural   Li2AcDySi2Pb
_chemical_formula_sum   'Li4 Ac2 Dy2 Si4 Pb2'
_cell_volume   314.19957200
_cell_formula_units_Z   2
loop_
 _symmetry_equiv_pos_site_id
 _symmetry_equiv_pos_as_xyz
  1  'x, y, z'
loop_
 _atom_site_type_symbol
 _atom_site_label
 _atom_site_symmetry_multiplicity
 _atom_site_fract_x
 _atom_site_fract_y
 _atom_site_fract_z
 _atom_site_occupancy
  Li  Li0  1  0.183776  0.816224  0.052368  1
  Li  Li1  1  0.183776  0.816224  0.447632  1
  Li  Li2  1  0.816224  0.183776  0.947632  1
  Li  Li3  1  0.816224  0.183776  0.552368  1
  Ac  Ac4  1  0.551148  0.448852  0.250000  1
  Ac  Ac5  1  0.448852  0.551148  0.750000  1
  Dy  Dy6  1  0.354456  0.645544  0.250000  1
  Dy  Dy7  1  0.645544  0.354456  0.750000  1
  Si  Si8  1  0.057632  0.942368  0.920252  1
  Si  Si9  1  0.942368  0.057632  0.079748  1
  Si  Si10  1  0.942368  0.057632  0.420252  1
  Si  Si11  1  0.057632  0.942368  0.579748  1
  Pb  Pb12  1  0.725031  0.274969  0.250000  1
  Pb  Pb13  1  0.274969  0.725031  0.750000  1
