# generated using pymatgen
data_YbCe3AlOs7
_symmetry_space_group_name_H-M   'P 1'
_cell_length_a   5.40711000
_cell_length_b   5.40710983
_cell_length_c   8.63789200
_cell_angle_alpha   90.00000000
_cell_angle_beta   90.00000000
_cell_angle_gamma   119.99998882
_symmetry_Int_Tables_number   1
_chemical_formula_structural   YbCe3AlOs7
_chemical_formula_sum   'Yb1 Ce3 Al1 Os7'
_cell_volume   218.71010351
_cell_formula_units_Z   1
loop_
 _symmetry_equiv_pos_site_id
 _symmetry_equiv_pos_as_xyz
  1  'x, y, z'
loop_
 _atom_site_type_symbol
 _atom_site_label
 _atom_site_symmetry_multiplicity
 _atom_site_fract_x
 _atom_site_fract_y
 _atom_site_fract_z
 _atom_site_occupancy
  Yb  Yb0  1  0.333333  0.666667  0.065553  1
  Ce  Ce1  1  0.333333  0.666667  0.418018  1
  Ce  Ce2  1  0.666667  0.333333  0.580707  1
  Ce  Ce3  1  0.666667  0.333333  0.931213  1
  Al  Al4  1  0.000000  0.000000  0.501250  1
  Os  Os5  1  0.000000  0.000000  0.001148  1
  Os  Os6  1  0.829289  0.170711  0.251161  1
  Os  Os7  1  0.829289  0.658578  0.251161  1
  Os  Os8  1  0.341422  0.170711  0.251161  1
  Os  Os9  1  0.171703  0.828297  0.749543  1
  Os  Os10  1  0.171703  0.343405  0.749543  1
  Os  Os11  1  0.656595  0.828297  0.749543  1
