# generated using pymatgen
data_BaLa2(H6Rh)2
_symmetry_space_group_name_H-M   'P 1'
_cell_length_a   5.12325800
_cell_length_b   5.12325787
_cell_length_c   8.94003200
_cell_angle_alpha   90.00000000
_cell_angle_beta   90.00000000
_cell_angle_gamma   119.99998796
_symmetry_Int_Tables_number   1
_chemical_formula_structural   BaLa2(H6Rh)2
_chemical_formula_sum   'Ba1 La2 H12 Rh2'
_cell_volume   203.21801272
_cell_formula_units_Z   1
loop_
 _symmetry_equiv_pos_site_id
 _symmetry_equiv_pos_as_xyz
  1  'x, y, z'
loop_
 _atom_site_type_symbol
 _atom_site_label
 _atom_site_symmetry_multiplicity
 _atom_site_fract_x
 _atom_site_fract_y
 _atom_site_fract_z
 _atom_site_occupancy
  Ba  Ba0  1  0.000000  0.000000  0.000000  1
  La  La1  1  0.666667  0.333333  0.364052  1
  La  La2  1  0.333333  0.666667  0.635948  1
  H  H3  1  0.176493  0.823507  0.371994  1
  H  H4  1  0.647015  0.823507  0.371994  1
  H  H5  1  0.176493  0.352985  0.371994  1
  H  H6  1  0.823507  0.176493  0.628006  1
  H  H7  1  0.352985  0.176493  0.628006  1
  H  H8  1  0.823507  0.647015  0.628006  1
  H  H9  1  0.510773  0.021544  0.852412  1
  H  H10  1  0.510773  0.489227  0.852412  1
  H  H11  1  0.978456  0.489227  0.852412  1
  H  H12  1  0.489227  0.978456  0.147588  1
  H  H13  1  0.489227  0.510773  0.147588  1
  H  H14  1  0.021544  0.510773  0.147588  1
  Rh  Rh15  1  0.666667  0.333333  0.741557  1
  Rh  Rh16  1  0.333333  0.666667  0.258443  1
