# generated using pymatgen
data_K3EuUSe5
_symmetry_space_group_name_H-M   'P 1'
_cell_length_a   7.76590688
_cell_length_b   11.74127449
_cell_length_c   7.80078200
_cell_angle_alpha   101.48357878
_cell_angle_beta   101.72831384
_cell_angle_gamma   109.50361617
_symmetry_Int_Tables_number   1
_chemical_formula_structural   K3EuUSe5
_chemical_formula_sum   'K6 Eu2 U2 Se10'
_cell_volume   628.41659165
_cell_formula_units_Z   2
loop_
 _symmetry_equiv_pos_site_id
 _symmetry_equiv_pos_as_xyz
  1  'x, y, z'
loop_
 _atom_site_type_symbol
 _atom_site_label
 _atom_site_symmetry_multiplicity
 _atom_site_fract_x
 _atom_site_fract_y
 _atom_site_fract_z
 _atom_site_occupancy
  K  K0  1  0.985565  0.492945  0.989829  1
  K  K1  1  0.819090  0.304807  0.422282  1
  K  K2  1  0.007056  0.000128  0.503791  1
  K  K3  1  0.195096  0.693015  0.585031  1
  K  K4  1  0.400032  0.398672  0.703955  1
  K  K5  1  0.578656  0.100247  0.789728  1
  Eu  Eu6  1  0.403437  0.900491  0.205184  1
  Eu  Eu7  1  0.600570  0.600071  0.298433  1
  U  U8  1  0.201448  0.201893  0.104550  1
  U  U9  1  0.797483  0.803461  0.894709  1
  Se  Se10  1  0.553283  0.341773  0.077589  1
  Se  Se11  1  0.820401  0.034429  0.117078  1
  Se  Se12  1  0.985017  0.754348  0.203633  1
  Se  Se13  1  0.215641  0.424643  0.316627  1
  Se  Se14  1  0.385973  0.142247  0.397301  1
  Se  Se15  1  0.608085  0.836707  0.559432  1
  Se  Se16  1  0.796381  0.591222  0.665972  1
  Se  Se17  1  0.020406  0.238089  0.799503  1
  Se  Se18  1  0.170574  0.956932  0.893919  1
  Se  Se19  1  0.455810  0.683880  0.971453  1
