# generated using pymatgen
data_Sc4ReTc4Os3
_symmetry_space_group_name_H-M   'P 1'
_cell_length_a   5.21648032
_cell_length_b   5.26780819
_cell_length_c   8.67872100
_cell_angle_alpha   90.00000000
_cell_angle_beta   90.00000000
_cell_angle_gamma   121.04641384
_symmetry_Int_Tables_number   1
_chemical_formula_structural   Sc4ReTc4Os3
_chemical_formula_sum   'Sc4 Re1 Tc4 Os3'
_cell_volume   204.32300449
_cell_formula_units_Z   1
loop_
 _symmetry_equiv_pos_site_id
 _symmetry_equiv_pos_as_xyz
  1  'x, y, z'
loop_
 _atom_site_type_symbol
 _atom_site_label
 _atom_site_symmetry_multiplicity
 _atom_site_fract_x
 _atom_site_fract_y
 _atom_site_fract_z
 _atom_site_occupancy
  Sc  Sc0  1  0.337329  0.666884  0.433268  1
  Sc  Sc1  1  0.664368  0.333421  0.563634  1
  Sc  Sc2  1  0.664368  0.333421  0.936366  1
  Sc  Sc3  1  0.337329  0.666884  0.066732  1
  Re  Re4  1  0.337736  0.169532  0.250000  1
  Tc  Tc5  1  0.171300  0.346221  0.750000  1
  Tc  Tc6  1  0.172826  0.825883  0.750000  1
  Tc  Tc7  1  0.825706  0.655547  0.250000  1
  Tc  Tc8  1  0.651538  0.827048  0.750000  1
  Os  Os9  1  0.007098  0.001035  0.998091  1
  Os  Os10  1  0.823303  0.173090  0.250000  1
  Os  Os11  1  0.007098  0.001035  0.501909  1
