# generated using pymatgen
data_Y3Er3Sn6Pd5Pt
_symmetry_space_group_name_H-M   'P 1'
_cell_length_a   7.68051500
_cell_length_b   7.68051516
_cell_length_c   7.70506000
_cell_angle_alpha   90.00000000
_cell_angle_beta   90.00000000
_cell_angle_gamma   120.00000362
_symmetry_Int_Tables_number   1
_chemical_formula_structural   Y3Er3Sn6Pd5Pt
_chemical_formula_sum   'Y3 Er3 Sn6 Pd5 Pt1'
_cell_volume   393.62922322
_cell_formula_units_Z   1
loop_
 _symmetry_equiv_pos_site_id
 _symmetry_equiv_pos_as_xyz
  1  'x, y, z'
loop_
 _atom_site_type_symbol
 _atom_site_label
 _atom_site_symmetry_multiplicity
 _atom_site_fract_x
 _atom_site_fract_y
 _atom_site_fract_z
 _atom_site_occupancy
  Y  Y0  1  0.400403  0.995560  0.750758  1
  Y  Y1  1  0.595158  0.599597  0.750758  1
  Y  Y2  1  0.004440  0.404842  0.750758  1
  Er  Er3  1  0.399921  0.999147  0.249238  1
  Er  Er4  1  0.599227  0.600079  0.249238  1
  Er  Er5  1  0.000853  0.400773  0.249238  1
  Sn  Sn6  1  0.737996  0.003022  0.001644  1
  Sn  Sn7  1  0.263873  0.262261  0.498854  1
  Sn  Sn8  1  0.998386  0.736127  0.498854  1
  Sn  Sn9  1  0.996978  0.734974  0.001644  1
  Sn  Sn10  1  0.265026  0.262004  0.001644  1
  Sn  Sn11  1  0.737739  0.001614  0.498854  1
  Pd  Pd12  1  0.333333  0.666667  0.485497  1
  Pd  Pd13  1  0.666667  0.333333  0.006952  1
  Pd  Pd14  1  0.666667  0.333333  0.493031  1
  Pd  Pd15  1  0.000000  0.000000  0.249275  1
  Pd  Pd16  1  0.000000  0.000000  0.751228  1
  Pt  Pt17  1  0.333333  0.666667  0.012537  1
