# generated using pymatgen
data_Sc2AlSnPd4
_symmetry_space_group_name_H-M   'P 1'
_cell_length_a   8.01861037
_cell_length_b   8.01861029
_cell_length_c   8.01861038
_cell_angle_alpha   33.24552422
_cell_angle_beta   33.24552353
_cell_angle_gamma   33.24552603
_symmetry_Int_Tables_number   1
_chemical_formula_structural   Sc2AlSnPd4
_chemical_formula_sum   'Sc2 Al1 Sn1 Pd4'
_cell_volume   137.95606819
_cell_formula_units_Z   1
loop_
 _symmetry_equiv_pos_site_id
 _symmetry_equiv_pos_as_xyz
  1  'x, y, z'
loop_
 _atom_site_type_symbol
 _atom_site_label
 _atom_site_symmetry_multiplicity
 _atom_site_fract_x
 _atom_site_fract_y
 _atom_site_fract_z
 _atom_site_occupancy
  Sc  Sc0  1  0.250624  0.250624  0.250624  1
  Sc  Sc1  1  0.749376  0.749376  0.749376  1
  Al  Al2  1  0.000000  0.000000  0.000000  1
  Sn  Sn3  1  0.500000  0.500000  0.500000  1
  Pd  Pd4  1  0.629277  0.629277  0.629277  1
  Pd  Pd5  1  0.119721  0.119721  0.119721  1
  Pd  Pd6  1  0.880279  0.880279  0.880279  1
  Pd  Pd7  1  0.370723  0.370723  0.370723  1
