# generated using pymatgen
data_LaHo5(P2Rh3)6
_symmetry_space_group_name_H-M   'P 1'
_cell_length_a   3.92980300
_cell_length_b   11.21943100
_cell_length_c   12.79871400
_cell_angle_alpha   90.00000000
_cell_angle_beta   90.00000000
_cell_angle_gamma   90.00000000
_symmetry_Int_Tables_number   1
_chemical_formula_structural   LaHo5(P2Rh3)6
_chemical_formula_sum   'La1 Ho5 P12 Rh18'
_cell_volume   564.29726617
_cell_formula_units_Z   1
loop_
 _symmetry_equiv_pos_site_id
 _symmetry_equiv_pos_as_xyz
  1  'x, y, z'
loop_
 _atom_site_type_symbol
 _atom_site_label
 _atom_site_symmetry_multiplicity
 _atom_site_fract_x
 _atom_site_fract_y
 _atom_site_fract_z
 _atom_site_occupancy
  La  La0  1  0.000000  0.500000  0.523492  1
  Ho  Ho1  1  0.500000  0.000000  0.478778  1
  Ho  Ho2  1  0.500000  0.814431  0.204901  1
  Ho  Ho3  1  0.500000  0.185569  0.204901  1
  Ho  Ho4  1  0.000000  0.686496  0.795700  1
  Ho  Ho5  1  0.000000  0.313504  0.795700  1
  P  P6  1  0.500000  0.312040  0.620421  1
  P  P7  1  0.500000  0.687960  0.620421  1
  P  P8  1  0.000000  0.184521  0.381286  1
  P  P9  1  0.000000  0.815479  0.381286  1
  P  P10  1  0.500000  0.500000  0.878972  1
  P  P11  1  0.000000  0.000000  0.122506  1
  P  P12  1  0.500000  0.847084  0.893004  1
  P  P13  1  0.500000  0.152916  0.893004  1
  P  P14  1  0.000000  0.653763  0.106634  1
  P  P15  1  0.000000  0.346237  0.106634  1
  P  P16  1  0.500000  0.500000  0.347275  1
  P  P17  1  0.000000  0.000000  0.647685  1
  Rh  Rh18  1  0.000000  0.500000  0.978423  1
  Rh  Rh19  1  0.500000  0.000000  0.022383  1
  Rh  Rh20  1  0.500000  0.290394  0.429854  1
  Rh  Rh21  1  0.500000  0.709606  0.429854  1
  Rh  Rh22  1  0.000000  0.202152  0.569333  1
  Rh  Rh23  1  0.000000  0.797848  0.569333  1
  Rh  Rh24  1  0.500000  0.873320  0.711660  1
  Rh  Rh25  1  0.500000  0.126680  0.711660  1
  Rh  Rh26  1  0.000000  0.627567  0.287527  1
  Rh  Rh27  1  0.000000  0.372433  0.287527  1
  Rh  Rh28  1  0.500000  0.333803  0.993532  1
  Rh  Rh29  1  0.500000  0.666197  0.993532  1
  Rh  Rh30  1  0.000000  0.165466  0.006174  1
  Rh  Rh31  1  0.000000  0.834534  0.006174  1
  Rh  Rh32  1  0.500000  0.500000  0.167692  1
  Rh  Rh33  1  0.000000  0.000000  0.829583  1
  Rh  Rh34  1  0.500000  0.500000  0.703954  1
  Rh  Rh35  1  0.000000  0.000000  0.299202  1
