# generated using pymatgen
data_SrCa2Yb(ReN3)4
_symmetry_space_group_name_H-M   'P 1'
_cell_length_a   7.41591855
_cell_length_b   7.41591942
_cell_length_c   6.22836426
_cell_angle_alpha   75.98387231
_cell_angle_beta   75.98387265
_cell_angle_gamma   85.16191546
_symmetry_Int_Tables_number   1
_chemical_formula_structural   SrCa2Yb(ReN3)4
_chemical_formula_sum   'Sr1 Ca2 Yb1 Re4 N12'
_cell_volume   322.32167759
_cell_formula_units_Z   1
loop_
 _symmetry_equiv_pos_site_id
 _symmetry_equiv_pos_as_xyz
  1  'x, y, z'
loop_
 _atom_site_type_symbol
 _atom_site_label
 _atom_site_symmetry_multiplicity
 _atom_site_fract_x
 _atom_site_fract_y
 _atom_site_fract_z
 _atom_site_occupancy
  Sr  Sr0  1  0.694512  0.305488  0.750000  1
  Ca  Ca1  1  0.299588  0.700412  0.250000  1
  Ca  Ca2  1  0.916686  0.083314  0.250000  1
  Yb  Yb3  1  0.090262  0.909738  0.750000  1
  Re  Re4  1  0.798592  0.624072  0.251994  1
  Re  Re5  1  0.375928  0.201408  0.248006  1
  Re  Re6  1  0.622535  0.800120  0.755223  1
  Re  Re7  1  0.199880  0.377465  0.744777  1
  N  N8  1  0.782807  0.983686  0.655916  1
  N  N9  1  0.111643  0.606404  0.673758  1
  N  N10  1  0.338041  0.355076  0.972064  1
  N  N11  1  0.607001  0.120786  0.181097  1
  N  N12  1  0.879214  0.392999  0.318903  1
  N  N13  1  0.226480  0.007325  0.347344  1
  N  N14  1  0.992675  0.773520  0.152656  1
  N  N15  1  0.355675  0.346347  0.467378  1
  N  N16  1  0.644924  0.661959  0.527936  1
  N  N17  1  0.016314  0.217193  0.844084  1
  N  N18  1  0.393596  0.888357  0.826242  1
  N  N19  1  0.653653  0.644325  0.032622  1
