# generated using pymatgen
data_HgSb4
_symmetry_space_group_name_H-M   'P 1'
_cell_length_a   3.14158800
_cell_length_b   3.14158800
_cell_length_c   14.99593200
_cell_angle_alpha   90.00000000
_cell_angle_beta   90.00000000
_cell_angle_gamma   90.00000000
_symmetry_Int_Tables_number   1
_chemical_formula_structural   HgSb4
_chemical_formula_sum   'Hg1 Sb4'
_cell_volume   148.00347799
_cell_formula_units_Z   1
loop_
 _symmetry_equiv_pos_site_id
 _symmetry_equiv_pos_as_xyz
  1  'x, y, z'
loop_
 _atom_site_type_symbol
 _atom_site_label
 _atom_site_symmetry_multiplicity
 _atom_site_fract_x
 _atom_site_fract_y
 _atom_site_fract_z
 _atom_site_occupancy
  Hg  Hg0  1  0.000000  0.000000  0.000000  1
  Sb  Sb1  1  0.000000  0.000000  0.195078  1
  Sb  Sb2  1  0.000000  0.000000  0.398413  1
  Sb  Sb3  1  0.000000  0.000000  0.601587  1
  Sb  Sb4  1  0.000000  0.000000  0.804922  1
