# generated using pymatgen
data_La3TbY2IrBr10
_symmetry_space_group_name_H-M   'P 1'
_cell_length_a   7.56849813
_cell_length_b   9.63171604
_cell_length_c   9.46502200
_cell_angle_alpha   107.41281742
_cell_angle_beta   95.37717618
_cell_angle_gamma   105.03307884
_symmetry_Int_Tables_number   1
_chemical_formula_structural   La3TbY2IrBr10
_chemical_formula_sum   'La3 Tb1 Y2 Ir1 Br10'
_cell_volume   624.74074169
_cell_formula_units_Z   1
loop_
 _symmetry_equiv_pos_site_id
 _symmetry_equiv_pos_as_xyz
  1  'x, y, z'
loop_
 _atom_site_type_symbol
 _atom_site_label
 _atom_site_symmetry_multiplicity
 _atom_site_fract_x
 _atom_site_fract_y
 _atom_site_fract_z
 _atom_site_occupancy
  La  La0  1  0.125305  0.045958  0.753574  1
  La  La1  1  0.872426  0.953599  0.245225  1
  La  La2  1  0.968592  0.306946  0.096988  1
  Tb  Tb3  1  0.030239  0.705475  0.905564  1
  Y  Y4  1  0.358841  0.127264  0.171319  1
  Y  Y5  1  0.640990  0.866887  0.827728  1
  Ir  Ir6  1  0.999474  0.000177  0.999545  1
  Br  Br7  1  0.357663  0.434011  0.266139  1
  Br  Br8  1  0.661795  0.564442  0.739220  1
  Br  Br9  1  0.258420  0.082985  0.446876  1
  Br  Br10  1  0.738374  0.914281  0.552819  1
  Br  Br11  1  0.083802  0.376349  0.821994  1
  Br  Br12  1  0.920486  0.635436  0.168616  1
  Br  Br13  1  0.447899  0.825492  0.081701  1
  Br  Br14  1  0.545266  0.167652  0.913940  1
  Br  Br15  1  0.756760  0.247973  0.342090  1
  Br  Br16  1  0.233666  0.745073  0.666661  1
