# generated using pymatgen
data_La5Cu2Ru3
_symmetry_space_group_name_H-M   'P 1'
_cell_length_a   8.48971905
_cell_length_b   8.48971896
_cell_length_c   8.48971900
_cell_angle_alpha   109.47121834
_cell_angle_beta   109.47121814
_cell_angle_gamma   109.47123008
_symmetry_Int_Tables_number   1
_chemical_formula_structural   La5Cu2Ru3
_chemical_formula_sum   'La10 Cu4 Ru6'
_cell_volume   471.04026446
_cell_formula_units_Z   2
loop_
 _symmetry_equiv_pos_site_id
 _symmetry_equiv_pos_as_xyz
  1  'x, y, z'
loop_
 _atom_site_type_symbol
 _atom_site_label
 _atom_site_symmetry_multiplicity
 _atom_site_fract_x
 _atom_site_fract_y
 _atom_site_fract_z
 _atom_site_occupancy
  La  La0  1  0.250000  0.694565  0.444566  1
  La  La1  1  0.750000  0.805435  0.055435  1
  La  La2  1  0.444566  0.250000  0.694565  1
  La  La3  1  0.694565  0.444566  0.250000  1
  La  La4  1  0.055435  0.750000  0.805435  1
  La  La5  1  0.805435  0.055435  0.750000  1
  La  La6  1  0.225799  0.225799  0.225799  1
  La  La7  1  0.500001  0.000000  0.274201  1
  La  La8  1  0.274201  0.500001  0.000000  1
  La  La9  1  0.000000  0.274201  0.500001  1
  Cu  Cu10  1  0.500001  0.000000  0.915029  1
  Cu  Cu11  1  0.584971  0.584971  0.584971  1
  Cu  Cu12  1  0.915029  0.500001  0.000000  1
  Cu  Cu13  1  0.000000  0.915029  0.500001  1
  Ru  Ru14  1  0.250001  0.127759  0.877759  1
  Ru  Ru15  1  0.750000  0.372240  0.622240  1
  Ru  Ru16  1  0.877759  0.250001  0.127759  1
  Ru  Ru17  1  0.127759  0.877759  0.250001  1
  Ru  Ru18  1  0.622240  0.750000  0.372240  1
  Ru  Ru19  1  0.372240  0.622240  0.750000  1
