# generated using pymatgen
data_Ca4Ga5Ni9
_symmetry_space_group_name_H-M   'P 1'
_cell_length_a   5.25614924
_cell_length_b   5.25614917
_cell_length_c   12.12119332
_cell_angle_alpha   77.47787768
_cell_angle_beta   77.47787659
_cell_angle_gamma   59.99999964
_symmetry_Int_Tables_number   1
_chemical_formula_structural   Ca4Ga5Ni9
_chemical_formula_sum   'Ca4 Ga5 Ni9'
_cell_volume   280.77310088
_cell_formula_units_Z   1
loop_
 _symmetry_equiv_pos_site_id
 _symmetry_equiv_pos_as_xyz
  1  'x, y, z'
loop_
 _atom_site_type_symbol
 _atom_site_label
 _atom_site_symmetry_multiplicity
 _atom_site_fract_x
 _atom_site_fract_y
 _atom_site_fract_z
 _atom_site_occupancy
  Ca  Ca0  1  0.950266  0.950266  0.149200  1
  Ca  Ca1  1  0.049734  0.049734  0.850800  1
  Ca  Ca2  1  0.853552  0.853552  0.439344  1
  Ca  Ca3  1  0.146448  0.146448  0.560656  1
  Ga  Ga4  1  0.500000  0.500000  0.500000  1
  Ga  Ga5  1  0.721956  0.721956  0.834131  1
  Ga  Ga6  1  0.278044  0.278044  0.165869  1
  Ga  Ga7  1  0.611755  0.611755  0.164735  1
  Ga  Ga8  1  0.388245  0.388245  0.835265  1
  Ni  Ni9  1  0.000000  0.500000  0.000000  1
  Ni  Ni10  1  0.500000  0.000000  0.000000  1
  Ni  Ni11  1  0.500000  0.500000  0.000000  1
  Ni  Ni12  1  0.389932  0.389932  0.328596  1
  Ni  Ni13  1  0.891541  0.389932  0.328596  1
  Ni  Ni14  1  0.389932  0.891541  0.328596  1
  Ni  Ni15  1  0.610068  0.610068  0.671404  1
  Ni  Ni16  1  0.108459  0.610068  0.671404  1
  Ni  Ni17  1  0.610068  0.108459  0.671404  1
