# generated using pymatgen
data_Tb5Ho3(LuIn5)4
_symmetry_space_group_name_H-M   'P 1'
_cell_length_a   6.54511400
_cell_length_b   10.36002401
_cell_length_c   12.19351900
_cell_angle_alpha   90.00030971
_cell_angle_beta   90.00161073
_cell_angle_gamma   90.00287583
_symmetry_Int_Tables_number   1
_chemical_formula_structural   Tb5Ho3(LuIn5)4
_chemical_formula_sum   'Tb5 Ho3 Lu4 In20'
_cell_volume   826.81250444
_cell_formula_units_Z   1
loop_
 _symmetry_equiv_pos_site_id
 _symmetry_equiv_pos_as_xyz
  1  'x, y, z'
loop_
 _atom_site_type_symbol
 _atom_site_label
 _atom_site_symmetry_multiplicity
 _atom_site_fract_x
 _atom_site_fract_y
 _atom_site_fract_z
 _atom_site_occupancy
  Tb  Tb0  1  0.887046  0.488977  0.142056  1
  Tb  Tb1  1  0.612910  0.011026  0.641917  1
  Tb  Tb2  1  0.112964  0.988954  0.858093  1
  Tb  Tb3  1  0.387088  0.511032  0.358053  1
  Tb  Tb4  1  0.112843  0.511086  0.857989  1
  Ho  Ho5  1  0.387265  0.988945  0.358040  1
  Ho  Ho6  1  0.887099  0.011064  0.142003  1
  Ho  Ho7  1  0.612821  0.488961  0.641864  1
  Lu  Lu8  1  0.352639  0.749858  0.052310  1
  Lu  Lu9  1  0.147383  0.750126  0.552298  1
  Lu  Lu10  1  0.647283  0.249913  0.947722  1
  Lu  Lu11  1  0.852589  0.250169  0.447725  1
  In  In12  1  0.610296  0.749586  0.505716  1
  In  In13  1  0.889512  0.750602  0.005787  1
  In  In14  1  0.389698  0.249603  0.494220  1
  In  In15  1  0.110299  0.249761  0.994769  1
  In  In16  1  0.650119  0.750429  0.241540  1
  In  In17  1  0.849639  0.749796  0.741454  1
  In  In18  1  0.350176  0.250136  0.758333  1
  In  In19  1  0.150096  0.249550  0.258489  1
  In  In20  1  0.118002  0.750518  0.277786  1
  In  In21  1  0.382634  0.749965  0.777618  1
  In  In22  1  0.881886  0.250505  0.722157  1
  In  In23  1  0.618091  0.249433  0.222213  1
  In  In24  1  0.871254  0.543155  0.401472  1
  In  In25  1  0.628771  0.956960  0.901487  1
  In  In26  1  0.128788  0.043128  0.598520  1
  In  In27  1  0.371294  0.456765  0.098726  1
  In  In28  1  0.129058  0.456908  0.598728  1
  In  In29  1  0.370964  0.042975  0.099207  1
  In  In30  1  0.870967  0.957081  0.400820  1
  In  In31  1  0.628525  0.543034  0.900890  1
