# generated using pymatgen
data_Ac(ZnP)3
_symmetry_space_group_name_H-M   'P 1'
_cell_length_a   4.12492300
_cell_length_b   4.12492352
_cell_length_c   20.70139200
_cell_angle_alpha   90.00000000
_cell_angle_beta   90.00000000
_cell_angle_gamma   119.99998778
_symmetry_Int_Tables_number   1
_chemical_formula_structural   Ac(ZnP)3
_chemical_formula_sum   'Ac2 Zn6 P6'
_cell_volume   305.04364482
_cell_formula_units_Z   2
loop_
 _symmetry_equiv_pos_site_id
 _symmetry_equiv_pos_as_xyz
  1  'x, y, z'
loop_
 _atom_site_type_symbol
 _atom_site_label
 _atom_site_symmetry_multiplicity
 _atom_site_fract_x
 _atom_site_fract_y
 _atom_site_fract_z
 _atom_site_occupancy
  Ac  Ac0  1  0.000000  0.000000  0.000000  1
  Ac  Ac1  1  0.000000  0.000000  0.500000  1
  Zn  Zn2  1  0.333333  0.666667  0.750000  1
  Zn  Zn3  1  0.666667  0.333333  0.250000  1
  Zn  Zn4  1  0.333333  0.666667  0.132737  1
  Zn  Zn5  1  0.666667  0.333333  0.867263  1
  Zn  Zn6  1  0.666667  0.333333  0.632737  1
  Zn  Zn7  1  0.333333  0.666667  0.367263  1
  P  P8  1  0.333333  0.666667  0.592650  1
  P  P9  1  0.666667  0.333333  0.407350  1
  P  P10  1  0.666667  0.333333  0.092650  1
  P  P11  1  0.333333  0.666667  0.907350  1
  P  P12  1  0.333333  0.666667  0.250000  1
  P  P13  1  0.666667  0.333333  0.750000  1
