# generated using pymatgen
data_Ho8SnPd17Pt7
_symmetry_space_group_name_H-M   'P 1'
_cell_length_a   8.39772900
_cell_length_b   8.38977300
_cell_length_c   8.37521300
_cell_angle_alpha   90.00000000
_cell_angle_beta   90.00000000
_cell_angle_gamma   90.00000000
_symmetry_Int_Tables_number   1
_chemical_formula_structural   Ho8SnPd17Pt7
_chemical_formula_sum   'Ho8 Sn1 Pd17 Pt7'
_cell_volume   590.07596714
_cell_formula_units_Z   1
loop_
 _symmetry_equiv_pos_site_id
 _symmetry_equiv_pos_as_xyz
  1  'x, y, z'
loop_
 _atom_site_type_symbol
 _atom_site_label
 _atom_site_symmetry_multiplicity
 _atom_site_fract_x
 _atom_site_fract_y
 _atom_site_fract_z
 _atom_site_occupancy
  Ho  Ho0  1  0.252722  0.253919  0.253644  1
  Ho  Ho1  1  0.746642  0.746045  0.746709  1
  Ho  Ho2  1  0.746642  0.746045  0.253291  1
  Ho  Ho3  1  0.747278  0.253919  0.746356  1
  Ho  Ho4  1  0.252722  0.253919  0.746356  1
  Ho  Ho5  1  0.253358  0.746045  0.253291  1
  Ho  Ho6  1  0.253358  0.746045  0.746709  1
  Ho  Ho7  1  0.747278  0.253919  0.253644  1
  Sn  Sn8  1  0.000000  0.000318  0.000000  1
  Pd  Pd9  1  0.500000  0.264458  0.000000  1
  Pd  Pd10  1  0.000000  0.735241  0.500000  1
  Pd  Pd11  1  0.500000  0.735640  0.000000  1
  Pd  Pd12  1  0.500000  0.999940  0.264828  1
  Pd  Pd13  1  0.265251  0.000015  0.500000  1
  Pd  Pd14  1  0.500000  0.999940  0.735172  1
  Pd  Pd15  1  0.734749  0.000015  0.500000  1
  Pd  Pd16  1  0.000000  0.500347  0.264524  1
  Pd  Pd17  1  0.000000  0.500347  0.735476  1
  Pd  Pd18  1  0.500000  0.500050  0.254129  1
  Pd  Pd19  1  0.500000  0.500050  0.745871  1
  Pd  Pd20  1  0.307792  0.999960  0.000000  1
  Pd  Pd21  1  0.692208  0.999960  0.000000  1
  Pd  Pd22  1  0.000000  0.307529  0.000000  1
  Pd  Pd23  1  0.000000  0.692749  0.000000  1
  Pd  Pd24  1  0.000000  0.999607  0.307660  1
  Pd  Pd25  1  0.000000  0.999607  0.692340  1
  Pt  Pt26  1  0.264451  0.500044  0.000000  1
  Pt  Pt27  1  0.735549  0.500044  0.000000  1
  Pt  Pt28  1  0.000000  0.264587  0.500000  1
  Pt  Pt29  1  0.254457  0.499969  0.500000  1
  Pt  Pt30  1  0.745543  0.499969  0.500000  1
  Pt  Pt31  1  0.500000  0.254334  0.500000  1
  Pt  Pt32  1  0.500000  0.745425  0.500000  1
