# generated using pymatgen
data_Y3HoIr3RhO14
_symmetry_space_group_name_H-M   'P 1'
_cell_length_a   7.25515001
_cell_length_b   7.25515058
_cell_length_c   7.25514984
_cell_angle_alpha   59.97890649
_cell_angle_beta   59.97890310
_cell_angle_gamma   59.97889956
_symmetry_Int_Tables_number   1
_chemical_formula_structural   Y3HoIr3RhO14
_chemical_formula_sum   'Y3 Ho1 Ir3 Rh1 O14'
_cell_volume   269.90840352
_cell_formula_units_Z   1
loop_
 _symmetry_equiv_pos_site_id
 _symmetry_equiv_pos_as_xyz
  1  'x, y, z'
loop_
 _atom_site_type_symbol
 _atom_site_label
 _atom_site_symmetry_multiplicity
 _atom_site_fract_x
 _atom_site_fract_y
 _atom_site_fract_z
 _atom_site_occupancy
  Y  Y0  1  0.625000  0.125000  0.125000  1
  Y  Y1  1  0.125000  0.625000  0.125000  1
  Y  Y2  1  0.125000  0.125000  0.625000  1
  Ho  Ho3  1  0.125000  0.125000  0.125000  1
  Ir  Ir4  1  0.125000  0.625000  0.625000  1
  Ir  Ir5  1  0.625000  0.125000  0.625000  1
  Ir  Ir6  1  0.625000  0.625000  0.125000  1
  Rh  Rh7  1  0.625000  0.625000  0.625000  1
  O  O8  1  0.713699  0.713699  0.283754  1
  O  O9  1  0.289606  0.289606  0.714700  1
  O  O10  1  0.713699  0.283754  0.713699  1
  O  O11  1  0.289606  0.714700  0.289606  1
  O  O12  1  0.283754  0.713699  0.713699  1
  O  O13  1  0.714700  0.289606  0.289606  1
  O  O14  1  0.536301  0.536301  0.966246  1
  O  O15  1  0.960394  0.960394  0.535300  1
  O  O16  1  0.536301  0.966246  0.536301  1
  O  O17  1  0.960394  0.535300  0.960394  1
  O  O18  1  0.966246  0.536301  0.536301  1
  O  O19  1  0.535300  0.960394  0.960394  1
  O  O20  1  0.248774  0.248774  0.248774  1
  O  O21  1  0.001226  0.001226  0.001226  1
