# generated using pymatgen
data_Li4La4RuPt3
_symmetry_space_group_name_H-M   'P 1'
_cell_length_a   4.12372200
_cell_length_b   7.29262920
_cell_length_c   8.66156539
_cell_angle_alpha   89.22616952
_cell_angle_beta   90.00000000
_cell_angle_gamma   90.00000000
_symmetry_Int_Tables_number   1
_chemical_formula_structural   Li4La4RuPt3
_chemical_formula_sum   'Li4 La4 Ru1 Pt3'
_cell_volume   260.45355499
_cell_formula_units_Z   1
loop_
 _symmetry_equiv_pos_site_id
 _symmetry_equiv_pos_as_xyz
  1  'x, y, z'
loop_
 _atom_site_type_symbol
 _atom_site_label
 _atom_site_symmetry_multiplicity
 _atom_site_fract_x
 _atom_site_fract_y
 _atom_site_fract_z
 _atom_site_occupancy
  Li  Li0  1  0.750000  0.868991  0.946585  1
  Li  Li1  1  0.250000  0.630259  0.442808  1
  Li  Li2  1  0.750000  0.367135  0.555108  1
  Li  Li3  1  0.250000  0.130749  0.059143  1
  La  La4  1  0.750000  0.460118  0.181816  1
  La  La5  1  0.250000  0.025013  0.685419  1
  La  La6  1  0.750000  0.955539  0.326817  1
  La  La7  1  0.250000  0.543286  0.801003  1
  Ru  Ru8  1  0.750000  0.763647  0.623165  1
  Pt  Pt9  1  0.750000  0.251269  0.882045  1
  Pt  Pt10  1  0.250000  0.253771  0.377549  1
  Pt  Pt11  1  0.250000  0.750224  0.118544  1
