# generated using pymatgen
data_Zr3ScMn14(CoP2)6
_symmetry_space_group_name_H-M   'P 1'
_cell_length_a   3.56324100
_cell_length_b   10.31945070
_cell_length_c   11.99335702
_cell_angle_alpha   90.05724228
_cell_angle_beta   90.00000000
_cell_angle_gamma   90.00000000
_symmetry_Int_Tables_number   1
_chemical_formula_structural   Zr3ScMn14(CoP2)6
_chemical_formula_sum   'Zr3 Sc1 Mn14 Co6 P12'
_cell_volume   441.00379073
_cell_formula_units_Z   1
loop_
 _symmetry_equiv_pos_site_id
 _symmetry_equiv_pos_as_xyz
  1  'x, y, z'
loop_
 _atom_site_type_symbol
 _atom_site_label
 _atom_site_symmetry_multiplicity
 _atom_site_fract_x
 _atom_site_fract_y
 _atom_site_fract_z
 _atom_site_occupancy
  Zr  Zr0  1  0.250000  0.584635  0.707513  1
  Zr  Zr1  1  0.250000  0.915370  0.208241  1
  Zr  Zr2  1  0.750000  0.420722  0.293626  1
  Sc  Sc3  1  0.750000  0.078856  0.792127  1
  Mn  Mn4  1  0.250000  0.710883  0.989595  1
  Mn  Mn5  1  0.250000  0.789721  0.490382  1
  Mn  Mn6  1  0.750000  0.284862  0.010366  1
  Mn  Mn7  1  0.750000  0.214833  0.510909  1
  Mn  Mn8  1  0.250000  0.412412  0.490718  1
  Mn  Mn9  1  0.250000  0.087636  0.991382  1
  Mn  Mn10  1  0.750000  0.595210  0.508268  1
  Mn  Mn11  1  0.750000  0.904724  0.008524  1
  Mn  Mn12  1  0.250000  0.217852  0.177635  1
  Mn  Mn13  1  0.250000  0.282939  0.676756  1
  Mn  Mn14  1  0.750000  0.778518  0.824630  1
  Mn  Mn15  1  0.750000  0.721294  0.324126  1
  Mn  Mn16  1  0.750000  0.123785  0.301917  1
  Mn  Mn17  1  0.750000  0.376431  0.801272  1
  Co  Co18  1  0.250000  0.883799  0.696565  1
  Co  Co19  1  0.250000  0.615641  0.196522  1
  Co  Co20  1  0.250000  0.463175  0.932052  1
  Co  Co21  1  0.250000  0.036523  0.432596  1
  Co  Co22  1  0.750000  0.534640  0.067081  1
  Co  Co23  1  0.750000  0.965132  0.566833  1
  P  P24  1  0.250000  0.420059  0.113090  1
  P  P25  1  0.250000  0.079456  0.614305  1
  P  P26  1  0.750000  0.579992  0.885635  1
  P  P27  1  0.750000  0.920093  0.385829  1
  P  P28  1  0.250000  0.258599  0.869805  1
  P  P29  1  0.250000  0.239674  0.371242  1
  P  P30  1  0.750000  0.733179  0.134758  1
  P  P31  1  0.750000  0.767150  0.635285  1
  P  P32  1  0.250000  0.598769  0.381018  1
  P  P33  1  0.250000  0.903319  0.880104  1
  P  P34  1  0.750000  0.409747  0.614212  1
  P  P35  1  0.750000  0.090367  0.115079  1
