# generated using pymatgen
data_CaTb3Ho4(B6Ru)4
_symmetry_space_group_name_H-M   'P 1'
_cell_length_a   3.66228600
_cell_length_b   9.14772347
_cell_length_c   11.54162000
_cell_angle_alpha   89.89426117
_cell_angle_beta   90.00000000
_cell_angle_gamma   90.00000000
_symmetry_Int_Tables_number   1
_chemical_formula_structural   CaTb3Ho4(B6Ru)4
_chemical_formula_sum   'Ca1 Tb3 Ho4 B24 Ru4'
_cell_volume   386.66184246
_cell_formula_units_Z   1
loop_
 _symmetry_equiv_pos_site_id
 _symmetry_equiv_pos_as_xyz
  1  'x, y, z'
loop_
 _atom_site_type_symbol
 _atom_site_label
 _atom_site_symmetry_multiplicity
 _atom_site_fract_x
 _atom_site_fract_y
 _atom_site_fract_z
 _atom_site_occupancy
  Ca  Ca0  1  0.000000  0.322693  0.413908  1
  Tb  Tb1  1  0.000000  0.675697  0.585076  1
  Tb  Tb2  1  0.000000  0.822833  0.086375  1
  Tb  Tb3  1  0.000000  0.177624  0.914458  1
  Ho  Ho4  1  0.000000  0.943997  0.371083  1
  Ho  Ho5  1  0.000000  0.058018  0.628139  1
  Ho  Ho6  1  0.000000  0.442911  0.129733  1
  Ho  Ho7  1  0.000000  0.556220  0.872092  1
  B  B8  1  0.500000  0.554610  0.432258  1
  B  B9  1  0.500000  0.445861  0.568036  1
  B  B10  1  0.500000  0.053566  0.066916  1
  B  B11  1  0.500000  0.945523  0.932053  1
  B  B12  1  0.500000  0.748581  0.418799  1
  B  B13  1  0.500000  0.252119  0.581539  1
  B  B14  1  0.500000  0.247673  0.080713  1
  B  B15  1  0.500000  0.751673  0.919185  1
  B  B16  1  0.500000  0.791310  0.266233  1
  B  B17  1  0.500000  0.209851  0.734040  1
  B  B18  1  0.500000  0.289722  0.233102  1
  B  B19  1  0.500000  0.709470  0.766575  1
  B  B20  1  0.500000  0.631868  0.185914  1
  B  B21  1  0.500000  0.368713  0.815146  1
  B  B22  1  0.500000  0.130826  0.313638  1
  B  B23  1  0.500000  0.868750  0.685304  1
  B  B24  1  0.500000  0.983658  0.211896  1
  B  B25  1  0.500000  0.016100  0.787127  1
  B  B26  1  0.500000  0.484360  0.287438  1
  B  B27  1  0.500000  0.516074  0.713086  1
  B  B28  1  0.500000  0.607396  0.029874  1
  B  B29  1  0.500000  0.392801  0.970803  1
  B  B30  1  0.500000  0.103837  0.471225  1
  B  B31  1  0.500000  0.895147  0.528960  1
  Ru  Ru32  1  0.000000  0.640056  0.320182  1
  Ru  Ru33  1  0.000000  0.361884  0.680847  1
  Ru  Ru34  1  0.000000  0.136679  0.177497  1
  Ru  Ru35  1  0.000000  0.861900  0.820746  1
