# generated using pymatgen
data_Sm4Mn4Al3CoO20
_symmetry_space_group_name_H-M   'P 1'
_cell_length_a   5.71498200
_cell_length_b   7.39485608
_cell_length_c   8.54239981
_cell_angle_alpha   90.31142881
_cell_angle_beta   90.00000000
_cell_angle_gamma   90.00000000
_symmetry_Int_Tables_number   1
_chemical_formula_structural   Sm4Mn4Al3CoO20
_chemical_formula_sum   'Sm4 Mn4 Al3 Co1 O20'
_cell_volume   361.00903530
_cell_formula_units_Z   1
loop_
 _symmetry_equiv_pos_site_id
 _symmetry_equiv_pos_as_xyz
  1  'x, y, z'
loop_
 _atom_site_type_symbol
 _atom_site_label
 _atom_site_symmetry_multiplicity
 _atom_site_fract_x
 _atom_site_fract_y
 _atom_site_fract_z
 _atom_site_occupancy
  Sm  Sm0  1  0.500000  0.369062  0.329168  1
  Sm  Sm1  1  0.500000  0.634233  0.670853  1
  Sm  Sm2  1  0.500000  0.139220  0.830318  1
  Sm  Sm3  1  0.500000  0.862338  0.169771  1
  Mn  Mn4  1  0.245131  0.999352  0.501484  1
  Mn  Mn5  1  0.754869  0.999352  0.501484  1
  Mn  Mn6  1  0.757056  0.500959  0.999404  1
  Mn  Mn7  1  0.242944  0.500959  0.999404  1
  Al  Al8  1  0.000000  0.891754  0.857038  1
  Al  Al9  1  0.000000  0.392655  0.640169  1
  Al  Al10  1  0.000000  0.607515  0.359246  1
  Co  Co11  1  0.000000  0.089394  0.148219  1
  O  O12  1  0.000000  0.344327  0.064693  1
  O  O13  1  0.000000  0.660811  0.930537  1
  O  O14  1  0.000000  0.158865  0.568964  1
  O  O15  1  0.000000  0.842148  0.429794  1
  O  O16  1  0.217819  0.998782  0.997451  1
  O  O17  1  0.782181  0.998782  0.997451  1
  O  O18  1  0.784129  0.500230  0.499688  1
  O  O19  1  0.215871  0.500230  0.499688  1
  O  O20  1  0.253684  0.101728  0.292665  1
  O  O21  1  0.754762  0.899000  0.710685  1
  O  O22  1  0.245238  0.899000  0.710685  1
  O  O23  1  0.754847  0.399231  0.788341  1
  O  O24  1  0.746316  0.101728  0.292665  1
  O  O25  1  0.244643  0.602896  0.210742  1
  O  O26  1  0.755357  0.602896  0.210742  1
  O  O27  1  0.245153  0.399231  0.788341  1
  O  O28  1  0.500000  0.342011  0.053378  1
  O  O29  1  0.500000  0.662073  0.945654  1
  O  O30  1  0.500000  0.159707  0.554136  1
  O  O31  1  0.500000  0.839530  0.447141  1
