# generated using pymatgen
data_Tb2Mn2Cr2Ni8P7
_symmetry_space_group_name_H-M   'P 1'
_cell_length_a   9.11420810
_cell_length_b   9.15801417
_cell_length_c   3.67026800
_cell_angle_alpha   90.00000000
_cell_angle_beta   90.00000000
_cell_angle_gamma   119.97454034
_symmetry_Int_Tables_number   1
_chemical_formula_structural   Tb2Mn2Cr2Ni8P7
_chemical_formula_sum   'Tb2 Mn2 Cr2 Ni8 P7'
_cell_volume   265.37500843
_cell_formula_units_Z   1
loop_
 _symmetry_equiv_pos_site_id
 _symmetry_equiv_pos_as_xyz
  1  'x, y, z'
loop_
 _atom_site_type_symbol
 _atom_site_label
 _atom_site_symmetry_multiplicity
 _atom_site_fract_x
 _atom_site_fract_y
 _atom_site_fract_z
 _atom_site_occupancy
  Tb  Tb0  1  0.666166  0.331323  0.000000  1
  Tb  Tb1  1  0.335440  0.669931  0.500000  1
  Mn  Mn2  1  0.880623  0.156244  0.000000  1
  Mn  Mn3  1  0.119914  0.220499  0.500000  1
  Cr  Cr4  1  0.098243  0.880652  0.500000  1
  Cr  Cr5  1  0.783102  0.899849  0.500000  1
  Ni  Ni6  1  0.060624  0.626237  0.000000  1
  Ni  Ni7  1  0.566208  0.937660  0.000000  1
  Ni  Ni8  1  0.371584  0.434355  0.000000  1
  Ni  Ni9  1  0.275129  0.123491  0.000000  1
  Ni  Ni10  1  0.845108  0.719089  0.000000  1
  Ni  Ni11  1  0.436955  0.053112  0.500000  1
  Ni  Ni12  1  0.614340  0.562544  0.500000  1
  Ni  Ni13  1  0.949623  0.386340  0.500000  1
  P  P14  1  0.292829  0.888029  0.000000  1
  P  P15  1  0.594072  0.705882  0.000000  1
  P  P16  1  0.111748  0.407313  0.000000  1
  P  P17  1  0.403170  0.290256  0.500000  1
  P  P18  1  0.886591  0.597234  0.500000  1
  P  P19  1  0.712774  0.113068  0.500000  1
  P  P20  1  0.995756  0.996892  0.000000  1
