# generated using pymatgen
data_Ta11(GaSe4)2
_symmetry_space_group_name_H-M   'P 1'
_cell_length_a   3.41179100
_cell_length_b   12.22820000
_cell_length_c   19.71028300
_cell_angle_alpha   90.00000000
_cell_angle_beta   90.00000000
_cell_angle_gamma   90.00000000
_symmetry_Int_Tables_number   1
_chemical_formula_structural   Ta11(GaSe4)2
_chemical_formula_sum   'Ta22 Ga4 Se16'
_cell_volume   822.31424272
_cell_formula_units_Z   2
loop_
 _symmetry_equiv_pos_site_id
 _symmetry_equiv_pos_as_xyz
  1  'x, y, z'
loop_
 _atom_site_type_symbol
 _atom_site_label
 _atom_site_symmetry_multiplicity
 _atom_site_fract_x
 _atom_site_fract_y
 _atom_site_fract_z
 _atom_site_occupancy
  Ta  Ta0  1  0.500000  0.819355  0.047168  1
  Ta  Ta1  1  0.500000  0.180645  0.952832  1
  Ta  Ta2  1  0.000000  0.680645  0.547168  1
  Ta  Ta3  1  0.000000  0.319355  0.452832  1
  Ta  Ta4  1  0.500000  0.447737  0.742897  1
  Ta  Ta5  1  0.500000  0.552263  0.257103  1
  Ta  Ta6  1  0.000000  0.947737  0.757103  1
  Ta  Ta7  1  0.000000  0.052263  0.242897  1
  Ta  Ta8  1  0.500000  0.068564  0.111975  1
  Ta  Ta9  1  0.500000  0.931436  0.888025  1
  Ta  Ta10  1  0.000000  0.568564  0.388025  1
  Ta  Ta11  1  0.000000  0.431436  0.611975  1
  Ta  Ta12  1  0.500000  0.178202  0.354354  1
  Ta  Ta13  1  0.500000  0.821798  0.645646  1
  Ta  Ta14  1  0.000000  0.678202  0.145646  1
  Ta  Ta15  1  0.000000  0.321798  0.854354  1
  Ta  Ta16  1  0.500000  0.165939  0.781646  1
  Ta  Ta17  1  0.500000  0.834061  0.218354  1
  Ta  Ta18  1  0.000000  0.665939  0.718354  1
  Ta  Ta19  1  0.000000  0.334061  0.281646  1
  Ta  Ta20  1  0.500000  0.500000  0.500000  1
  Ta  Ta21  1  0.000000  0.000000  0.000000  1
  Ga  Ga22  1  0.000000  0.091314  0.868873  1
  Ga  Ga23  1  0.000000  0.908686  0.131127  1
  Ga  Ga24  1  0.500000  0.591314  0.631127  1
  Ga  Ga25  1  0.500000  0.408686  0.368873  1
  Se  Se26  1  0.500000  0.287687  0.556795  1
  Se  Se27  1  0.500000  0.712313  0.443205  1
  Se  Se28  1  0.000000  0.787687  0.943205  1
  Se  Se29  1  0.000000  0.212313  0.056795  1
  Se  Se30  1  0.500000  0.037813  0.672754  1
  Se  Se31  1  0.500000  0.962187  0.327246  1
  Se  Se32  1  0.000000  0.537813  0.827246  1
  Se  Se33  1  0.000000  0.462187  0.172754  1
  Se  Se34  1  0.500000  0.388907  0.946869  1
  Se  Se35  1  0.500000  0.611093  0.053131  1
  Se  Se36  1  0.000000  0.888907  0.553131  1
  Se  Se37  1  0.000000  0.111093  0.446869  1
  Se  Se38  1  0.000000  0.285479  0.710897  1
  Se  Se39  1  0.000000  0.714521  0.289103  1
  Se  Se40  1  0.500000  0.785479  0.789103  1
  Se  Se41  1  0.500000  0.214521  0.210897  1
