# generated using pymatgen
data_Er3Tm9CdCo5
_symmetry_space_group_name_H-M   'P 1'
_cell_length_a   8.15413458
_cell_length_b   8.15413540
_cell_length_c   8.15297218
_cell_angle_alpha   111.02144657
_cell_angle_beta   110.61365314
_cell_angle_gamma   106.81719334
_symmetry_Int_Tables_number   1
_chemical_formula_structural   Er3Tm9CdCo5
_chemical_formula_sum   'Er3 Tm9 Cd1 Co5'
_cell_volume   416.59556488
_cell_formula_units_Z   1
loop_
 _symmetry_equiv_pos_site_id
 _symmetry_equiv_pos_as_xyz
  1  'x, y, z'
loop_
 _atom_site_type_symbol
 _atom_site_label
 _atom_site_symmetry_multiplicity
 _atom_site_fract_x
 _atom_site_fract_y
 _atom_site_fract_z
 _atom_site_occupancy
  Er  Er0  1  0.286980  0.185068  0.472048  1
  Er  Er1  1  0.713401  0.815116  0.528517  1
  Er  Er2  1  0.286668  0.814874  0.101540  1
  Tm  Tm3  1  0.713415  0.184703  0.898119  1
  Tm  Tm4  1  0.619155  0.313911  0.304932  1
  Tm  Tm5  1  0.380951  0.686299  0.694885  1
  Tm  Tm6  1  0.008587  0.313934  0.694885  1
  Tm  Tm7  1  0.991020  0.685776  0.304932  1
  Tm  Tm8  1  0.212701  0.405293  0.192210  1
  Tm  Tm9  1  0.786885  0.594301  0.807581  1
  Tm  Tm10  1  0.213281  0.020696  0.807581  1
  Tm  Tm11  1  0.786916  0.979509  0.192210  1
  Cd  Cd12  1  0.500040  0.499979  0.000019  1
  Co  Co13  1  0.999732  0.376145  0.375877  1
  Co  Co14  1  0.000077  0.623828  0.623904  1
  Co  Co15  1  0.386951  0.887008  0.500487  1
  Co  Co16  1  0.613479  0.113536  0.500487  1
  Co  Co17  1  0.999761  0.000024  0.999784  1
