# generated using pymatgen
data_Y3ZnNi2Ru
_symmetry_space_group_name_H-M   'P 1'
_cell_length_a   5.60852700
_cell_length_b   5.60852634
_cell_length_c   13.01627500
_cell_angle_alpha   90.00000000
_cell_angle_beta   90.00000000
_cell_angle_gamma   135.93186048
_symmetry_Int_Tables_number   1
_chemical_formula_structural   Y3ZnNi2Ru
_chemical_formula_sum   'Y6 Zn2 Ni4 Ru2'
_cell_volume   284.76707284
_cell_formula_units_Z   2
loop_
 _symmetry_equiv_pos_site_id
 _symmetry_equiv_pos_as_xyz
  1  'x, y, z'
loop_
 _atom_site_type_symbol
 _atom_site_label
 _atom_site_symmetry_multiplicity
 _atom_site_fract_x
 _atom_site_fract_y
 _atom_site_fract_z
 _atom_site_occupancy
  Y  Y0  1  0.293920  0.706080  0.393637  1
  Y  Y1  1  0.706080  0.293920  0.606363  1
  Y  Y2  1  0.990351  0.009649  0.750000  1
  Y  Y3  1  0.009649  0.990351  0.250000  1
  Y  Y4  1  0.706080  0.293920  0.893637  1
  Y  Y5  1  0.293920  0.706080  0.106363  1
  Zn  Zn6  1  0.000000  0.000000  0.500000  1
  Zn  Zn7  1  0.000000  0.000000  0.000000  1
  Ni  Ni8  1  0.422109  0.577891  0.911458  1
  Ni  Ni9  1  0.577891  0.422109  0.088542  1
  Ni  Ni10  1  0.577891  0.422109  0.411458  1
  Ni  Ni11  1  0.422109  0.577891  0.588542  1
  Ru  Ru12  1  0.716000  0.284000  0.250000  1
  Ru  Ru13  1  0.284000  0.716000  0.750000  1
