# generated using pymatgen
data_Zr2Ga2PtRh
_symmetry_space_group_name_H-M   'P 1'
_cell_length_a   7.27652800
_cell_length_b   7.27652841
_cell_length_c   6.90944700
_cell_angle_alpha   90.00000000
_cell_angle_beta   90.00000000
_cell_angle_gamma   119.99999934
_symmetry_Int_Tables_number   1
_chemical_formula_structural   Zr2Ga2PtRh
_chemical_formula_sum   'Zr6 Ga6 Pt3 Rh3'
_cell_volume   316.82712678
_cell_formula_units_Z   3
loop_
 _symmetry_equiv_pos_site_id
 _symmetry_equiv_pos_as_xyz
  1  'x, y, z'
loop_
 _atom_site_type_symbol
 _atom_site_label
 _atom_site_symmetry_multiplicity
 _atom_site_fract_x
 _atom_site_fract_y
 _atom_site_fract_z
 _atom_site_occupancy
  Zr  Zr0  1  0.398076  0.392237  0.750000  1
  Zr  Zr1  1  0.994162  0.601924  0.750000  1
  Zr  Zr2  1  0.607763  0.005838  0.750000  1
  Zr  Zr3  1  0.612156  0.010841  0.250000  1
  Zr  Zr4  1  0.989159  0.601314  0.250000  1
  Zr  Zr5  1  0.398686  0.387844  0.250000  1
  Ga  Ga6  1  0.270256  0.000419  0.003163  1
  Ga  Ga7  1  0.730164  0.729744  0.003163  1
  Ga  Ga8  1  0.999581  0.269836  0.003163  1
  Ga  Ga9  1  0.730164  0.729744  0.496837  1
  Ga  Ga10  1  0.270256  0.000419  0.496837  1
  Ga  Ga11  1  0.999581  0.269836  0.496837  1
  Pt  Pt12  1  0.000000  0.000000  0.750000  1
  Pt  Pt13  1  0.333333  0.666667  0.497634  1
  Pt  Pt14  1  0.333333  0.666667  0.002366  1
  Rh  Rh15  1  0.666667  0.333333  0.994178  1
  Rh  Rh16  1  0.666667  0.333333  0.505822  1
  Rh  Rh17  1  0.000000  0.000000  0.250000  1
