# generated using pymatgen
data_TbEr3Al18(Ir2Pt)2
_symmetry_space_group_name_H-M   'P 1'
_cell_length_a   7.57340343
_cell_length_b   7.57063137
_cell_length_c   9.43351270
_cell_angle_alpha   89.92500312
_cell_angle_beta   89.95051662
_cell_angle_gamma   119.67047181
_symmetry_Int_Tables_number   1
_chemical_formula_structural   TbEr3Al18(Ir2Pt)2
_chemical_formula_sum   'Tb1 Er3 Al18 Ir4 Pt2'
_cell_volume   469.95770141
_cell_formula_units_Z   1
loop_
 _symmetry_equiv_pos_site_id
 _symmetry_equiv_pos_as_xyz
  1  'x, y, z'
loop_
 _atom_site_type_symbol
 _atom_site_label
 _atom_site_symmetry_multiplicity
 _atom_site_fract_x
 _atom_site_fract_y
 _atom_site_fract_z
 _atom_site_occupancy
  Tb  Tb0  1  0.329716  0.004752  0.749118  1
  Er  Er1  1  0.995200  0.670436  0.251137  1
  Er  Er2  1  0.004354  0.329157  0.748966  1
  Er  Er3  1  0.670650  0.995372  0.251121  1
  Al  Al4  1  0.126829  0.126924  0.250566  1
  Al  Al5  1  0.872500  0.872955  0.749436  1
  Al  Al6  1  0.000277  0.331234  0.077592  1
  Al  Al7  1  0.999064  0.668130  0.922711  1
  Al  Al8  1  0.999962  0.664592  0.574313  1
  Al  Al9  1  0.334840  0.999502  0.424720  1
  Al  Al10  1  0.999444  0.334764  0.425386  1
  Al  Al11  1  0.665881  0.000571  0.574224  1
  Al  Al12  1  0.669363  0.999706  0.922747  1
  Al  Al13  1  0.331245  0.000330  0.078204  1
  Al  Al14  1  0.332099  0.332615  0.551274  1
  Al  Al15  1  0.667950  0.667967  0.448163  1
  Al  Al16  1  0.669474  0.669481  0.058483  1
  Al  Al17  1  0.330563  0.331104  0.942062  1
  Al  Al18  1  0.340421  0.547410  0.253040  1
  Al  Al19  1  0.660172  0.453212  0.746921  1
  Al  Al20  1  0.547458  0.340489  0.253042  1
  Al  Al21  1  0.452587  0.659089  0.746926  1
  Ir  Ir22  1  0.327912  0.672033  0.499593  1
  Ir  Ir23  1  0.672485  0.328256  0.499560  1
  Ir  Ir24  1  0.999643  0.999871  0.000431  1
  Ir  Ir25  1  0.999641  0.999830  0.499585  1
  Pt  Pt26  1  0.672708  0.327827  0.000355  1
  Pt  Pt27  1  0.327563  0.672390  0.000321  1
