# generated using pymatgen
data_Sm4Zr3Sc(B6Os)4
_symmetry_space_group_name_H-M   'P 1'
_cell_length_a   3.60852300
_cell_length_b   9.08790651
_cell_length_c   11.48153885
_cell_angle_alpha   90.04111894
_cell_angle_beta   90.00000000
_cell_angle_gamma   90.00000000
_symmetry_Int_Tables_number   1
_chemical_formula_structural   Sm4Zr3Sc(B6Os)4
_chemical_formula_sum   'Sm4 Zr3 Sc1 B24 Os4'
_cell_volume   376.52456541
_cell_formula_units_Z   1
loop_
 _symmetry_equiv_pos_site_id
 _symmetry_equiv_pos_as_xyz
  1  'x, y, z'
loop_
 _atom_site_type_symbol
 _atom_site_label
 _atom_site_symmetry_multiplicity
 _atom_site_fract_x
 _atom_site_fract_y
 _atom_site_fract_z
 _atom_site_occupancy
  Sm  Sm0  1  0.000000  0.322408  0.413794  1
  Sm  Sm1  1  0.000000  0.677354  0.586869  1
  Sm  Sm2  1  0.000000  0.821131  0.085783  1
  Sm  Sm3  1  0.000000  0.179053  0.913717  1
  Zr  Zr4  1  0.000000  0.944896  0.375170  1
  Zr  Zr5  1  0.000000  0.054719  0.625367  1
  Zr  Zr6  1  0.000000  0.445841  0.124367  1
  Sc  Sc7  1  0.000000  0.555186  0.873538  1
  B  B8  1  0.500000  0.555623  0.432015  1
  B  B9  1  0.500000  0.444739  0.569011  1
  B  B10  1  0.500000  0.055702  0.068104  1
  B  B11  1  0.500000  0.944112  0.931149  1
  B  B12  1  0.500000  0.752626  0.417382  1
  B  B13  1  0.500000  0.247594  0.582961  1
  B  B14  1  0.500000  0.252997  0.082040  1
  B  B15  1  0.500000  0.746294  0.916812  1
  B  B16  1  0.500000  0.794306  0.264689  1
  B  B17  1  0.500000  0.206419  0.735337  1
  B  B18  1  0.500000  0.294501  0.234765  1
  B  B19  1  0.500000  0.704475  0.766197  1
  B  B20  1  0.500000  0.629677  0.182365  1
  B  B21  1  0.500000  0.371308  0.816975  1
  B  B22  1  0.500000  0.129924  0.316589  1
  B  B23  1  0.500000  0.869718  0.684261  1
  B  B24  1  0.500000  0.982735  0.213190  1
  B  B25  1  0.500000  0.016816  0.786549  1
  B  B26  1  0.500000  0.483451  0.285774  1
  B  B27  1  0.500000  0.516490  0.715142  1
  B  B28  1  0.500000  0.600022  0.026337  1
  B  B29  1  0.500000  0.400742  0.972973  1
  B  B30  1  0.500000  0.100652  0.473296  1
  B  B31  1  0.500000  0.899161  0.527025  1
  Os  Os32  1  0.000000  0.640798  0.318304  1
  Os  Os33  1  0.000000  0.359113  0.682269  1
  Os  Os34  1  0.000000  0.142044  0.183045  1
  Os  Os35  1  0.000000  0.857379  0.816836  1
