# generated using pymatgen
data_LiOsCl6
_symmetry_space_group_name_H-M   'P 1'
_cell_length_a   9.59286568
_cell_length_b   9.59278846
_cell_length_c   9.59281786
_cell_angle_alpha   83.06010195
_cell_angle_beta   83.05965113
_cell_angle_gamma   83.06035214
_symmetry_Int_Tables_number   1
_chemical_formula_structural   LiOsCl6
_chemical_formula_sum   'Li4 Os4 Cl24'
_cell_volume   864.79613273
_cell_formula_units_Z   4
loop_
 _symmetry_equiv_pos_site_id
 _symmetry_equiv_pos_as_xyz
  1  'x, y, z'
loop_
 _atom_site_type_symbol
 _atom_site_label
 _atom_site_symmetry_multiplicity
 _atom_site_fract_x
 _atom_site_fract_y
 _atom_site_fract_z
 _atom_site_occupancy
  Li  Li0  1  0.337156  0.337156  0.337156  1
  Li  Li1  1  0.167263  0.668889  0.167737  1
  Li  Li2  1  0.167737  0.167263  0.668889  1
  Li  Li3  1  0.668890  0.167737  0.167263  1
  Os  Os4  1  0.502047  0.995306  0.501527  1
  Os  Os5  1  0.999127  0.999128  0.999128  1
  Os  Os6  1  0.501529  0.502046  0.995305  1
  Os  Os7  1  0.995306  0.501527  0.502048  1
  Cl  Cl8  1  0.936081  0.273624  0.572090  1
  Cl  Cl9  1  0.424411  0.781111  0.567129  1
  Cl  Cl10  1  0.075788  0.219048  0.921504  1
  Cl  Cl11  1  0.567127  0.424411  0.781110  1
  Cl  Cl12  1  0.921506  0.075791  0.219047  1
  Cl  Cl13  1  0.421403  0.074985  0.719603  1
  Cl  Cl14  1  0.572088  0.936082  0.273624  1
  Cl  Cl15  1  0.084889  0.429018  0.275074  1
  Cl  Cl16  1  0.225423  0.420755  0.573048  1
  Cl  Cl17  1  0.219046  0.921506  0.075789  1
  Cl  Cl18  1  0.573046  0.225427  0.420754  1
  Cl  Cl19  1  0.933735  0.773907  0.071399  1
  Cl  Cl20  1  0.781111  0.567128  0.424412  1
  Cl  Cl21  1  0.718753  0.926263  0.571867  1
  Cl  Cl22  1  0.429017  0.275072  0.084889  1
  Cl  Cl23  1  0.275074  0.084888  0.429016  1
  Cl  Cl24  1  0.420756  0.573047  0.225424  1
  Cl  Cl25  1  0.773908  0.071397  0.933737  1
  Cl  Cl26  1  0.074985  0.719603  0.421405  1
  Cl  Cl27  1  0.571871  0.718752  0.926260  1
  Cl  Cl28  1  0.926261  0.571868  0.718755  1
  Cl  Cl29  1  0.719604  0.421403  0.074982  1
  Cl  Cl30  1  0.273627  0.572090  0.936083  1
  Cl  Cl31  1  0.071395  0.933736  0.773907  1
