# generated using pymatgen
data_Lu12AlCo4Pd
_symmetry_space_group_name_H-M   'P 1'
_cell_length_a   8.07021120
_cell_length_b   8.07021172
_cell_length_c   8.07021200
_cell_angle_alpha   106.61510927
_cell_angle_beta   110.79341418
_cell_angle_gamma   111.04244359
_symmetry_Int_Tables_number   1
_chemical_formula_structural   Lu12AlCo4Pd
_chemical_formula_sum   'Lu12 Al1 Co4 Pd1'
_cell_volume   403.85522040
_cell_formula_units_Z   1
loop_
 _symmetry_equiv_pos_site_id
 _symmetry_equiv_pos_as_xyz
  1  'x, y, z'
loop_
 _atom_site_type_symbol
 _atom_site_label
 _atom_site_symmetry_multiplicity
 _atom_site_fract_x
 _atom_site_fract_y
 _atom_site_fract_z
 _atom_site_occupancy
  Lu  Lu0  1  0.698955  0.277398  0.976353  1
  Lu  Lu1  1  0.301045  0.722602  0.023647  1
  Lu  Lu2  1  0.698955  0.722602  0.421557  1
  Lu  Lu3  1  0.301045  0.277398  0.578443  1
  Lu  Lu4  1  0.801311  0.117667  0.316357  1
  Lu  Lu5  1  0.801311  0.484954  0.683643  1
  Lu  Lu6  1  0.198689  0.882333  0.683643  1
  Lu  Lu7  1  0.198689  0.515046  0.316357  1
  Lu  Lu8  1  0.601881  0.789450  0.812432  1
  Lu  Lu9  1  0.977018  0.789450  0.187568  1
  Lu  Lu10  1  0.022982  0.210550  0.812432  1
  Lu  Lu11  1  0.398119  0.210550  0.187568  1
  Al  Al12  1  0.500000  0.000000  0.500000  1
  Co  Co13  1  0.874904  0.500000  0.374904  1
  Co  Co14  1  0.125096  0.500000  0.625096  1
  Co  Co15  1  0.000000  0.114206  0.114206  1
  Co  Co16  1  0.000000  0.885794  0.885794  1
  Pd  Pd17  1  0.500000  0.500000  0.000000  1
