# generated using pymatgen
data_LiZr2(Co3P2)3
_symmetry_space_group_name_H-M   'P 1'
_cell_length_a   3.61917000
_cell_length_b   10.10598800
_cell_length_c   11.72013700
_cell_angle_alpha   90.00000000
_cell_angle_beta   90.00000000
_cell_angle_gamma   90.00000000
_symmetry_Int_Tables_number   1
_chemical_formula_structural   LiZr2(Co3P2)3
_chemical_formula_sum   'Li2 Zr4 Co18 P12'
_cell_volume   428.66739309
_cell_formula_units_Z   2
loop_
 _symmetry_equiv_pos_site_id
 _symmetry_equiv_pos_as_xyz
  1  'x, y, z'
loop_
 _atom_site_type_symbol
 _atom_site_label
 _atom_site_symmetry_multiplicity
 _atom_site_fract_x
 _atom_site_fract_y
 _atom_site_fract_z
 _atom_site_occupancy
  Li  Li0  1  0.250000  0.704056  0.991471  1
  Li  Li1  1  0.250000  0.795944  0.491471  1
  Zr  Zr2  1  0.250000  0.580725  0.704314  1
  Zr  Zr3  1  0.250000  0.919275  0.204314  1
  Zr  Zr4  1  0.750000  0.422600  0.297530  1
  Zr  Zr5  1  0.750000  0.077400  0.797530  1
  Co  Co6  1  0.750000  0.285072  0.007471  1
  Co  Co7  1  0.750000  0.214928  0.507471  1
  Co  Co8  1  0.250000  0.406991  0.486648  1
  Co  Co9  1  0.250000  0.093009  0.986648  1
  Co  Co10  1  0.750000  0.590327  0.516200  1
  Co  Co11  1  0.750000  0.909673  0.016200  1
  Co  Co12  1  0.250000  0.225238  0.177343  1
  Co  Co13  1  0.250000  0.274763  0.677343  1
  Co  Co14  1  0.750000  0.779360  0.823030  1
  Co  Co15  1  0.750000  0.720640  0.323030  1
  Co  Co16  1  0.250000  0.881577  0.699622  1
  Co  Co17  1  0.250000  0.618423  0.199622  1
  Co  Co18  1  0.750000  0.119532  0.298839  1
  Co  Co19  1  0.750000  0.380468  0.798839  1
  Co  Co20  1  0.250000  0.463732  0.930263  1
  Co  Co21  1  0.250000  0.036268  0.430263  1
  Co  Co22  1  0.750000  0.532907  0.066596  1
  Co  Co23  1  0.750000  0.967093  0.566596  1
  P  P24  1  0.250000  0.422517  0.114327  1
  P  P25  1  0.250000  0.077483  0.614327  1
  P  P26  1  0.750000  0.578515  0.882190  1
  P  P27  1  0.750000  0.921485  0.382190  1
  P  P28  1  0.250000  0.263792  0.867502  1
  P  P29  1  0.250000  0.236208  0.367502  1
  P  P30  1  0.750000  0.733510  0.136210  1
  P  P31  1  0.750000  0.766490  0.636210  1
  P  P32  1  0.250000  0.600682  0.390911  1
  P  P33  1  0.250000  0.899318  0.890911  1
  P  P34  1  0.750000  0.398562  0.609533  1
  P  P35  1  0.750000  0.101438  0.109533  1
