# generated using pymatgen
data_Nd5(TcB3)2
_symmetry_space_group_name_H-M   'P 1'
_cell_length_a   8.79615986
_cell_length_b   8.79615984
_cell_length_c   8.79615994
_cell_angle_alpha   37.25652625
_cell_angle_beta   37.25652907
_cell_angle_gamma   37.25652130
_symmetry_Int_Tables_number   1
_chemical_formula_structural   Nd5(TcB3)2
_chemical_formula_sum   'Nd5 Tc2 B6'
_cell_volume   223.59303947
_cell_formula_units_Z   1
loop_
 _symmetry_equiv_pos_site_id
 _symmetry_equiv_pos_as_xyz
  1  'x, y, z'
loop_
 _atom_site_type_symbol
 _atom_site_label
 _atom_site_symmetry_multiplicity
 _atom_site_fract_x
 _atom_site_fract_y
 _atom_site_fract_z
 _atom_site_occupancy
  Nd  Nd0  1  0.581976  0.581976  0.581976  1
  Nd  Nd1  1  0.418024  0.418024  0.418024  1
  Nd  Nd2  1  0.750908  0.750908  0.750908  1
  Nd  Nd3  1  0.249092  0.249092  0.249092  1
  Nd  Nd4  1  0.000000  0.000000  0.000000  1
  Tc  Tc5  1  0.885797  0.885797  0.885797  1
  Tc  Tc6  1  0.114203  0.114203  0.114203  1
  B  B7  1  0.500000  0.831163  0.168837  1
  B  B8  1  0.168837  0.500000  0.831163  1
  B  B9  1  0.831163  0.168837  0.500000  1
  B  B10  1  0.500000  0.168837  0.831163  1
  B  B11  1  0.831163  0.500000  0.168837  1
  B  B12  1  0.168837  0.831163  0.500000  1
