# generated using pymatgen
data_Dy16ZnIn(HgRh2)2
_symmetry_space_group_name_H-M   'P 1'
_cell_length_a   9.58525885
_cell_length_b   9.58525901
_cell_length_c   9.58528009
_cell_angle_alpha   59.93005471
_cell_angle_beta   59.93005387
_cell_angle_gamma   59.91027635
_symmetry_Int_Tables_number   1
_chemical_formula_structural   Dy16ZnIn(HgRh2)2
_chemical_formula_sum   'Dy16 Zn1 In1 Hg2 Rh4'
_cell_volume   621.64553449
_cell_formula_units_Z   1
loop_
 _symmetry_equiv_pos_site_id
 _symmetry_equiv_pos_as_xyz
  1  'x, y, z'
loop_
 _atom_site_type_symbol
 _atom_site_label
 _atom_site_symmetry_multiplicity
 _atom_site_fract_x
 _atom_site_fract_y
 _atom_site_fract_z
 _atom_site_occupancy
  Dy  Dy0  1  0.691126  0.309158  0.310913  1
  Dy  Dy1  1  0.690722  0.690722  0.310869  1
  Dy  Dy2  1  0.309158  0.691126  0.310913  1
  Dy  Dy3  1  0.935504  0.935504  0.558483  1
  Dy  Dy4  1  0.147559  0.147559  0.553679  1
  Dy  Dy5  1  0.565477  0.936896  0.560018  1
  Dy  Dy6  1  0.149010  0.149010  0.150082  1
  Dy  Dy7  1  0.310334  0.310334  0.690688  1
  Dy  Dy8  1  0.936896  0.565477  0.560018  1
  Dy  Dy9  1  0.562514  0.562514  0.937022  1
  Dy  Dy10  1  0.560816  0.936287  0.935605  1
  Dy  Dy11  1  0.936287  0.560816  0.935605  1
  Dy  Dy12  1  0.146777  0.554889  0.147919  1
  Dy  Dy13  1  0.310343  0.690326  0.690369  1
  Dy  Dy14  1  0.690326  0.310343  0.690369  1
  Dy  Dy15  1  0.554889  0.146777  0.147919  1
  Zn  Zn16  1  0.916653  0.916653  0.251104  1
  In  In17  1  0.919599  0.919599  0.922332  1
  Hg  Hg18  1  0.253528  0.914273  0.918596  1
  Hg  Hg19  1  0.914273  0.253528  0.918596  1
  Rh  Rh20  1  0.357242  0.357242  0.356878  1
  Rh  Rh21  1  0.928264  0.356558  0.356276  1
  Rh  Rh22  1  0.356146  0.356146  0.929470  1
  Rh  Rh23  1  0.356558  0.928264  0.356276  1
