# generated using pymatgen
data_Dy2Ho2ReRuC4
_symmetry_space_group_name_H-M   'P 1'
_cell_length_a   5.09934000
_cell_length_b   6.52912200
_cell_length_c   9.80075200
_cell_angle_alpha   90.00000000
_cell_angle_beta   90.00000000
_cell_angle_gamma   90.00000000
_symmetry_Int_Tables_number   1
_chemical_formula_structural   Dy2Ho2ReRuC4
_chemical_formula_sum   'Dy4 Ho4 Re2 Ru2 C8'
_cell_volume   326.30832445
_cell_formula_units_Z   2
loop_
 _symmetry_equiv_pos_site_id
 _symmetry_equiv_pos_as_xyz
  1  'x, y, z'
loop_
 _atom_site_type_symbol
 _atom_site_label
 _atom_site_symmetry_multiplicity
 _atom_site_fract_x
 _atom_site_fract_y
 _atom_site_fract_z
 _atom_site_occupancy
  Dy  Dy0  1  0.250000  0.467235  0.784977  1
  Dy  Dy1  1  0.750000  0.032765  0.284977  1
  Dy  Dy2  1  0.250000  0.969587  0.714560  1
  Dy  Dy3  1  0.750000  0.530413  0.214560  1
  Ho  Ho4  1  0.250000  0.825646  0.055116  1
  Ho  Ho5  1  0.750000  0.674354  0.555116  1
  Ho  Ho6  1  0.250000  0.320386  0.442622  1
  Ho  Ho7  1  0.750000  0.179614  0.942622  1
  Re  Re8  1  0.250000  0.779086  0.365530  1
  Re  Re9  1  0.750000  0.720914  0.865530  1
  Ru  Ru10  1  0.250000  0.278399  0.133869  1
  Ru  Ru11  1  0.750000  0.221601  0.633869  1
  C  C12  1  0.250000  0.174454  0.948912  1
  C  C13  1  0.750000  0.824126  0.051722  1
  C  C14  1  0.250000  0.675874  0.551722  1
  C  C15  1  0.750000  0.325546  0.448912  1
  C  C16  1  0.250000  0.044420  0.260366  1
  C  C17  1  0.750000  0.455580  0.760366  1
  C  C18  1  0.250000  0.546216  0.242325  1
  C  C19  1  0.750000  0.953784  0.742325  1
