# generated using pymatgen
data_Gd3Tm5B24Ru3W
_symmetry_space_group_name_H-M   'P 1'
_cell_length_a   3.63255300
_cell_length_b   9.13786219
_cell_length_c   11.53291464
_cell_angle_alpha   89.84671292
_cell_angle_beta   90.00000000
_cell_angle_gamma   90.00000000
_symmetry_Int_Tables_number   1
_chemical_formula_structural   Gd3Tm5B24Ru3W
_chemical_formula_sum   'Gd3 Tm5 B24 Ru3 W1'
_cell_volume   382.81953117
_cell_formula_units_Z   1
loop_
 _symmetry_equiv_pos_site_id
 _symmetry_equiv_pos_as_xyz
  1  'x, y, z'
loop_
 _atom_site_type_symbol
 _atom_site_label
 _atom_site_symmetry_multiplicity
 _atom_site_fract_x
 _atom_site_fract_y
 _atom_site_fract_z
 _atom_site_occupancy
  Gd  Gd0  1  0.000000  0.321258  0.413759  1
  Gd  Gd1  1  0.000000  0.677907  0.585489  1
  Gd  Gd2  1  0.000000  0.820933  0.086227  1
  Tm  Tm3  1  0.000000  0.177432  0.915012  1
  Tm  Tm4  1  0.000000  0.946220  0.372561  1
  Tm  Tm5  1  0.000000  0.057659  0.629459  1
  Tm  Tm6  1  0.000000  0.442496  0.125861  1
  Tm  Tm7  1  0.000000  0.556374  0.870820  1
  B  B8  1  0.500000  0.550945  0.435591  1
  B  B9  1  0.500000  0.444729  0.569453  1
  B  B10  1  0.500000  0.055073  0.066388  1
  B  B11  1  0.500000  0.946692  0.932558  1
  B  B12  1  0.500000  0.752872  0.421329  1
  B  B13  1  0.500000  0.250640  0.582664  1
  B  B14  1  0.500000  0.248725  0.079526  1
  B  B15  1  0.500000  0.751102  0.918182  1
  B  B16  1  0.500000  0.795762  0.264094  1
  B  B17  1  0.500000  0.207808  0.735642  1
  B  B18  1  0.500000  0.290497  0.232081  1
  B  B19  1  0.500000  0.709745  0.766021  1
  B  B20  1  0.500000  0.631020  0.181911  1
  B  B21  1  0.500000  0.367470  0.816177  1
  B  B22  1  0.500000  0.131208  0.313911  1
  B  B23  1  0.500000  0.870419  0.685664  1
  B  B24  1  0.500000  0.984546  0.212510  1
  B  B25  1  0.500000  0.017727  0.788284  1
  B  B26  1  0.500000  0.477694  0.285530  1
  B  B27  1  0.500000  0.515207  0.713969  1
  B  B28  1  0.500000  0.603693  0.026693  1
  B  B29  1  0.500000  0.393439  0.969801  1
  B  B30  1  0.500000  0.104613  0.472310  1
  B  B31  1  0.500000  0.899114  0.529839  1
  Ru  Ru32  1  0.000000  0.359677  0.681952  1
  Ru  Ru33  1  0.000000  0.138561  0.177892  1
  Ru  Ru34  1  0.000000  0.862546  0.820321  1
  W  W35  1  0.000000  0.638201  0.320518  1
