# generated using pymatgen
data_Hf6Ta(TiSn2)5
_symmetry_space_group_name_H-M   'P 1'
_cell_length_a   9.55939947
_cell_length_b   9.55939954
_cell_length_c   5.78758526
_cell_angle_alpha   90.32014216
_cell_angle_beta   89.67985552
_cell_angle_gamma   120.22525586
_symmetry_Int_Tables_number   1
_chemical_formula_structural   Hf6Ta(TiSn2)5
_chemical_formula_sum   'Hf6 Ta1 Ti5 Sn10'
_cell_volume   456.97241321
_cell_formula_units_Z   1
loop_
 _symmetry_equiv_pos_site_id
 _symmetry_equiv_pos_as_xyz
  1  'x, y, z'
loop_
 _atom_site_type_symbol
 _atom_site_label
 _atom_site_symmetry_multiplicity
 _atom_site_fract_x
 _atom_site_fract_y
 _atom_site_fract_z
 _atom_site_occupancy
  Hf  Hf0  1  0.843159  0.689394  0.752444  1
  Hf  Hf1  1  0.155183  0.844817  0.249997  1
  Hf  Hf2  1  0.689394  0.843159  0.247556  1
  Hf  Hf3  1  0.310606  0.156841  0.752444  1
  Hf  Hf4  1  0.844817  0.155183  0.750003  1
  Hf  Hf5  1  0.156841  0.310606  0.247556  1
  Ta  Ta6  1  0.500000  0.500000  0.000000  1
  Ti  Ti7  1  0.500000  0.000000  0.500000  1
  Ti  Ti8  1  0.000000  0.500000  0.000000  1
  Ti  Ti9  1  0.000000  0.500000  0.500000  1
  Ti  Ti10  1  0.500000  0.000000  0.000000  1
  Ti  Ti11  1  0.500000  0.500000  0.500000  1
  Sn  Sn12  1  0.208758  0.421834  0.746574  1
  Sn  Sn13  1  0.789008  0.210992  0.250255  1
  Sn  Sn14  1  0.421834  0.208758  0.253426  1
  Sn  Sn15  1  0.578166  0.791242  0.746574  1
  Sn  Sn16  1  0.210992  0.789008  0.749745  1
  Sn  Sn17  1  0.791242  0.578166  0.253426  1
  Sn  Sn18  1  0.667194  0.332806  0.750197  1
  Sn  Sn19  1  0.332806  0.667194  0.249803  1
  Sn  Sn20  1  0.000000  0.000000  0.500000  1
  Sn  Sn21  1  0.000000  0.000000  0.000000  1
