# generated using pymatgen
data_TbTm(LuPt)2
_symmetry_space_group_name_H-M   'P 1'
_cell_length_a   4.73222200
_cell_length_b   7.07789902
_cell_length_c   8.63863573
_cell_angle_alpha   90.03226017
_cell_angle_beta   90.00000000
_cell_angle_gamma   90.00000000
_symmetry_Int_Tables_number   1
_chemical_formula_structural   TbTm(LuPt)2
_chemical_formula_sum   'Tb2 Tm2 Lu4 Pt4'
_cell_volume   289.34405569
_cell_formula_units_Z   2
loop_
 _symmetry_equiv_pos_site_id
 _symmetry_equiv_pos_as_xyz
  1  'x, y, z'
loop_
 _atom_site_type_symbol
 _atom_site_label
 _atom_site_symmetry_multiplicity
 _atom_site_fract_x
 _atom_site_fract_y
 _atom_site_fract_z
 _atom_site_occupancy
  Tb  Tb0  1  0.750000  0.009233  0.671493  1
  Tb  Tb1  1  0.250000  0.990767  0.328507  1
  Tm  Tm2  1  0.750000  0.509808  0.832291  1
  Tm  Tm3  1  0.250000  0.490192  0.167709  1
  Lu  Lu4  1  0.750000  0.641628  0.419977  1
  Lu  Lu5  1  0.250000  0.358372  0.580023  1
  Lu  Lu6  1  0.750000  0.144200  0.078321  1
  Lu  Lu7  1  0.250000  0.855800  0.921679  1
  Pt  Pt8  1  0.750000  0.246051  0.407032  1
  Pt  Pt9  1  0.250000  0.753949  0.592968  1
  Pt  Pt10  1  0.750000  0.743510  0.091851  1
  Pt  Pt11  1  0.250000  0.256490  0.908149  1
