# generated using pymatgen
data_Tm2Lu2AlTc3B16
_symmetry_space_group_name_H-M   'P 1'
_cell_length_a   3.55964400
_cell_length_b   5.93127150
_cell_length_c   11.43852042
_cell_angle_alpha   89.83386933
_cell_angle_beta   90.00000000
_cell_angle_gamma   90.00000000
_symmetry_Int_Tables_number   1
_chemical_formula_structural   Tm2Lu2AlTc3B16
_chemical_formula_sum   'Tm2 Lu2 Al1 Tc3 B16'
_cell_volume   241.50292564
_cell_formula_units_Z   1
loop_
 _symmetry_equiv_pos_site_id
 _symmetry_equiv_pos_as_xyz
  1  'x, y, z'
loop_
 _atom_site_type_symbol
 _atom_site_label
 _atom_site_symmetry_multiplicity
 _atom_site_fract_x
 _atom_site_fract_y
 _atom_site_fract_z
 _atom_site_occupancy
  Tm  Tm0  1  0.000000  0.373685  0.649441  1
  Tm  Tm1  1  0.000000  0.627409  0.352790  1
  Lu  Lu2  1  0.000000  0.869271  0.847079  1
  Lu  Lu3  1  0.000000  0.126241  0.149023  1
  Al  Al4  1  0.000000  0.136057  0.412197  1
  Tc  Tc5  1  0.000000  0.364200  0.914128  1
  Tc  Tc6  1  0.000000  0.637397  0.087436  1
  Tc  Tc7  1  0.000000  0.872214  0.585260  1
  B  B8  1  0.500000  0.021465  0.693234  1
  B  B9  1  0.500000  0.978689  0.306008  1
  B  B10  1  0.500000  0.522830  0.806693  1
  B  B11  1  0.500000  0.475950  0.194558  1
  B  B12  1  0.500000  0.113822  0.549801  1
  B  B13  1  0.500000  0.881998  0.452781  1
  B  B14  1  0.500000  0.613365  0.952424  1
  B  B15  1  0.500000  0.385393  0.048490  1
  B  B16  1  0.500000  0.288781  0.314314  1
  B  B17  1  0.500000  0.710579  0.684725  1
  B  B18  1  0.500000  0.790074  0.186555  1
  B  B19  1  0.500000  0.211776  0.813860  1
  B  B20  1  0.500000  0.365384  0.468259  1
  B  B21  1  0.500000  0.633802  0.530937  1
  B  B22  1  0.500000  0.865762  0.031144  1
  B  B23  1  0.500000  0.133858  0.968866  1
