# generated using pymatgen
data_MgZr2InCo8
_symmetry_space_group_name_H-M   'P 1'
_cell_length_a   4.87674253
_cell_length_b   4.87674179
_cell_length_c   8.47745605
_cell_angle_alpha   106.71614235
_cell_angle_beta   73.28385967
_cell_angle_gamma   119.99999738
_symmetry_Int_Tables_number   1
_chemical_formula_structural   MgZr2InCo8
_chemical_formula_sum   'Mg1 Zr2 In1 Co8'
_cell_volume   164.69315579
_cell_formula_units_Z   1
loop_
 _symmetry_equiv_pos_site_id
 _symmetry_equiv_pos_as_xyz
  1  'x, y, z'
loop_
 _atom_site_type_symbol
 _atom_site_label
 _atom_site_symmetry_multiplicity
 _atom_site_fract_x
 _atom_site_fract_y
 _atom_site_fract_z
 _atom_site_occupancy
  Mg  Mg0  1  0.874631  0.125369  0.376108  1
  Zr  Zr1  1  0.999045  0.000955  0.002864  1
  Zr  Zr2  1  0.500835  0.499165  0.497494  1
  In  In3  1  0.375330  0.624670  0.874009  1
  Co  Co4  1  0.436942  0.563058  0.189597  1
  Co  Co5  1  0.937747  0.062253  0.685737  1
  Co  Co6  1  0.436942  0.063482  0.189597  1
  Co  Co7  1  0.937747  0.561232  0.685737  1
  Co  Co8  1  0.188017  0.811983  0.435947  1
  Co  Co9  1  0.687474  0.312526  0.937579  1
  Co  Co10  1  0.936518  0.563058  0.189597  1
  Co  Co11  1  0.438768  0.062253  0.685737  1
