# generated using pymatgen
data_Zr17Si16Mo3
_symmetry_space_group_name_H-M   'P 1'
_cell_length_a   7.05804360
_cell_length_b   7.05804360
_cell_length_c   12.93084062
_cell_angle_alpha   89.91200435
_cell_angle_beta   90.08799565
_cell_angle_gamma   89.95627891
_symmetry_Int_Tables_number   1
_chemical_formula_structural   Zr17Si16Mo3
_chemical_formula_sum   'Zr17 Si16 Mo3'
_cell_volume   644.16078234
_cell_formula_units_Z   1
loop_
 _symmetry_equiv_pos_site_id
 _symmetry_equiv_pos_as_xyz
  1  'x, y, z'
loop_
 _atom_site_type_symbol
 _atom_site_label
 _atom_site_symmetry_multiplicity
 _atom_site_fract_x
 _atom_site_fract_y
 _atom_site_fract_z
 _atom_site_occupancy
  Zr  Zr0  1  0.355717  0.505127  0.377730  1
  Zr  Zr1  1  0.855565  0.997279  0.374024  1
  Zr  Zr2  1  0.002889  0.143191  0.127547  1
  Zr  Zr3  1  0.997279  0.855565  0.625976  1
  Zr  Zr4  1  0.645229  0.499846  0.873556  1
  Zr  Zr5  1  0.505127  0.355717  0.622270  1
  Zr  Zr6  1  0.499846  0.645229  0.126444  1
  Zr  Zr7  1  0.143191  0.002889  0.872453  1
  Zr  Zr8  1  0.997896  0.650401  0.034035  1
  Zr  Zr9  1  0.001622  0.348120  0.530965  1
  Zr  Zr10  1  0.650401  0.997896  0.965965  1
  Zr  Zr11  1  0.149868  0.503096  0.782333  1
  Zr  Zr12  1  0.848337  0.499750  0.284774  1
  Zr  Zr13  1  0.503096  0.149868  0.217667  1
  Zr  Zr14  1  0.499750  0.848337  0.715226  1
  Zr  Zr15  1  0.348120  0.001622  0.469035  1
  Zr  Zr16  1  0.324665  0.324665  0.000000  1
  Si  Si17  1  0.047658  0.700568  0.435098  1
  Si  Si18  1  0.943996  0.297970  0.933720  1
  Si  Si19  1  0.700568  0.047658  0.564902  1
  Si  Si20  1  0.196558  0.455289  0.187912  1
  Si  Si21  1  0.800629  0.548692  0.683777  1
  Si  Si22  1  0.455289  0.196558  0.812088  1
  Si  Si23  1  0.548692  0.800629  0.316223  1
  Si  Si24  1  0.297970  0.943996  0.066280  1
  Si  Si25  1  0.852130  0.798087  0.821109  1
  Si  Si26  1  0.148613  0.202890  0.322641  1
  Si  Si27  1  0.798087  0.852130  0.178891  1
  Si  Si28  1  0.297996  0.648003  0.571589  1
  Si  Si29  1  0.706720  0.353112  0.071545  1
  Si  Si30  1  0.648003  0.297996  0.428411  1
  Si  Si31  1  0.353112  0.706720  0.928455  1
  Si  Si32  1  0.202890  0.148613  0.677359  1
  Mo  Mo33  1  0.675545  0.675545  0.500000  1
  Mo  Mo34  1  0.823231  0.173715  0.747866  1
  Mo  Mo35  1  0.173715  0.823231  0.252134  1
