# generated using pymatgen
data_La11Hg9Ru4
_symmetry_space_group_name_H-M   'P 1'
_cell_length_a   13.47875783
_cell_length_b   13.47875805
_cell_length_c   3.92607800
_cell_angle_alpha   90.00000000
_cell_angle_beta   90.00000000
_cell_angle_gamma   113.21291847
_symmetry_Int_Tables_number   1
_chemical_formula_structural   La11Hg9Ru4
_chemical_formula_sum   'La11 Hg9 Ru4'
_cell_volume   655.53540731
_cell_formula_units_Z   1
loop_
 _symmetry_equiv_pos_site_id
 _symmetry_equiv_pos_as_xyz
  1  'x, y, z'
loop_
 _atom_site_type_symbol
 _atom_site_label
 _atom_site_symmetry_multiplicity
 _atom_site_fract_x
 _atom_site_fract_y
 _atom_site_fract_z
 _atom_site_occupancy
  La  La0  1  0.310450  0.310450  0.000000  1
  La  La1  1  0.689550  0.689550  0.000000  1
  La  La2  1  0.000000  0.000000  0.000000  1
  La  La3  1  0.089118  0.417667  0.000000  1
  La  La4  1  0.910882  0.582333  0.000000  1
  La  La5  1  0.417667  0.089118  0.000000  1
  La  La6  1  0.582333  0.910882  0.000000  1
  La  La7  1  0.833674  0.166326  0.000000  1
  La  La8  1  0.166326  0.833674  0.000000  1
  La  La9  1  0.624308  0.375692  0.000000  1
  La  La10  1  0.375692  0.624308  0.000000  1
  Hg  Hg11  1  0.843547  0.367627  0.500000  1
  Hg  Hg12  1  0.156453  0.632373  0.500000  1
  Hg  Hg13  1  0.367627  0.843547  0.500000  1
  Hg  Hg14  1  0.632373  0.156453  0.500000  1
  Hg  Hg15  1  0.072029  0.215707  0.500000  1
  Hg  Hg16  1  0.927971  0.784293  0.500000  1
  Hg  Hg17  1  0.215707  0.072029  0.500000  1
  Hg  Hg18  1  0.784293  0.927971  0.500000  1
  Hg  Hg19  1  0.500000  0.500000  0.500000  1
  Ru  Ru20  1  0.243350  0.451938  0.500000  1
  Ru  Ru21  1  0.756650  0.548062  0.500000  1
  Ru  Ru22  1  0.451938  0.243350  0.500000  1
  Ru  Ru23  1  0.548062  0.756650  0.500000  1
