# generated using pymatgen
data_HoP6(Pd10Pb)2
_symmetry_space_group_name_H-M   'P 1'
_cell_length_a   8.70136650
_cell_length_b   8.70136684
_cell_length_c   8.70136600
_cell_angle_alpha   59.99999557
_cell_angle_beta   59.99999429
_cell_angle_gamma   59.99999748
_symmetry_Int_Tables_number   1
_chemical_formula_structural   HoP6(Pd10Pb)2
_chemical_formula_sum   'Ho1 P6 Pd20 Pb2'
_cell_volume   465.85132663
_cell_formula_units_Z   1
loop_
 _symmetry_equiv_pos_site_id
 _symmetry_equiv_pos_as_xyz
  1  'x, y, z'
loop_
 _atom_site_type_symbol
 _atom_site_label
 _atom_site_symmetry_multiplicity
 _atom_site_fract_x
 _atom_site_fract_y
 _atom_site_fract_z
 _atom_site_occupancy
  Ho  Ho0  1  0.000000  0.000000  0.000000  1
  P  P1  1  0.735510  0.264490  0.264490  1
  P  P2  1  0.264490  0.735510  0.735510  1
  P  P3  1  0.264490  0.735510  0.264490  1
  P  P4  1  0.735510  0.264490  0.735510  1
  P  P5  1  0.264490  0.264490  0.735510  1
  P  P6  1  0.735510  0.735510  0.264490  1
  Pd  Pd7  1  0.384202  0.384202  0.384202  1
  Pd  Pd8  1  0.615798  0.615798  0.615798  1
  Pd  Pd9  1  0.384202  0.384202  0.847395  1
  Pd  Pd10  1  0.384202  0.847395  0.384202  1
  Pd  Pd11  1  0.615798  0.615798  0.152605  1
  Pd  Pd12  1  0.615798  0.152605  0.615798  1
  Pd  Pd13  1  0.847395  0.384202  0.384202  1
  Pd  Pd14  1  0.152605  0.615798  0.615798  1
  Pd  Pd15  1  0.343411  0.000000  0.000000  1
  Pd  Pd16  1  0.656589  0.000000  0.000000  1
  Pd  Pd17  1  0.000000  0.343411  0.656589  1
  Pd  Pd18  1  0.000000  0.656589  0.343411  1
  Pd  Pd19  1  0.000000  0.343411  0.000000  1
  Pd  Pd20  1  0.656589  0.000000  0.343411  1
  Pd  Pd21  1  0.000000  0.656589  0.000000  1
  Pd  Pd22  1  0.343411  0.000000  0.656589  1
  Pd  Pd23  1  0.000000  0.000000  0.343411  1
  Pd  Pd24  1  0.000000  0.000000  0.656589  1
  Pd  Pd25  1  0.656589  0.343411  0.000000  1
  Pd  Pd26  1  0.343411  0.656589  0.000000  1
  Pb  Pb27  1  0.250000  0.250000  0.250000  1
  Pb  Pb28  1  0.750000  0.750000  0.750000  1
