# generated using pymatgen
data_TmMg7(B6Ru)4
_symmetry_space_group_name_H-M   'P 1'
_cell_length_a   8.87554116
_cell_length_b   11.06951260
_cell_length_c   3.49407700
_cell_angle_alpha   90.00000000
_cell_angle_beta   90.00000000
_cell_angle_gamma   89.82686509
_symmetry_Int_Tables_number   1
_chemical_formula_structural   TmMg7(B6Ru)4
_chemical_formula_sum   'Tm1 Mg7 B24 Ru4'
_cell_volume   343.28421170
_cell_formula_units_Z   1
loop_
 _symmetry_equiv_pos_site_id
 _symmetry_equiv_pos_as_xyz
  1  'x, y, z'
loop_
 _atom_site_type_symbol
 _atom_site_label
 _atom_site_symmetry_multiplicity
 _atom_site_fract_x
 _atom_site_fract_y
 _atom_site_fract_z
 _atom_site_occupancy
  Tm  Tm0  1  0.676060  0.085484  0.000000  1
  Mg  Mg1  1  0.054504  0.129895  0.000000  1
  Mg  Mg2  1  0.553676  0.372453  0.000000  1
  Mg  Mg3  1  0.169791  0.414044  0.000000  1
  Mg  Mg4  1  0.831096  0.587120  0.000000  1
  Mg  Mg5  1  0.444097  0.628213  0.000000  1
  Mg  Mg6  1  0.944677  0.869718  0.000000  1
  Mg  Mg7  1  0.329869  0.913048  0.000000  1
  B  B8  1  0.906161  0.025674  0.500000  1
  B  B9  1  0.443740  0.064396  0.500000  1
  B  B10  1  0.242980  0.079195  0.500000  1
  B  B11  1  0.869636  0.183113  0.500000  1
  B  B12  1  0.517561  0.213033  0.500000  1
  B  B13  1  0.201905  0.238796  0.500000  1
  B  B14  1  0.702665  0.263724  0.500000  1
  B  B15  1  0.019026  0.289244  0.500000  1
  B  B16  1  0.366106  0.320646  0.500000  1
  B  B17  1  0.744000  0.423048  0.500000  1
  B  B18  1  0.945424  0.436666  0.500000  1
  B  B19  1  0.407026  0.475271  0.500000  1
  B  B20  1  0.591611  0.525156  0.500000  1
  B  B21  1  0.056066  0.564402  0.500000  1
  B  B22  1  0.256108  0.579198  0.500000  1
  B  B23  1  0.632813  0.678739  0.500000  1
  B  B24  1  0.980978  0.710477  0.500000  1
  B  B25  1  0.298074  0.738465  0.500000  1
  B  B26  1  0.798510  0.760315  0.500000  1
  B  B27  1  0.479480  0.787659  0.500000  1
  B  B28  1  0.131711  0.819827  0.500000  1
  B  B29  1  0.755947  0.916894  0.500000  1
  B  B30  1  0.556411  0.932971  0.500000  1
  B  B31  1  0.093780  0.974028  0.500000  1
  Ru  Ru32  1  0.356997  0.181274  0.000000  1
  Ru  Ru33  1  0.856429  0.323164  0.000000  1
  Ru  Ru34  1  0.142807  0.679992  0.000000  1
  Ru  Ru35  1  0.642277  0.814652  0.000000  1
