# generated using pymatgen
data_Er3TmAl8
_symmetry_space_group_name_H-M   'P 1'
_cell_length_a   9.57555785
_cell_length_b   9.57555888
_cell_length_c   9.57555865
_cell_angle_alpha   33.56565732
_cell_angle_beta   33.56565705
_cell_angle_gamma   33.56566329
_symmetry_Int_Tables_number   1
_chemical_formula_structural   Er3TmAl8
_chemical_formula_sum   'Er3 Tm1 Al8'
_cell_volume   239.06841665
_cell_formula_units_Z   1
loop_
 _symmetry_equiv_pos_site_id
 _symmetry_equiv_pos_as_xyz
  1  'x, y, z'
loop_
 _atom_site_type_symbol
 _atom_site_label
 _atom_site_symmetry_multiplicity
 _atom_site_fract_x
 _atom_site_fract_y
 _atom_site_fract_z
 _atom_site_occupancy
  Er  Er0  1  0.374990  0.374990  0.374990  1
  Er  Er1  1  0.999886  0.999886  0.999886  1
  Er  Er2  1  0.500151  0.500151  0.500151  1
  Tm  Tm3  1  0.874982  0.874982  0.874982  1
  Al  Al4  1  0.437436  0.937451  0.437436  1
  Al  Al5  1  0.937527  0.437590  0.937527  1
  Al  Al6  1  0.437436  0.437436  0.937451  1
  Al  Al7  1  0.937527  0.937527  0.437590  1
  Al  Al8  1  0.187508  0.187508  0.187508  1
  Al  Al9  1  0.687518  0.687518  0.687518  1
  Al  Al10  1  0.937451  0.437436  0.437436  1
  Al  Al11  1  0.437590  0.937527  0.937527  1
