# generated using pymatgen
data_ErTm2Lu5Pt4
_symmetry_space_group_name_H-M   'P 1'
_cell_length_a   4.72553200
_cell_length_b   7.05065853
_cell_length_c   8.58953900
_cell_angle_alpha   90.24890941
_cell_angle_beta   90.00000000
_cell_angle_gamma   90.00000000
_symmetry_Int_Tables_number   1
_chemical_formula_structural   ErTm2Lu5Pt4
_chemical_formula_sum   'Er1 Tm2 Lu5 Pt4'
_cell_volume   286.18452630
_cell_formula_units_Z   1
loop_
 _symmetry_equiv_pos_site_id
 _symmetry_equiv_pos_as_xyz
  1  'x, y, z'
loop_
 _atom_site_type_symbol
 _atom_site_label
 _atom_site_symmetry_multiplicity
 _atom_site_fract_x
 _atom_site_fract_y
 _atom_site_fract_z
 _atom_site_occupancy
  Er  Er0  1  0.750000  0.511507  0.830040  1
  Tm  Tm1  1  0.250000  0.487774  0.169719  1
  Tm  Tm2  1  0.750000  0.012846  0.669396  1
  Lu  Lu3  1  0.250000  0.856269  0.922911  1
  Lu  Lu4  1  0.250000  0.356736  0.576475  1
  Lu  Lu5  1  0.750000  0.143057  0.078686  1
  Lu  Lu6  1  0.750000  0.644087  0.422111  1
  Lu  Lu7  1  0.250000  0.987283  0.331390  1
  Pt  Pt8  1  0.250000  0.256454  0.905232  1
  Pt  Pt9  1  0.250000  0.757616  0.594230  1
  Pt  Pt10  1  0.750000  0.743325  0.095338  1
  Pt  Pt11  1  0.750000  0.243043  0.404472  1
