# generated using pymatgen
data_Ac2B2Pd5Pt3
_symmetry_space_group_name_H-M   'P 1'
_cell_length_a   5.52041200
_cell_length_b   5.50773115
_cell_length_c   7.70050900
_cell_angle_alpha   90.00000000
_cell_angle_beta   90.00000000
_cell_angle_gamma   119.92405756
_symmetry_Int_Tables_number   1
_chemical_formula_structural   Ac2B2Pd5Pt3
_chemical_formula_sum   'Ac2 B2 Pd5 Pt3'
_cell_volume   202.92059277
_cell_formula_units_Z   1
loop_
 _symmetry_equiv_pos_site_id
 _symmetry_equiv_pos_as_xyz
  1  'x, y, z'
loop_
 _atom_site_type_symbol
 _atom_site_label
 _atom_site_symmetry_multiplicity
 _atom_site_fract_x
 _atom_site_fract_y
 _atom_site_fract_z
 _atom_site_occupancy
  Ac  Ac0  1  0.000000  0.000000  0.497885  1
  Ac  Ac1  1  0.000000  0.000000  0.997858  1
  B  B2  1  0.668129  0.334065  0.501347  1
  B  B3  1  0.331871  0.665935  0.501347  1
  Pd  Pd4  1  0.666809  0.333405  0.000679  1
  Pd  Pd5  1  0.500000  0.500000  0.299324  1
  Pd  Pd6  1  0.500000  0.000000  0.299324  1
  Pd  Pd7  1  0.000000  0.500000  0.703205  1
  Pd  Pd8  1  0.333191  0.666595  0.000679  1
  Pt  Pt9  1  0.500000  0.000000  0.696915  1
  Pt  Pt10  1  0.500000  0.500000  0.696915  1
  Pt  Pt11  1  0.000000  0.500000  0.304523  1
