# generated using pymatgen
data_SmY7(Nb3Si4)4
_symmetry_space_group_name_H-M   'P 1'
_cell_length_a   7.08815758
_cell_length_b   7.08834469
_cell_length_c   13.08074699
_cell_angle_alpha   89.96432917
_cell_angle_beta   89.99499980
_cell_angle_gamma   90.03377728
_symmetry_Int_Tables_number   1
_chemical_formula_structural   SmY7(Nb3Si4)4
_chemical_formula_sum   'Sm1 Y7 Nb12 Si16'
_cell_volume   657.21970562
_cell_formula_units_Z   1
loop_
 _symmetry_equiv_pos_site_id
 _symmetry_equiv_pos_as_xyz
  1  'x, y, z'
loop_
 _atom_site_type_symbol
 _atom_site_label
 _atom_site_symmetry_multiplicity
 _atom_site_fract_x
 _atom_site_fract_y
 _atom_site_fract_z
 _atom_site_occupancy
  Sm  Sm0  1  0.997063  0.340221  0.217881  1
  Y  Y1  1  0.001048  0.658526  0.717898  1
  Y  Y2  1  0.158810  0.499153  0.467954  1
  Y  Y3  1  0.500837  0.841241  0.031937  1
  Y  Y4  1  0.841441  0.501086  0.967581  1
  Y  Y5  1  0.498882  0.158503  0.532483  1
  Y  Y6  1  0.341494  0.999041  0.782072  1
  Y  Y7  1  0.658751  0.001264  0.282309  1
  Nb  Nb8  1  0.171183  0.170391  0.999605  1
  Nb  Nb9  1  0.829172  0.829189  0.500345  1
  Nb  Nb10  1  0.329286  0.670973  0.249992  1
  Nb  Nb11  1  0.670851  0.329221  0.749978  1
  Nb  Nb12  1  0.154685  0.992483  0.376538  1
  Nb  Nb13  1  0.846125  0.007745  0.875410  1
  Nb  Nb14  1  0.507405  0.654063  0.626630  1
  Nb  Nb15  1  0.346183  0.492621  0.873238  1
  Nb  Nb16  1  0.492488  0.345519  0.125957  1
  Nb  Nb17  1  0.653919  0.508509  0.374223  1
  Nb  Nb18  1  0.992031  0.153865  0.624472  1
  Nb  Nb19  1  0.008023  0.845539  0.123663  1
  Si  Si20  1  0.294041  0.044268  0.186678  1
  Si  Si21  1  0.706658  0.954322  0.686586  1
  Si  Si22  1  0.454598  0.793265  0.436884  1
  Si  Si23  1  0.207687  0.545829  0.062548  1
  Si  Si24  1  0.544978  0.206757  0.936427  1
  Si  Si25  1  0.793113  0.454810  0.563478  1
  Si  Si26  1  0.045660  0.293337  0.813428  1
  Si  Si27  1  0.954377  0.708934  0.313820  1
  Si  Si28  1  0.369609  0.295377  0.318263  1
  Si  Si29  1  0.632311  0.704707  0.818098  1
  Si  Si30  1  0.204394  0.867885  0.568121  1
  Si  Si31  1  0.132209  0.795805  0.931833  1
  Si  Si32  1  0.794317  0.130207  0.066451  1
  Si  Si33  1  0.867971  0.204152  0.433222  1
  Si  Si34  1  0.295303  0.367896  0.681808  1
  Si  Si35  1  0.703098  0.633295  0.182191  1
