# generated using pymatgen
data_Nd5Si12Rh19
_symmetry_space_group_name_H-M   'P 1'
_cell_length_a   12.92604900
_cell_length_b   12.92604805
_cell_length_c   4.01566500
_cell_angle_alpha   90.00000000
_cell_angle_beta   90.00000000
_cell_angle_gamma   119.99999986
_symmetry_Int_Tables_number   1
_chemical_formula_structural   Nd5Si12Rh19
_chemical_formula_sum   'Nd5 Si12 Rh19'
_cell_volume   581.05824986
_cell_formula_units_Z   1
loop_
 _symmetry_equiv_pos_site_id
 _symmetry_equiv_pos_as_xyz
  1  'x, y, z'
loop_
 _atom_site_type_symbol
 _atom_site_label
 _atom_site_symmetry_multiplicity
 _atom_site_fract_x
 _atom_site_fract_y
 _atom_site_fract_z
 _atom_site_occupancy
  Nd  Nd0  1  0.000000  0.186694  0.500000  1
  Nd  Nd1  1  0.813306  0.813306  0.500000  1
  Nd  Nd2  1  0.186694  0.000000  0.500000  1
  Nd  Nd3  1  0.666667  0.333333  0.000000  1
  Nd  Nd4  1  0.333333  0.666667  0.000000  1
  Si  Si5  1  0.476365  0.313418  0.500000  1
  Si  Si6  1  0.815182  0.000000  0.000000  1
  Si  Si7  1  0.184818  0.184818  0.000000  1
  Si  Si8  1  0.000000  0.815182  0.000000  1
  Si  Si9  1  0.374002  0.000000  0.000000  1
  Si  Si10  1  0.686582  0.162947  0.500000  1
  Si  Si11  1  0.837053  0.523635  0.500000  1
  Si  Si12  1  0.523635  0.837053  0.500000  1
  Si  Si13  1  0.162947  0.686582  0.500000  1
  Si  Si14  1  0.313418  0.476365  0.500000  1
  Si  Si15  1  0.000000  0.374002  0.000000  1
  Si  Si16  1  0.625998  0.625998  0.000000  1
  Rh  Rh17  1  0.805825  0.182625  0.000000  1
  Rh  Rh18  1  0.376799  0.194175  0.000000  1
  Rh  Rh19  1  0.639742  0.513940  0.500000  1
  Rh  Rh20  1  0.874198  0.360258  0.500000  1
  Rh  Rh21  1  0.360258  0.874198  0.500000  1
  Rh  Rh22  1  0.513940  0.639742  0.500000  1
  Rh  Rh23  1  0.125802  0.486060  0.500000  1
  Rh  Rh24  1  0.817375  0.623201  0.000000  1
  Rh  Rh25  1  0.623201  0.817375  0.000000  1
  Rh  Rh26  1  0.182625  0.805825  0.000000  1
  Rh  Rh27  1  0.194175  0.376799  0.000000  1
  Rh  Rh28  1  0.000000  0.719431  0.500000  1
  Rh  Rh29  1  0.280569  0.280569  0.500000  1
  Rh  Rh30  1  0.719431  0.000000  0.500000  1
  Rh  Rh31  1  0.000000  0.555343  0.000000  1
  Rh  Rh32  1  0.444657  0.444657  0.000000  1
  Rh  Rh33  1  0.555343  0.000000  0.000000  1
  Rh  Rh34  1  0.000000  0.000000  0.000000  1
  Rh  Rh35  1  0.486060  0.125802  0.500000  1
