# generated using pymatgen
data_La3Y2Tl2InBr
_symmetry_space_group_name_H-M   'P 1'
_cell_length_a   9.61818505
_cell_length_b   9.61818530
_cell_length_c   6.87388000
_cell_angle_alpha   90.00000000
_cell_angle_beta   90.00000000
_cell_angle_gamma   119.91047467
_symmetry_Int_Tables_number   1
_chemical_formula_structural   La3Y2Tl2InBr
_chemical_formula_sum   'La6 Y4 Tl4 In2 Br2'
_cell_volume   551.20090762
_cell_formula_units_Z   2
loop_
 _symmetry_equiv_pos_site_id
 _symmetry_equiv_pos_as_xyz
  1  'x, y, z'
loop_
 _atom_site_type_symbol
 _atom_site_label
 _atom_site_symmetry_multiplicity
 _atom_site_fract_x
 _atom_site_fract_y
 _atom_site_fract_z
 _atom_site_occupancy
  La  La0  1  0.731154  0.731154  0.250000  1
  La  La1  1  0.999620  0.730808  0.750000  1
  La  La2  1  0.730808  0.999620  0.750000  1
  La  La3  1  0.268846  0.268846  0.750000  1
  La  La4  1  0.000380  0.269192  0.250000  1
  La  La5  1  0.269192  0.000380  0.250000  1
  Y  Y6  1  0.334328  0.665672  0.500000  1
  Y  Y7  1  0.665672  0.334328  0.500000  1
  Y  Y8  1  0.334328  0.665672  0.000000  1
  Y  Y9  1  0.665672  0.334328  0.000000  1
  Tl  Tl10  1  0.392603  0.999849  0.750000  1
  Tl  Tl11  1  0.000151  0.607397  0.250000  1
  Tl  Tl12  1  0.607397  0.000151  0.250000  1
  Tl  Tl13  1  0.999849  0.392603  0.750000  1
  In  In14  1  0.393391  0.393391  0.250000  1
  In  In15  1  0.606609  0.606609  0.750000  1
  Br  Br16  1  0.000000  0.000000  0.500000  1
  Br  Br17  1  0.000000  0.000000  0.000000  1
