# generated using pymatgen
data_Y3Tm(LuSb)6
_symmetry_space_group_name_H-M   'P 1'
_cell_length_a   8.07926300
_cell_length_b   9.14118900
_cell_length_c   11.76032200
_cell_angle_alpha   90.00000000
_cell_angle_beta   90.00000000
_cell_angle_gamma   90.00000000
_symmetry_Int_Tables_number   1
_chemical_formula_structural   Y3Tm(LuSb)6
_chemical_formula_sum   'Y6 Tm2 Lu12 Sb12'
_cell_volume   868.54764496
_cell_formula_units_Z   2
loop_
 _symmetry_equiv_pos_site_id
 _symmetry_equiv_pos_as_xyz
  1  'x, y, z'
loop_
 _atom_site_type_symbol
 _atom_site_label
 _atom_site_symmetry_multiplicity
 _atom_site_fract_x
 _atom_site_fract_y
 _atom_site_fract_z
 _atom_site_occupancy
  Y  Y0  1  0.175610  0.750000  0.228671  1
  Y  Y1  1  0.675610  0.250000  0.271329  1
  Y  Y2  1  0.823839  0.250000  0.770916  1
  Y  Y3  1  0.323839  0.750000  0.729084  1
  Y  Y4  1  0.659280  0.750000  0.290755  1
  Y  Y5  1  0.159280  0.250000  0.209245  1
  Tm  Tm6  1  0.339626  0.250000  0.709351  1
  Tm  Tm7  1  0.839626  0.750000  0.790649  1
  Lu  Lu8  1  0.810258  0.938547  0.065288  1
  Lu  Lu9  1  0.310258  0.061453  0.434712  1
  Lu  Lu10  1  0.190110  0.438231  0.933458  1
  Lu  Lu11  1  0.690110  0.561769  0.566542  1
  Lu  Lu12  1  0.190110  0.061769  0.933458  1
  Lu  Lu13  1  0.690110  0.938231  0.566542  1
  Lu  Lu14  1  0.810258  0.561453  0.065288  1
  Lu  Lu15  1  0.310258  0.438547  0.434712  1
  Lu  Lu16  1  0.524665  0.250000  0.994810  1
  Lu  Lu17  1  0.024665  0.750000  0.505190  1
  Lu  Lu18  1  0.475296  0.750000  0.003572  1
  Lu  Lu19  1  0.975296  0.250000  0.496428  1
  Sb  Sb20  1  0.937947  0.991544  0.327962  1
  Sb  Sb21  1  0.437947  0.008456  0.172038  1
  Sb  Sb22  1  0.063164  0.491230  0.673050  1
  Sb  Sb23  1  0.563164  0.508770  0.826950  1
  Sb  Sb24  1  0.063164  0.008770  0.673050  1
  Sb  Sb25  1  0.563164  0.991230  0.826950  1
  Sb  Sb26  1  0.937947  0.508456  0.327962  1
  Sb  Sb27  1  0.437947  0.491544  0.172038  1
  Sb  Sb28  1  0.901080  0.250000  0.025398  1
  Sb  Sb29  1  0.401080  0.750000  0.474602  1
  Sb  Sb30  1  0.097651  0.750000  0.972640  1
  Sb  Sb31  1  0.597651  0.250000  0.527360  1
