# generated using pymatgen
data_LaPr3ZnSi3
_symmetry_space_group_name_H-M   'P 1'
_cell_length_a   7.06149098
_cell_length_b   7.06149122
_cell_length_c   6.75571798
_cell_angle_alpha   89.43850219
_cell_angle_beta   90.56149814
_cell_angle_gamma   142.83672326
_symmetry_Int_Tables_number   1
_chemical_formula_structural   LaPr3ZnSi3
_chemical_formula_sum   'La1 Pr3 Zn1 Si3'
_cell_volume   203.48934387
_cell_formula_units_Z   1
loop_
 _symmetry_equiv_pos_site_id
 _symmetry_equiv_pos_as_xyz
  1  'x, y, z'
loop_
 _atom_site_type_symbol
 _atom_site_label
 _atom_site_symmetry_multiplicity
 _atom_site_fract_x
 _atom_site_fract_y
 _atom_site_fract_z
 _atom_site_occupancy
  La  La0  1  0.444570  0.555430  0.750102  1
  Pr  Pr1  1  0.277710  0.722290  0.256808  1
  Pr  Pr2  1  0.726466  0.273534  0.741591  1
  Pr  Pr3  1  0.552160  0.447840  0.253086  1
  Zn  Zn4  1  0.093490  0.906510  0.935703  1
  Si  Si5  1  0.905574  0.094426  0.069444  1
  Si  Si6  1  0.909611  0.090389  0.434992  1
  Si  Si7  1  0.090419  0.909581  0.558274  1
