# generated using pymatgen
data_Li2Sc3AgSn3
_symmetry_space_group_name_H-M   'P 1'
_cell_length_a   4.43091900
_cell_length_b   7.01676684
_cell_length_c   7.01689200
_cell_angle_alpha   119.99941756
_cell_angle_beta   90.00000000
_cell_angle_gamma   90.00000000
_symmetry_Int_Tables_number   1
_chemical_formula_structural   Li2Sc3AgSn3
_chemical_formula_sum   'Li2 Sc3 Ag1 Sn3'
_cell_volume   188.93343877
_cell_formula_units_Z   1
loop_
 _symmetry_equiv_pos_site_id
 _symmetry_equiv_pos_as_xyz
  1  'x, y, z'
loop_
 _atom_site_type_symbol
 _atom_site_label
 _atom_site_symmetry_multiplicity
 _atom_site_fract_x
 _atom_site_fract_y
 _atom_site_fract_z
 _atom_site_occupancy
  Li  Li0  1  0.500000  0.769281  0.766792  1
  Li  Li1  1  0.500000  0.002488  0.233208  1
  Sc  Sc2  1  0.000000  0.440684  0.437658  1
  Sc  Sc3  1  0.000000  0.003026  0.562342  1
  Sc  Sc4  1  0.000000  0.550323  0.000000  1
  Ag  Ag5  1  0.500000  0.235413  0.000000  1
  Sn  Sn6  1  0.500000  0.676191  0.340882  1
  Sn  Sn7  1  0.500000  0.335309  0.659118  1
  Sn  Sn8  1  0.000000  0.987285  0.000000  1
