# generated using pymatgen
data_Ac8Ho12Si15S
_symmetry_space_group_name_H-M   'P 1'
_cell_length_a   7.78149934
_cell_length_b   7.94684228
_cell_length_c   15.14569600
_cell_angle_alpha   89.84035142
_cell_angle_beta   86.99408823
_cell_angle_gamma   90.24583795
_symmetry_Int_Tables_number   1
_chemical_formula_structural   Ac8Ho12Si15S
_chemical_formula_sum   'Ac8 Ho12 Si15 S1'
_cell_volume   935.28333771
_cell_formula_units_Z   1
loop_
 _symmetry_equiv_pos_site_id
 _symmetry_equiv_pos_as_xyz
  1  'x, y, z'
loop_
 _atom_site_type_symbol
 _atom_site_label
 _atom_site_symmetry_multiplicity
 _atom_site_fract_x
 _atom_site_fract_y
 _atom_site_fract_z
 _atom_site_occupancy
  Ac  Ac0  1  0.005648  0.826435  0.101046  1
  Ac  Ac1  1  0.484435  0.673319  0.400190  1
  Ac  Ac2  1  0.495383  0.321468  0.902399  1
  Ac  Ac3  1  0.015810  0.171862  0.601034  1
  Ac  Ac4  1  0.997365  0.177310  0.901962  1
  Ac  Ac5  1  0.513273  0.325495  0.599596  1
  Ac  Ac6  1  0.502937  0.683429  0.099181  1
  Ac  Ac7  1  0.984317  0.823959  0.399860  1
  Ho  Ho8  1  0.671008  0.003956  0.245730  1
  Ho  Ho9  1  0.170819  0.498390  0.244601  1
  Ho  Ho10  1  0.830578  0.500627  0.747326  1
  Ho  Ho11  1  0.327920  0.996732  0.756263  1
  Ho  Ho12  1  0.649116  0.836856  0.877056  1
  Ho  Ho13  1  0.172264  0.676041  0.625447  1
  Ho  Ho14  1  0.851870  0.336842  0.120900  1
  Ho  Ho15  1  0.327195  0.174778  0.374829  1
  Ho  Ho16  1  0.351536  0.163698  0.122091  1
  Ho  Ho17  1  0.829276  0.324050  0.375905  1
  Ho  Ho18  1  0.148608  0.661860  0.881992  1
  Ho  Ho19  1  0.671573  0.825164  0.626241  1
  Si  Si20  1  0.793539  0.614768  0.250865  1
  Si  Si21  1  0.297481  0.881195  0.251429  1
  Si  Si22  1  0.702118  0.119126  0.749792  1
  Si  Si23  1  0.203632  0.383375  0.750436  1
  Si  Si24  1  0.042068  0.132029  0.249901  1
  Si  Si25  1  0.546507  0.372380  0.250043  1
  Si  Si26  1  0.454992  0.627782  0.751655  1
  Si  Si27  1  0.957715  0.867028  0.752070  1
  Si  Si28  1  0.358471  0.965299  0.540224  1
  Si  Si29  1  0.691887  0.045376  0.044154  1
  Si  Si30  1  0.142668  0.464832  0.461038  1
  Si  Si31  1  0.193795  0.457568  0.047383  1
  Si  Si32  1  0.642122  0.033022  0.460341  1
  Si  Si33  1  0.311292  0.957015  0.953368  1
  Si  Si34  1  0.857816  0.531663  0.541949  1
  S  S35  1  0.802963  0.545270  0.941700  1
