# generated using pymatgen
data_Li16SiGeAs8
_symmetry_space_group_name_H-M   'P 1'
_cell_length_a   8.73875763
_cell_length_b   8.73875712
_cell_length_c   8.73875800
_cell_angle_alpha   59.99999667
_cell_angle_beta   59.99999861
_cell_angle_gamma   59.99999713
_symmetry_Int_Tables_number   1
_chemical_formula_structural   Li16SiGeAs8
_chemical_formula_sum   'Li16 Si1 Ge1 As8'
_cell_volume   471.88269741
_cell_formula_units_Z   1
loop_
 _symmetry_equiv_pos_site_id
 _symmetry_equiv_pos_as_xyz
  1  'x, y, z'
loop_
 _atom_site_type_symbol
 _atom_site_label
 _atom_site_symmetry_multiplicity
 _atom_site_fract_x
 _atom_site_fract_y
 _atom_site_fract_z
 _atom_site_occupancy
  Li  Li0  1  0.626639  0.626639  0.120081  1
  Li  Li1  1  0.626639  0.120081  0.626639  1
  Li  Li2  1  0.120081  0.626639  0.626639  1
  Li  Li3  1  0.626639  0.626639  0.626639  1
  Li  Li4  1  0.018189  0.481811  0.481811  1
  Li  Li5  1  0.766941  0.233059  0.233059  1
  Li  Li6  1  0.481811  0.018189  0.481811  1
  Li  Li7  1  0.481811  0.481811  0.018189  1
  Li  Li8  1  0.018189  0.018189  0.481811  1
  Li  Li9  1  0.018189  0.481811  0.018189  1
  Li  Li10  1  0.481811  0.018189  0.018189  1
  Li  Li11  1  0.766941  0.233059  0.766941  1
  Li  Li12  1  0.233059  0.766941  0.233059  1
  Li  Li13  1  0.233059  0.233059  0.766941  1
  Li  Li14  1  0.766941  0.766941  0.233059  1
  Li  Li15  1  0.233059  0.766941  0.766941  1
  Si  Si16  1  0.750000  0.750000  0.750000  1
  Ge  Ge17  1  0.500000  0.500000  0.500000  1
  As  As18  1  0.861933  0.861933  0.414205  1
  As  As19  1  0.861933  0.414205  0.861933  1
  As  As20  1  0.384365  0.384365  0.846904  1
  As  As21  1  0.384365  0.846904  0.384365  1
  As  As22  1  0.846904  0.384365  0.384365  1
  As  As23  1  0.861933  0.861933  0.861933  1
  As  As24  1  0.414205  0.861933  0.861933  1
  As  As25  1  0.384365  0.384365  0.384365  1
