# generated using pymatgen
data_Np2MnFe8Ni3P7
_symmetry_space_group_name_H-M   'P 1'
_cell_length_a   9.02245218
_cell_length_b   9.05462984
_cell_length_c   3.63074900
_cell_angle_alpha   90.00000000
_cell_angle_beta   90.00000000
_cell_angle_gamma   119.51352676
_symmetry_Int_Tables_number   1
_chemical_formula_structural   Np2MnFe8Ni3P7
_chemical_formula_sum   'Np2 Mn1 Fe8 Ni3 P7'
_cell_volume   258.12511739
_cell_formula_units_Z   1
loop_
 _symmetry_equiv_pos_site_id
 _symmetry_equiv_pos_as_xyz
  1  'x, y, z'
loop_
 _atom_site_type_symbol
 _atom_site_label
 _atom_site_symmetry_multiplicity
 _atom_site_fract_x
 _atom_site_fract_y
 _atom_site_fract_z
 _atom_site_occupancy
  Np  Np0  1  0.995787  0.994706  0.000000  1
  Np  Np1  1  0.672014  0.333320  0.500000  1
  Mn  Mn2  1  0.109942  0.545444  0.500000  1
  Fe  Fe3  1  0.905869  0.300423  0.000000  1
  Fe  Fe4  1  0.214792  0.393332  0.000000  1
  Fe  Fe5  1  0.606251  0.824078  0.000000  1
  Fe  Fe6  1  0.179441  0.787138  0.000000  1
  Fe  Fe7  1  0.764921  0.049806  0.500000  1
  Fe  Fe8  1  0.948032  0.719222  0.500000  1
  Fe  Fe9  1  0.455698  0.568108  0.500000  1
  Fe  Fe10  1  0.429355  0.882239  0.500000  1
  Ni  Ni11  1  0.704464  0.606892  0.000000  1
  Ni  Ni12  1  0.397409  0.100175  0.000000  1
  Ni  Ni13  1  0.281313  0.228148  0.500000  1
  P  P14  1  0.445712  0.371108  0.000000  1
  P  P15  1  0.637367  0.077832  0.000000  1
  P  P16  1  0.928757  0.560122  0.000000  1
  P  P17  1  0.038317  0.259442  0.500000  1
  P  P18  1  0.731962  0.782832  0.500000  1
  P  P19  1  0.217493  0.948218  0.500000  1
  P  P20  1  0.335103  0.667413  0.000000  1
