# generated using pymatgen
data_Tm4Co3Si4Rh
_symmetry_space_group_name_H-M   'P 1'
_cell_length_a   4.15894800
_cell_length_b   6.78611978
_cell_length_c   7.12601160
_cell_angle_alpha   90.22740622
_cell_angle_beta   90.00000000
_cell_angle_gamma   90.00000000
_symmetry_Int_Tables_number   1
_chemical_formula_structural   Tm4Co3Si4Rh
_chemical_formula_sum   'Tm4 Co3 Si4 Rh1'
_cell_volume   201.11669134
_cell_formula_units_Z   1
loop_
 _symmetry_equiv_pos_site_id
 _symmetry_equiv_pos_as_xyz
  1  'x, y, z'
loop_
 _atom_site_type_symbol
 _atom_site_label
 _atom_site_symmetry_multiplicity
 _atom_site_fract_x
 _atom_site_fract_y
 _atom_site_fract_z
 _atom_site_occupancy
  Tm  Tm0  1  0.750000  0.513878  0.809797  1
  Tm  Tm1  1  0.750000  0.004796  0.697021  1
  Tm  Tm2  1  0.250000  0.494088  0.187902  1
  Tm  Tm3  1  0.250000  0.994234  0.304643  1
  Co  Co4  1  0.750000  0.843747  0.065958  1
  Co  Co5  1  0.250000  0.651031  0.565979  1
  Co  Co6  1  0.250000  0.152058  0.930262  1
  Si  Si7  1  0.750000  0.195436  0.092519  1
  Si  Si8  1  0.750000  0.705714  0.398848  1
  Si  Si9  1  0.250000  0.802075  0.899317  1
  Si  Si10  1  0.250000  0.300582  0.614975  1
  Rh  Rh11  1  0.750000  0.342360  0.432777  1
