# generated using pymatgen
data_MgZnCoRh3O8
_symmetry_space_group_name_H-M   'P 1'
_cell_length_a   6.14457523
_cell_length_b   5.99283261
_cell_length_c   6.14156610
_cell_angle_alpha   90.04313425
_cell_angle_beta   59.99113489
_cell_angle_gamma   120.82947311
_symmetry_Int_Tables_number   1
_chemical_formula_structural   MgZnCoRh3O8
_chemical_formula_sum   'Mg1 Zn1 Co1 Rh3 O8'
_cell_volume   157.92097410
_cell_formula_units_Z   1
loop_
 _symmetry_equiv_pos_site_id
 _symmetry_equiv_pos_as_xyz
  1  'x, y, z'
loop_
 _atom_site_type_symbol
 _atom_site_label
 _atom_site_symmetry_multiplicity
 _atom_site_fract_x
 _atom_site_fract_y
 _atom_site_fract_z
 _atom_site_occupancy
  Mg  Mg0  1  0.500685  0.001197  0.499670  1
  Zn  Zn1  1  0.732120  0.848303  0.883927  1
  Co  Co2  1  0.262147  0.143236  0.118888  1
  Rh  Rh3  1  0.499682  0.499102  0.500201  1
  Rh  Rh4  1  0.999305  0.499168  0.000468  1
  Rh  Rh5  1  0.999387  0.499154  0.500166  1
  O  O6  1  0.476988  0.735022  0.741907  1
  O  O7  1  0.476890  0.734921  0.281110  1
  O  O8  1  0.015970  0.734942  0.741933  1
  O  O9  1  0.989307  0.268288  0.255401  1
  O  O10  1  0.523551  0.268144  0.255358  1
  O  O11  1  0.018298  0.277398  0.740883  1
  O  O12  1  0.523702  0.268240  0.721054  1
  O  O13  1  0.981969  0.722888  0.259034  1
