# generated using pymatgen
data_Y3Tm5Tc3B24Rh
_symmetry_space_group_name_H-M   'P 1'
_cell_length_a   3.65690800
_cell_length_b   9.12027367
_cell_length_c   11.51008500
_cell_angle_alpha   90.12702537
_cell_angle_beta   90.00000000
_cell_angle_gamma   90.00000000
_symmetry_Int_Tables_number   1
_chemical_formula_structural   Y3Tm5Tc3B24Rh
_chemical_formula_sum   'Y3 Tm5 Tc3 B24 Rh1'
_cell_volume   383.88343181
_cell_formula_units_Z   1
loop_
 _symmetry_equiv_pos_site_id
 _symmetry_equiv_pos_as_xyz
  1  'x, y, z'
loop_
 _atom_site_type_symbol
 _atom_site_label
 _atom_site_symmetry_multiplicity
 _atom_site_fract_x
 _atom_site_fract_y
 _atom_site_fract_z
 _atom_site_occupancy
  Y  Y0  1  0.500000  0.318180  0.415752  1
  Y  Y1  1  0.500000  0.678414  0.590813  1
  Y  Y2  1  0.500000  0.177590  0.912986  1
  Tm  Tm3  1  0.500000  0.827206  0.080802  1
  Tm  Tm4  1  0.500000  0.440725  0.128805  1
  Tm  Tm5  1  0.500000  0.557328  0.871342  1
  Tm  Tm6  1  0.500000  0.055978  0.629778  1
  Tm  Tm7  1  0.500000  0.943802  0.369548  1
  Tc  Tc8  1  0.500000  0.138164  0.180445  1
  Tc  Tc9  1  0.500000  0.861143  0.820844  1
  Tc  Tc10  1  0.500000  0.362093  0.678415  1
  B  B11  1  0.000000  0.099835  0.471800  1
  B  B12  1  0.000000  0.896970  0.527608  1
  B  B13  1  0.000000  0.398712  0.972450  1
  B  B14  1  0.000000  0.603535  0.029167  1
  B  B15  1  0.000000  0.129875  0.315011  1
  B  B16  1  0.000000  0.869114  0.685363  1
  B  B17  1  0.000000  0.370055  0.814631  1
  B  B18  1  0.000000  0.631661  0.183247  1
  B  B19  1  0.000000  0.053111  0.066840  1
  B  B20  1  0.000000  0.946626  0.932964  1
  B  B21  1  0.000000  0.446208  0.566811  1
  B  B22  1  0.000000  0.554358  0.433431  1
  B  B23  1  0.000000  0.483104  0.287298  1
  B  B24  1  0.000000  0.518378  0.712911  1
  B  B25  1  0.000000  0.017570  0.786950  1
  B  B26  1  0.000000  0.981803  0.211812  1
  B  B27  1  0.000000  0.249715  0.081673  1
  B  B28  1  0.000000  0.751204  0.919459  1
  B  B29  1  0.000000  0.249416  0.581304  1
  B  B30  1  0.000000  0.749815  0.419622  1
  B  B31  1  0.000000  0.291830  0.235248  1
  B  B32  1  0.000000  0.708120  0.766131  1
  B  B33  1  0.000000  0.208137  0.734386  1
  B  B34  1  0.000000  0.791635  0.264162  1
  Rh  Rh35  1  0.500000  0.638587  0.320189  1
