# generated using pymatgen
data_Nb8Co7Si14Tc
_symmetry_space_group_name_H-M   'P 1'
_cell_length_a   9.29298205
_cell_length_b   9.29048616
_cell_length_c   9.28680540
_cell_angle_alpha   94.25476332
_cell_angle_beta   94.26905837
_cell_angle_gamma   148.36943335
_symmetry_Int_Tables_number   1
_chemical_formula_structural   Nb8Co7Si14Tc
_chemical_formula_sum   'Nb8 Co7 Si14 Tc1'
_cell_volume   404.55543468
_cell_formula_units_Z   1
loop_
 _symmetry_equiv_pos_site_id
 _symmetry_equiv_pos_as_xyz
  1  'x, y, z'
loop_
 _atom_site_type_symbol
 _atom_site_label
 _atom_site_symmetry_multiplicity
 _atom_site_fract_x
 _atom_site_fract_y
 _atom_site_fract_z
 _atom_site_occupancy
  Nb  Nb0  1  0.310001  0.499713  0.809226  1
  Nb  Nb1  1  0.689951  0.500923  0.193067  1
  Nb  Nb2  1  0.503116  0.692143  0.193067  1
  Nb  Nb3  1  0.499225  0.309513  0.809226  1
  Nb  Nb4  1  0.133750  0.133750  0.267498  1
  Nb  Nb5  1  0.865831  0.865831  0.731664  1
  Nb  Nb6  1  0.136298  0.868476  0.000442  1
  Nb  Nb7  1  0.864144  0.131965  0.000442  1
  Co  Co8  1  0.103811  0.603811  0.207624  1
  Co  Co9  1  0.900859  0.101452  0.497732  1
  Co  Co10  1  0.596872  0.396279  0.497732  1
  Co  Co11  1  0.599302  0.099302  0.198606  1
  Co  Co12  1  0.899364  0.399364  0.798728  1
  Co  Co13  1  0.099672  0.898015  0.499516  1
  Co  Co14  1  0.399844  0.601501  0.499516  1
  Si  Si15  1  0.291781  0.291781  0.583561  1
  Si  Si16  1  0.708707  0.708707  0.417413  1
  Si  Si17  1  0.282427  0.695377  0.006382  1
  Si  Si18  1  0.723955  0.311005  0.006382  1
  Si  Si19  1  0.080145  0.485511  0.588726  1
  Si  Si20  1  0.898553  0.494186  0.404436  1
  Si  Si21  1  0.505883  0.910250  0.404436  1
  Si  Si22  1  0.508581  0.103215  0.588726  1
  Si  Si23  1  0.249506  0.249116  0.000391  1
  Si  Si24  1  0.750886  0.751275  0.000391  1
  Si  Si25  1  0.296404  0.999529  0.295914  1
  Si  Si26  1  0.715503  0.005074  0.702244  1
  Si  Si27  1  0.986741  0.697170  0.702244  1
  Si  Si28  1  0.999510  0.296385  0.295914  1
  Tc  Tc29  1  0.399380  0.899380  0.798760  1
