# generated using pymatgen
data_Tb8TaTi9(Si8W)2
_symmetry_space_group_name_H-M   'P 1'
_cell_length_a   7.02393550
_cell_length_b   7.02393529
_cell_length_c   12.92860121
_cell_angle_alpha   90.01243885
_cell_angle_beta   89.98755883
_cell_angle_gamma   89.93099673
_symmetry_Int_Tables_number   1
_chemical_formula_structural   Tb8TaTi9(Si8W)2
_chemical_formula_sum   'Tb8 Ta1 Ti9 Si16 W2'
_cell_volume   637.84068973
_cell_formula_units_Z   1
loop_
 _symmetry_equiv_pos_site_id
 _symmetry_equiv_pos_as_xyz
  1  'x, y, z'
loop_
 _atom_site_type_symbol
 _atom_site_label
 _atom_site_symmetry_multiplicity
 _atom_site_fract_x
 _atom_site_fract_y
 _atom_site_fract_z
 _atom_site_occupancy
  Tb  Tb0  1  0.339477  0.002059  0.466643  1
  Tb  Tb1  1  0.498213  0.840664  0.717938  1
  Tb  Tb2  1  0.501420  0.158904  0.217397  1
  Tb  Tb3  1  0.840664  0.498213  0.282062  1
  Tb  Tb4  1  0.158904  0.501420  0.782603  1
  Tb  Tb5  1  0.660814  0.998489  0.966835  1
  Tb  Tb6  1  0.002059  0.339477  0.533357  1
  Tb  Tb7  1  0.998489  0.660814  0.033165  1
  Ta  Ta8  1  0.326674  0.326674  0.000000  1
  Ti  Ti9  1  0.672922  0.672922  0.500000  1
  Ti  Ti10  1  0.153165  0.009225  0.876068  1
  Ti  Ti11  1  0.490307  0.654228  0.126263  1
  Ti  Ti12  1  0.509016  0.345203  0.627470  1
  Ti  Ti13  1  0.654228  0.490307  0.873737  1
  Ti  Ti14  1  0.345203  0.509016  0.372530  1
  Ti  Ti15  1  0.847858  0.991404  0.375228  1
  Ti  Ti16  1  0.009225  0.153165  0.123932  1
  Ti  Ti17  1  0.991404  0.847858  0.624772  1
  Si  Si18  1  0.200239  0.128827  0.685264  1
  Si  Si19  1  0.370571  0.701297  0.935044  1
  Si  Si20  1  0.629268  0.298259  0.435097  1
  Si  Si21  1  0.701297  0.370571  0.064956  1
  Si  Si22  1  0.298259  0.629268  0.564903  1
  Si  Si23  1  0.800143  0.871082  0.185472  1
  Si  Si24  1  0.128827  0.200239  0.314736  1
  Si  Si25  1  0.871082  0.800143  0.814528  1
  Si  Si26  1  0.291531  0.952813  0.065460  1
  Si  Si27  1  0.545469  0.790725  0.314739  1
  Si  Si28  1  0.454340  0.208467  0.814690  1
  Si  Si29  1  0.790725  0.545469  0.685261  1
  Si  Si30  1  0.208467  0.454340  0.185310  1
  Si  Si31  1  0.708644  0.047807  0.566205  1
  Si  Si32  1  0.952813  0.291531  0.934540  1
  Si  Si33  1  0.047807  0.708644  0.433795  1
  W  W34  1  0.173877  0.826598  0.249675  1
  W  W35  1  0.826598  0.173877  0.750325  1
