# generated using pymatgen
data_Pr8ZnCo2Si12Pd
_symmetry_space_group_name_H-M   'P 1'
_cell_length_a   8.18496900
_cell_length_b   8.18497054
_cell_length_c   8.61896600
_cell_angle_alpha   90.00000000
_cell_angle_beta   90.00000000
_cell_angle_gamma   120.00000588
_symmetry_Int_Tables_number   1
_chemical_formula_structural   Pr8ZnCo2Si12Pd
_chemical_formula_sum   'Pr8 Zn1 Co2 Si12 Pd1'
_cell_volume   500.05748599
_cell_formula_units_Z   1
loop_
 _symmetry_equiv_pos_site_id
 _symmetry_equiv_pos_as_xyz
  1  'x, y, z'
loop_
 _atom_site_type_symbol
 _atom_site_label
 _atom_site_symmetry_multiplicity
 _atom_site_fract_x
 _atom_site_fract_y
 _atom_site_fract_z
 _atom_site_occupancy
  Pr  Pr0  1  0.495135  0.504865  0.748352  1
  Pr  Pr1  1  0.495483  0.504517  0.251670  1
  Pr  Pr2  1  0.009728  0.504865  0.748352  1
  Pr  Pr3  1  0.009033  0.504517  0.251670  1
  Pr  Pr4  1  0.495135  0.990272  0.748352  1
  Pr  Pr5  1  0.495483  0.990967  0.251670  1
  Pr  Pr6  1  0.000000  0.000000  0.748257  1
  Pr  Pr7  1  0.000000  0.000000  0.251950  1
  Zn  Zn8  1  0.666667  0.333333  0.998310  1
  Co  Co9  1  0.333333  0.666667  0.001766  1
  Co  Co10  1  0.333333  0.666667  0.498295  1
  Si  Si11  1  0.836878  0.163122  0.000118  1
  Si  Si12  1  0.174032  0.825968  0.999899  1
  Si  Si13  1  0.326244  0.163122  0.000118  1
  Si  Si14  1  0.172604  0.827396  0.500026  1
  Si  Si15  1  0.651934  0.825968  0.999899  1
  Si  Si16  1  0.835271  0.164729  0.500162  1
  Si  Si17  1  0.836878  0.673756  0.000118  1
  Si  Si18  1  0.654792  0.827396  0.500026  1
  Si  Si19  1  0.174032  0.348066  0.999899  1
  Si  Si20  1  0.329459  0.164729  0.500162  1
  Si  Si21  1  0.172604  0.345208  0.500026  1
  Si  Si22  1  0.835271  0.670541  0.500162  1
  Pd  Pd23  1  0.666667  0.333333  0.500746  1
