# generated using pymatgen
data_Tm2(PaMn)3
_symmetry_space_group_name_H-M   'P 1'
_cell_length_a   6.52723600
_cell_length_b   7.65522807
_cell_length_c   7.65522900
_cell_angle_alpha   119.99999970
_cell_angle_beta   90.00000000
_cell_angle_gamma   90.00000000
_symmetry_Int_Tables_number   1
_chemical_formula_structural   Tm2(PaMn)3
_chemical_formula_sum   'Tm4 Pa6 Mn6'
_cell_volume   331.26554657
_cell_formula_units_Z   2
loop_
 _symmetry_equiv_pos_site_id
 _symmetry_equiv_pos_as_xyz
  1  'x, y, z'
loop_
 _atom_site_type_symbol
 _atom_site_label
 _atom_site_symmetry_multiplicity
 _atom_site_fract_x
 _atom_site_fract_y
 _atom_site_fract_z
 _atom_site_occupancy
  Tm  Tm0  1  0.000000  0.666667  0.333333  1
  Tm  Tm1  1  0.000000  0.333333  0.666667  1
  Tm  Tm2  1  0.500000  0.333333  0.666667  1
  Tm  Tm3  1  0.500000  0.666667  0.333333  1
  Pa  Pa4  1  0.750000  0.766044  0.766044  1
  Pa  Pa5  1  0.250000  0.233956  0.233956  1
  Pa  Pa6  1  0.750000  0.000000  0.233956  1
  Pa  Pa7  1  0.250000  0.000000  0.766044  1
  Pa  Pa8  1  0.750000  0.233956  0.000000  1
  Pa  Pa9  1  0.250000  0.766044  0.000000  1
  Mn  Mn10  1  0.750000  0.353125  0.353125  1
  Mn  Mn11  1  0.250000  0.646875  0.646875  1
  Mn  Mn12  1  0.750000  0.000000  0.646875  1
  Mn  Mn13  1  0.250000  0.000000  0.353125  1
  Mn  Mn14  1  0.750000  0.646875  0.000000  1
  Mn  Mn15  1  0.250000  0.353125  0.000000  1
