# generated using pymatgen
data_EuFe2Sb12OsPd
_symmetry_space_group_name_H-M   'P 1'
_cell_length_a   8.11321345
_cell_length_b   8.08419293
_cell_length_c   8.06600410
_cell_angle_alpha   109.34546191
_cell_angle_beta   109.37609139
_cell_angle_gamma   109.52878745
_symmetry_Int_Tables_number   1
_chemical_formula_structural   EuFe2Sb12OsPd
_chemical_formula_sum   'Eu1 Fe2 Sb12 Os1 Pd1'
_cell_volume   408.07261242
_cell_formula_units_Z   1
loop_
 _symmetry_equiv_pos_site_id
 _symmetry_equiv_pos_as_xyz
  1  'x, y, z'
loop_
 _atom_site_type_symbol
 _atom_site_label
 _atom_site_symmetry_multiplicity
 _atom_site_fract_x
 _atom_site_fract_y
 _atom_site_fract_z
 _atom_site_occupancy
  Eu  Eu0  1  0.000000  0.000000  0.000000  1
  Fe  Fe1  1  0.500000  0.500000  0.500000  1
  Fe  Fe2  1  0.500000  0.000000  0.000000  1
  Sb  Sb3  1  0.341433  0.166469  0.495540  1
  Sb  Sb4  1  0.351318  0.852791  0.183334  1
  Sb  Sb5  1  0.648682  0.147209  0.816666  1
  Sb  Sb6  1  0.809006  0.658663  0.156519  1
  Sb  Sb7  1  0.168352  0.498212  0.350972  1
  Sb  Sb8  1  0.504279  0.668205  0.836884  1
  Sb  Sb9  1  0.834439  0.175182  0.329450  1
  Sb  Sb10  1  0.658567  0.833531  0.504460  1
  Sb  Sb11  1  0.190994  0.341337  0.843481  1
  Sb  Sb12  1  0.165561  0.824818  0.670550  1
  Sb  Sb13  1  0.495721  0.331795  0.163116  1
  Sb  Sb14  1  0.831648  0.501788  0.649028  1
  Os  Os15  1  0.000000  0.000000  0.500000  1
  Pd  Pd16  1  0.000000  0.500000  0.000000  1
