# generated using pymatgen
data_Nd4Lu(AlTe)2
_symmetry_space_group_name_H-M   'P 1'
_cell_length_a   8.92092132
_cell_length_b   8.92092164
_cell_length_c   8.18788200
_cell_angle_alpha   90.00000000
_cell_angle_beta   90.00000000
_cell_angle_gamma   125.95395740
_symmetry_Int_Tables_number   1
_chemical_formula_structural   Nd4Lu(AlTe)2
_chemical_formula_sum   'Nd8 Lu2 Al4 Te4'
_cell_volume   527.47514559
_cell_formula_units_Z   2
loop_
 _symmetry_equiv_pos_site_id
 _symmetry_equiv_pos_as_xyz
  1  'x, y, z'
loop_
 _atom_site_type_symbol
 _atom_site_label
 _atom_site_symmetry_multiplicity
 _atom_site_fract_x
 _atom_site_fract_y
 _atom_site_fract_z
 _atom_site_occupancy
  Nd  Nd0  1  0.801426  0.536813  0.168591  1
  Nd  Nd1  1  0.463187  0.198574  0.831409  1
  Nd  Nd2  1  0.963187  0.698574  0.668591  1
  Nd  Nd3  1  0.301426  0.036813  0.331409  1
  Nd  Nd4  1  0.198574  0.463187  0.831409  1
  Nd  Nd5  1  0.536813  0.801426  0.168591  1
  Nd  Nd6  1  0.036813  0.301426  0.331409  1
  Nd  Nd7  1  0.698574  0.963187  0.668591  1
  Lu  Lu8  1  0.000000  0.000000  0.000000  1
  Lu  Lu9  1  0.500000  0.500000  0.500000  1
  Al  Al10  1  0.877463  0.877463  0.378712  1
  Al  Al11  1  0.122537  0.122537  0.621288  1
  Al  Al12  1  0.622537  0.622537  0.878712  1
  Al  Al13  1  0.377463  0.377463  0.121288  1
  Te  Te14  1  0.199817  0.800183  0.000000  1
  Te  Te15  1  0.699817  0.300183  0.500000  1
  Te  Te16  1  0.800183  0.199817  0.000000  1
  Te  Te17  1  0.300183  0.699817  0.500000  1
