# generated using pymatgen
data_Tm2In(Co3B2)3
_symmetry_space_group_name_H-M   'P 1'
_cell_length_a   5.76831378
_cell_length_b   5.76831412
_cell_length_c   5.76831414
_cell_angle_alpha   95.69592490
_cell_angle_beta   95.69592679
_cell_angle_gamma   95.69592718
_symmetry_Int_Tables_number   1
_chemical_formula_structural   Tm2In(Co3B2)3
_chemical_formula_sum   'Tm2 In1 Co9 B6'
_cell_volume   188.88395471
_cell_formula_units_Z   1
loop_
 _symmetry_equiv_pos_site_id
 _symmetry_equiv_pos_as_xyz
  1  'x, y, z'
loop_
 _atom_site_type_symbol
 _atom_site_label
 _atom_site_symmetry_multiplicity
 _atom_site_fract_x
 _atom_site_fract_y
 _atom_site_fract_z
 _atom_site_occupancy
  Tm  Tm0  1  0.672704  0.672704  0.672704  1
  Tm  Tm1  1  0.327296  0.327296  0.327296  1
  In  In2  1  0.000000  0.000000  0.000000  1
  Co  Co3  1  0.000000  0.000000  0.500000  1
  Co  Co4  1  0.500000  0.000000  0.000000  1
  Co  Co5  1  0.000000  0.500000  0.000000  1
  Co  Co6  1  0.701866  0.197930  0.701866  1
  Co  Co7  1  0.701866  0.701866  0.197930  1
  Co  Co8  1  0.197930  0.701866  0.701866  1
  Co  Co9  1  0.298134  0.802070  0.298134  1
  Co  Co10  1  0.298134  0.298134  0.802070  1
  Co  Co11  1  0.802070  0.298134  0.298134  1
  B  B12  1  0.616322  0.383678  0.000000  1
  B  B13  1  0.000000  0.616322  0.383678  1
  B  B14  1  0.383678  0.000000  0.616322  1
  B  B15  1  0.000000  0.383678  0.616322  1
  B  B16  1  0.616322  0.000000  0.383678  1
  B  B17  1  0.383678  0.616322  0.000000  1
