# generated using pymatgen
data_Ac7Yb12GdSn16
_symmetry_space_group_name_H-M   'P 1'
_cell_length_a   8.16619328
_cell_length_b   8.64815982
_cell_length_c   16.43128400
_cell_angle_alpha   90.05876553
_cell_angle_beta   89.95716599
_cell_angle_gamma   89.98582626
_symmetry_Int_Tables_number   1
_chemical_formula_structural   Ac7Yb12GdSn16
_chemical_formula_sum   'Ac7 Yb12 Gd1 Sn16'
_cell_volume   1160.41811649
_cell_formula_units_Z   1
loop_
 _symmetry_equiv_pos_site_id
 _symmetry_equiv_pos_as_xyz
  1  'x, y, z'
loop_
 _atom_site_type_symbol
 _atom_site_label
 _atom_site_symmetry_multiplicity
 _atom_site_fract_x
 _atom_site_fract_y
 _atom_site_fract_z
 _atom_site_occupancy
  Ac  Ac0  1  0.493827  0.316512  0.904530  1
  Ac  Ac1  1  0.993421  0.181516  0.595658  1
  Ac  Ac2  1  0.506170  0.681394  0.404112  1
  Ac  Ac3  1  0.006170  0.820106  0.092613  1
  Ac  Ac4  1  0.508212  0.680970  0.094474  1
  Ac  Ac5  1  0.006408  0.818342  0.404132  1
  Ac  Ac6  1  0.493694  0.317957  0.597191  1
  Yb  Yb7  1  0.328524  0.830746  0.877372  1
  Yb  Yb8  1  0.830932  0.671035  0.625071  1
  Yb  Yb9  1  0.669346  0.170658  0.376418  1
  Yb  Yb10  1  0.168157  0.327126  0.122224  1
  Yb  Yb11  1  0.670311  0.170410  0.123167  1
  Yb  Yb12  1  0.169586  0.329759  0.376267  1
  Yb  Yb13  1  0.329906  0.830055  0.625263  1
  Yb  Yb14  1  0.830934  0.669817  0.876268  1
  Yb  Yb15  1  0.160933  0.504251  0.751474  1
  Yb  Yb16  1  0.661134  0.995833  0.751823  1
  Yb  Yb17  1  0.839600  0.493910  0.249339  1
  Yb  Yb18  1  0.338849  0.005544  0.249746  1
  Gd  Gd19  1  0.990206  0.190020  0.900342  1
  Sn  Sn20  1  0.335992  0.038984  0.038296  1
  Sn  Sn21  1  0.836480  0.461594  0.460924  1
  Sn  Sn22  1  0.663156  0.961116  0.540119  1
  Sn  Sn23  1  0.161119  0.531865  0.958436  1
  Sn  Sn24  1  0.671577  0.965828  0.958643  1
  Sn  Sn25  1  0.163472  0.539171  0.540228  1
  Sn  Sn26  1  0.336337  0.038679  0.461015  1
  Sn  Sn27  1  0.837996  0.456251  0.037099  1
  Sn  Sn28  1  0.533223  0.608809  0.750725  1
  Sn  Sn29  1  0.030384  0.892985  0.753080  1
  Sn  Sn30  1  0.467591  0.389401  0.249698  1
  Sn  Sn31  1  0.967724  0.110459  0.250129  1
  Sn  Sn32  1  0.282363  0.134471  0.752913  1
  Sn  Sn33  1  0.790758  0.364620  0.752156  1
  Sn  Sn34  1  0.712889  0.867359  0.249615  1
  Sn  Sn35  1  0.212622  0.632452  0.249435  1
