# generated using pymatgen
data_Tb2ErZrIn2Ir3
_symmetry_space_group_name_H-M   'P 1'
_cell_length_a   7.42418084
_cell_length_b   7.19339682
_cell_length_c   4.21913000
_cell_angle_alpha   90.00000000
_cell_angle_beta   90.00000000
_cell_angle_gamma   118.78730593
_symmetry_Int_Tables_number   1
_chemical_formula_structural   Tb2ErZrIn2Ir3
_chemical_formula_sum   'Tb2 Er1 Zr1 In2 Ir3'
_cell_volume   197.47606871
_cell_formula_units_Z   1
loop_
 _symmetry_equiv_pos_site_id
 _symmetry_equiv_pos_as_xyz
  1  'x, y, z'
loop_
 _atom_site_type_symbol
 _atom_site_label
 _atom_site_symmetry_multiplicity
 _atom_site_fract_x
 _atom_site_fract_y
 _atom_site_fract_z
 _atom_site_occupancy
  Tb  Tb0  1  0.580972  0.994306  0.000000  1
  Tb  Tb1  1  0.999716  0.605377  0.000000  1
  Er  Er2  1  0.417267  0.412612  0.000000  1
  Zr  Zr3  1  0.000980  0.247519  0.500000  1
  In  In4  1  0.745308  0.746894  0.500000  1
  In  In5  1  0.254255  0.002180  0.500000  1
  Ir  Ir6  1  0.001659  0.019006  0.000000  1
  Ir  Ir7  1  0.322228  0.645747  0.500000  1
  Ir  Ir8  1  0.677615  0.326358  0.500000  1
