# generated using pymatgen
data_Ca4Si2GePd4
_symmetry_space_group_name_H-M   'P 1'
_cell_length_a   10.94009127
_cell_length_b   10.94282799
_cell_length_c   7.86048265
_cell_angle_alpha   71.31872120
_cell_angle_beta   71.26818907
_cell_angle_gamma   30.72584288
_symmetry_Int_Tables_number   1
_chemical_formula_structural   Ca4Si2GePd4
_chemical_formula_sum   'Ca8 Si4 Ge2 Pd8'
_cell_volume   453.42256178
_cell_formula_units_Z   2
loop_
 _symmetry_equiv_pos_site_id
 _symmetry_equiv_pos_as_xyz
  1  'x, y, z'
loop_
 _atom_site_type_symbol
 _atom_site_label
 _atom_site_symmetry_multiplicity
 _atom_site_fract_x
 _atom_site_fract_y
 _atom_site_fract_z
 _atom_site_occupancy
  Ca  Ca0  1  0.930858  0.204105  0.327767  1
  Ca  Ca1  1  0.066198  0.797657  0.671571  1
  Ca  Ca2  1  0.795669  0.068405  0.170891  1
  Ca  Ca3  1  0.456554  0.203429  0.906494  1
  Ca  Ca4  1  0.792825  0.547715  0.594314  1
  Ca  Ca5  1  0.207175  0.452637  0.405633  1
  Ca  Ca6  1  0.202828  0.933196  0.829670  1
  Ca  Ca7  1  0.544424  0.794833  0.094414  1
  Si  Si8  1  0.038480  0.305106  0.933914  1
  Si  Si9  1  0.697464  0.960101  0.565551  1
  Si  Si10  1  0.961388  0.695996  0.063931  1
  Si  Si11  1  0.620549  0.378552  0.751116  1
  Ge  Ge12  1  0.298492  0.044074  0.435186  1
  Ge  Ge13  1  0.367748  0.631437  0.249082  1
  Pd  Pd14  1  0.579203  0.294086  0.531359  1
  Pd  Pd15  1  0.703657  0.422430  0.967931  1
  Pd  Pd16  1  0.300952  0.570959  0.018212  1
  Pd  Pd17  1  0.432999  0.688589  0.483499  1
  Pd  Pd18  1  0.651714  0.908817  0.319660  1
  Pd  Pd19  1  0.912099  0.643828  0.819050  1
  Pd  Pd20  1  0.362660  0.084790  0.687621  1
  Pd  Pd21  1  0.076065  0.369257  0.173134  1
