# generated using pymatgen
data_Cs4Th6MnBr18
_symmetry_space_group_name_H-M   'P 1'
_cell_length_a   11.51211702
_cell_length_b   11.68235887
_cell_length_c   11.86149345
_cell_angle_alpha   117.78532471
_cell_angle_beta   100.43667643
_cell_angle_gamma   105.18094690
_symmetry_Int_Tables_number   1
_chemical_formula_structural   Cs4Th6MnBr18
_chemical_formula_sum   'Cs4 Th6 Mn1 Br18'
_cell_volume   1273.27306464
_cell_formula_units_Z   1
loop_
 _symmetry_equiv_pos_site_id
 _symmetry_equiv_pos_as_xyz
  1  'x, y, z'
loop_
 _atom_site_type_symbol
 _atom_site_label
 _atom_site_symmetry_multiplicity
 _atom_site_fract_x
 _atom_site_fract_y
 _atom_site_fract_z
 _atom_site_occupancy
  Cs  Cs0  1  0.657756  0.537243  0.226509  1
  Cs  Cs1  1  0.342244  0.462757  0.773491  1
  Cs  Cs2  1  0.695718  0.233150  0.568971  1
  Cs  Cs3  1  0.304282  0.766850  0.431029  1
  Th  Th4  1  0.163107  0.061263  0.246136  1
  Th  Th5  1  0.836893  0.938737  0.753864  1
  Th  Th6  1  0.851731  0.131829  0.138586  1
  Th  Th7  1  0.148269  0.868171  0.861414  1
  Th  Th8  1  0.148759  0.241173  0.045460  1
  Th  Th9  1  0.851241  0.758827  0.954540  1
  Mn  Mn10  1  0.000000  0.000000  0.000000  1
  Br  Br11  1  0.011017  0.410887  0.196467  1
  Br  Br12  1  0.988983  0.589113  0.803533  1
  Br  Br13  1  0.336298  0.338574  0.314697  1
  Br  Br14  1  0.663702  0.661426  0.685303  1
  Br  Br15  1  0.330841  0.516741  0.103780  1
  Br  Br16  1  0.669159  0.483259  0.896220  1
  Br  Br17  1  0.005070  0.793911  0.211298  1
  Br  Br18  1  0.994930  0.206089  0.788702  1
  Br  Br19  1  0.703967  0.277819  0.290809  1
  Br  Br20  1  0.296033  0.722181  0.709191  1
  Br  Br21  1  0.321149  0.131553  0.903673  1
  Br  Br22  1  0.678851  0.868447  0.096327  1
  Br  Br23  1  0.018027  0.204337  0.408595  1
  Br  Br24  1  0.981973  0.795663  0.591405  1
  Br  Br25  1  0.324149  0.922516  0.113321  1
  Br  Br26  1  0.675851  0.077484  0.886679  1
  Br  Br27  1  0.347660  0.125448  0.505092  1
  Br  Br28  1  0.652340  0.874552  0.494908  1
