# generated using pymatgen
data_La8TmPt6
_symmetry_space_group_name_H-M   'P 1'
_cell_length_a   7.80811179
_cell_length_b   7.80811164
_cell_length_c   7.80811166
_cell_angle_alpha   71.70372011
_cell_angle_beta   71.70372103
_cell_angle_gamma   71.70371814
_symmetry_Int_Tables_number   1
_chemical_formula_structural   La8TmPt6
_chemical_formula_sum   'La8 Tm1 Pt6'
_cell_volume   416.69156387
_cell_formula_units_Z   1
loop_
 _symmetry_equiv_pos_site_id
 _symmetry_equiv_pos_as_xyz
  1  'x, y, z'
loop_
 _atom_site_type_symbol
 _atom_site_label
 _atom_site_symmetry_multiplicity
 _atom_site_fract_x
 _atom_site_fract_y
 _atom_site_fract_z
 _atom_site_occupancy
  La  La0  1  0.800680  0.800680  0.800680  1
  La  La1  1  0.199320  0.199320  0.199320  1
  La  La2  1  0.327463  0.611342  0.836704  1
  La  La3  1  0.836704  0.327463  0.611342  1
  La  La4  1  0.611342  0.836704  0.327463  1
  La  La5  1  0.672537  0.388658  0.163296  1
  La  La6  1  0.163296  0.672537  0.388658  1
  La  La7  1  0.388658  0.163296  0.672537  1
  Tm  Tm8  1  0.000000  0.000000  0.000000  1
  Pt  Pt9  1  0.161940  0.960084  0.595931  1
  Pt  Pt10  1  0.595931  0.161940  0.960084  1
  Pt  Pt11  1  0.960084  0.595931  0.161940  1
  Pt  Pt12  1  0.838060  0.039916  0.404069  1
  Pt  Pt13  1  0.404069  0.838060  0.039916  1
  Pt  Pt14  1  0.039916  0.404069  0.838060  1
