# generated using pymatgen
data_Tb2PaFe2Si7
_symmetry_space_group_name_H-M   'P 1'
_cell_length_a   12.36109716
_cell_length_b   12.36109644
_cell_length_c   4.06845300
_cell_angle_alpha   90.00000000
_cell_angle_beta   90.00000000
_cell_angle_gamma   160.92247903
_symmetry_Int_Tables_number   1
_chemical_formula_structural   Tb2PaFe2Si7
_chemical_formula_sum   'Tb2 Pa1 Fe2 Si7'
_cell_volume   203.18329841
_cell_formula_units_Z   1
loop_
 _symmetry_equiv_pos_site_id
 _symmetry_equiv_pos_as_xyz
  1  'x, y, z'
loop_
 _atom_site_type_symbol
 _atom_site_label
 _atom_site_symmetry_multiplicity
 _atom_site_fract_x
 _atom_site_fract_y
 _atom_site_fract_z
 _atom_site_occupancy
  Tb  Tb0  1  0.098184  0.901816  0.500000  1
  Tb  Tb1  1  0.467805  0.532195  0.500000  1
  Pa  Pa2  1  0.783105  0.216895  0.000000  1
  Fe  Fe3  1  0.656458  0.343542  0.000000  1
  Fe  Fe4  1  0.909491  0.090509  0.000000  1
  Si  Si5  1  0.370893  0.629107  0.000000  1
  Si  Si6  1  0.561756  0.438244  0.000000  1
  Si  Si7  1  0.870238  0.129762  0.500000  1
  Si  Si8  1  0.004231  0.995769  0.000000  1
  Si  Si9  1  0.195189  0.804811  0.000000  1
  Si  Si10  1  0.283624  0.716376  0.500000  1
  Si  Si11  1  0.695726  0.304274  0.500000  1
