# generated using pymatgen
data_Y4Sc4B24MoIr3
_symmetry_space_group_name_H-M   'P 1'
_cell_length_a   3.56404200
_cell_length_b   9.02363056
_cell_length_c   11.42366601
_cell_angle_alpha   90.12705976
_cell_angle_beta   90.00000000
_cell_angle_gamma   90.00000000
_symmetry_Int_Tables_number   1
_chemical_formula_structural   Y4Sc4B24MoIr3
_chemical_formula_sum   'Y4 Sc4 B24 Mo1 Ir3'
_cell_volume   367.39103025
_cell_formula_units_Z   1
loop_
 _symmetry_equiv_pos_site_id
 _symmetry_equiv_pos_as_xyz
  1  'x, y, z'
loop_
 _atom_site_type_symbol
 _atom_site_label
 _atom_site_symmetry_multiplicity
 _atom_site_fract_x
 _atom_site_fract_y
 _atom_site_fract_z
 _atom_site_occupancy
  Y  Y0  1  0.500000  0.317718  0.411664  1
  Y  Y1  1  0.500000  0.680311  0.585335  1
  Y  Y2  1  0.500000  0.180198  0.916415  1
  Y  Y3  1  0.500000  0.821560  0.086565  1
  Sc  Sc4  1  0.500000  0.443729  0.123941  1
  Sc  Sc5  1  0.500000  0.555209  0.875704  1
  Sc  Sc6  1  0.500000  0.054670  0.625054  1
  Sc  Sc7  1  0.500000  0.947701  0.374647  1
  B  B8  1  0.000000  0.099559  0.474739  1
  B  B9  1  0.000000  0.899736  0.527656  1
  B  B10  1  0.000000  0.401642  0.971782  1
  B  B11  1  0.000000  0.600546  0.026375  1
  B  B12  1  0.000000  0.129617  0.318831  1
  B  B13  1  0.000000  0.869886  0.681366  1
  B  B14  1  0.000000  0.370843  0.818593  1
  B  B15  1  0.000000  0.629290  0.182257  1
  B  B16  1  0.000000  0.052992  0.064795  1
  B  B17  1  0.000000  0.944914  0.932872  1
  B  B18  1  0.000000  0.444598  0.566319  1
  B  B19  1  0.000000  0.554855  0.433401  1
  B  B20  1  0.000000  0.482426  0.285622  1
  B  B21  1  0.000000  0.517987  0.715088  1
  B  B22  1  0.000000  0.017874  0.784797  1
  B  B23  1  0.000000  0.978887  0.215577  1
  B  B24  1  0.000000  0.255581  0.079805  1
  B  B25  1  0.000000  0.746051  0.919423  1
  B  B26  1  0.000000  0.245639  0.580475  1
  B  B27  1  0.000000  0.754354  0.419462  1
  B  B28  1  0.000000  0.297599  0.235520  1
  B  B29  1  0.000000  0.704745  0.764830  1
  B  B30  1  0.000000  0.205600  0.735339  1
  B  B31  1  0.000000  0.794278  0.266221  1
  Mo  Mo32  1  0.500000  0.140088  0.181107  1
  Ir  Ir33  1  0.500000  0.858744  0.818130  1
  Ir  Ir34  1  0.500000  0.359540  0.681129  1
  Ir  Ir35  1  0.500000  0.641030  0.319167  1
