# generated using pymatgen
data_Ac4Se3N2
_symmetry_space_group_name_H-M   'P 1'
_cell_length_a   6.85158651
_cell_length_b   8.79561993
_cell_length_c   8.79558165
_cell_angle_alpha   75.40585765
_cell_angle_beta   89.65226083
_cell_angle_gamma   89.65249553
_symmetry_Int_Tables_number   1
_chemical_formula_structural   Ac4Se3N2
_chemical_formula_sum   'Ac8 Se6 N4'
_cell_volume   512.93911113
_cell_formula_units_Z   2
loop_
 _symmetry_equiv_pos_site_id
 _symmetry_equiv_pos_as_xyz
  1  'x, y, z'
loop_
 _atom_site_type_symbol
 _atom_site_label
 _atom_site_symmetry_multiplicity
 _atom_site_fract_x
 _atom_site_fract_y
 _atom_site_fract_z
 _atom_site_occupancy
  Ac  Ac0  1  0.470476  0.693209  0.056097  1
  Ac  Ac1  1  0.928336  0.414360  0.256349  1
  Ac  Ac2  1  0.029524  0.943903  0.306788  1
  Ac  Ac3  1  0.428333  0.256350  0.414364  1
  Ac  Ac4  1  0.571665  0.743651  0.585634  1
  Ac  Ac5  1  0.970472  0.056098  0.693214  1
  Ac  Ac6  1  0.071665  0.585639  0.743652  1
  Ac  Ac7  1  0.529525  0.306789  0.943902  1
  Se  Se8  1  0.964536  0.753543  0.014836  1
  Se  Se9  1  0.535465  0.985166  0.246456  1
  Se  Se10  1  0.249999  0.596986  0.403013  1
  Se  Se11  1  0.749999  0.403014  0.596986  1
  Se  Se12  1  0.464536  0.014834  0.753544  1
  Se  Se13  1  0.035466  0.246456  0.985165  1
  N  N14  1  0.584318  0.419117  0.169110  1
  N  N15  1  0.084316  0.169112  0.419117  1
  N  N16  1  0.915683  0.830890  0.580885  1
  N  N17  1  0.415684  0.580883  0.830887  1
