# generated using pymatgen
data_Er9Tm11(Ir2Os)4
_symmetry_space_group_name_H-M   'P 1'
_cell_length_a   10.73207402
_cell_length_b   10.73104901
_cell_length_c   6.34985901
_cell_angle_alpha   90.00158948
_cell_angle_beta   90.00445494
_cell_angle_gamma   90.00572337
_symmetry_Int_Tables_number   1
_chemical_formula_structural   Er9Tm11(Ir2Os)4
_chemical_formula_sum   'Er9 Tm11 Ir8 Os4'
_cell_volume   731.29047445
_cell_formula_units_Z   1
loop_
 _symmetry_equiv_pos_site_id
 _symmetry_equiv_pos_as_xyz
  1  'x, y, z'
loop_
 _atom_site_type_symbol
 _atom_site_label
 _atom_site_symmetry_multiplicity
 _atom_site_fract_x
 _atom_site_fract_y
 _atom_site_fract_z
 _atom_site_occupancy
  Er  Er0  1  0.293202  0.086246  0.376024  1
  Er  Er1  1  0.293197  0.913707  0.876035  1
  Er  Er2  1  0.706811  0.086290  0.876035  1
  Er  Er3  1  0.706783  0.913692  0.376039  1
  Er  Er4  1  0.586323  0.793206  0.876000  1
  Er  Er5  1  0.586325  0.206814  0.376075  1
  Er  Er6  1  0.413694  0.793201  0.376055  1
  Er  Er7  1  0.413749  0.206743  0.876069  1
  Er  Er8  1  0.206444  0.413899  0.624007  1
  Tm  Tm9  1  0.206190  0.586110  0.123745  1
  Tm  Tm10  1  0.793792  0.413959  0.123749  1
  Tm  Tm11  1  0.793768  0.586035  0.623797  1
  Tm  Tm12  1  0.913959  0.706206  0.123762  1
  Tm  Tm13  1  0.913891  0.293749  0.623751  1
  Tm  Tm14  1  0.085947  0.706310  0.623757  1
  Tm  Tm15  1  0.085973  0.293755  0.123763  1
  Tm  Tm16  1  0.999974  0.999999  0.500078  1
  Tm  Tm17  1  0.999986  0.999988  0.000015  1
  Tm  Tm18  1  0.500030  0.500008  0.000099  1
  Tm  Tm19  1  0.500114  0.500051  0.500013  1
  Ir  Ir20  1  0.847953  0.152522  0.250203  1
  Ir  Ir21  1  0.847950  0.847466  0.750159  1
  Ir  Ir22  1  0.152019  0.152359  0.750269  1
  Ir  Ir23  1  0.152038  0.847479  0.250201  1
  Ir  Ir24  1  0.652546  0.347980  0.750158  1
  Ir  Ir25  1  0.652577  0.652054  0.250175  1
  Ir  Ir26  1  0.347539  0.347877  0.249834  1
  Ir  Ir27  1  0.347534  0.652149  0.750220  1
  Os  Os28  1  0.499999  0.000004  0.122952  1
  Os  Os29  1  0.500001  0.999997  0.622898  1
  Os  Os30  1  0.999865  0.500069  0.877241  1
  Os  Os31  1  0.999826  0.500077  0.376822  1
