# generated using pymatgen
data_LaP12Ru3Rh
_symmetry_space_group_name_H-M   'P 1'
_cell_length_a   7.02857466
_cell_length_b   7.03797701
_cell_length_c   7.02857479
_cell_angle_alpha   109.49832540
_cell_angle_beta   109.44411027
_cell_angle_gamma   109.49831634
_symmetry_Int_Tables_number   1
_chemical_formula_structural   LaP12Ru3Rh
_chemical_formula_sum   'La1 P12 Ru3 Rh1'
_cell_volume   267.55625392
_cell_formula_units_Z   1
loop_
 _symmetry_equiv_pos_site_id
 _symmetry_equiv_pos_as_xyz
  1  'x, y, z'
loop_
 _atom_site_type_symbol
 _atom_site_label
 _atom_site_symmetry_multiplicity
 _atom_site_fract_x
 _atom_site_fract_y
 _atom_site_fract_z
 _atom_site_occupancy
  La  La0  1  0.000000  0.000000  0.000000  1
  P  P1  1  0.144001  0.787631  0.643376  1
  P  P2  1  0.145521  0.500420  0.359711  1
  P  P3  1  0.854479  0.499580  0.640289  1
  P  P4  1  0.356624  0.144254  0.500625  1
  P  P5  1  0.785811  0.645101  0.145521  1
  P  P6  1  0.855999  0.212369  0.356624  1
  P  P7  1  0.640289  0.140709  0.785811  1
  P  P8  1  0.499375  0.643629  0.855999  1
  P  P9  1  0.643376  0.855746  0.499375  1
  P  P10  1  0.500625  0.356371  0.144001  1
  P  P11  1  0.359711  0.859291  0.214189  1
  P  P12  1  0.214189  0.354899  0.854479  1
  Ru  Ru13  1  0.500000  0.000000  0.000000  1
  Ru  Ru14  1  0.500000  0.500000  0.500000  1
  Ru  Ru15  1  0.000000  0.000000  0.500000  1
  Rh  Rh16  1  0.000000  0.500000  0.000000  1
