# generated using pymatgen
data_YMgAl2CdNi
_symmetry_space_group_name_H-M   'P 1'
_cell_length_a   8.46414858
_cell_length_b   8.46414706
_cell_length_c   6.87700500
_cell_angle_alpha   90.00000000
_cell_angle_beta   90.00000000
_cell_angle_gamma   152.54251264
_symmetry_Int_Tables_number   1
_chemical_formula_structural   YMgAl2CdNi
_chemical_formula_sum   'Y2 Mg2 Al4 Cd2 Ni2'
_cell_volume   227.17045093
_cell_formula_units_Z   2
loop_
 _symmetry_equiv_pos_site_id
 _symmetry_equiv_pos_as_xyz
  1  'x, y, z'
loop_
 _atom_site_type_symbol
 _atom_site_label
 _atom_site_symmetry_multiplicity
 _atom_site_fract_x
 _atom_site_fract_y
 _atom_site_fract_z
 _atom_site_occupancy
  Y  Y0  1  0.626309  0.373691  0.250000  1
  Y  Y1  1  0.373691  0.626309  0.750000  1
  Mg  Mg2  1  0.577635  0.422365  0.750000  1
  Mg  Mg3  1  0.422365  0.577635  0.250000  1
  Al  Al4  1  0.194366  0.805634  0.944526  1
  Al  Al5  1  0.805634  0.194366  0.055474  1
  Al  Al6  1  0.805634  0.194366  0.444526  1
  Al  Al7  1  0.194366  0.805634  0.555474  1
  Cd  Cd8  1  0.000000  0.000000  0.500000  1
  Cd  Cd9  1  0.000000  0.000000  0.000000  1
  Ni  Ni10  1  0.731879  0.268121  0.750000  1
  Ni  Ni11  1  0.268121  0.731879  0.250000  1
