# generated using pymatgen
data_Sm3Lu3(AuO7)2
_symmetry_space_group_name_H-M   'P 1'
_cell_length_a   6.47454105
_cell_length_b   6.48059368
_cell_length_c   7.46890401
_cell_angle_alpha   89.99418777
_cell_angle_beta   90.00146953
_cell_angle_gamma   108.73575974
_symmetry_Int_Tables_number   1
_chemical_formula_structural   Sm3Lu3(AuO7)2
_chemical_formula_sum   'Sm3 Lu3 Au2 O14'
_cell_volume   296.78040179
_cell_formula_units_Z   1
loop_
 _symmetry_equiv_pos_site_id
 _symmetry_equiv_pos_as_xyz
  1  'x, y, z'
loop_
 _atom_site_type_symbol
 _atom_site_label
 _atom_site_symmetry_multiplicity
 _atom_site_fract_x
 _atom_site_fract_y
 _atom_site_fract_z
 _atom_site_occupancy
  Sm  Sm0  1  0.529022  0.997175  0.750390  1
  Sm  Sm1  1  0.497785  0.497563  0.002018  1
  Sm  Sm2  1  0.498887  0.498442  0.498004  1
  Lu  Lu3  1  0.472407  0.000217  0.250348  1
  Lu  Lu4  1  0.999965  0.471955  0.749642  1
  Lu  Lu5  1  0.998000  0.528137  0.249636  1
  Au  Au6  1  0.000402  0.000677  0.002674  1
  Au  Au7  1  0.000254  0.000495  0.497334  1
  O  O8  1  0.647332  0.367694  0.750036  1
  O  O9  1  0.352132  0.645976  0.249970  1
  O  O10  1  0.928897  0.086799  0.749984  1
  O  O11  1  0.077632  0.914940  0.250011  1
  O  O12  1  0.331603  0.084873  0.985230  1
  O  O13  1  0.669994  0.916766  0.468529  1
  O  O14  1  0.927748  0.669168  0.523366  1
  O  O15  1  0.072098  0.331927  0.025547  1
  O  O16  1  0.353373  0.625636  0.749900  1
  O  O17  1  0.640885  0.358933  0.249988  1
  O  O18  1  0.331245  0.084418  0.515366  1
  O  O19  1  0.670365  0.917068  0.032107  1
  O  O20  1  0.928244  0.669625  0.976042  1
  O  O21  1  0.071731  0.331518  0.473878  1
