# generated using pymatgen
data_Dy8Y4TlNi5
_symmetry_space_group_name_H-M   'P 1'
_cell_length_a   8.36129220
_cell_length_b   8.36120725
_cell_length_c   8.36129100
_cell_angle_alpha   111.70249088
_cell_angle_beta   109.31818564
_cell_angle_gamma   107.42191828
_symmetry_Int_Tables_number   1
_chemical_formula_structural   Dy8Y4TlNi5
_chemical_formula_sum   'Dy8 Y4 Tl1 Ni5'
_cell_volume   449.34618804
_cell_formula_units_Z   1
loop_
 _symmetry_equiv_pos_site_id
 _symmetry_equiv_pos_as_xyz
  1  'x, y, z'
loop_
 _atom_site_type_symbol
 _atom_site_label
 _atom_site_symmetry_multiplicity
 _atom_site_fract_x
 _atom_site_fract_y
 _atom_site_fract_z
 _atom_site_occupancy
  Dy  Dy0  1  0.678015  0.372471  0.694456  1
  Dy  Dy1  1  0.321985  0.627529  0.305544  1
  Dy  Dy2  1  0.678011  0.983536  0.305525  1
  Dy  Dy3  1  0.321989  0.016464  0.694475  1
  Dy  Dy4  1  0.600495  0.791344  0.809138  1
  Dy  Dy5  1  0.399505  0.208656  0.190862  1
  Dy  Dy6  1  0.982206  0.791344  0.190848  1
  Dy  Dy7  1  0.017794  0.208656  0.809152  1
  Y  Y8  1  0.816970  0.703318  0.520288  1
  Y  Y9  1  0.183030  0.296682  0.479712  1
  Y  Y10  1  0.183030  0.703318  0.886347  1
  Y  Y11  1  0.816970  0.296682  0.113653  1
  Tl  Tl12  1  0.500000  0.500000  0.000000  1
  Ni  Ni13  1  0.632774  0.000000  0.632774  1
  Ni  Ni14  1  0.367226  0.000000  0.367226  1
  Ni  Ni15  1  0.124690  0.624694  0.500004  1
  Ni  Ni16  1  0.875310  0.375306  0.499996  1
  Ni  Ni17  1  0.000000  0.000000  0.000000  1
