# generated using pymatgen
data_Sr4Mg2Si8Ir7Pt
_symmetry_space_group_name_H-M   'P 1'
_cell_length_a   6.44787712
_cell_length_b   6.44788002
_cell_length_c   11.27695997
_cell_angle_alpha   89.96259304
_cell_angle_beta   89.96264869
_cell_angle_gamma   113.38856929
_symmetry_Int_Tables_number   1
_chemical_formula_structural   Sr4Mg2Si8Ir7Pt
_chemical_formula_sum   'Sr4 Mg2 Si8 Ir7 Pt1'
_cell_volume   430.31798574
_cell_formula_units_Z   1
loop_
 _symmetry_equiv_pos_site_id
 _symmetry_equiv_pos_as_xyz
  1  'x, y, z'
loop_
 _atom_site_type_symbol
 _atom_site_label
 _atom_site_symmetry_multiplicity
 _atom_site_fract_x
 _atom_site_fract_y
 _atom_site_fract_z
 _atom_site_occupancy
  Sr  Sr0  1  0.202392  0.798858  0.500575  1
  Sr  Sr1  1  0.199952  0.798379  0.999105  1
  Sr  Sr2  1  0.798858  0.202391  0.500575  1
  Sr  Sr3  1  0.798379  0.199952  0.999105  1
  Mg  Mg4  1  0.025832  0.025832  0.247297  1
  Mg  Mg5  1  0.975364  0.975364  0.750249  1
  Si  Si6  1  0.516312  0.889463  0.246253  1
  Si  Si7  1  0.109599  0.477257  0.750108  1
  Si  Si8  1  0.477257  0.109599  0.750108  1
  Si  Si9  1  0.889463  0.516312  0.246253  1
  Si  Si10  1  0.338729  0.338729  0.420465  1
  Si  Si11  1  0.653362  0.653362  0.581835  1
  Si  Si12  1  0.347487  0.347487  0.078726  1
  Si  Si13  1  0.654105  0.654105  0.922421  1
  Ir  Ir14  1  0.504256  0.239016  0.250896  1
  Ir  Ir15  1  0.760534  0.494881  0.750953  1
  Ir  Ir16  1  0.494881  0.760534  0.750953  1
  Ir  Ir17  1  0.239016  0.504257  0.250896  1
  Ir  Ir18  1  0.315731  0.315731  0.623908  1
  Ir  Ir19  1  0.687226  0.687227  0.126518  1
  Ir  Ir20  1  0.314851  0.314850  0.875218  1
  Pt  Pt21  1  0.696413  0.696413  0.377583  1
