# generated using pymatgen
data_Ac7Tb13Si15Ag
_symmetry_space_group_name_H-M   'P 1'
_cell_length_a   7.89122706
_cell_length_b   7.88108142
_cell_length_c   15.22871700
_cell_angle_alpha   90.08335104
_cell_angle_beta   89.57896313
_cell_angle_gamma   89.99255751
_symmetry_Int_Tables_number   1
_chemical_formula_structural   Ac7Tb13Si15Ag
_chemical_formula_sum   'Ac7 Tb13 Si15 Ag1'
_cell_volume   947.06869254
_cell_formula_units_Z   1
loop_
 _symmetry_equiv_pos_site_id
 _symmetry_equiv_pos_as_xyz
  1  'x, y, z'
loop_
 _atom_site_type_symbol
 _atom_site_label
 _atom_site_symmetry_multiplicity
 _atom_site_fract_x
 _atom_site_fract_y
 _atom_site_fract_z
 _atom_site_occupancy
  Ac  Ac0  1  0.358032  0.012161  0.450706  1
  Ac  Ac1  1  0.483280  0.861007  0.704901  1
  Ac  Ac2  1  0.512493  0.135805  0.201825  1
  Ac  Ac3  1  0.859776  0.484527  0.290304  1
  Ac  Ac4  1  0.134558  0.520670  0.797209  1
  Ac  Ac5  1  0.645757  0.985519  0.960686  1
  Ac  Ac6  1  0.006474  0.363155  0.544340  1
  Tb  Tb7  1  0.315653  0.316899  0.999651  1
  Tb  Tb8  1  0.182445  0.813118  0.248565  1
  Tb  Tb9  1  0.805100  0.181965  0.754337  1
  Tb  Tb10  1  0.681767  0.679519  0.497682  1
  Tb  Tb11  1  0.000685  0.629181  0.052959  1
  Tb  Tb12  1  0.133008  0.986275  0.883656  1
  Tb  Tb13  1  0.513640  0.638429  0.125987  1
  Tb  Tb14  1  0.492504  0.363246  0.626523  1
  Tb  Tb15  1  0.643533  0.521267  0.878940  1
  Tb  Tb16  1  0.364736  0.488163  0.369906  1
  Tb  Tb17  1  0.862611  0.009579  0.373546  1
  Tb  Tb18  1  0.991992  0.133559  0.122889  1
  Tb  Tb19  1  0.002998  0.858802  0.619170  1
  Si  Si20  1  0.337646  0.695495  0.953750  1
  Si  Si21  1  0.653248  0.299095  0.447268  1
  Si  Si22  1  0.716057  0.357611  0.054835  1
  Si  Si23  1  0.300392  0.654401  0.548085  1
  Si  Si24  1  0.806610  0.840453  0.193050  1
  Si  Si25  1  0.155197  0.198320  0.297860  1
  Si  Si26  1  0.839188  0.808121  0.798322  1
  Si  Si27  1  0.280339  0.922550  0.064001  1
  Si  Si28  1  0.572066  0.784417  0.310261  1
  Si  Si29  1  0.441278  0.223710  0.819844  1
  Si  Si30  1  0.783064  0.570909  0.686982  1
  Si  Si31  1  0.215531  0.434034  0.184685  1
  Si  Si32  1  0.709874  0.068001  0.560017  1
  Si  Si33  1  0.936039  0.296759  0.941934  1
  Si  Si34  1  0.067567  0.712012  0.434784  1
  Ag  Ag35  1  0.194860  0.151266  0.700540  1
