# generated using pymatgen
data_Dy18Er2Ir7Ru5
_symmetry_space_group_name_H-M   'P 1'
_cell_length_a   10.82250118
_cell_length_b   10.82250176
_cell_length_c   6.40203802
_cell_angle_alpha   89.96139430
_cell_angle_beta   89.96139230
_cell_angle_gamma   90.10822186
_symmetry_Int_Tables_number   1
_chemical_formula_structural   Dy18Er2Ir7Ru5
_chemical_formula_sum   'Dy18 Er2 Ir7 Ru5'
_cell_volume   749.84687078
_cell_formula_units_Z   1
loop_
 _symmetry_equiv_pos_site_id
 _symmetry_equiv_pos_as_xyz
  1  'x, y, z'
loop_
 _atom_site_type_symbol
 _atom_site_label
 _atom_site_symmetry_multiplicity
 _atom_site_fract_x
 _atom_site_fract_y
 _atom_site_fract_z
 _atom_site_occupancy
  Dy  Dy0  1  0.293502  0.086223  0.377839  1
  Dy  Dy1  1  0.292698  0.913399  0.877624  1
  Dy  Dy2  1  0.707186  0.086642  0.877887  1
  Dy  Dy3  1  0.707031  0.913713  0.376628  1
  Dy  Dy4  1  0.586189  0.793064  0.877596  1
  Dy  Dy5  1  0.587020  0.207149  0.377872  1
  Dy  Dy6  1  0.413534  0.792780  0.377700  1
  Dy  Dy7  1  0.413492  0.206969  0.876851  1
  Dy  Dy8  1  0.206936  0.413811  0.622404  1
  Dy  Dy9  1  0.207220  0.586466  0.122300  1
  Dy  Dy10  1  0.792851  0.412980  0.122128  1
  Dy  Dy11  1  0.793031  0.586508  0.623149  1
  Dy  Dy12  1  0.913777  0.706498  0.122161  1
  Dy  Dy13  1  0.913358  0.292814  0.622113  1
  Dy  Dy14  1  0.086601  0.707302  0.622376  1
  Dy  Dy15  1  0.086287  0.292969  0.123372  1
  Dy  Dy16  1  0.999636  0.001019  0.499778  1
  Dy  Dy17  1  0.998981  0.000364  0.000222  1
  Er  Er18  1  0.500201  0.500203  0.000329  1
  Er  Er19  1  0.499797  0.499799  0.499671  1
  Ir  Ir20  1  0.846783  0.846587  0.749799  1
  Ir  Ir21  1  0.153413  0.153217  0.750201  1
  Ir  Ir22  1  0.153110  0.846890  0.250000  1
  Ir  Ir23  1  0.651369  0.348631  0.750000  1
  Ir  Ir24  1  0.652543  0.652044  0.249682  1
  Ir  Ir25  1  0.347956  0.347457  0.250318  1
  Ir  Ir26  1  0.348072  0.651928  0.750000  1
  Ru  Ru27  1  0.847623  0.152377  0.250000  1
  Ru  Ru28  1  0.500252  0.000241  0.121958  1
  Ru  Ru29  1  0.499841  0.000048  0.621908  1
  Ru  Ru30  1  0.999952  0.500159  0.878092  1
  Ru  Ru31  1  0.999759  0.499748  0.378042  1
