# generated using pymatgen
data_Er3In3HgRuRh
_symmetry_space_group_name_H-M   'P 1'
_cell_length_a   7.85402600
_cell_length_b   7.85402720
_cell_length_c   3.75626600
_cell_angle_alpha   90.00000000
_cell_angle_beta   90.00000000
_cell_angle_gamma   119.99998653
_symmetry_Int_Tables_number   1
_chemical_formula_structural   Er3In3HgRuRh
_chemical_formula_sum   'Er3 In3 Hg1 Ru1 Rh1'
_cell_volume   200.66506286
_cell_formula_units_Z   1
loop_
 _symmetry_equiv_pos_site_id
 _symmetry_equiv_pos_as_xyz
  1  'x, y, z'
loop_
 _atom_site_type_symbol
 _atom_site_label
 _atom_site_symmetry_multiplicity
 _atom_site_fract_x
 _atom_site_fract_y
 _atom_site_fract_z
 _atom_site_occupancy
  Er  Er0  1  0.034516  0.617254  0.500000  1
  Er  Er1  1  0.382746  0.417263  0.500000  1
  Er  Er2  1  0.582737  0.965484  0.500000  1
  In  In3  1  0.257132  0.997059  0.000000  1
  In  In4  1  0.739926  0.742868  0.000000  1
  In  In5  1  0.002941  0.260074  0.000000  1
  Hg  Hg6  1  0.666667  0.333333  0.000000  1
  Ru  Ru7  1  0.333333  0.666667  0.000000  1
  Rh  Rh8  1  0.000000  0.000000  0.500000  1
