# generated using pymatgen
data_TbDy6Sn23Ir6
_symmetry_space_group_name_H-M   'P 1'
_cell_length_a   9.86583200
_cell_length_b   9.86583138
_cell_length_c   10.13131100
_cell_angle_alpha   90.00000000
_cell_angle_beta   90.00000000
_cell_angle_gamma   119.99999538
_symmetry_Int_Tables_number   1
_chemical_formula_structural   TbDy6Sn23Ir6
_chemical_formula_sum   'Tb1 Dy6 Sn23 Ir6'
_cell_volume   854.01146918
_cell_formula_units_Z   1
loop_
 _symmetry_equiv_pos_site_id
 _symmetry_equiv_pos_as_xyz
  1  'x, y, z'
loop_
 _atom_site_type_symbol
 _atom_site_label
 _atom_site_symmetry_multiplicity
 _atom_site_fract_x
 _atom_site_fract_y
 _atom_site_fract_z
 _atom_site_occupancy
  Tb  Tb0  1  0.000000  0.000000  0.000000  1
  Dy  Dy1  1  0.479715  0.520285  0.307080  1
  Dy  Dy2  1  0.520285  0.479715  0.692920  1
  Dy  Dy3  1  0.479715  0.959430  0.307080  1
  Dy  Dy4  1  0.520285  0.040570  0.692920  1
  Dy  Dy5  1  0.040570  0.520285  0.307080  1
  Dy  Dy6  1  0.959430  0.479715  0.692920  1
  Sn  Sn7  1  0.352446  0.000000  0.000000  1
  Sn  Sn8  1  0.647554  0.000000  0.000000  1
  Sn  Sn9  1  0.000000  0.352446  0.000000  1
  Sn  Sn10  1  0.000000  0.647554  0.000000  1
  Sn  Sn11  1  0.647554  0.647554  0.000000  1
  Sn  Sn12  1  0.352446  0.352446  0.000000  1
  Sn  Sn13  1  0.333333  0.666667  0.824807  1
  Sn  Sn14  1  0.666667  0.333333  0.175193  1
  Sn  Sn15  1  0.000000  0.000000  0.500000  1
  Sn  Sn16  1  0.777795  0.222205  0.455790  1
  Sn  Sn17  1  0.222205  0.777795  0.544210  1
  Sn  Sn18  1  0.777795  0.555590  0.455790  1
  Sn  Sn19  1  0.222205  0.444410  0.544210  1
  Sn  Sn20  1  0.444410  0.222205  0.455790  1
  Sn  Sn21  1  0.555590  0.777795  0.544210  1
  Sn  Sn22  1  0.333333  0.666667  0.121847  1
  Sn  Sn23  1  0.666667  0.333333  0.878153  1
  Sn  Sn24  1  0.119136  0.880864  0.283657  1
  Sn  Sn25  1  0.880864  0.119136  0.716343  1
  Sn  Sn26  1  0.119136  0.238271  0.283657  1
  Sn  Sn27  1  0.880864  0.761729  0.716343  1
  Sn  Sn28  1  0.761729  0.880864  0.283657  1
  Sn  Sn29  1  0.238271  0.119136  0.716343  1
  Ir  Ir30  1  0.831306  0.168694  0.198200  1
  Ir  Ir31  1  0.168694  0.831306  0.801800  1
  Ir  Ir32  1  0.831306  0.662610  0.198200  1
  Ir  Ir33  1  0.168694  0.337390  0.801800  1
  Ir  Ir34  1  0.337390  0.168694  0.198200  1
  Ir  Ir35  1  0.662610  0.831306  0.801800  1
