# generated using pymatgen
data_Zr3Ta2B4SbRu10
_symmetry_space_group_name_H-M   'P 1'
_cell_length_a   9.50243149
_cell_length_b   9.51841367
_cell_length_c   3.09611300
_cell_angle_alpha   90.00000000
_cell_angle_beta   90.00000000
_cell_angle_gamma   90.15711990
_symmetry_Int_Tables_number   1
_chemical_formula_structural   Zr3Ta2B4SbRu10
_chemical_formula_sum   'Zr3 Ta2 B4 Sb1 Ru10'
_cell_volume   280.03640416
_cell_formula_units_Z   1
loop_
 _symmetry_equiv_pos_site_id
 _symmetry_equiv_pos_as_xyz
  1  'x, y, z'
loop_
 _atom_site_type_symbol
 _atom_site_label
 _atom_site_symmetry_multiplicity
 _atom_site_fract_x
 _atom_site_fract_y
 _atom_site_fract_z
 _atom_site_occupancy
  Zr  Zr0  1  0.824892  0.677004  0.000000  1
  Zr  Zr1  1  0.175849  0.323289  0.000000  1
  Zr  Zr2  1  0.323348  0.825483  0.000000  1
  Ta  Ta3  1  0.678507  0.174397  0.000000  1
  Ta  Ta4  1  0.000453  0.999812  0.000000  1
  B  B5  1  0.620761  0.879730  0.000000  1
  B  B6  1  0.379921  0.121979  0.000000  1
  B  B7  1  0.120318  0.620286  0.000000  1
  B  B8  1  0.877395  0.378521  0.000000  1
  Sb  Sb9  1  0.499111  0.501650  0.000000  1
  Ru  Ru10  1  0.572632  0.721448  0.500000  1
  Ru  Ru11  1  0.434822  0.279055  0.500000  1
  Ru  Ru12  1  0.068339  0.781211  0.500000  1
  Ru  Ru13  1  0.925295  0.216278  0.500000  1
  Ru  Ru14  1  0.279155  0.571127  0.500000  1
  Ru  Ru15  1  0.716665  0.420792  0.500000  1
  Ru  Ru16  1  0.219406  0.070532  0.500000  1
  Ru  Ru17  1  0.780875  0.934890  0.500000  1
  Ru  Ru18  1  0.504123  0.004037  0.500000  1
  Ru  Ru19  1  0.998135  0.498480  0.500000  1
