# generated using pymatgen
data_Zr3SiTc2Ge2Ru
_symmetry_space_group_name_H-M   'P 1'
_cell_length_a   7.04147630
_cell_length_b   7.04147601
_cell_length_c   3.48443800
_cell_angle_alpha   90.00000000
_cell_angle_beta   90.00000000
_cell_angle_gamma   120.29627898
_symmetry_Int_Tables_number   1
_chemical_formula_structural   Zr3SiTc2Ge2Ru
_chemical_formula_sum   'Zr3 Si1 Tc2 Ge2 Ru1'
_cell_volume   149.17170511
_cell_formula_units_Z   1
loop_
 _symmetry_equiv_pos_site_id
 _symmetry_equiv_pos_as_xyz
  1  'x, y, z'
loop_
 _atom_site_type_symbol
 _atom_site_label
 _atom_site_symmetry_multiplicity
 _atom_site_fract_x
 _atom_site_fract_y
 _atom_site_fract_z
 _atom_site_occupancy
  Zr  Zr0  1  0.398360  0.398360  0.500000  1
  Zr  Zr1  1  0.598128  0.003688  0.500000  1
  Zr  Zr2  1  0.003688  0.598128  0.500000  1
  Si  Si3  1  0.995333  0.995333  0.500000  1
  Tc  Tc4  1  0.999813  0.246776  0.000000  1
  Tc  Tc5  1  0.246776  0.999813  0.000000  1
  Ge  Ge6  1  0.667553  0.336349  0.000000  1
  Ge  Ge7  1  0.336349  0.667553  0.000000  1
  Ru  Ru8  1  0.753999  0.753999  0.000000  1
