# generated using pymatgen
data_KTlAs2O7
_symmetry_space_group_name_H-M   'P 1'
_cell_length_a   6.68897976
_cell_length_b   6.79645471
_cell_length_c   8.59119300
_cell_angle_alpha   97.19187122
_cell_angle_beta   102.10397438
_cell_angle_gamma   105.81287523
_symmetry_Int_Tables_number   1
_chemical_formula_structural   KTlAs2O7
_chemical_formula_sum   'K2 Tl2 As4 O14'
_cell_volume   360.46570382
_cell_formula_units_Z   2
loop_
 _symmetry_equiv_pos_site_id
 _symmetry_equiv_pos_as_xyz
  1  'x, y, z'
loop_
 _atom_site_type_symbol
 _atom_site_label
 _atom_site_symmetry_multiplicity
 _atom_site_fract_x
 _atom_site_fract_y
 _atom_site_fract_z
 _atom_site_occupancy
  K  K0  1  0.000000  0.500000  0.500000  1
  K  K1  1  0.000000  0.500000  0.000000  1
  Tl  Tl2  1  0.372368  0.186246  0.722079  1
  Tl  Tl3  1  0.627632  0.813754  0.277921  1
  As  As4  1  0.825089  0.032483  0.700047  1
  As  As5  1  0.467361  0.737230  0.826821  1
  As  As6  1  0.174911  0.967517  0.299953  1
  As  As7  1  0.532639  0.262770  0.173179  1
  O  O8  1  0.262895  0.094403  0.142203  1
  O  O9  1  0.287764  0.846581  0.726839  1
  O  O10  1  0.560798  0.483109  0.304574  1
  O  O11  1  0.923911  0.806903  0.196834  1
  O  O12  1  0.712236  0.153419  0.273161  1
  O  O13  1  0.737105  0.905597  0.857797  1
  O  O14  1  0.317339  0.798444  0.345798  1
  O  O15  1  0.423848  0.704304  0.010622  1
  O  O16  1  0.439202  0.516891  0.695426  1
  O  O17  1  0.186083  0.153621  0.455355  1
  O  O18  1  0.813917  0.846379  0.544645  1
  O  O19  1  0.076089  0.193097  0.803166  1
  O  O20  1  0.576152  0.295696  0.989378  1
  O  O21  1  0.682661  0.201556  0.654202  1
