# generated using pymatgen
data_Dy6Zn20Ag3S
_symmetry_space_group_name_H-M   'P 1'
_cell_length_a   9.08631906
_cell_length_b   9.08635270
_cell_length_c   9.09417400
_cell_angle_alpha   59.97146344
_cell_angle_beta   59.97123158
_cell_angle_gamma   59.95828159
_symmetry_Int_Tables_number   1
_chemical_formula_structural   Dy6Zn20Ag3S
_chemical_formula_sum   'Dy6 Zn20 Ag3 S1'
_cell_volume   530.51860327
_cell_formula_units_Z   1
loop_
 _symmetry_equiv_pos_site_id
 _symmetry_equiv_pos_as_xyz
  1  'x, y, z'
loop_
 _atom_site_type_symbol
 _atom_site_label
 _atom_site_symmetry_multiplicity
 _atom_site_fract_x
 _atom_site_fract_y
 _atom_site_fract_z
 _atom_site_occupancy
  Dy  Dy0  1  0.710920  0.288178  0.289101  1
  Dy  Dy1  1  0.710917  0.288179  0.711800  1
  Dy  Dy2  1  0.708549  0.708552  0.291449  1
  Dy  Dy3  1  0.288178  0.710919  0.711803  1
  Dy  Dy4  1  0.288177  0.710920  0.289102  1
  Dy  Dy5  1  0.286418  0.286422  0.713580  1
  Zn  Zn6  1  0.125237  0.125240  0.621361  1
  Zn  Zn7  1  0.125239  0.125241  0.128159  1
  Zn  Zn8  1  0.376814  0.869872  0.876656  1
  Zn  Zn9  1  0.869870  0.376811  0.876657  1
  Zn  Zn10  1  0.876053  0.876055  0.365686  1
  Zn  Zn11  1  0.876056  0.876058  0.882202  1
  Zn  Zn12  1  0.498128  0.998545  0.999468  1
  Zn  Zn13  1  0.498130  0.998543  0.503858  1
  Zn  Zn14  1  0.500369  0.500369  0.999633  1
  Zn  Zn15  1  0.998540  0.498131  0.503862  1
  Zn  Zn16  1  0.998539  0.498129  0.999468  1
  Zn  Zn17  1  0.998544  0.998546  0.501453  1
  Zn  Zn18  1  0.009830  0.330216  0.329977  1
  Zn  Zn19  1  0.330219  0.009835  0.329974  1
  Zn  Zn20  1  0.330020  0.330016  0.009366  1
  Zn  Zn21  1  0.330019  0.330014  0.330600  1
  Zn  Zn22  1  0.987180  0.670208  0.671307  1
  Zn  Zn23  1  0.670203  0.987184  0.671307  1
  Zn  Zn24  1  0.670010  0.670015  0.990368  1
  Zn  Zn25  1  0.670011  0.670015  0.669607  1
  Ag  Ag26  1  0.636202  0.119083  0.122358  1
  Ag  Ag27  1  0.119088  0.636166  0.122373  1
  Ag  Ag28  1  0.014729  0.014720  0.985274  1
  S  S29  1  0.497810  0.497812  0.502189  1
