# generated using pymatgen
data_Tb4Y7In9Au4
_symmetry_space_group_name_H-M   'P 1'
_cell_length_a   13.21223426
_cell_length_b   13.21223384
_cell_length_c   3.77619200
_cell_angle_alpha   90.00000000
_cell_angle_beta   90.00000000
_cell_angle_gamma   110.48761875
_symmetry_Int_Tables_number   1
_chemical_formula_structural   Tb4Y7In9Au4
_chemical_formula_sum   'Tb4 Y7 In9 Au4'
_cell_volume   617.48908825
_cell_formula_units_Z   1
loop_
 _symmetry_equiv_pos_site_id
 _symmetry_equiv_pos_as_xyz
  1  'x, y, z'
loop_
 _atom_site_type_symbol
 _atom_site_label
 _atom_site_symmetry_multiplicity
 _atom_site_fract_x
 _atom_site_fract_y
 _atom_site_fract_z
 _atom_site_occupancy
  Tb  Tb0  1  0.366941  0.633059  0.000000  1
  Tb  Tb1  1  0.633059  0.366941  0.000000  1
  Tb  Tb2  1  0.301871  0.301871  0.000000  1
  Tb  Tb3  1  0.698129  0.698129  0.000000  1
  Y  Y4  1  0.416393  0.068409  0.000000  1
  Y  Y5  1  0.583607  0.931591  0.000000  1
  Y  Y6  1  0.068409  0.416393  0.000000  1
  Y  Y7  1  0.931591  0.583607  0.000000  1
  Y  Y8  1  0.159812  0.840188  0.000000  1
  Y  Y9  1  0.840188  0.159812  0.000000  1
  Y  Y10  1  0.000000  0.000000  0.000000  1
  In  In11  1  0.366257  0.846167  0.500000  1
  In  In12  1  0.633743  0.153833  0.500000  1
  In  In13  1  0.846167  0.366257  0.500000  1
  In  In14  1  0.153833  0.633743  0.500000  1
  In  In15  1  0.213931  0.066745  0.500000  1
  In  In16  1  0.786069  0.933255  0.500000  1
  In  In17  1  0.066745  0.213931  0.500000  1
  In  In18  1  0.933255  0.786069  0.500000  1
  In  In19  1  0.500000  0.500000  0.500000  1
  Au  Au20  1  0.452026  0.250311  0.500000  1
  Au  Au21  1  0.547974  0.749689  0.500000  1
  Au  Au22  1  0.250311  0.452026  0.500000  1
  Au  Au23  1  0.749689  0.547974  0.500000  1
