# generated using pymatgen
data_TbY3V3ReB16
_symmetry_space_group_name_H-M   'P 1'
_cell_length_a   3.51179900
_cell_length_b   5.99695430
_cell_length_c   11.60701205
_cell_angle_alpha   89.97638581
_cell_angle_beta   90.00000000
_cell_angle_gamma   90.00000000
_symmetry_Int_Tables_number   1
_chemical_formula_structural   TbY3V3ReB16
_chemical_formula_sum   'Tb1 Y3 V3 Re1 B16'
_cell_volume   244.44479201
_cell_formula_units_Z   1
loop_
 _symmetry_equiv_pos_site_id
 _symmetry_equiv_pos_as_xyz
  1  'x, y, z'
loop_
 _atom_site_type_symbol
 _atom_site_label
 _atom_site_symmetry_multiplicity
 _atom_site_fract_x
 _atom_site_fract_y
 _atom_site_fract_z
 _atom_site_occupancy
  Tb  Tb0  1  0.000000  0.623647  0.350073  1
  Y  Y1  1  0.000000  0.375815  0.651115  1
  Y  Y2  1  0.000000  0.126456  0.151843  1
  Y  Y3  1  0.000000  0.875250  0.848592  1
  V  V4  1  0.000000  0.371889  0.917775  1
  V  V5  1  0.000000  0.126904  0.416416  1
  V  V6  1  0.000000  0.873326  0.582459  1
  Re  Re7  1  0.000000  0.627730  0.082851  1
  B  B8  1  0.500000  0.784901  0.184950  1
  B  B9  1  0.500000  0.215195  0.814796  1
  B  B10  1  0.500000  0.285141  0.314658  1
  B  B11  1  0.500000  0.714116  0.685467  1
  B  B12  1  0.500000  0.864885  0.031735  1
  B  B13  1  0.500000  0.135482  0.967413  1
  B  B14  1  0.500000  0.363878  0.467558  1
  B  B15  1  0.500000  0.635995  0.532788  1
  B  B16  1  0.500000  0.886087  0.452845  1
  B  B17  1  0.500000  0.114571  0.547433  1
  B  B18  1  0.500000  0.385960  0.046816  1
  B  B19  1  0.500000  0.613537  0.952386  1
  B  B20  1  0.500000  0.976760  0.307899  1
  B  B21  1  0.500000  0.023336  0.692314  1
  B  B22  1  0.500000  0.476565  0.192135  1
  B  B23  1  0.500000  0.522575  0.807682  1
