# generated using pymatgen
data_Sr2Sm2HgPb11
_symmetry_space_group_name_H-M   'P 1'
_cell_length_a   10.05069000
_cell_length_b   6.93464420
_cell_length_c   6.93635500
_cell_angle_alpha   89.58238903
_cell_angle_beta   90.00000000
_cell_angle_gamma   90.00000000
_symmetry_Int_Tables_number   1
_chemical_formula_structural   Sr2Sm2HgPb11
_chemical_formula_sum   'Sr2 Sm2 Hg1 Pb11'
_cell_volume   483.43694566
_cell_formula_units_Z   1
loop_
 _symmetry_equiv_pos_site_id
 _symmetry_equiv_pos_as_xyz
  1  'x, y, z'
loop_
 _atom_site_type_symbol
 _atom_site_label
 _atom_site_symmetry_multiplicity
 _atom_site_fract_x
 _atom_site_fract_y
 _atom_site_fract_z
 _atom_site_occupancy
  Sr  Sr0  1  0.750000  0.996762  0.999223  1
  Sr  Sr1  1  0.750000  0.505808  0.498579  1
  Sm  Sm2  1  0.250000  0.003783  0.001481  1
  Sm  Sm3  1  0.250000  0.499646  0.502732  1
  Hg  Hg4  1  0.750000  0.495685  0.998037  1
  Pb  Pb5  1  0.004302  0.245766  0.745423  1
  Pb  Pb6  1  0.495940  0.251101  0.249747  1
  Pb  Pb7  1  0.494484  0.751086  0.250429  1
  Pb  Pb8  1  0.005047  0.747574  0.752910  1
  Pb  Pb9  1  0.005516  0.751086  0.250429  1
  Pb  Pb10  1  0.494953  0.747574  0.752910  1
  Pb  Pb11  1  0.495698  0.245766  0.745423  1
  Pb  Pb12  1  0.004060  0.251101  0.249747  1
  Pb  Pb13  1  0.250000  0.998899  0.501212  1
  Pb  Pb14  1  0.250000  0.503415  0.002623  1
  Pb  Pb15  1  0.750000  0.004949  0.499092  1
