# generated using pymatgen
data_Ba4Ca2Nd2Fe4O15
_symmetry_space_group_name_H-M   'P 1'
_cell_length_a   11.71740077
_cell_length_b   11.71740190
_cell_length_c   6.94765460
_cell_angle_alpha   89.93365620
_cell_angle_beta   89.93365492
_cell_angle_gamma   120.05904124
_symmetry_Int_Tables_number   1
_chemical_formula_structural   Ba4Ca2Nd2Fe4O15
_chemical_formula_sum   'Ba8 Ca4 Nd4 Fe8 O30'
_cell_volume   825.60365943
_cell_formula_units_Z   2
loop_
 _symmetry_equiv_pos_site_id
 _symmetry_equiv_pos_as_xyz
  1  'x, y, z'
loop_
 _atom_site_type_symbol
 _atom_site_label
 _atom_site_symmetry_multiplicity
 _atom_site_fract_x
 _atom_site_fract_y
 _atom_site_fract_z
 _atom_site_occupancy
  Ba  Ba0  1  0.831089  0.172082  0.331716  1
  Ba  Ba1  1  0.833788  0.658894  0.327246  1
  Ba  Ba2  1  0.338317  0.166692  0.334002  1
  Ba  Ba3  1  0.172082  0.831089  0.831716  1
  Ba  Ba4  1  0.166692  0.338317  0.834002  1
  Ba  Ba5  1  0.658894  0.833788  0.827246  1
  Ba  Ba6  1  0.668764  0.331061  0.013729  1
  Ba  Ba7  1  0.331061  0.668764  0.513729  1
  Ca  Ca8  1  0.999010  0.999688  0.525931  1
  Ca  Ca9  1  0.999688  0.999010  0.025931  1
  Ca  Ca10  1  0.520167  0.041047  0.656988  1
  Ca  Ca11  1  0.041047  0.520167  0.156988  1
  Nd  Nd12  1  0.522779  0.477185  0.665279  1
  Nd  Nd13  1  0.955788  0.478015  0.664959  1
  Nd  Nd14  1  0.477185  0.522779  0.165279  1
  Nd  Nd15  1  0.478015  0.955788  0.164959  1
  Fe  Fe16  1  0.665535  0.329798  0.472475  1
  Fe  Fe17  1  0.329798  0.665535  0.972475  1
  Fe  Fe18  1  0.823769  0.174436  0.835977  1
  Fe  Fe19  1  0.826475  0.652177  0.835677  1
  Fe  Fe20  1  0.350329  0.174062  0.837472  1
  Fe  Fe21  1  0.174436  0.823769  0.335977  1
  Fe  Fe22  1  0.174062  0.350329  0.337472  1
  Fe  Fe23  1  0.652177  0.826475  0.335677  1
  O  O24  1  0.062384  0.674204  0.486078  1
  O  O25  1  0.332082  0.393750  0.471484  1
  O  O26  1  0.605902  0.936878  0.469682  1
  O  O27  1  0.063047  0.388873  0.485883  1
  O  O28  1  0.330916  0.937619  0.469973  1
  O  O29  1  0.606921  0.668055  0.470832  1
  O  O30  1  0.937619  0.330916  0.969973  1
  O  O31  1  0.668055  0.606921  0.970832  1
  O  O32  1  0.388873  0.063047  0.985883  1
  O  O33  1  0.936878  0.605902  0.969682  1
  O  O34  1  0.674204  0.062384  0.986078  1
  O  O35  1  0.393750  0.332082  0.971484  1
  O  O36  1  0.581767  0.417865  0.331016  1
  O  O37  1  0.583031  0.166695  0.324575  1
  O  O38  1  0.836251  0.418365  0.335509  1
  O  O39  1  0.417865  0.581767  0.831016  1
  O  O40  1  0.418365  0.836251  0.835509  1
  O  O41  1  0.166695  0.583031  0.824575  1
  O  O42  1  0.086156  0.910528  0.247250  1
  O  O43  1  0.088638  0.175841  0.247176  1
  O  O44  1  0.827611  0.912438  0.251241  1
  O  O45  1  0.910528  0.086156  0.747250  1
  O  O46  1  0.912438  0.827611  0.751241  1
  O  O47  1  0.175841  0.088638  0.747176  1
  O  O48  1  0.750441  0.249073  0.662428  1
  O  O49  1  0.751102  0.506072  0.658485  1
  O  O50  1  0.496373  0.250175  0.661134  1
  O  O51  1  0.249073  0.750441  0.162428  1
  O  O52  1  0.250175  0.496373  0.161134  1
  O  O53  1  0.506072  0.751102  0.158485  1
