# generated using pymatgen
data_Nb6AlGa3(PdC)2
_symmetry_space_group_name_H-M   'P 1'
_cell_length_a   8.38529202
_cell_length_b   8.38326156
_cell_length_c   8.38325965
_cell_angle_alpha   59.98735246
_cell_angle_beta   59.99292810
_cell_angle_gamma   59.99292907
_symmetry_Int_Tables_number   1
_chemical_formula_structural   Nb6AlGa3(PdC)2
_chemical_formula_sum   'Nb12 Al2 Ga6 Pd4 C4'
_cell_volume   416.62102268
_cell_formula_units_Z   2
loop_
 _symmetry_equiv_pos_site_id
 _symmetry_equiv_pos_as_xyz
  1  'x, y, z'
loop_
 _atom_site_type_symbol
 _atom_site_label
 _atom_site_symmetry_multiplicity
 _atom_site_fract_x
 _atom_site_fract_y
 _atom_site_fract_z
 _atom_site_occupancy
  Nb  Nb0  1  0.567374  0.932773  0.567581  1
  Nb  Nb1  1  0.317250  0.682817  0.682817  1
  Nb  Nb2  1  0.682715  0.317065  0.317065  1
  Nb  Nb3  1  0.317699  0.682447  0.317200  1
  Nb  Nb4  1  0.683088  0.683320  0.316653  1
  Nb  Nb5  1  0.317699  0.317200  0.682447  1
  Nb  Nb6  1  0.567374  0.567581  0.932773  1
  Nb  Nb7  1  0.932869  0.567200  0.567200  1
  Nb  Nb8  1  0.566856  0.932921  0.932921  1
  Nb  Nb9  1  0.933026  0.933312  0.566714  1
  Nb  Nb10  1  0.683088  0.316653  0.683320  1
  Nb  Nb11  1  0.933026  0.566714  0.933312  1
  Al  Al12  1  0.251688  0.915988  0.915988  1
  Al  Al13  1  0.333636  0.334005  0.334005  1
  Ga  Ga14  1  0.914207  0.914245  0.914245  1
  Ga  Ga15  1  0.992729  0.335749  0.335749  1
  Ga  Ga16  1  0.335685  0.992698  0.335910  1
  Ga  Ga17  1  0.335685  0.335910  0.992698  1
  Ga  Ga18  1  0.914291  0.257331  0.914070  1
  Ga  Ga19  1  0.914291  0.914070  0.257331  1
  Pd  Pd20  1  0.126646  0.123222  0.123222  1
  Pd  Pd21  1  0.623078  0.126788  0.126788  1
  Pd  Pd22  1  0.127779  0.624994  0.124998  1
  Pd  Pd23  1  0.127779  0.124998  0.624994  1
  C  C24  1  0.625087  0.624686  0.624686  1
  C  C25  1  0.124476  0.625308  0.625308  1
  C  C26  1  0.625440  0.125008  0.624997  1
  C  C27  1  0.625440  0.624997  0.125008  1
