# generated using pymatgen
data_Ho20CoRh11
_symmetry_space_group_name_H-M   'P 1'
_cell_length_a   10.85024234
_cell_length_b   10.85024146
_cell_length_c   6.32523668
_cell_angle_alpha   89.96561950
_cell_angle_beta   89.96562051
_cell_angle_gamma   89.97062505
_symmetry_Int_Tables_number   1
_chemical_formula_structural   Ho20CoRh11
_chemical_formula_sum   'Ho20 Co1 Rh11'
_cell_volume   744.65551180
_cell_formula_units_Z   1
loop_
 _symmetry_equiv_pos_site_id
 _symmetry_equiv_pos_as_xyz
  1  'x, y, z'
loop_
 _atom_site_type_symbol
 _atom_site_label
 _atom_site_symmetry_multiplicity
 _atom_site_fract_x
 _atom_site_fract_y
 _atom_site_fract_z
 _atom_site_occupancy
  Ho  Ho0  1  0.290958  0.088399  0.378518  1
  Ho  Ho1  1  0.291810  0.907000  0.878684  1
  Ho  Ho2  1  0.708882  0.088328  0.878771  1
  Ho  Ho3  1  0.708211  0.910690  0.378389  1
  Ho  Ho4  1  0.586623  0.789909  0.878671  1
  Ho  Ho5  1  0.588573  0.210126  0.379056  1
  Ho  Ho6  1  0.409524  0.788521  0.385161  1
  Ho  Ho7  1  0.410688  0.208831  0.878594  1
  Ho  Ho8  1  0.210091  0.413377  0.621329  1
  Ho  Ho9  1  0.211479  0.590476  0.114839  1
  Ho  Ho10  1  0.789874  0.411427  0.120944  1
  Ho  Ho11  1  0.791169  0.589312  0.621406  1
  Ho  Ho12  1  0.911601  0.709042  0.121482  1
  Ho  Ho13  1  0.911672  0.291118  0.621229  1
  Ho  Ho14  1  0.093000  0.708190  0.621316  1
  Ho  Ho15  1  0.089310  0.291789  0.121611  1
  Ho  Ho16  1  0.999669  0.999423  0.500255  1
  Ho  Ho17  1  0.000577  0.000331  0.999745  1
  Ho  Ho18  1  0.497255  0.502264  0.997923  1
  Ho  Ho19  1  0.497736  0.502745  0.502077  1
  Co  Co20  1  0.347855  0.652145  0.750000  1
  Rh  Rh21  1  0.846038  0.153962  0.250000  1
  Rh  Rh22  1  0.845492  0.846167  0.750561  1
  Rh  Rh23  1  0.153833  0.154508  0.749439  1
  Rh  Rh24  1  0.154133  0.845867  0.250000  1
  Rh  Rh25  1  0.653864  0.346136  0.750000  1
  Rh  Rh26  1  0.654345  0.654104  0.249966  1
  Rh  Rh27  1  0.345896  0.345655  0.250034  1
  Rh  Rh28  1  0.499607  0.999824  0.126216  1
  Rh  Rh29  1  0.499931  0.999868  0.625382  1
  Rh  Rh30  1  0.000132  0.500069  0.874618  1
  Rh  Rh31  1  0.000176  0.500393  0.373784  1
