# generated using pymatgen
data_Er4TmCu2Sb
_symmetry_space_group_name_H-M   'P 1'
_cell_length_a   8.41503328
_cell_length_b   8.41503280
_cell_length_c   8.41503325
_cell_angle_alpha   124.71960220
_cell_angle_beta   124.71959435
_cell_angle_gamma   82.00298764
_symmetry_Int_Tables_number   1
_chemical_formula_structural   Er4TmCu2Sb
_chemical_formula_sum   'Er8 Tm2 Cu4 Sb2'
_cell_volume   387.15013123
_cell_formula_units_Z   2
loop_
 _symmetry_equiv_pos_site_id
 _symmetry_equiv_pos_as_xyz
  1  'x, y, z'
loop_
 _atom_site_type_symbol
 _atom_site_label
 _atom_site_symmetry_multiplicity
 _atom_site_fract_x
 _atom_site_fract_y
 _atom_site_fract_z
 _atom_site_occupancy
  Er  Er0  1  0.795906  0.295906  0.809191  1
  Er  Er1  1  0.204094  0.704094  0.190809  1
  Er  Er2  1  0.486714  0.986714  0.190809  1
  Er  Er3  1  0.295906  0.486714  0.500000  1
  Er  Er4  1  0.013286  0.204094  0.500000  1
  Er  Er5  1  0.513286  0.013286  0.809191  1
  Er  Er6  1  0.704094  0.513286  0.500000  1
  Er  Er7  1  0.986714  0.795906  0.500000  1
  Tm  Tm8  1  0.000000  0.000000  0.000000  1
  Tm  Tm9  1  0.500000  0.500000  0.000000  1
  Cu  Cu10  1  0.131457  0.631457  0.762914  1
  Cu  Cu11  1  0.868543  0.368543  0.237086  1
  Cu  Cu12  1  0.631457  0.868543  0.500000  1
  Cu  Cu13  1  0.368543  0.131457  0.500000  1
  Sb  Sb14  1  0.250000  0.250000  0.000000  1
  Sb  Sb15  1  0.750000  0.750000  0.000000  1
