# generated using pymatgen
data_VTcMo3As4
_symmetry_space_group_name_H-M   'P 1'
_cell_length_a   6.98675145
_cell_length_b   6.98675136
_cell_length_c   6.96809704
_cell_angle_alpha   93.31794588
_cell_angle_beta   93.06440188
_cell_angle_gamma   152.74314867
_symmetry_Int_Tables_number   1
_chemical_formula_structural   VTcMo3As4
_chemical_formula_sum   'V1 Tc1 Mo3 As4'
_cell_volume   151.36952824
_cell_formula_units_Z   1
loop_
 _symmetry_equiv_pos_site_id
 _symmetry_equiv_pos_as_xyz
  1  'x, y, z'
loop_
 _atom_site_type_symbol
 _atom_site_label
 _atom_site_symmetry_multiplicity
 _atom_site_fract_x
 _atom_site_fract_y
 _atom_site_fract_z
 _atom_site_occupancy
  V  V0  1  0.000719  0.999652  0.000370  1
  Tc  Tc1  1  0.385531  0.301253  0.686784  1
  Mo  Mo2  1  0.300375  0.616104  0.916479  1
  Mo  Mo3  1  0.698514  0.382475  0.080988  1
  Mo  Mo4  1  0.616844  0.697541  0.314385  1
  As  As5  1  0.284467  0.062270  0.346736  1
  As  As6  1  0.058885  0.716673  0.775559  1
  As  As7  1  0.940471  0.284885  0.225355  1
  As  As8  1  0.714194  0.939149  0.653344  1
