# generated using pymatgen
data_YbLuU2Ge6Ru7
_symmetry_space_group_name_H-M   'P 1'
_cell_length_a   7.15322356
_cell_length_b   7.23451745
_cell_length_c   7.14066162
_cell_angle_alpha   109.32119003
_cell_angle_beta   109.20790147
_cell_angle_gamma   109.39125456
_symmetry_Int_Tables_number   1
_chemical_formula_structural   YbLuU2Ge6Ru7
_chemical_formula_sum   'Yb1 Lu1 U2 Ge6 Ru7'
_cell_volume   286.18261182
_cell_formula_units_Z   1
loop_
 _symmetry_equiv_pos_site_id
 _symmetry_equiv_pos_as_xyz
  1  'x, y, z'
loop_
 _atom_site_type_symbol
 _atom_site_label
 _atom_site_symmetry_multiplicity
 _atom_site_fract_x
 _atom_site_fract_y
 _atom_site_fract_z
 _atom_site_occupancy
  Yb  Yb0  1  0.500000  0.000000  0.000000  1
  Lu  Lu1  1  0.000000  0.000000  0.500000  1
  U  U2  1  0.000000  0.500000  0.000000  1
  U  U3  1  0.500000  0.500000  0.500000  1
  Ge  Ge4  1  0.689004  0.696505  0.004460  1
  Ge  Ge5  1  0.314475  0.000000  0.312789  1
  Ge  Ge6  1  0.992499  0.303495  0.307955  1
  Ge  Ge7  1  0.310996  0.303495  0.995540  1
  Ge  Ge8  1  0.685525  0.000000  0.687211  1
  Ge  Ge9  1  0.007501  0.696505  0.692045  1
  Ru  Ru10  1  0.755028  0.266488  0.514085  1
  Ru  Ru11  1  0.751839  0.503678  0.251839  1
  Ru  Ru12  1  0.511459  0.266488  0.752402  1
  Ru  Ru13  1  0.248161  0.496322  0.748161  1
  Ru  Ru14  1  0.244972  0.733512  0.485915  1
  Ru  Ru15  1  0.488541  0.733512  0.247598  1
  Ru  Ru16  1  0.000000  0.000000  0.000000  1
