# generated using pymatgen
data_Ho6B14MoOs
_symmetry_space_group_name_H-M   'P 1'
_cell_length_a   8.08146903
_cell_length_b   8.08147026
_cell_length_c   9.36479400
_cell_angle_alpha   90.00000000
_cell_angle_beta   90.00000000
_cell_angle_gamma   155.02548472
_symmetry_Int_Tables_number   1
_chemical_formula_structural   Ho6B14MoOs
_chemical_formula_sum   'Ho6 B14 Mo1 Os1'
_cell_volume   258.23356035
_cell_formula_units_Z   1
loop_
 _symmetry_equiv_pos_site_id
 _symmetry_equiv_pos_as_xyz
  1  'x, y, z'
loop_
 _atom_site_type_symbol
 _atom_site_label
 _atom_site_symmetry_multiplicity
 _atom_site_fract_x
 _atom_site_fract_y
 _atom_site_fract_z
 _atom_site_occupancy
  Ho  Ho0  1  0.256475  0.743525  0.250000  1
  Ho  Ho1  1  0.744552  0.255448  0.750000  1
  Ho  Ho2  1  0.605919  0.394081  0.061827  1
  Ho  Ho3  1  0.393152  0.606848  0.940878  1
  Ho  Ho4  1  0.393152  0.606848  0.559122  1
  Ho  Ho5  1  0.605919  0.394081  0.438173  1
  B  B6  1  0.979022  0.020978  0.096265  1
  B  B7  1  0.019536  0.980464  0.908895  1
  B  B8  1  0.019536  0.980464  0.591105  1
  B  B9  1  0.979022  0.020978  0.403735  1
  B  B10  1  0.773344  0.226656  0.034831  1
  B  B11  1  0.228130  0.771870  0.967787  1
  B  B12  1  0.228130  0.771870  0.532213  1
  B  B13  1  0.773344  0.226656  0.465169  1
  B  B14  1  0.868071  0.131929  0.150801  1
  B  B15  1  0.134718  0.865282  0.852662  1
  B  B16  1  0.134718  0.865282  0.647338  1
  B  B17  1  0.868071  0.131929  0.349199  1
  B  B18  1  0.042553  0.957447  0.250000  1
  B  B19  1  0.954278  0.045722  0.750000  1
  Mo  Mo20  1  0.552543  0.447457  0.750000  1
  Os  Os21  1  0.445813  0.554187  0.250000  1
