# generated using pymatgen
data_HfZr3(Re3W)2
_symmetry_space_group_name_H-M   'P 1'
_cell_length_a   5.34076560
_cell_length_b   5.31589077
_cell_length_c   8.72770909
_cell_angle_alpha   89.98339078
_cell_angle_beta   90.01046437
_cell_angle_gamma   119.87530651
_symmetry_Int_Tables_number   1
_chemical_formula_structural   HfZr3(Re3W)2
_chemical_formula_sum   'Hf1 Zr3 Re6 W2'
_cell_volume   214.85959878
_cell_formula_units_Z   1
loop_
 _symmetry_equiv_pos_site_id
 _symmetry_equiv_pos_as_xyz
  1  'x, y, z'
loop_
 _atom_site_type_symbol
 _atom_site_label
 _atom_site_symmetry_multiplicity
 _atom_site_fract_x
 _atom_site_fract_y
 _atom_site_fract_z
 _atom_site_occupancy
  Hf  Hf0  1  0.332620  0.666637  0.438070  1
  Zr  Zr1  1  0.332624  0.666588  0.062450  1
  Zr  Zr2  1  0.667361  0.333980  0.561795  1
  Zr  Zr3  1  0.667331  0.333964  0.937842  1
  Re  Re4  1  0.999948  0.001138  0.999712  1
  Re  Re5  1  0.000010  0.001036  0.499960  1
  Re  Re6  1  0.658406  0.827868  0.749625  1
  Re  Re7  1  0.341444  0.169429  0.250461  1
  Re  Re8  1  0.827697  0.168716  0.250482  1
  Re  Re9  1  0.172488  0.341271  0.749632  1
  W  W10  1  0.829441  0.659452  0.250322  1
  W  W11  1  0.170629  0.829922  0.749652  1
