# generated using pymatgen
data_Ho4Mn2ReTc5
_symmetry_space_group_name_H-M   'P 1'
_cell_length_a   5.30178746
_cell_length_b   5.33740019
_cell_length_c   8.92030800
_cell_angle_alpha   90.00000000
_cell_angle_beta   90.00000000
_cell_angle_gamma   120.64535315
_symmetry_Int_Tables_number   1
_chemical_formula_structural   Ho4Mn2ReTc5
_chemical_formula_sum   'Ho4 Mn2 Re1 Tc5'
_cell_volume   217.17080911
_cell_formula_units_Z   1
loop_
 _symmetry_equiv_pos_site_id
 _symmetry_equiv_pos_as_xyz
  1  'x, y, z'
loop_
 _atom_site_type_symbol
 _atom_site_label
 _atom_site_symmetry_multiplicity
 _atom_site_fract_x
 _atom_site_fract_y
 _atom_site_fract_z
 _atom_site_occupancy
  Ho  Ho0  1  0.666428  0.333257  0.563860  1
  Ho  Ho1  1  0.333646  0.666909  0.436275  1
  Ho  Ho2  1  0.333646  0.666909  0.063725  1
  Ho  Ho3  1  0.666428  0.333257  0.936140  1
  Mn  Mn4  1  0.001732  0.000738  0.500006  1
  Mn  Mn5  1  0.001732  0.000738  0.999994  1
  Re  Re6  1  0.334653  0.166742  0.250000  1
  Tc  Tc7  1  0.167987  0.336534  0.750000  1
  Tc  Tc8  1  0.168344  0.831912  0.750000  1
  Tc  Tc9  1  0.663220  0.832182  0.750000  1
  Tc  Tc10  1  0.831222  0.662648  0.250000  1
  Tc  Tc11  1  0.830960  0.168175  0.250000  1
