# generated using pymatgen
data_Dy7Er3CuGePb6
_symmetry_space_group_name_H-M   'P 1'
_cell_length_a   9.22396700
_cell_length_b   9.22396784
_cell_length_c   6.75184100
_cell_angle_alpha   90.00000000
_cell_angle_beta   90.00000000
_cell_angle_gamma   119.99999341
_symmetry_Int_Tables_number   1
_chemical_formula_structural   Dy7Er3CuGePb6
_chemical_formula_sum   'Dy7 Er3 Cu1 Ge1 Pb6'
_cell_volume   497.49461873
_cell_formula_units_Z   1
loop_
 _symmetry_equiv_pos_site_id
 _symmetry_equiv_pos_as_xyz
  1  'x, y, z'
loop_
 _atom_site_type_symbol
 _atom_site_label
 _atom_site_symmetry_multiplicity
 _atom_site_fract_x
 _atom_site_fract_y
 _atom_site_fract_z
 _atom_site_occupancy
  Dy  Dy0  1  0.249554  0.000101  0.240450  1
  Dy  Dy1  1  0.750547  0.000101  0.759550  1
  Dy  Dy2  1  0.999899  0.249453  0.240450  1
  Dy  Dy3  1  0.999899  0.750446  0.759550  1
  Dy  Dy4  1  0.750547  0.750446  0.240450  1
  Dy  Dy5  1  0.249554  0.249453  0.759550  1
  Dy  Dy6  1  0.333333  0.666667  0.000000  1
  Er  Er7  1  0.666667  0.333333  0.000000  1
  Er  Er8  1  0.666667  0.333333  0.500000  1
  Er  Er9  1  0.333333  0.666667  0.500000  1
  Cu  Cu10  1  0.000000  0.000000  0.500000  1
  Ge  Ge11  1  0.000000  0.000000  0.000000  1
  Pb  Pb12  1  0.606061  0.000300  0.250132  1
  Pb  Pb13  1  0.394239  0.000300  0.749868  1
  Pb  Pb14  1  0.999700  0.605761  0.250132  1
  Pb  Pb15  1  0.999700  0.393939  0.749868  1
  Pb  Pb16  1  0.394239  0.393939  0.250132  1
  Pb  Pb17  1  0.606061  0.605761  0.749868  1
