# generated using pymatgen
data_Ca3Ga3Ru2
_symmetry_space_group_name_H-M   'P 1'
_cell_length_a   5.86115400
_cell_length_b   8.27630900
_cell_length_c   14.66354100
_cell_angle_alpha   90.00000000
_cell_angle_beta   90.00000000
_cell_angle_gamma   90.00000000
_symmetry_Int_Tables_number   1
_chemical_formula_structural   Ca3Ga3Ru2
_chemical_formula_sum   'Ca12 Ga12 Ru8'
_cell_volume   711.30962805
_cell_formula_units_Z   4
loop_
 _symmetry_equiv_pos_site_id
 _symmetry_equiv_pos_as_xyz
  1  'x, y, z'
loop_
 _atom_site_type_symbol
 _atom_site_label
 _atom_site_symmetry_multiplicity
 _atom_site_fract_x
 _atom_site_fract_y
 _atom_site_fract_z
 _atom_site_occupancy
  Ca  Ca0  1  0.112774  0.549676  0.607704  1
  Ca  Ca1  1  0.613762  0.695536  0.750000  1
  Ca  Ca2  1  0.612774  0.950324  0.107704  1
  Ca  Ca3  1  0.387226  0.049676  0.892296  1
  Ca  Ca4  1  0.612774  0.950324  0.392296  1
  Ca  Ca5  1  0.886238  0.195536  0.750000  1
  Ca  Ca6  1  0.386238  0.304464  0.250000  1
  Ca  Ca7  1  0.387226  0.049676  0.607704  1
  Ca  Ca8  1  0.887226  0.450324  0.107704  1
  Ca  Ca9  1  0.112774  0.549676  0.892296  1
  Ca  Ca10  1  0.113762  0.804464  0.250000  1
  Ca  Ca11  1  0.887226  0.450324  0.392296  1
  Ga  Ga12  1  0.069548  0.853189  0.750000  1
  Ga  Ga13  1  0.868241  0.186056  0.959691  1
  Ga  Ga14  1  0.930452  0.146811  0.250000  1
  Ga  Ga15  1  0.569548  0.646811  0.250000  1
  Ga  Ga16  1  0.131759  0.813944  0.459691  1
  Ga  Ga17  1  0.368241  0.313944  0.040309  1
  Ga  Ga18  1  0.631759  0.686056  0.540309  1
  Ga  Ga19  1  0.631759  0.686056  0.959691  1
  Ga  Ga20  1  0.368241  0.313944  0.459691  1
  Ga  Ga21  1  0.131759  0.813944  0.040309  1
  Ga  Ga22  1  0.430452  0.353189  0.750000  1
  Ga  Ga23  1  0.868241  0.186056  0.540309  1
  Ru  Ru24  1  0.903558  0.898612  0.594886  1
  Ru  Ru25  1  0.596442  0.398612  0.905114  1
  Ru  Ru26  1  0.903558  0.898612  0.905114  1
  Ru  Ru27  1  0.403558  0.601388  0.094886  1
  Ru  Ru28  1  0.096442  0.101388  0.405114  1
  Ru  Ru29  1  0.403558  0.601388  0.405114  1
  Ru  Ru30  1  0.596442  0.398612  0.594886  1
  Ru  Ru31  1  0.096442  0.101388  0.094886  1
