# generated using pymatgen
data_Dy4Re3PN12
_symmetry_space_group_name_H-M   'P 1'
_cell_length_a   7.27923235
_cell_length_b   7.25918206
_cell_length_c   6.07985200
_cell_angle_alpha   73.71943702
_cell_angle_beta   73.77139253
_cell_angle_gamma   82.70582681
_symmetry_Int_Tables_number   1
_chemical_formula_structural   Dy4Re3PN12
_chemical_formula_sum   'Dy4 Re3 P1 N12'
_cell_volume   295.68441512
_cell_formula_units_Z   1
loop_
 _symmetry_equiv_pos_site_id
 _symmetry_equiv_pos_as_xyz
  1  'x, y, z'
loop_
 _atom_site_type_symbol
 _atom_site_label
 _atom_site_symmetry_multiplicity
 _atom_site_fract_x
 _atom_site_fract_y
 _atom_site_fract_z
 _atom_site_occupancy
  Dy  Dy0  1  0.903178  0.086132  0.760829  1
  Dy  Dy1  1  0.104172  0.903391  0.249407  1
  Dy  Dy2  1  0.698414  0.280043  0.258039  1
  Dy  Dy3  1  0.304586  0.705080  0.736212  1
  Re  Re4  1  0.197964  0.380597  0.227436  1
  Re  Re5  1  0.380523  0.198107  0.729077  1
  Re  Re6  1  0.785178  0.629968  0.782644  1
  P  P7  1  0.616439  0.811451  0.276239  1
  N  N8  1  0.665566  0.654008  0.090324  1
  N  N9  1  0.390828  0.866081  0.332215  1
  N  N10  1  0.357469  0.348012  0.434031  1
  N  N11  1  0.121576  0.628134  0.145830  1
  N  N12  1  0.001722  0.217470  0.335972  1
  N  N13  1  0.769509  0.978948  0.163767  1
  N  N14  1  0.219319  0.000447  0.837418  1
  N  N15  1  0.631259  0.116314  0.655711  1
  N  N16  1  0.353119  0.360317  0.928768  1
  N  N17  1  0.861843  0.382266  0.841928  1
  N  N18  1  0.643859  0.679006  0.550875  1
  N  N19  1  0.993476  0.774226  0.663277  1
