# generated using pymatgen
data_Lu3Th(Zr3Si4)2
_symmetry_space_group_name_H-M   'P 1'
_cell_length_a   7.33330129
_cell_length_b   7.11939053
_cell_length_c   7.31201423
_cell_angle_alpha   71.93958673
_cell_angle_beta   89.88814959
_cell_angle_gamma   90.24792312
_symmetry_Int_Tables_number   1
_chemical_formula_structural   Lu3Th(Zr3Si4)2
_chemical_formula_sum   'Lu3 Th1 Zr6 Si8'
_cell_volume   362.93593539
_cell_formula_units_Z   1
loop_
 _symmetry_equiv_pos_site_id
 _symmetry_equiv_pos_as_xyz
  1  'x, y, z'
loop_
 _atom_site_type_symbol
 _atom_site_label
 _atom_site_symmetry_multiplicity
 _atom_site_fract_x
 _atom_site_fract_y
 _atom_site_fract_z
 _atom_site_occupancy
  Lu  Lu0  1  0.672436  0.927834  0.693332  1
  Lu  Lu1  1  0.325977  0.073234  0.306533  1
  Lu  Lu2  1  0.175334  0.574749  0.305000  1
  Th  Th3  1  0.828816  0.427642  0.687632  1
  Zr  Zr4  1  0.678743  0.749749  0.251032  1
  Zr  Zr5  1  0.321744  0.250815  0.750956  1
  Zr  Zr6  1  0.181343  0.750150  0.753171  1
  Zr  Zr7  1  0.819283  0.248468  0.249427  1
  Zr  Zr8  1  0.000487  0.000987  0.999994  1
  Zr  Zr9  1  0.500549  0.500689  0.999485  1
  Si  Si10  1  0.970333  0.868957  0.417718  1
  Si  Si11  1  0.033951  0.123000  0.581385  1
  Si  Si12  1  0.465149  0.635120  0.579295  1
  Si  Si13  1  0.525007  0.369858  0.414111  1
  Si  Si14  1  0.877767  0.630339  0.994293  1
  Si  Si15  1  0.126261  0.372198  0.012465  1
  Si  Si16  1  0.376422  0.872048  0.010634  1
  Si  Si17  1  0.620401  0.124161  0.993537  1
