# generated using pymatgen
data_CaCe19CoSi15
_symmetry_space_group_name_H-M   'P 1'
_cell_length_a   7.59895857
_cell_length_b   7.72537537
_cell_length_c   14.79072700
_cell_angle_alpha   89.52695844
_cell_angle_beta   89.69513570
_cell_angle_gamma   90.00555215
_symmetry_Int_Tables_number   1
_chemical_formula_structural   CaCe19CoSi15
_chemical_formula_sum   'Ca1 Ce19 Co1 Si15'
_cell_volume   868.24488727
_cell_formula_units_Z   1
loop_
 _symmetry_equiv_pos_site_id
 _symmetry_equiv_pos_as_xyz
  1  'x, y, z'
loop_
 _atom_site_type_symbol
 _atom_site_label
 _atom_site_symmetry_multiplicity
 _atom_site_fract_x
 _atom_site_fract_y
 _atom_site_fract_z
 _atom_site_occupancy
  Ca  Ca0  1  0.139141  0.509258  0.749011  1
  Ce  Ce1  1  0.812162  0.345143  0.604743  1
  Ce  Ce2  1  0.471605  0.684339  0.900978  1
  Ce  Ce3  1  0.963101  0.825014  0.900997  1
  Ce  Ce4  1  0.177992  0.680108  0.125165  1
  Ce  Ce5  1  0.681388  0.819057  0.125608  1
  Ce  Ce6  1  0.315497  0.179249  0.876462  1
  Ce  Ce7  1  0.168836  0.672521  0.378031  1
  Ce  Ce8  1  0.029486  0.180628  0.101499  1
  Ce  Ce9  1  0.326960  0.176057  0.623470  1
  Ce  Ce10  1  0.863414  0.508604  0.250656  1
  Ce  Ce11  1  0.367232  0.983010  0.250902  1
  Ce  Ce12  1  0.530355  0.316020  0.400003  1
  Ce  Ce13  1  0.812694  0.315051  0.876098  1
  Ce  Ce14  1  0.971764  0.822383  0.596265  1
  Ce  Ce15  1  0.472503  0.691774  0.600718  1
  Ce  Ce16  1  0.031775  0.184423  0.400061  1
  Ce  Ce17  1  0.690078  0.787289  0.383780  1
  Ce  Ce18  1  0.630330  0.019248  0.746548  1
  Ce  Ce19  1  0.532564  0.313950  0.101430  1
  Co  Co20  1  0.870120  0.516254  0.475405  1
  Si  Si21  1  0.474111  0.590024  0.250275  1
  Si  Si22  1  0.243857  0.363932  0.249303  1
  Si  Si23  1  0.526945  0.410680  0.748111  1
  Si  Si24  1  0.636897  0.023149  0.958933  1
  Si  Si25  1  0.016086  0.099022  0.744852  1
  Si  Si26  1  0.753996  0.636998  0.750327  1
  Si  Si27  1  0.743936  0.126647  0.252798  1
  Si  Si28  1  0.359010  0.967043  0.458847  1
  Si  Si29  1  0.976416  0.906197  0.251939  1
  Si  Si30  1  0.356243  0.973580  0.041294  1
  Si  Si31  1  0.646437  0.026356  0.536130  1
  Si  Si32  1  0.137880  0.473346  0.960943  1
  Si  Si33  1  0.160747  0.470802  0.539162  1
  Si  Si34  1  0.855624  0.525222  0.038677  1
  Si  Si35  1  0.252815  0.877621  0.750578  1
