# generated using pymatgen
data_Sc4Ga3Si3IrPt6
_symmetry_space_group_name_H-M   'P 1'
_cell_length_a   7.09252315
_cell_length_b   7.09252286
_cell_length_c   7.13754800
_cell_angle_alpha   109.59986342
_cell_angle_beta   109.59986259
_cell_angle_gamma   109.34227373
_symmetry_Int_Tables_number   1
_chemical_formula_structural   Sc4Ga3Si3IrPt6
_chemical_formula_sum   'Sc4 Ga3 Si3 Ir1 Pt6'
_cell_volume   275.95399907
_cell_formula_units_Z   1
loop_
 _symmetry_equiv_pos_site_id
 _symmetry_equiv_pos_as_xyz
  1  'x, y, z'
loop_
 _atom_site_type_symbol
 _atom_site_label
 _atom_site_symmetry_multiplicity
 _atom_site_fract_x
 _atom_site_fract_y
 _atom_site_fract_z
 _atom_site_occupancy
  Sc  Sc0  1  0.000000  0.000000  0.537163  1
  Sc  Sc1  1  0.000000  0.485123  0.000870  1
  Sc  Sc2  1  0.485123  0.000000  0.000870  1
  Sc  Sc3  1  0.514877  0.514877  0.515746  1
  Ga  Ga4  1  0.711053  0.711053  0.013246  1
  Ga  Ga5  1  0.288947  0.000000  0.302194  1
  Ga  Ga6  1  0.000000  0.288947  0.302194  1
  Si  Si7  1  0.329362  0.329362  0.006739  1
  Si  Si8  1  0.670638  0.000000  0.677377  1
  Si  Si9  1  0.000000  0.670638  0.677377  1
  Ir  Ir10  1  0.000000  0.000000  0.950498  1
  Pt  Pt11  1  0.747798  0.249009  0.501557  1
  Pt  Pt12  1  0.750991  0.498789  0.252548  1
  Pt  Pt13  1  0.501211  0.252202  0.753759  1
  Pt  Pt14  1  0.252202  0.501211  0.753759  1
  Pt  Pt15  1  0.249009  0.747798  0.501557  1
  Pt  Pt16  1  0.498789  0.750991  0.252548  1
