# generated using pymatgen
data_Cs5V2(Se2S)2
_symmetry_space_group_name_H-M   'P 1'
_cell_length_a   8.22700105
_cell_length_b   8.90894429
_cell_length_c   17.98826094
_cell_angle_alpha   90.01155745
_cell_angle_beta   99.98346639
_cell_angle_gamma   122.78603003
_symmetry_Int_Tables_number   1
_chemical_formula_structural   Cs5V2(Se2S)2
_chemical_formula_sum   'Cs10 V4 Se8 S4'
_cell_volume   1084.54866950
_cell_formula_units_Z   2
loop_
 _symmetry_equiv_pos_site_id
 _symmetry_equiv_pos_as_xyz
  1  'x, y, z'
loop_
 _atom_site_type_symbol
 _atom_site_label
 _atom_site_symmetry_multiplicity
 _atom_site_fract_x
 _atom_site_fract_y
 _atom_site_fract_z
 _atom_site_occupancy
  Cs  Cs0  1  0.132567  0.804291  0.996185  1
  Cs  Cs1  1  0.867023  0.671541  0.503836  1
  Cs  Cs2  1  0.867433  0.195709  0.003815  1
  Cs  Cs3  1  0.132977  0.328459  0.496164  1
  Cs  Cs4  1  0.318081  0.081421  0.718639  1
  Cs  Cs5  1  0.681673  0.763788  0.781017  1
  Cs  Cs6  1  0.681919  0.918579  0.281361  1
  Cs  Cs7  1  0.318327  0.236212  0.218983  1
  Cs  Cs8  1  0.000033  0.388440  0.749859  1
  Cs  Cs9  1  0.999967  0.611560  0.250141  1
  V  V10  1  0.539733  0.927883  0.562528  1
  V  V11  1  0.460320  0.388099  0.937399  1
  V  V12  1  0.460267  0.072117  0.437472  1
  V  V13  1  0.539680  0.611901  0.062601  1
  Se  Se14  1  0.856004  0.999281  0.620822  1
  Se  Se15  1  0.144214  0.143396  0.878778  1
  Se  Se16  1  0.143996  0.000719  0.379178  1
  Se  Se17  1  0.855786  0.856604  0.121222  1
  Se  Se18  1  0.303965  0.715965  0.630212  1
  Se  Se19  1  0.695198  0.411852  0.869317  1
  Se  Se20  1  0.696035  0.284035  0.369788  1
  Se  Se21  1  0.304802  0.588148  0.130683  1
  S  S22  1  0.541890  0.182171  0.560070  1
  S  S23  1  0.458129  0.639887  0.940001  1
  S  S24  1  0.458110  0.817829  0.439930  1
  S  S25  1  0.541871  0.360113  0.059999  1
