# generated using pymatgen
data_Er5Pb3N
_symmetry_space_group_name_H-M   'P 1'
_cell_length_a   9.10882704
_cell_length_b   9.10882641
_cell_length_c   9.10887560
_cell_angle_alpha   126.09064140
_cell_angle_beta   126.09064235
_cell_angle_gamma   79.73882858
_symmetry_Int_Tables_number   1
_chemical_formula_structural   Er5Pb3N
_chemical_formula_sum   'Er10 Pb6 N2'
_cell_volume   476.73390737
_cell_formula_units_Z   2
loop_
 _symmetry_equiv_pos_site_id
 _symmetry_equiv_pos_as_xyz
  1  'x, y, z'
loop_
 _atom_site_type_symbol
 _atom_site_label
 _atom_site_symmetry_multiplicity
 _atom_site_fract_x
 _atom_site_fract_y
 _atom_site_fract_z
 _atom_site_occupancy
  Er  Er0  1  0.994508  0.202462  0.500000  1
  Er  Er1  1  0.797540  0.297540  0.792056  1
  Er  Er2  1  0.494512  0.994512  0.792048  1
  Er  Er3  1  0.505488  0.005488  0.207952  1
  Er  Er4  1  0.005492  0.797538  0.500000  1
  Er  Er5  1  0.500000  0.500000  0.000000  1
  Er  Er6  1  0.202460  0.702460  0.207944  1
  Er  Er7  1  0.702462  0.494508  0.500000  1
  Er  Er8  1  0.297538  0.505492  0.500000  1
  Er  Er9  1  0.000000  0.000000  0.000000  1
  Pb  Pb10  1  0.848974  0.348974  0.197951  1
  Pb  Pb11  1  0.151026  0.651026  0.802049  1
  Pb  Pb12  1  0.348975  0.151025  0.500000  1
  Pb  Pb13  1  0.750002  0.749998  0.000000  1
  Pb  Pb14  1  0.651025  0.848975  0.500000  1
  Pb  Pb15  1  0.249998  0.250002  0.000000  1
  N  N16  1  0.750003  0.250003  0.500000  1
  N  N17  1  0.249997  0.749997  0.500000  1
