# generated using pymatgen
data_Ho4CuNiPt2
_symmetry_space_group_name_H-M   'P 1'
_cell_length_a   4.41984200
_cell_length_b   5.48521934
_cell_length_c   6.99532264
_cell_angle_alpha   90.10999281
_cell_angle_beta   90.00000000
_cell_angle_gamma   90.00000000
_symmetry_Int_Tables_number   1
_chemical_formula_structural   Ho4CuNiPt2
_chemical_formula_sum   'Ho4 Cu1 Ni1 Pt2'
_cell_volume   169.59291029
_cell_formula_units_Z   1
loop_
 _symmetry_equiv_pos_site_id
 _symmetry_equiv_pos_as_xyz
  1  'x, y, z'
loop_
 _atom_site_type_symbol
 _atom_site_label
 _atom_site_symmetry_multiplicity
 _atom_site_fract_x
 _atom_site_fract_y
 _atom_site_fract_z
 _atom_site_occupancy
  Ho  Ho0  1  0.000000  0.114402  0.673366  1
  Ho  Ho1  1  0.000000  0.883031  0.189718  1
  Ho  Ho2  1  0.500000  0.387554  0.322598  1
  Ho  Ho3  1  0.500000  0.612810  0.817606  1
  Cu  Cu4  1  0.500000  0.110598  0.960931  1
  Ni  Ni5  1  0.500000  0.896629  0.459427  1
  Pt  Pt6  1  0.000000  0.612797  0.540520  1
  Pt  Pt7  1  0.000000  0.382180  0.035835  1
