# generated using pymatgen
data_Lu2Nb3Sn(B2Ru5)2
_symmetry_space_group_name_H-M   'P 1'
_cell_length_a   9.49950916
_cell_length_b   9.58392095
_cell_length_c   3.09372400
_cell_angle_alpha   90.00000000
_cell_angle_beta   90.00000000
_cell_angle_gamma   90.81383147
_symmetry_Int_Tables_number   1
_chemical_formula_structural   Lu2Nb3Sn(B2Ru5)2
_chemical_formula_sum   'Lu2 Nb3 Sn1 B4 Ru10'
_cell_volume   281.63209341
_cell_formula_units_Z   1
loop_
 _symmetry_equiv_pos_site_id
 _symmetry_equiv_pos_as_xyz
  1  'x, y, z'
loop_
 _atom_site_type_symbol
 _atom_site_label
 _atom_site_symmetry_multiplicity
 _atom_site_fract_x
 _atom_site_fract_y
 _atom_site_fract_z
 _atom_site_occupancy
  Lu  Lu0  1  0.821850  0.673684  0.000000  1
  Lu  Lu1  1  0.178150  0.326316  0.000000  1
  Nb  Nb2  1  0.322225  0.826665  0.000000  1
  Nb  Nb3  1  0.677775  0.173335  0.000000  1
  Nb  Nb4  1  0.000000  0.000000  0.000000  1
  Sn  Sn5  1  0.500000  0.500000  0.000000  1
  B  B6  1  0.619994  0.878521  0.000000  1
  B  B7  1  0.380006  0.121479  0.000000  1
  B  B8  1  0.120327  0.621707  0.000000  1
  B  B9  1  0.879673  0.378293  0.000000  1
  Ru  Ru10  1  0.558377  0.727684  0.500000  1
  Ru  Ru11  1  0.441623  0.272316  0.500000  1
  Ru  Ru12  1  0.077150  0.785665  0.500000  1
  Ru  Ru13  1  0.922850  0.214335  0.500000  1
  Ru  Ru14  1  0.282100  0.588792  0.500000  1
  Ru  Ru15  1  0.717900  0.411208  0.500000  1
  Ru  Ru16  1  0.221796  0.061938  0.500000  1
  Ru  Ru17  1  0.778204  0.938062  0.500000  1
  Ru  Ru18  1  0.500000  0.000000  0.500000  1
  Ru  Ru19  1  0.000000  0.500000  0.500000  1
