# generated using pymatgen
data_Y9Lu7(AlCo)4
_symmetry_space_group_name_H-M   'P 1'
_cell_length_a   9.36322484
_cell_length_b   9.37738686
_cell_length_c   9.37703592
_cell_angle_alpha   59.90135220
_cell_angle_beta   59.94748894
_cell_angle_gamma   60.04746347
_symmetry_Int_Tables_number   1
_chemical_formula_structural   Y9Lu7(AlCo)4
_chemical_formula_sum   'Y9 Lu7 Al4 Co4'
_cell_volume   581.72246293
_cell_formula_units_Z   1
loop_
 _symmetry_equiv_pos_site_id
 _symmetry_equiv_pos_as_xyz
  1  'x, y, z'
loop_
 _atom_site_type_symbol
 _atom_site_label
 _atom_site_symmetry_multiplicity
 _atom_site_fract_x
 _atom_site_fract_y
 _atom_site_fract_z
 _atom_site_occupancy
  Y  Y0  1  0.806893  0.193107  0.806893  1
  Y  Y1  1  0.192551  0.190880  0.808856  1
  Y  Y2  1  0.808856  0.807713  0.192551  1
  Y  Y3  1  0.940114  0.561790  0.559297  1
  Y  Y4  1  0.559297  0.938799  0.940114  1
  Y  Y5  1  0.559319  0.940681  0.559319  1
  Y  Y6  1  0.938814  0.561186  0.938814  1
  Y  Y7  1  0.558630  0.561485  0.940617  1
  Y  Y8  1  0.940617  0.939268  0.558630  1
  Lu  Lu9  1  0.348373  0.350074  0.347778  1
  Lu  Lu10  1  0.346569  0.348774  0.956560  1
  Lu  Lu11  1  0.347778  0.953776  0.348373  1
  Lu  Lu12  1  0.956560  0.348098  0.346569  1
  Lu  Lu13  1  0.806286  0.193427  0.194913  1
  Lu  Lu14  1  0.194913  0.805374  0.806286  1
  Lu  Lu15  1  0.192913  0.807087  0.192913  1
  Al  Al16  1  0.577169  0.577215  0.577108  1
  Al  Al17  1  0.577250  0.577180  0.268523  1
  Al  Al18  1  0.577108  0.268508  0.577169  1
  Al  Al19  1  0.268523  0.577046  0.577250  1
  Co  Co20  1  0.138652  0.138880  0.144724  1
  Co  Co21  1  0.143708  0.137972  0.574384  1
  Co  Co22  1  0.144724  0.577744  0.138652  1
  Co  Co23  1  0.574384  0.143937  0.143708  1
