# generated using pymatgen
data_Tb3Dy7(Sn3P)2
_symmetry_space_group_name_H-M   'P 1'
_cell_length_a   9.09565300
_cell_length_b   9.09565313
_cell_length_c   6.70741700
_cell_angle_alpha   90.00000000
_cell_angle_beta   90.00000000
_cell_angle_gamma   119.99999589
_symmetry_Int_Tables_number   1
_chemical_formula_structural   Tb3Dy7(Sn3P)2
_chemical_formula_sum   'Tb3 Dy7 Sn6 P2'
_cell_volume   480.56676251
_cell_formula_units_Z   1
loop_
 _symmetry_equiv_pos_site_id
 _symmetry_equiv_pos_as_xyz
  1  'x, y, z'
loop_
 _atom_site_type_symbol
 _atom_site_label
 _atom_site_symmetry_multiplicity
 _atom_site_fract_x
 _atom_site_fract_y
 _atom_site_fract_z
 _atom_site_occupancy
  Tb  Tb0  1  0.758293  0.758293  0.750000  1
  Tb  Tb1  1  0.241707  0.000000  0.750000  1
  Tb  Tb2  1  0.000000  0.241707  0.750000  1
  Dy  Dy3  1  0.666667  0.333333  0.000074  1
  Dy  Dy4  1  0.333333  0.666667  0.000074  1
  Dy  Dy5  1  0.333333  0.666667  0.499926  1
  Dy  Dy6  1  0.666667  0.333333  0.499926  1
  Dy  Dy7  1  0.241267  0.241267  0.250000  1
  Dy  Dy8  1  0.758733  0.000000  0.250000  1
  Dy  Dy9  1  0.000000  0.758733  0.250000  1
  Sn  Sn10  1  0.398829  0.398829  0.750000  1
  Sn  Sn11  1  0.601171  0.000000  0.750000  1
  Sn  Sn12  1  0.000000  0.601171  0.750000  1
  Sn  Sn13  1  0.601365  0.601365  0.250000  1
  Sn  Sn14  1  0.398635  0.000000  0.250000  1
  Sn  Sn15  1  0.000000  0.398635  0.250000  1
  P  P16  1  0.000000  0.000000  0.000791  1
  P  P17  1  0.000000  0.000000  0.499209  1
