# generated using pymatgen
data_V(TcPt3)2
_symmetry_space_group_name_H-M   'P 1'
_cell_length_a   6.30081361
_cell_length_b   6.30081166
_cell_length_c   6.14087987
_cell_angle_alpha   95.58824579
_cell_angle_beta   95.58824733
_cell_angle_gamma   144.11408452
_symmetry_Int_Tables_number   1
_chemical_formula_structural   V(TcPt3)2
_chemical_formula_sum   'V1 Tc2 Pt6'
_cell_volume   135.57871983
_cell_formula_units_Z   1
loop_
 _symmetry_equiv_pos_site_id
 _symmetry_equiv_pos_as_xyz
  1  'x, y, z'
loop_
 _atom_site_type_symbol
 _atom_site_label
 _atom_site_symmetry_multiplicity
 _atom_site_fract_x
 _atom_site_fract_y
 _atom_site_fract_z
 _atom_site_occupancy
  V  V0  1  0.000000  0.000000  0.000000  1
  Tc  Tc1  1  0.329616  0.329616  0.659233  1
  Tc  Tc2  1  0.670384  0.670384  0.340767  1
  Pt  Pt3  1  0.655645  0.344355  0.000000  1
  Pt  Pt4  1  0.344355  0.655645  0.000000  1
  Pt  Pt5  1  0.004932  0.323798  0.328730  1
  Pt  Pt6  1  0.995068  0.676202  0.671270  1
  Pt  Pt7  1  0.676202  0.995068  0.671270  1
  Pt  Pt8  1  0.323798  0.004932  0.328730  1
