# generated using pymatgen
data_Tb3Dy3Ni2
_symmetry_space_group_name_H-M   'P 1'
_cell_length_a   6.83965301
_cell_length_b   9.57861000
_cell_length_c   6.32942901
_cell_angle_alpha   89.99998497
_cell_angle_beta   89.99276090
_cell_angle_gamma   90.00000598
_symmetry_Int_Tables_number   1
_chemical_formula_structural   Tb3Dy3Ni2
_chemical_formula_sum   'Tb6 Dy6 Ni4'
_cell_volume   414.66854302
_cell_formula_units_Z   2
loop_
 _symmetry_equiv_pos_site_id
 _symmetry_equiv_pos_as_xyz
  1  'x, y, z'
loop_
 _atom_site_type_symbol
 _atom_site_label
 _atom_site_symmetry_multiplicity
 _atom_site_fract_x
 _atom_site_fract_y
 _atom_site_fract_z
 _atom_site_occupancy
  Tb  Tb0  1  0.034329  0.250000  0.140893  1
  Tb  Tb1  1  0.534079  0.250000  0.359261  1
  Tb  Tb2  1  0.465554  0.750000  0.640707  1
  Tb  Tb3  1  0.678587  0.065776  0.823838  1
  Tb  Tb4  1  0.678587  0.434224  0.823838  1
  Tb  Tb5  1  0.965723  0.750000  0.859345  1
  Dy  Dy6  1  0.321441  0.566164  0.176165  1
  Dy  Dy7  1  0.321441  0.933836  0.176165  1
  Dy  Dy8  1  0.821544  0.566215  0.323984  1
  Dy  Dy9  1  0.821544  0.933785  0.323984  1
  Dy  Dy10  1  0.178586  0.066065  0.676011  1
  Dy  Dy11  1  0.178586  0.433935  0.676011  1
  Ni  Ni12  1  0.609792  0.750000  0.058388  1
  Ni  Ni13  1  0.109783  0.750000  0.441676  1
  Ni  Ni14  1  0.890516  0.250000  0.557998  1
  Ni  Ni15  1  0.389910  0.250000  0.941738  1
