# generated using pymatgen
data_AcEr2Rh9
_symmetry_space_group_name_H-M   'P 1'
_cell_length_a   5.28388600
_cell_length_b   5.28388506
_cell_length_c   17.57898000
_cell_angle_alpha   90.00000000
_cell_angle_beta   90.00000000
_cell_angle_gamma   119.99999336
_symmetry_Int_Tables_number   1
_chemical_formula_structural   AcEr2Rh9
_chemical_formula_sum   'Ac2 Er4 Rh18'
_cell_volume   425.04130263
_cell_formula_units_Z   2
loop_
 _symmetry_equiv_pos_site_id
 _symmetry_equiv_pos_as_xyz
  1  'x, y, z'
loop_
 _atom_site_type_symbol
 _atom_site_label
 _atom_site_symmetry_multiplicity
 _atom_site_fract_x
 _atom_site_fract_y
 _atom_site_fract_z
 _atom_site_occupancy
  Ac  Ac0  1  0.333328  0.666667  0.750000  1
  Ac  Ac1  1  0.666672  0.333333  0.250000  1
  Er  Er2  1  0.333330  0.666667  0.540256  1
  Er  Er3  1  0.666670  0.333333  0.040256  1
  Er  Er4  1  0.666670  0.333333  0.459744  1
  Er  Er5  1  0.333330  0.666667  0.959744  1
  Rh  Rh6  1  0.167552  0.335117  0.122720  1
  Rh  Rh7  1  0.832448  0.664883  0.622720  1
  Rh  Rh8  1  0.664878  0.832442  0.122723  1
  Rh  Rh9  1  0.167546  0.832453  0.122711  1
  Rh  Rh10  1  0.832454  0.167547  0.622711  1
  Rh  Rh11  1  0.335122  0.167558  0.622723  1
  Rh  Rh12  1  0.832448  0.664883  0.877280  1
  Rh  Rh13  1  0.832454  0.167547  0.877289  1
  Rh  Rh14  1  0.335122  0.167558  0.877277  1
  Rh  Rh15  1  0.664878  0.832442  0.377277  1
  Rh  Rh16  1  0.167546  0.832453  0.377289  1
  Rh  Rh17  1  0.167552  0.335117  0.377280  1
  Rh  Rh18  1  0.000135  0.999962  0.250000  1
  Rh  Rh19  1  0.999865  0.000038  0.750000  1
  Rh  Rh20  1  0.333180  0.666716  0.250000  1
  Rh  Rh21  1  0.666820  0.333284  0.750000  1
  Rh  Rh22  1  0.000000  0.000000  0.000000  1
  Rh  Rh23  1  0.000000  0.000000  0.500000  1
