# generated using pymatgen
data_Te19W
_symmetry_space_group_name_H-M   'P 1'
_cell_length_a   9.39478452
_cell_length_b   9.39478441
_cell_length_c   9.39478300
_cell_angle_alpha   85.50936766
_cell_angle_beta   85.50937383
_cell_angle_gamma   85.50937457
_symmetry_Int_Tables_number   1
_chemical_formula_structural   Te19W
_chemical_formula_sum   'Te19 W1'
_cell_volume   821.94348416
_cell_formula_units_Z   1
loop_
 _symmetry_equiv_pos_site_id
 _symmetry_equiv_pos_as_xyz
  1  'x, y, z'
loop_
 _atom_site_type_symbol
 _atom_site_label
 _atom_site_symmetry_multiplicity
 _atom_site_fract_x
 _atom_site_fract_y
 _atom_site_fract_z
 _atom_site_occupancy
  Te  Te0  1  0.111774  0.922750  0.254083  1
  Te  Te1  1  0.254083  0.111774  0.922750  1
  Te  Te2  1  0.922750  0.254083  0.111774  1
  Te  Te3  1  0.888226  0.077250  0.745917  1
  Te  Te4  1  0.745917  0.888226  0.077250  1
  Te  Te5  1  0.077250  0.745917  0.888226  1
  Te  Te6  1  0.500000  0.500000  0.500000  1
  Te  Te7  1  0.164124  0.628336  0.231503  1
  Te  Te8  1  0.231503  0.164124  0.628336  1
  Te  Te9  1  0.628336  0.231503  0.164124  1
  Te  Te10  1  0.835876  0.371664  0.768497  1
  Te  Te11  1  0.768497  0.835876  0.371664  1
  Te  Te12  1  0.371664  0.768497  0.835876  1
  Te  Te13  1  0.511633  0.164328  0.518886  1
  Te  Te14  1  0.518886  0.511633  0.164328  1
  Te  Te15  1  0.164328  0.518886  0.511633  1
  Te  Te16  1  0.488367  0.835672  0.481114  1
  Te  Te17  1  0.481114  0.488367  0.835672  1
  Te  Te18  1  0.835672  0.481114  0.488367  1
  W  W19  1  0.000000  0.000000  0.000000  1
