# generated using pymatgen
data_LaThSiPt8
_symmetry_space_group_name_H-M   'P 1'
_cell_length_a   4.31811400
_cell_length_b   9.27199220
_cell_length_c   9.23833039
_cell_angle_alpha   145.59002702
_cell_angle_beta   90.00000000
_cell_angle_gamma   90.00000000
_symmetry_Int_Tables_number   1
_chemical_formula_structural   LaThSiPt8
_chemical_formula_sum   'La1 Th1 Si1 Pt8'
_cell_volume   209.02301907
_cell_formula_units_Z   1
loop_
 _symmetry_equiv_pos_site_id
 _symmetry_equiv_pos_as_xyz
  1  'x, y, z'
loop_
 _atom_site_type_symbol
 _atom_site_label
 _atom_site_symmetry_multiplicity
 _atom_site_fract_x
 _atom_site_fract_y
 _atom_site_fract_z
 _atom_site_occupancy
  La  La0  1  0.500000  0.373060  0.617901  1
  Th  Th1  1  0.500000  0.621081  0.371939  1
  Si  Si2  1  0.000000  0.223369  0.225610  1
  Pt  Pt3  1  0.000000  0.882084  0.104420  1
  Pt  Pt4  1  0.500000  0.790133  0.193476  1
  Pt  Pt5  1  0.000000  0.983129  0.489687  1
  Pt  Pt6  1  0.000000  0.643852  0.635063  1
  Pt  Pt7  1  0.500000  0.192598  0.792023  1
  Pt  Pt8  1  0.000000  0.111499  0.889804  1
  Pt  Pt9  1  0.000000  0.489648  0.992756  1
  Pt  Pt10  1  0.500000  0.003131  0.000904  1
