# generated using pymatgen
data_Sr4Zn5Pt9
_symmetry_space_group_name_H-M   'P 1'
_cell_length_a   12.91734263
_cell_length_b   12.91734287
_cell_length_c   12.91734428
_cell_angle_alpha   25.31177860
_cell_angle_beta   25.31177571
_cell_angle_gamma   25.31177594
_symmetry_Int_Tables_number   1
_chemical_formula_structural   Sr4Zn5Pt9
_chemical_formula_sum   'Sr4 Zn5 Pt9'
_cell_volume   346.74689902
_cell_formula_units_Z   1
loop_
 _symmetry_equiv_pos_site_id
 _symmetry_equiv_pos_as_xyz
  1  'x, y, z'
loop_
 _atom_site_type_symbol
 _atom_site_label
 _atom_site_symmetry_multiplicity
 _atom_site_fract_x
 _atom_site_fract_y
 _atom_site_fract_z
 _atom_site_occupancy
  Sr  Sr0  1  0.949793  0.949793  0.949793  1
  Sr  Sr1  1  0.050207  0.050207  0.050207  1
  Sr  Sr2  1  0.852549  0.852549  0.852549  1
  Sr  Sr3  1  0.147451  0.147451  0.147451  1
  Zn  Zn4  1  0.500000  0.500000  0.500000  1
  Zn  Zn5  1  0.721545  0.721545  0.721545  1
  Zn  Zn6  1  0.278455  0.278455  0.278455  1
  Zn  Zn7  1  0.612055  0.612055  0.612055  1
  Zn  Zn8  1  0.387945  0.387945  0.387945  1
  Pt  Pt9  1  0.500000  0.500000  0.000000  1
  Pt  Pt10  1  0.000000  0.500000  0.500000  1
  Pt  Pt11  1  0.500000  0.000000  0.500000  1
  Pt  Pt12  1  0.390181  0.892178  0.390181  1
  Pt  Pt13  1  0.390181  0.390181  0.892178  1
  Pt  Pt14  1  0.892178  0.390181  0.390181  1
  Pt  Pt15  1  0.609819  0.107822  0.609819  1
  Pt  Pt16  1  0.609819  0.609819  0.107822  1
  Pt  Pt17  1  0.107822  0.609819  0.609819  1
