# generated using pymatgen
data_Zr6Al16Co2NiPt4
_symmetry_space_group_name_H-M   'P 1'
_cell_length_a   8.68236678
_cell_length_b   8.66800906
_cell_length_c   8.66687119
_cell_angle_alpha   60.26733165
_cell_angle_beta   59.98087900
_cell_angle_gamma   59.93458161
_symmetry_Int_Tables_number   1
_chemical_formula_structural   Zr6Al16Co2NiPt4
_chemical_formula_sum   'Zr6 Al16 Co2 Ni1 Pt4'
_cell_volume   461.84425414
_cell_formula_units_Z   1
loop_
 _symmetry_equiv_pos_site_id
 _symmetry_equiv_pos_as_xyz
  1  'x, y, z'
loop_
 _atom_site_type_symbol
 _atom_site_label
 _atom_site_symmetry_multiplicity
 _atom_site_fract_x
 _atom_site_fract_y
 _atom_site_fract_z
 _atom_site_occupancy
  Zr  Zr0  1  0.685726  0.312943  0.314553  1
  Zr  Zr1  1  0.690222  0.309965  0.689760  1
  Zr  Zr2  1  0.688232  0.689583  0.311953  1
  Zr  Zr3  1  0.314274  0.687057  0.685447  1
  Zr  Zr4  1  0.309778  0.690035  0.310240  1
  Zr  Zr5  1  0.311768  0.310417  0.688047  1
  Al  Al6  1  0.648707  0.113794  0.126927  1
  Al  Al7  1  0.115391  0.650267  0.122700  1
  Al  Al8  1  0.123032  0.116752  0.649090  1
  Al  Al9  1  0.115974  0.115369  0.118292  1
  Al  Al10  1  0.351293  0.886206  0.873073  1
  Al  Al11  1  0.884609  0.349733  0.877300  1
  Al  Al12  1  0.876968  0.883248  0.350910  1
  Al  Al13  1  0.884026  0.884631  0.881708  1
  Al  Al14  1  0.997075  0.338814  0.339456  1
  Al  Al15  1  0.339825  0.996622  0.339986  1
  Al  Al16  1  0.334794  0.334425  0.996575  1
  Al  Al17  1  0.331389  0.328743  0.343263  1
  Al  Al18  1  0.002925  0.661186  0.660544  1
  Al  Al19  1  0.660175  0.003378  0.660014  1
  Al  Al20  1  0.665206  0.665575  0.003425  1
  Al  Al21  1  0.668611  0.671257  0.656737  1
  Co  Co22  1  0.000000  0.000000  0.000000  1
  Co  Co23  1  0.500000  0.000000  0.500000  1
  Ni  Ni24  1  0.000000  0.500000  0.500000  1
  Pt  Pt25  1  0.500000  0.000000  0.000000  1
  Pt  Pt26  1  0.500000  0.500000  0.000000  1
  Pt  Pt27  1  0.000000  0.500000  0.000000  1
  Pt  Pt28  1  0.000000  0.000000  0.500000  1
