# generated using pymatgen
data_Hf18TiCr(Re3P)2
_symmetry_space_group_name_H-M   'P 1'
_cell_length_a   8.57270400
_cell_length_b   8.57270448
_cell_length_c   8.51668300
_cell_angle_alpha   90.00000000
_cell_angle_beta   90.00000000
_cell_angle_gamma   119.99999814
_symmetry_Int_Tables_number   1
_chemical_formula_structural   Hf18TiCr(Re3P)2
_chemical_formula_sum   'Hf18 Ti1 Cr1 Re6 P2'
_cell_volume   542.04682395
_cell_formula_units_Z   1
loop_
 _symmetry_equiv_pos_site_id
 _symmetry_equiv_pos_as_xyz
  1  'x, y, z'
loop_
 _atom_site_type_symbol
 _atom_site_label
 _atom_site_symmetry_multiplicity
 _atom_site_fract_x
 _atom_site_fract_y
 _atom_site_fract_z
 _atom_site_occupancy
  Hf  Hf0  1  0.196540  0.803460  0.451137  1
  Hf  Hf1  1  0.196540  0.393078  0.451137  1
  Hf  Hf2  1  0.606922  0.803460  0.451137  1
  Hf  Hf3  1  0.803460  0.196540  0.548863  1
  Hf  Hf4  1  0.803460  0.606922  0.548863  1
  Hf  Hf5  1  0.393078  0.196540  0.548863  1
  Hf  Hf6  1  0.805993  0.194007  0.949599  1
  Hf  Hf7  1  0.805993  0.611989  0.949599  1
  Hf  Hf8  1  0.388011  0.194007  0.949599  1
  Hf  Hf9  1  0.194007  0.805993  0.050401  1
  Hf  Hf10  1  0.194007  0.388011  0.050401  1
  Hf  Hf11  1  0.611989  0.805993  0.050401  1
  Hf  Hf12  1  0.540081  0.459919  0.248073  1
  Hf  Hf13  1  0.540081  0.080162  0.248073  1
  Hf  Hf14  1  0.919838  0.459919  0.248073  1
  Hf  Hf15  1  0.459919  0.540081  0.751927  1
  Hf  Hf16  1  0.459919  0.919838  0.751927  1
  Hf  Hf17  1  0.080162  0.540081  0.751927  1
  Ti  Ti18  1  0.000000  0.000000  0.500000  1
  Cr  Cr19  1  0.000000  0.000000  0.000000  1
  Re  Re20  1  0.891127  0.108873  0.248224  1
  Re  Re21  1  0.891127  0.782254  0.248224  1
  Re  Re22  1  0.217746  0.108873  0.248224  1
  Re  Re23  1  0.108873  0.891127  0.751776  1
  Re  Re24  1  0.108873  0.217746  0.751776  1
  Re  Re25  1  0.782254  0.891127  0.751776  1
  P  P26  1  0.333333  0.666667  0.248302  1
  P  P27  1  0.666667  0.333333  0.751698  1
