# generated using pymatgen
data_Dy6Ho4InSb5
_symmetry_space_group_name_H-M   'P 1'
_cell_length_a   6.38037700
_cell_length_b   8.98349227
_cell_length_c   8.97239865
_cell_angle_alpha   120.04092327
_cell_angle_beta   90.00001796
_cell_angle_gamma   89.99997188
_symmetry_Int_Tables_number   1
_chemical_formula_structural   Dy6Ho4InSb5
_chemical_formula_sum   'Dy6 Ho4 In1 Sb5'
_cell_volume   445.19624729
_cell_formula_units_Z   1
loop_
 _symmetry_equiv_pos_site_id
 _symmetry_equiv_pos_as_xyz
  1  'x, y, z'
loop_
 _atom_site_type_symbol
 _atom_site_label
 _atom_site_symmetry_multiplicity
 _atom_site_fract_x
 _atom_site_fract_y
 _atom_site_fract_z
 _atom_site_occupancy
  Dy  Dy0  1  0.750001  0.244312  0.000000  1
  Dy  Dy1  1  0.750001  0.754175  0.757469  1
  Dy  Dy2  1  0.750001  0.996707  0.242531  1
  Dy  Dy3  1  0.249999  0.756715  0.000000  1
  Dy  Dy4  1  0.250001  0.246309  0.244760  1
  Dy  Dy5  1  0.250001  0.001549  0.755240  1
  Ho  Ho6  1  0.498997  0.334959  0.668828  1
  Ho  Ho7  1  0.498997  0.666131  0.331172  1
  Ho  Ho8  1  0.001002  0.666132  0.331172  1
  Ho  Ho9  1  0.001002  0.334960  0.668828  1
  In  In10  1  0.749999  0.606045  0.000000  1
  Sb  Sb11  1  0.750001  0.389258  0.390033  1
  Sb  Sb12  1  0.750001  0.999225  0.609967  1
  Sb  Sb13  1  0.250000  0.391059  0.000000  1
  Sb  Sb14  1  0.250000  0.611191  0.609920  1
  Sb  Sb15  1  0.250000  0.001272  0.390080  1
