# generated using pymatgen
data_Ti10Si5PO2
_symmetry_space_group_name_H-M   'P 1'
_cell_length_a   7.39677500
_cell_length_b   7.40533455
_cell_length_c   5.14790900
_cell_angle_alpha   90.00000000
_cell_angle_beta   90.00000000
_cell_angle_gamma   119.96178515
_symmetry_Int_Tables_number   1
_chemical_formula_structural   Ti10Si5PO2
_chemical_formula_sum   'Ti10 Si5 P1 O2'
_cell_volume   244.29562694
_cell_formula_units_Z   1
loop_
 _symmetry_equiv_pos_site_id
 _symmetry_equiv_pos_as_xyz
  1  'x, y, z'
loop_
 _atom_site_type_symbol
 _atom_site_label
 _atom_site_symmetry_multiplicity
 _atom_site_fract_x
 _atom_site_fract_y
 _atom_site_fract_z
 _atom_site_occupancy
  Ti  Ti0  1  0.239530  0.000000  0.750000  1
  Ti  Ti1  1  0.761833  0.000000  0.250000  1
  Ti  Ti2  1  0.998664  0.236914  0.750000  1
  Ti  Ti3  1  0.999485  0.762427  0.250000  1
  Ti  Ti4  1  0.761751  0.763086  0.750000  1
  Ti  Ti5  1  0.237058  0.237573  0.250000  1
  Ti  Ti6  1  0.337119  0.671452  0.500474  1
  Ti  Ti7  1  0.665668  0.328548  0.500474  1
  Ti  Ti8  1  0.665668  0.328548  0.999526  1
  Ti  Ti9  1  0.337119  0.671452  0.999526  1
  Si  Si10  1  0.402970  0.000000  0.250000  1
  Si  Si11  1  0.999773  0.592421  0.750000  1
  Si  Si12  1  0.001627  0.408521  0.250000  1
  Si  Si13  1  0.407353  0.407579  0.750000  1
  Si  Si14  1  0.593106  0.591479  0.250000  1
  P  P15  1  0.594830  0.000000  0.750000  1
  O  O16  1  0.998223  0.000000  0.500568  1
  O  O17  1  0.998223  0.000000  0.999432  1
