# generated using pymatgen
data_Ac2Lu3Sn4
_symmetry_space_group_name_H-M   'P 1'
_cell_length_a   8.24997400
_cell_length_b   8.37222300
_cell_length_c   15.77814400
_cell_angle_alpha   90.00000000
_cell_angle_beta   90.00000000
_cell_angle_gamma   90.00000000
_symmetry_Int_Tables_number   1
_chemical_formula_structural   Ac2Lu3Sn4
_chemical_formula_sum   'Ac8 Lu12 Sn16'
_cell_volume   1089.80622122
_cell_formula_units_Z   4
loop_
 _symmetry_equiv_pos_site_id
 _symmetry_equiv_pos_as_xyz
  1  'x, y, z'
loop_
 _atom_site_type_symbol
 _atom_site_label
 _atom_site_symmetry_multiplicity
 _atom_site_fract_x
 _atom_site_fract_y
 _atom_site_fract_z
 _atom_site_occupancy
  Ac  Ac0  1  0.510692  0.325043  0.904750  1
  Ac  Ac1  1  0.010692  0.174957  0.595250  1
  Ac  Ac2  1  0.489308  0.674957  0.404750  1
  Ac  Ac3  1  0.989308  0.825043  0.095250  1
  Ac  Ac4  1  0.489308  0.674957  0.095250  1
  Ac  Ac5  1  0.989308  0.825043  0.404750  1
  Ac  Ac6  1  0.510692  0.325043  0.595250  1
  Ac  Ac7  1  0.010692  0.174957  0.904750  1
  Lu  Lu8  1  0.349726  0.836311  0.874376  1
  Lu  Lu9  1  0.849726  0.663689  0.625624  1
  Lu  Lu10  1  0.650274  0.163689  0.374376  1
  Lu  Lu11  1  0.150274  0.336311  0.125624  1
  Lu  Lu12  1  0.650274  0.163689  0.125624  1
  Lu  Lu13  1  0.150274  0.336311  0.374376  1
  Lu  Lu14  1  0.349726  0.836311  0.625624  1
  Lu  Lu15  1  0.849726  0.663689  0.874376  1
  Lu  Lu16  1  0.181431  0.505752  0.750000  1
  Lu  Lu17  1  0.681431  0.994248  0.750000  1
  Lu  Lu18  1  0.818569  0.494248  0.250000  1
  Lu  Lu19  1  0.318569  0.005752  0.250000  1
  Sn  Sn20  1  0.316774  0.044373  0.043439  1
  Sn  Sn21  1  0.816774  0.455627  0.456561  1
  Sn  Sn22  1  0.683226  0.955627  0.543439  1
  Sn  Sn23  1  0.183226  0.544373  0.956561  1
  Sn  Sn24  1  0.683226  0.955627  0.956561  1
  Sn  Sn25  1  0.183226  0.544373  0.543439  1
  Sn  Sn26  1  0.316774  0.044373  0.456561  1
  Sn  Sn27  1  0.816774  0.455627  0.043439  1
  Sn  Sn28  1  0.545831  0.631085  0.750000  1
  Sn  Sn29  1  0.045831  0.868915  0.750000  1
  Sn  Sn30  1  0.454169  0.368915  0.250000  1
  Sn  Sn31  1  0.954169  0.131085  0.250000  1
  Sn  Sn32  1  0.317367  0.139220  0.750000  1
  Sn  Sn33  1  0.817367  0.360780  0.750000  1
  Sn  Sn34  1  0.682633  0.860780  0.250000  1
  Sn  Sn35  1  0.182633  0.639220  0.250000  1
