# generated using pymatgen
data_Ca2AcPaN4
_symmetry_space_group_name_H-M   'P 1'
_cell_length_a   6.49588911
_cell_length_b   6.49186284
_cell_length_c   5.02589659
_cell_angle_alpha   67.18215450
_cell_angle_beta   67.19146117
_cell_angle_gamma   45.53241624
_symmetry_Int_Tables_number   1
_chemical_formula_structural   Ca2AcPaN4
_chemical_formula_sum   'Ca2 Ac1 Pa1 N4'
_cell_volume   137.23187526
_cell_formula_units_Z   1
loop_
 _symmetry_equiv_pos_site_id
 _symmetry_equiv_pos_as_xyz
  1  'x, y, z'
loop_
 _atom_site_type_symbol
 _atom_site_label
 _atom_site_symmetry_multiplicity
 _atom_site_fract_x
 _atom_site_fract_y
 _atom_site_fract_z
 _atom_site_occupancy
  Ca  Ca0  1  0.247693  0.252307  0.252307  1
  Ca  Ca1  1  0.498160  0.501840  0.501840  1
  Ac  Ac2  1  0.748096  0.751904  0.751904  1
  Pa  Pa3  1  0.000167  0.999833  0.999833  1
  N  N4  1  0.998166  0.003698  0.509252  1
  N  N5  1  0.200076  0.203525  0.801707  1
  N  N6  1  0.488884  0.509252  0.003698  1
  N  N7  1  0.794692  0.801707  0.203525  1
