# generated using pymatgen
data_Al3V9GaTc3
_symmetry_space_group_name_H-M   'P 1'
_cell_length_a   4.77978400
_cell_length_b   4.79093657
_cell_length_c   9.66381504
_cell_angle_alpha   89.95866208
_cell_angle_beta   90.00000000
_cell_angle_gamma   90.00000000
_symmetry_Int_Tables_number   1
_chemical_formula_structural   Al3V9GaTc3
_chemical_formula_sum   'Al3 V9 Ga1 Tc3'
_cell_volume   221.29784660
_cell_formula_units_Z   1
loop_
 _symmetry_equiv_pos_site_id
 _symmetry_equiv_pos_as_xyz
  1  'x, y, z'
loop_
 _atom_site_type_symbol
 _atom_site_label
 _atom_site_symmetry_multiplicity
 _atom_site_fract_x
 _atom_site_fract_y
 _atom_site_fract_z
 _atom_site_occupancy
  Al  Al0  1  0.500000  0.498001  0.248467  1
  Al  Al1  1  0.500000  0.498062  0.747231  1
  Al  Al2  1  0.000000  0.003571  0.002664  1
  V  V3  1  0.500000  0.750419  0.498409  1
  V  V4  1  0.749584  0.999898  0.252647  1
  V  V5  1  0.747657  0.999983  0.750387  1
  V  V6  1  0.000000  0.503411  0.125035  1
  V  V7  1  0.000000  0.497307  0.627090  1
  V  V8  1  0.500000  0.250851  0.998544  1
  V  V9  1  0.500000  0.246300  0.498506  1
  V  V10  1  0.250416  0.999898  0.252647  1
  V  V11  1  0.252343  0.999983  0.750387  1
  Ga  Ga12  1  0.000000  0.999060  0.502937  1
  Tc  Tc13  1  0.000000  0.499630  0.371680  1
  Tc  Tc14  1  0.000000  0.500274  0.873795  1
  Tc  Tc15  1  0.500000  0.753351  0.999569  1
