# generated using pymatgen
data_Tb3Dy2BeP11Ir19
_symmetry_space_group_name_H-M   'P 1'
_cell_length_a   12.70600237
_cell_length_b   12.67200219
_cell_length_c   3.97321800
_cell_angle_alpha   90.00000000
_cell_angle_beta   90.00000000
_cell_angle_gamma   120.15923997
_symmetry_Int_Tables_number   1
_chemical_formula_structural   Tb3Dy2BeP11Ir19
_chemical_formula_sum   'Tb3 Dy2 Be1 P11 Ir19'
_cell_volume   553.13111115
_cell_formula_units_Z   1
loop_
 _symmetry_equiv_pos_site_id
 _symmetry_equiv_pos_as_xyz
  1  'x, y, z'
loop_
 _atom_site_type_symbol
 _atom_site_label
 _atom_site_symmetry_multiplicity
 _atom_site_fract_x
 _atom_site_fract_y
 _atom_site_fract_z
 _atom_site_occupancy
  Tb  Tb0  1  0.344455  0.667124  0.500000  1
  Tb  Tb1  1  0.998874  0.816447  0.000000  1
  Tb  Tb2  1  0.182961  0.183949  0.000000  1
  Dy  Dy3  1  0.666924  0.333752  0.500000  1
  Dy  Dy4  1  0.810373  0.994437  0.000000  1
  Be  Be5  1  0.520586  0.685054  0.000000  1
  P  P6  1  0.001572  0.643423  0.500000  1
  P  P7  1  0.360437  0.364470  0.500000  1
  P  P8  1  0.638596  0.994578  0.500000  1
  P  P9  1  0.315733  0.828320  0.000000  1
  P  P10  1  0.173565  0.483947  0.000000  1
  P  P11  1  0.482743  0.175009  0.000000  1
  P  P12  1  0.690073  0.517399  0.000000  1
  P  P13  1  0.827836  0.310765  0.000000  1
  P  P14  1  0.995974  0.176241  0.500000  1
  P  P15  1  0.818545  0.818146  0.500000  1
  P  P16  1  0.178688  0.999535  0.500000  1
  Ir  Ir17  1  0.511030  0.870257  0.000000  1
  Ir  Ir18  1  0.133024  0.639091  0.000000  1
  Ir  Ir19  1  0.355586  0.483780  0.000000  1
  Ir  Ir20  1  0.492942  0.365139  0.000000  1
  Ir  Ir21  1  0.869608  0.506904  0.000000  1
  Ir  Ir22  1  0.637414  0.134392  0.000000  1
  Ir  Ir23  1  0.001069  0.462767  0.500000  1
  Ir  Ir24  1  0.535762  0.553110  0.500000  1
  Ir  Ir25  1  0.461334  0.000948  0.500000  1
  Ir  Ir26  1  0.998467  0.284500  0.000000  1
  Ir  Ir27  1  0.713297  0.711753  0.000000  1
  Ir  Ir28  1  0.286545  0.000062  0.000000  1
  Ir  Ir29  1  0.625939  0.804899  0.500000  1
  Ir  Ir30  1  0.197452  0.819273  0.500000  1
  Ir  Ir31  1  0.176141  0.374702  0.500000  1
  Ir  Ir32  1  0.375764  0.182489  0.500000  1
  Ir  Ir33  1  0.805259  0.621583  0.500000  1
  Ir  Ir34  1  0.816060  0.192486  0.500000  1
  Ir  Ir35  1  0.999373  0.999270  0.500000  1
