# generated using pymatgen
data_Y6Si6OsRh3
_symmetry_space_group_name_H-M   'P 1'
_cell_length_a   5.77236670
_cell_length_b   5.77236672
_cell_length_c   13.74092060
_cell_angle_alpha   90.05144281
_cell_angle_beta   89.94855601
_cell_angle_gamma   137.50025690
_symmetry_Int_Tables_number   1
_chemical_formula_structural   Y6Si6OsRh3
_chemical_formula_sum   'Y6 Si6 Os1 Rh3'
_cell_volume   309.31763173
_cell_formula_units_Z   1
loop_
 _symmetry_equiv_pos_site_id
 _symmetry_equiv_pos_as_xyz
  1  'x, y, z'
loop_
 _atom_site_type_symbol
 _atom_site_label
 _atom_site_symmetry_multiplicity
 _atom_site_fract_x
 _atom_site_fract_y
 _atom_site_fract_z
 _atom_site_occupancy
  Y  Y0  1  0.921237  0.078763  0.384672  1
  Y  Y1  1  0.078910  0.921090  0.615540  1
  Y  Y2  1  0.924213  0.075787  0.114736  1
  Y  Y3  1  0.076787  0.923213  0.885890  1
  Y  Y4  1  0.643708  0.356292  0.249747  1
  Y  Y5  1  0.356306  0.643694  0.749136  1
  Si  Si6  1  0.609943  0.390057  0.460671  1
  Si  Si7  1  0.389598  0.610402  0.538909  1
  Si  Si8  1  0.614479  0.385521  0.039338  1
  Si  Si9  1  0.383368  0.616632  0.958983  1
  Si  Si10  1  0.334884  0.665116  0.249496  1
  Si  Si11  1  0.669411  0.330589  0.752859  1
  Os  Os12  1  0.784444  0.215556  0.919279  1
  Rh  Rh13  1  0.214502  0.785498  0.079955  1
  Rh  Rh14  1  0.784010  0.215990  0.578589  1
  Rh  Rh15  1  0.214202  0.785798  0.422201  1
