# generated using pymatgen
data_Dy11Ho9Ni2(Bi4Os)2
_symmetry_space_group_name_H-M   'P 1'
_cell_length_a   7.98068914
_cell_length_b   8.98786500
_cell_length_c   12.41012238
_cell_angle_alpha   90.00000000
_cell_angle_beta   90.63751788
_cell_angle_gamma   90.00000000
_symmetry_Int_Tables_number   1
_chemical_formula_structural   Dy11Ho9Ni2(Bi4Os)2
_chemical_formula_sum   'Dy11 Ho9 Ni2 Bi8 Os2'
_cell_volume   890.11499048
_cell_formula_units_Z   1
loop_
 _symmetry_equiv_pos_site_id
 _symmetry_equiv_pos_as_xyz
  1  'x, y, z'
loop_
 _atom_site_type_symbol
 _atom_site_label
 _atom_site_symmetry_multiplicity
 _atom_site_fract_x
 _atom_site_fract_y
 _atom_site_fract_z
 _atom_site_occupancy
  Dy  Dy0  1  0.835205  0.750000  0.789608  1
  Dy  Dy1  1  0.164729  0.250000  0.210448  1
  Dy  Dy2  1  0.344393  0.250000  0.704539  1
  Dy  Dy3  1  0.655582  0.750000  0.295376  1
  Dy  Dy4  1  0.378011  0.750000  0.696076  1
  Dy  Dy5  1  0.621986  0.250000  0.303938  1
  Dy  Dy6  1  0.880190  0.250000  0.812771  1
  Dy  Dy7  1  0.119835  0.750000  0.187177  1
  Dy  Dy8  1  0.944435  0.750000  0.503635  1
  Dy  Dy9  1  0.055575  0.250000  0.496364  1
  Dy  Dy10  1  0.450047  0.250000  0.999667  1
  Ho  Ho11  1  0.549896  0.750000  0.000353  1
  Ho  Ho12  1  0.675675  0.043050  0.564108  1
  Ho  Ho13  1  0.324349  0.956941  0.435886  1
  Ho  Ho14  1  0.175670  0.959488  0.935285  1
  Ho  Ho15  1  0.324349  0.543059  0.435886  1
  Ho  Ho16  1  0.824384  0.040336  0.064726  1
  Ho  Ho17  1  0.675675  0.456950  0.564108  1
  Ho  Ho18  1  0.824384  0.459664  0.064726  1
  Ho  Ho19  1  0.175670  0.540512  0.935285  1
  Ni  Ni20  1  0.070476  0.250000  0.994596  1
  Ni  Ni21  1  0.929323  0.750000  0.005371  1
  Bi  Bi22  1  0.571254  0.489083  0.829393  1
  Bi  Bi23  1  0.428833  0.511145  0.170628  1
  Bi  Bi24  1  0.067551  0.507593  0.675129  1
  Bi  Bi25  1  0.428833  0.988855  0.170628  1
  Bi  Bi26  1  0.932460  0.492414  0.324875  1
  Bi  Bi27  1  0.571254  0.010917  0.829393  1
  Bi  Bi28  1  0.932460  0.007586  0.324875  1
  Bi  Bi29  1  0.067551  0.992407  0.675129  1
  Os  Os30  1  0.577156  0.750000  0.513705  1
  Os  Os31  1  0.422806  0.250000  0.486316  1
