# generated using pymatgen
data_Er2Mn10Nb2P7
_symmetry_space_group_name_H-M   'P 1'
_cell_length_a   9.49673304
_cell_length_b   9.50375250
_cell_length_c   3.59152100
_cell_angle_alpha   90.00000000
_cell_angle_beta   90.00000000
_cell_angle_gamma   120.18524600
_symmetry_Int_Tables_number   1
_chemical_formula_structural   Er2Mn10Nb2P7
_chemical_formula_sum   'Er2 Mn10 Nb2 P7'
_cell_volume   280.19777235
_cell_formula_units_Z   1
loop_
 _symmetry_equiv_pos_site_id
 _symmetry_equiv_pos_as_xyz
  1  'x, y, z'
loop_
 _atom_site_type_symbol
 _atom_site_label
 _atom_site_symmetry_multiplicity
 _atom_site_fract_x
 _atom_site_fract_y
 _atom_site_fract_z
 _atom_site_occupancy
  Er  Er0  1  0.336938  0.668373  0.000000  1
  Er  Er1  1  0.665654  0.331412  0.500000  1
  Mn  Mn2  1  0.426904  0.048151  0.000000  1
  Mn  Mn3  1  0.167109  0.287886  0.000000  1
  Mn  Mn4  1  0.949794  0.380435  0.000000  1
  Mn  Mn5  1  0.627423  0.580134  0.000000  1
  Mn  Mn6  1  0.115981  0.832745  0.000000  1
  Mn  Mn7  1  0.717910  0.873683  0.000000  1
  Mn  Mn8  1  0.393327  0.441802  0.500000  1
  Mn  Mn9  1  0.043518  0.611979  0.500000  1
  Mn  Mn10  1  0.870760  0.773910  0.500000  1
  Mn  Mn11  1  0.562586  0.950849  0.500000  1
  Nb  Nb12  1  0.222442  0.097965  0.500000  1
  Nb  Nb13  1  0.902844  0.122403  0.500000  1
  P  P14  1  0.992359  0.987984  0.000000  1
  P  P15  1  0.701062  0.117287  0.000000  1
  P  P16  1  0.422590  0.301198  0.000000  1
  P  P17  1  0.874908  0.585041  0.000000  1
  P  P18  1  0.131326  0.424053  0.500000  1
  P  P19  1  0.587070  0.717486  0.500000  1
  P  P20  1  0.287493  0.865227  0.500000  1
