# generated using pymatgen
data_NdGd3(AuCl6)4
_symmetry_space_group_name_H-M   'P 1'
_cell_length_a   8.02640136
_cell_length_b   9.99594258
_cell_length_c   14.18022893
_cell_angle_alpha   104.32051094
_cell_angle_beta   94.50631342
_cell_angle_gamma   112.85242811
_symmetry_Int_Tables_number   1
_chemical_formula_structural   NdGd3(AuCl6)4
_chemical_formula_sum   'Nd1 Gd3 Au4 Cl24'
_cell_volume   996.20569845
_cell_formula_units_Z   1
loop_
 _symmetry_equiv_pos_site_id
 _symmetry_equiv_pos_as_xyz
  1  'x, y, z'
loop_
 _atom_site_type_symbol
 _atom_site_label
 _atom_site_symmetry_multiplicity
 _atom_site_fract_x
 _atom_site_fract_y
 _atom_site_fract_z
 _atom_site_occupancy
  Nd  Nd0  1  0.973786  0.310410  0.869699  1
  Gd  Gd1  1  0.582302  0.929098  0.619136  1
  Gd  Gd2  1  0.027294  0.689213  0.131763  1
  Gd  Gd3  1  0.418135  0.070411  0.378344  1
  Au  Au4  1  0.295158  0.634565  0.761769  1
  Au  Au5  1  0.498747  0.499515  0.499599  1
  Au  Au6  1  0.706381  0.367074  0.238010  1
  Au  Au7  1  0.999173  0.998927  0.001475  1
  Cl  Cl8  1  0.786220  0.097827  0.976453  1
  Cl  Cl9  1  0.716146  0.147880  0.260064  1
  Cl  Cl10  1  0.284561  0.852769  0.738826  1
  Cl  Cl11  1  0.780000  0.796498  0.039131  1
  Cl  Cl12  1  0.625107  0.194492  0.747569  1
  Cl  Cl13  1  0.306656  0.412682  0.780311  1
  Cl  Cl14  1  0.698506  0.590477  0.220758  1
  Cl  Cl15  1  0.316799  0.632219  0.496752  1
  Cl  Cl16  1  0.220445  0.201020  0.963793  1
  Cl  Cl17  1  0.751605  0.726921  0.517795  1
  Cl  Cl18  1  0.209800  0.898260  0.026373  1
  Cl  Cl19  1  0.714273  0.045735  0.475345  1
  Cl  Cl20  1  0.601004  0.736039  0.745030  1
  Cl  Cl21  1  0.936967  0.049796  0.718748  1
  Cl  Cl22  1  0.246035  0.271837  0.480977  1
  Cl  Cl23  1  0.371148  0.803459  0.250842  1
  Cl  Cl24  1  0.986346  0.537469  0.773964  1
  Cl  Cl25  1  0.772671  0.439321  0.985065  1
  Cl  Cl26  1  0.229118  0.567569  0.019748  1
  Cl  Cl27  1  0.014546  0.465327  0.224883  1
  Cl  Cl28  1  0.400287  0.265779  0.254817  1
  Cl  Cl29  1  0.286971  0.954663  0.522324  1
  Cl  Cl30  1  0.681084  0.367249  0.502772  1
  Cl  Cl31  1  0.062730  0.945496  0.277862  1
