# generated using pymatgen
data_Ce4Sn2PdRh3
_symmetry_space_group_name_H-M   'P 1'
_cell_length_a   7.68384933
_cell_length_b   7.68384933
_cell_length_c   3.77209700
_cell_angle_alpha   90.00000000
_cell_angle_beta   90.00000000
_cell_angle_gamma   90.21345420
_symmetry_Int_Tables_number   1
_chemical_formula_structural   Ce4Sn2PdRh3
_chemical_formula_sum   'Ce4 Sn2 Pd1 Rh3'
_cell_volume   222.70887242
_cell_formula_units_Z   1
loop_
 _symmetry_equiv_pos_site_id
 _symmetry_equiv_pos_as_xyz
  1  'x, y, z'
loop_
 _atom_site_type_symbol
 _atom_site_label
 _atom_site_symmetry_multiplicity
 _atom_site_fract_x
 _atom_site_fract_y
 _atom_site_fract_z
 _atom_site_occupancy
  Ce  Ce0  1  0.681828  0.174569  0.500000  1
  Ce  Ce1  1  0.325431  0.818172  0.500000  1
  Ce  Ce2  1  0.166532  0.333468  0.500000  1
  Ce  Ce3  1  0.822547  0.677453  0.500000  1
  Sn  Sn4  1  0.999553  0.000032  0.000000  1
  Sn  Sn5  1  0.499968  0.500447  0.000000  1
  Pd  Pd6  1  0.370444  0.129556  0.000000  1
  Rh  Rh7  1  0.134436  0.634244  0.000000  1
  Rh  Rh8  1  0.865756  0.365564  0.000000  1
  Rh  Rh9  1  0.633504  0.866496  0.000000  1
