# generated using pymatgen
data_Tb3CeHo4(CdRu)2
_symmetry_space_group_name_H-M   'P 1'
_cell_length_a   9.73048466
_cell_length_b   9.62074821
_cell_length_c   9.62074911
_cell_angle_alpha   59.61860525
_cell_angle_beta   59.62196156
_cell_angle_gamma   59.62195981
_symmetry_Int_Tables_number   1
_chemical_formula_structural   Tb3CeHo4(CdRu)2
_chemical_formula_sum   'Tb6 Ce2 Ho8 Cd4 Ru4'
_cell_volume   631.36252810
_cell_formula_units_Z   2
loop_
 _symmetry_equiv_pos_site_id
 _symmetry_equiv_pos_as_xyz
  1  'x, y, z'
loop_
 _atom_site_type_symbol
 _atom_site_label
 _atom_site_symmetry_multiplicity
 _atom_site_fract_x
 _atom_site_fract_y
 _atom_site_fract_z
 _atom_site_occupancy
  Tb  Tb0  1  0.562674  0.561217  0.938383  1
  Tb  Tb1  1  0.937728  0.561217  0.938383  1
  Tb  Tb2  1  0.560766  0.939234  0.939234  1
  Tb  Tb3  1  0.937728  0.938383  0.561217  1
  Tb  Tb4  1  0.562674  0.938383  0.561217  1
  Tb  Tb5  1  0.940037  0.559963  0.559963  1
  Ce  Ce6  1  0.972541  0.340107  0.340107  1
  Ce  Ce7  1  0.347246  0.340107  0.340107  1
  Ho  Ho8  1  0.189143  0.188073  0.812701  1
  Ho  Ho9  1  0.810082  0.188073  0.812701  1
  Ho  Ho10  1  0.187899  0.812101  0.812100  1
  Ho  Ho11  1  0.810082  0.812702  0.188073  1
  Ho  Ho12  1  0.189142  0.812701  0.188072  1
  Ho  Ho13  1  0.811378  0.188622  0.188622  1
  Ho  Ho14  1  0.348366  0.350042  0.953228  1
  Ho  Ho15  1  0.348366  0.953228  0.350042  1
  Cd  Cd16  1  0.581804  0.579054  0.257337  1
  Cd  Cd17  1  0.581804  0.257337  0.579054  1
  Cd  Cd18  1  0.259920  0.579525  0.579525  1
  Cd  Cd19  1  0.581029  0.579525  0.579525  1
  Ru  Ru20  1  0.137508  0.152064  0.572919  1
  Ru  Ru21  1  0.137508  0.572919  0.152064  1
  Ru  Ru22  1  0.572952  0.147712  0.147712  1
  Ru  Ru23  1  0.131624  0.147712  0.147712  1
