# generated using pymatgen
data_YbDyY18(Cd3Ru)2
_symmetry_space_group_name_H-M   'P 1'
_cell_length_a   9.65294417
_cell_length_b   9.65294335
_cell_length_c   9.85010419
_cell_angle_alpha   90.04887623
_cell_angle_beta   89.95112442
_cell_angle_gamma   119.97168317
_symmetry_Int_Tables_number   1
_chemical_formula_structural   YbDyY18(Cd3Ru)2
_chemical_formula_sum   'Yb1 Dy1 Y18 Cd6 Ru2'
_cell_volume   795.08699124
_cell_formula_units_Z   1
loop_
 _symmetry_equiv_pos_site_id
 _symmetry_equiv_pos_as_xyz
  1  'x, y, z'
loop_
 _atom_site_type_symbol
 _atom_site_label
 _atom_site_symmetry_multiplicity
 _atom_site_fract_x
 _atom_site_fract_y
 _atom_site_fract_z
 _atom_site_occupancy
  Yb  Yb0  1  0.000046  0.999954  0.499952  1
  Dy  Dy1  1  0.210886  0.789114  0.439073  1
  Y  Y2  1  0.000013  0.999987  0.000016  1
  Y  Y3  1  0.210516  0.421142  0.439689  1
  Y  Y4  1  0.578858  0.789484  0.439689  1
  Y  Y5  1  0.789469  0.210531  0.560355  1
  Y  Y6  1  0.789527  0.578898  0.560341  1
  Y  Y7  1  0.421102  0.210473  0.560341  1
  Y  Y8  1  0.789842  0.210158  0.940321  1
  Y  Y9  1  0.789870  0.579710  0.940320  1
  Y  Y10  1  0.420290  0.210130  0.940320  1
  Y  Y11  1  0.210123  0.789877  0.059755  1
  Y  Y12  1  0.210172  0.420275  0.059632  1
  Y  Y13  1  0.579725  0.789828  0.059632  1
  Y  Y14  1  0.541640  0.458360  0.250923  1
  Y  Y15  1  0.541541  0.083188  0.251020  1
  Y  Y16  1  0.916812  0.458459  0.251020  1
  Y  Y17  1  0.458365  0.541635  0.749071  1
  Y  Y18  1  0.458339  0.916686  0.748961  1
  Y  Y19  1  0.083314  0.541661  0.748961  1
  Cd  Cd20  1  0.884931  0.115069  0.250265  1
  Cd  Cd21  1  0.884950  0.769878  0.250245  1
  Cd  Cd22  1  0.230122  0.115050  0.250245  1
  Cd  Cd23  1  0.115058  0.884942  0.749826  1
  Cd  Cd24  1  0.115058  0.230152  0.749746  1
  Cd  Cd25  1  0.769848  0.884942  0.749746  1
  Ru  Ru26  1  0.332927  0.667073  0.250843  1
  Ru  Ru27  1  0.666657  0.333343  0.749693  1
