# generated using pymatgen
data_ErScP7IrRu11
_symmetry_space_group_name_H-M   'P 1'
_cell_length_a   9.34857029
_cell_length_b   9.40150302
_cell_length_c   3.93183900
_cell_angle_alpha   90.00000000
_cell_angle_beta   90.00000000
_cell_angle_gamma   119.65517400
_symmetry_Int_Tables_number   1
_chemical_formula_structural   ErScP7IrRu11
_chemical_formula_sum   'Er1 Sc1 P7 Ir1 Ru11'
_cell_volume   300.30836101
_cell_formula_units_Z   1
loop_
 _symmetry_equiv_pos_site_id
 _symmetry_equiv_pos_as_xyz
  1  'x, y, z'
loop_
 _atom_site_type_symbol
 _atom_site_label
 _atom_site_symmetry_multiplicity
 _atom_site_fract_x
 _atom_site_fract_y
 _atom_site_fract_z
 _atom_site_occupancy
  Er  Er0  1  0.331476  0.663560  0.000000  1
  Sc  Sc1  1  0.667546  0.334700  0.500000  1
  P  P2  1  0.598800  0.713533  0.500000  1
  P  P3  1  0.999450  0.000323  0.000000  1
  P  P4  1  0.277214  0.878257  0.500000  1
  P  P5  1  0.118614  0.400360  0.500000  1
  P  P6  1  0.883763  0.574107  0.000000  1
  P  P7  1  0.429440  0.310950  0.000000  1
  P  P8  1  0.694970  0.122860  0.000000  1
  Ir  Ir9  1  0.550412  0.943341  0.500000  1
  Ru  Ru10  1  0.393252  0.442065  0.500000  1
  Ru  Ru11  1  0.912858  0.123893  0.500000  1
  Ru  Ru12  1  0.209888  0.085842  0.500000  1
  Ru  Ru13  1  0.876951  0.793246  0.500000  1
  Ru  Ru14  1  0.725863  0.893457  0.000000  1
  Ru  Ru15  1  0.109558  0.836391  0.000000  1
  Ru  Ru16  1  0.164859  0.271793  0.000000  1
  Ru  Ru17  1  0.431084  0.071333  0.000000  1
  Ru  Ru18  1  0.932562  0.360058  0.000000  1
  Ru  Ru19  1  0.642233  0.574156  0.000000  1
  Ru  Ru20  1  0.049206  0.605776  0.500000  1
