# generated using pymatgen
data_La9PrInSi4Ge
_symmetry_space_group_name_H-M   'P 1'
_cell_length_a   7.94159631
_cell_length_b   9.35954495
_cell_length_c   7.93368758
_cell_angle_alpha   114.95702125
_cell_angle_beta   90.13222100
_cell_angle_gamma   115.03301298
_symmetry_Int_Tables_number   1
_chemical_formula_structural   La9PrInSi4Ge
_chemical_formula_sum   'La9 Pr1 In1 Si4 Ge1'
_cell_volume   472.53708918
_cell_formula_units_Z   1
loop_
 _symmetry_equiv_pos_site_id
 _symmetry_equiv_pos_as_xyz
  1  'x, y, z'
loop_
 _atom_site_type_symbol
 _atom_site_label
 _atom_site_symmetry_multiplicity
 _atom_site_fract_x
 _atom_site_fract_y
 _atom_site_fract_z
 _atom_site_occupancy
  La  La0  1  0.973779  0.947526  0.974332  1
  La  La1  1  0.525607  0.052995  0.526579  1
  La  La2  1  0.524838  0.721173  0.673343  1
  La  La3  1  0.196465  0.721176  0.047810  1
  La  La4  1  0.673138  0.721407  0.196537  1
  La  La5  1  0.049348  0.722159  0.526135  1
  La  La6  1  0.451774  0.278925  0.303904  1
  La  La7  1  0.827055  0.278548  0.974505  1
  La  La8  1  0.303460  0.278998  0.826400  1
  Pr  Pr9  1  0.973640  0.276277  0.449379  1
  In  In10  1  0.750381  0.499169  0.749458  1
  Si  Si11  1  0.885883  0.000707  0.613970  1
  Si  Si12  1  0.114091  0.001115  0.385770  1
  Si  Si13  1  0.615019  0.000345  0.114867  1
  Si  Si14  1  0.387008  0.000880  0.886449  1
  Ge  Ge15  1  0.248513  0.498602  0.250563  1
