# generated using pymatgen
data_Y16In4NiPdRh2
_symmetry_space_group_name_H-M   'P 1'
_cell_length_a   9.73014413
_cell_length_b   9.71700750
_cell_length_c   9.71826084
_cell_angle_alpha   59.89095984
_cell_angle_beta   59.95954682
_cell_angle_gamma   59.95527129
_symmetry_Int_Tables_number   1
_chemical_formula_structural   Y16In4NiPdRh2
_chemical_formula_sum   'Y16 In4 Ni1 Pd1 Rh2'
_cell_volume   648.76404698
_cell_formula_units_Z   1
loop_
 _symmetry_equiv_pos_site_id
 _symmetry_equiv_pos_as_xyz
  1  'x, y, z'
loop_
 _atom_site_type_symbol
 _atom_site_label
 _atom_site_symmetry_multiplicity
 _atom_site_fract_x
 _atom_site_fract_y
 _atom_site_fract_z
 _atom_site_occupancy
  Y  Y0  1  0.187649  0.190817  0.810737  1
  Y  Y1  1  0.438707  0.060324  0.062261  1
  Y  Y2  1  0.436526  0.062068  0.439256  1
  Y  Y3  1  0.062729  0.436789  0.064978  1
  Y  Y4  1  0.646914  0.054933  0.651239  1
  Y  Y5  1  0.189245  0.810637  0.810873  1
  Y  Y6  1  0.062150  0.062068  0.439256  1
  Y  Y7  1  0.810536  0.195658  0.183270  1
  Y  Y8  1  0.809905  0.810149  0.186052  1
  Y  Y9  1  0.652955  0.647387  0.046701  1
  Y  Y10  1  0.649089  0.645565  0.655420  1
  Y  Y11  1  0.062932  0.436211  0.437924  1
  Y  Y12  1  0.049925  0.645565  0.655420  1
  Y  Y13  1  0.810797  0.190817  0.810737  1
  Y  Y14  1  0.435504  0.436789  0.064978  1
  Y  Y15  1  0.193894  0.810149  0.186052  1
  In  In16  1  0.417573  0.747688  0.417165  1
  In  In17  1  0.416158  0.418058  0.749623  1
  In  In18  1  0.750432  0.417983  0.415788  1
  In  In19  1  0.415798  0.417983  0.415788  1
  Ni  Ni20  1  0.859023  0.426359  0.855597  1
  Pd  Pd21  1  0.856487  0.858629  0.428397  1
  Rh  Rh22  1  0.428082  0.858688  0.856243  1
  Rh  Rh23  1  0.856987  0.858688  0.856243  1
