# generated using pymatgen
data_GdY2Mn3O9
_symmetry_space_group_name_H-M   'P 1'
_cell_length_a   6.25488800
_cell_length_b   6.25488763
_cell_length_c   11.61054400
_cell_angle_alpha   90.00000000
_cell_angle_beta   90.00000000
_cell_angle_gamma   120.00000152
_symmetry_Int_Tables_number   1
_chemical_formula_structural   GdY2Mn3O9
_chemical_formula_sum   'Gd2 Y4 Mn6 O18'
_cell_volume   393.38902818
_cell_formula_units_Z   2
loop_
 _symmetry_equiv_pos_site_id
 _symmetry_equiv_pos_as_xyz
  1  'x, y, z'
loop_
 _atom_site_type_symbol
 _atom_site_label
 _atom_site_symmetry_multiplicity
 _atom_site_fract_x
 _atom_site_fract_y
 _atom_site_fract_z
 _atom_site_occupancy
  Gd  Gd0  1  0.666667  0.333333  0.233584  1
  Gd  Gd1  1  0.333333  0.666667  0.733584  1
  Y  Y2  1  0.666667  0.333333  0.732654  1
  Y  Y3  1  0.333333  0.666667  0.232654  1
  Y  Y4  1  0.000000  0.000000  0.776096  1
  Y  Y5  1  0.000000  0.000000  0.276096  1
  Mn  Mn6  1  0.666885  0.999783  0.501424  1
  Mn  Mn7  1  0.667101  0.666885  0.001424  1
  Mn  Mn8  1  0.999783  0.332899  0.001424  1
  Mn  Mn9  1  0.000217  0.667101  0.501424  1
  Mn  Mn10  1  0.332899  0.333115  0.501424  1
  Mn  Mn11  1  0.333115  0.000217  0.001424  1
  O  O12  1  0.666667  0.333333  0.021356  1
  O  O13  1  0.333333  0.666667  0.521356  1
  O  O14  1  0.666667  0.333333  0.520624  1
  O  O15  1  0.333333  0.666667  0.020624  1
  O  O16  1  0.000000  0.000000  0.977332  1
  O  O17  1  0.000000  0.000000  0.477332  1
  O  O18  1  0.358614  0.003300  0.837728  1
  O  O19  1  0.355314  0.358614  0.337728  1
  O  O20  1  0.003300  0.644686  0.337728  1
  O  O21  1  0.996700  0.355314  0.837728  1
  O  O22  1  0.644686  0.641386  0.837728  1
  O  O23  1  0.641386  0.996700  0.337728  1
  O  O24  1  0.304845  0.996981  0.165299  1
  O  O25  1  0.307864  0.304845  0.665299  1
  O  O26  1  0.996981  0.692136  0.665299  1
  O  O27  1  0.003019  0.307864  0.165299  1
  O  O28  1  0.692136  0.695155  0.165299  1
  O  O29  1  0.695155  0.003019  0.665299  1
