# generated using pymatgen
data_Y4Co19P12Os
_symmetry_space_group_name_H-M   'P 1'
_cell_length_a   3.67073800
_cell_length_b   10.31259130
_cell_length_c   11.75642725
_cell_angle_alpha   89.87302981
_cell_angle_beta   90.00000000
_cell_angle_gamma   90.00000000
_symmetry_Int_Tables_number   1
_chemical_formula_structural   Y4Co19P12Os
_chemical_formula_sum   'Y4 Co19 P12 Os1'
_cell_volume   445.03635367
_cell_formula_units_Z   1
loop_
 _symmetry_equiv_pos_site_id
 _symmetry_equiv_pos_as_xyz
  1  'x, y, z'
loop_
 _atom_site_type_symbol
 _atom_site_label
 _atom_site_symmetry_multiplicity
 _atom_site_fract_x
 _atom_site_fract_y
 _atom_site_fract_z
 _atom_site_occupancy
  Y  Y0  1  0.250000  0.916325  0.202276  1
  Y  Y1  1  0.750000  0.083441  0.797315  1
  Y  Y2  1  0.750000  0.414438  0.295710  1
  Y  Y3  1  0.250000  0.581745  0.702470  1
  Co  Co4  1  0.750000  0.215890  0.509205  1
  Co  Co5  1  0.750000  0.283858  0.008763  1
  Co  Co6  1  0.250000  0.716505  0.991420  1
  Co  Co7  1  0.250000  0.093402  0.988533  1
  Co  Co8  1  0.750000  0.906675  0.011355  1
  Co  Co9  1  0.750000  0.592212  0.510728  1
  Co  Co10  1  0.250000  0.406831  0.488074  1
  Co  Co11  1  0.250000  0.279436  0.677166  1
  Co  Co12  1  0.750000  0.721329  0.323354  1
  Co  Co13  1  0.750000  0.777431  0.823319  1
  Co  Co14  1  0.250000  0.221593  0.176279  1
  Co  Co15  1  0.250000  0.617028  0.198455  1
  Co  Co16  1  0.750000  0.383387  0.801980  1
  Co  Co17  1  0.750000  0.117210  0.300771  1
  Co  Co18  1  0.250000  0.885824  0.701164  1
  Co  Co19  1  0.250000  0.035193  0.432764  1
  Co  Co20  1  0.750000  0.966355  0.567958  1
  Co  Co21  1  0.750000  0.532115  0.068433  1
  Co  Co22  1  0.250000  0.467764  0.932286  1
  P  P23  1  0.250000  0.083138  0.612608  1
  P  P24  1  0.750000  0.921205  0.386112  1
  P  P25  1  0.750000  0.580697  0.888609  1
  P  P26  1  0.250000  0.418417  0.111590  1
  P  P27  1  0.250000  0.229972  0.369347  1
  P  P28  1  0.750000  0.770734  0.633314  1
  P  P29  1  0.750000  0.728719  0.129118  1
  P  P30  1  0.250000  0.271328  0.870201  1
  P  P31  1  0.250000  0.898585  0.892865  1
  P  P32  1  0.750000  0.102282  0.108167  1
  P  P33  1  0.750000  0.397137  0.609043  1
  P  P34  1  0.250000  0.595550  0.388739  1
  Os  Os35  1  0.250000  0.786250  0.490508  1
