# generated using pymatgen
data_Be8V3Ru
_symmetry_space_group_name_H-M   'P 1'
_cell_length_a   4.33776200
_cell_length_b   4.33776242
_cell_length_c   7.05855800
_cell_angle_alpha   90.00000000
_cell_angle_beta   90.00000000
_cell_angle_gamma   120.00001202
_symmetry_Int_Tables_number   1
_chemical_formula_structural   Be8V3Ru
_chemical_formula_sum   'Be8 V3 Ru1'
_cell_volume   115.02124100
_cell_formula_units_Z   1
loop_
 _symmetry_equiv_pos_site_id
 _symmetry_equiv_pos_as_xyz
  1  'x, y, z'
loop_
 _atom_site_type_symbol
 _atom_site_label
 _atom_site_symmetry_multiplicity
 _atom_site_fract_x
 _atom_site_fract_y
 _atom_site_fract_z
 _atom_site_occupancy
  Be  Be0  1  0.000000  0.000000  0.499950  1
  Be  Be1  1  0.000000  0.000000  0.998602  1
  Be  Be2  1  0.830059  0.169941  0.250873  1
  Be  Be3  1  0.830059  0.660118  0.250873  1
  Be  Be4  1  0.339882  0.169941  0.250873  1
  Be  Be5  1  0.169627  0.830373  0.749193  1
  Be  Be6  1  0.169627  0.339253  0.749193  1
  Be  Be7  1  0.660747  0.830373  0.749193  1
  V  V8  1  0.333333  0.666667  0.432761  1
  V  V9  1  0.666667  0.333333  0.567582  1
  V  V10  1  0.666667  0.333333  0.935971  1
  Ru  Ru11  1  0.333333  0.666667  0.064938  1
