# generated using pymatgen
data_Ce3Th5(ReC2)4
_symmetry_space_group_name_H-M   'P 1'
_cell_length_a   5.33270100
_cell_length_b   6.69601735
_cell_length_c   10.02295789
_cell_angle_alpha   90.12857632
_cell_angle_beta   90.00000000
_cell_angle_gamma   90.00000000
_symmetry_Int_Tables_number   1
_chemical_formula_structural   Ce3Th5(ReC2)4
_chemical_formula_sum   'Ce3 Th5 Re4 C8'
_cell_volume   357.89746024
_cell_formula_units_Z   1
loop_
 _symmetry_equiv_pos_site_id
 _symmetry_equiv_pos_as_xyz
  1  'x, y, z'
loop_
 _atom_site_type_symbol
 _atom_site_label
 _atom_site_symmetry_multiplicity
 _atom_site_fract_x
 _atom_site_fract_y
 _atom_site_fract_z
 _atom_site_occupancy
  Ce  Ce0  1  0.750000  0.686040  0.547816  1
  Ce  Ce1  1  0.250000  0.313739  0.452073  1
  Ce  Ce2  1  0.750000  0.188316  0.951632  1
  Th  Th3  1  0.250000  0.470620  0.777620  1
  Th  Th4  1  0.750000  0.027248  0.281474  1
  Th  Th5  1  0.250000  0.972826  0.715916  1
  Th  Th6  1  0.750000  0.525589  0.222531  1
  Th  Th7  1  0.250000  0.810867  0.047676  1
  Re  Re8  1  0.250000  0.272273  0.138366  1
  Re  Re9  1  0.750000  0.228355  0.637817  1
  Re  Re10  1  0.250000  0.772271  0.363349  1
  Re  Re11  1  0.750000  0.729010  0.860574  1
  C  C12  1  0.250000  0.168036  0.949162  1
  C  C13  1  0.750000  0.834109  0.050842  1
  C  C14  1  0.250000  0.666593  0.550809  1
  C  C15  1  0.750000  0.332688  0.449605  1
  C  C16  1  0.250000  0.034590  0.258710  1
  C  C17  1  0.750000  0.467461  0.756122  1
  C  C18  1  0.250000  0.531765  0.245153  1
  C  C19  1  0.750000  0.967603  0.742753  1
