# generated using pymatgen
data_Ce4VWC4
_symmetry_space_group_name_H-M   'P 1'
_cell_length_a   5.60177200
_cell_length_b   5.59704300
_cell_length_c   10.35796800
_cell_angle_alpha   90.00000000
_cell_angle_beta   90.00000000
_cell_angle_gamma   90.00000000
_symmetry_Int_Tables_number   1
_chemical_formula_structural   Ce4VWC4
_chemical_formula_sum   'Ce8 V2 W2 C8'
_cell_volume   324.75708673
_cell_formula_units_Z   2
loop_
 _symmetry_equiv_pos_site_id
 _symmetry_equiv_pos_as_xyz
  1  'x, y, z'
loop_
 _atom_site_type_symbol
 _atom_site_label
 _atom_site_symmetry_multiplicity
 _atom_site_fract_x
 _atom_site_fract_y
 _atom_site_fract_z
 _atom_site_occupancy
  Ce  Ce0  1  0.182662  0.183262  0.344704  1
  Ce  Ce1  1  0.316822  0.682576  0.844896  1
  Ce  Ce2  1  0.682662  0.316738  0.844704  1
  Ce  Ce3  1  0.682662  0.316738  0.155296  1
  Ce  Ce4  1  0.316822  0.682576  0.155104  1
  Ce  Ce5  1  0.182662  0.183262  0.655296  1
  Ce  Ce6  1  0.816822  0.817424  0.344896  1
  Ce  Ce7  1  0.816822  0.817424  0.655104  1
  V  V8  1  0.324697  0.675355  0.500000  1
  V  V9  1  0.824697  0.824645  0.000000  1
  W  W10  1  0.179198  0.179205  0.000000  1
  W  W11  1  0.679198  0.320795  0.500000  1
  C  C12  1  0.998383  0.997653  0.143476  1
  C  C13  1  0.498383  0.502347  0.643476  1
  C  C14  1  0.495658  0.995216  0.500000  1
  C  C15  1  0.498383  0.502347  0.356524  1
  C  C16  1  0.998383  0.997653  0.856524  1
  C  C17  1  0.504712  0.995442  0.000000  1
  C  C18  1  0.995658  0.504784  0.000000  1
  C  C19  1  0.004712  0.504558  0.500000  1
