# generated using pymatgen
data_Sr2In2AgHg
_symmetry_space_group_name_H-M   'P 1'
_cell_length_a   6.32898193
_cell_length_b   6.32898209
_cell_length_c   7.75163300
_cell_angle_alpha   52.73546173
_cell_angle_beta   52.73546064
_cell_angle_gamma   46.60550781
_symmetry_Int_Tables_number   1
_chemical_formula_structural   Sr2In2AgHg
_chemical_formula_sum   'Sr2 In2 Ag1 Hg1'
_cell_volume   169.64535663
_cell_formula_units_Z   1
loop_
 _symmetry_equiv_pos_site_id
 _symmetry_equiv_pos_as_xyz
  1  'x, y, z'
loop_
 _atom_site_type_symbol
 _atom_site_label
 _atom_site_symmetry_multiplicity
 _atom_site_fract_x
 _atom_site_fract_y
 _atom_site_fract_z
 _atom_site_occupancy
  Sr  Sr0  1  0.539139  0.539139  0.713080  1
  Sr  Sr1  1  0.461818  0.461818  0.286894  1
  In  In2  1  0.843542  0.843542  0.705645  1
  In  In3  1  0.826499  0.826499  0.121561  1
  Ag  Ag4  1  0.166169  0.166169  0.296435  1
  Hg  Hg5  1  0.162835  0.162835  0.876388  1
