# generated using pymatgen
data_Eu3YB16
_symmetry_space_group_name_H-M   'P 1'
_cell_length_a   7.18996037
_cell_length_b   7.18996037
_cell_length_c   4.09104000
_cell_angle_alpha   90.00000000
_cell_angle_beta   90.00000000
_cell_angle_gamma   89.56265203
_symmetry_Int_Tables_number   1
_chemical_formula_structural   Eu3YB16
_chemical_formula_sum   'Eu3 Y1 B16'
_cell_volume   211.48232011
_cell_formula_units_Z   1
loop_
 _symmetry_equiv_pos_site_id
 _symmetry_equiv_pos_as_xyz
  1  'x, y, z'
loop_
 _atom_site_type_symbol
 _atom_site_label
 _atom_site_symmetry_multiplicity
 _atom_site_fract_x
 _atom_site_fract_y
 _atom_site_fract_z
 _atom_site_occupancy
  Eu  Eu0  1  0.184609  0.684609  0.000000  1
  Eu  Eu1  1  0.685029  0.814931  0.000000  1
  Eu  Eu2  1  0.314931  0.185029  0.000000  1
  Y  Y3  1  0.816163  0.316163  0.000000  1
  B  B4  1  0.326636  0.461215  0.500000  1
  B  B5  1  0.676305  0.535821  0.500000  1
  B  B6  1  0.539436  0.323706  0.500000  1
  B  B7  1  0.463041  0.674014  0.500000  1
  B  B8  1  0.998768  0.001409  0.203590  1
  B  B9  1  0.501409  0.498768  0.796410  1
  B  B10  1  0.998768  0.001409  0.796410  1
  B  B11  1  0.501409  0.498768  0.203590  1
  B  B12  1  0.586579  0.086579  0.500000  1
  B  B13  1  0.086861  0.412766  0.500000  1
  B  B14  1  0.912766  0.586861  0.500000  1
  B  B15  1  0.412535  0.912535  0.500000  1
  B  B16  1  0.035821  0.176305  0.500000  1
  B  B17  1  0.174014  0.963041  0.500000  1
  B  B18  1  0.823706  0.039436  0.500000  1
  B  B19  1  0.961215  0.826636  0.500000  1
