# generated using pymatgen
data_Rb2Zr(AuS2)2
_symmetry_space_group_name_H-M   'P 1'
_cell_length_a   7.98307771
_cell_length_b   8.73555093
_cell_length_c   9.10154934
_cell_angle_alpha   73.04799308
_cell_angle_beta   83.13033118
_cell_angle_gamma   66.88098076
_symmetry_Int_Tables_number   1
_chemical_formula_structural   Rb2Zr(AuS2)2
_chemical_formula_sum   'Rb4 Zr2 Au4 S8'
_cell_volume   558.36477134
_cell_formula_units_Z   2
loop_
 _symmetry_equiv_pos_site_id
 _symmetry_equiv_pos_as_xyz
  1  'x, y, z'
loop_
 _atom_site_type_symbol
 _atom_site_label
 _atom_site_symmetry_multiplicity
 _atom_site_fract_x
 _atom_site_fract_y
 _atom_site_fract_z
 _atom_site_occupancy
  Rb  Rb0  1  0.789717  0.819429  0.414848  1
  Rb  Rb1  1  0.210283  0.180571  0.585152  1
  Rb  Rb2  1  0.042586  0.248216  0.081886  1
  Rb  Rb3  1  0.957414  0.751784  0.918114  1
  Zr  Zr4  1  0.609386  0.311236  0.796335  1
  Zr  Zr5  1  0.390614  0.688764  0.203665  1
  Au  Au6  1  0.525268  0.679834  0.859856  1
  Au  Au7  1  0.299049  0.646105  0.564332  1
  Au  Au8  1  0.474732  0.320166  0.140144  1
  Au  Au9  1  0.700951  0.353895  0.435668  1
  S  S10  1  0.723881  0.571367  0.222724  1
  S  S11  1  0.727892  0.107563  0.636189  1
  S  S12  1  0.288872  0.891738  0.951722  1
  S  S13  1  0.222396  0.494642  0.254004  1
  S  S14  1  0.276119  0.428633  0.777276  1
  S  S15  1  0.711128  0.108262  0.048278  1
  S  S16  1  0.272108  0.892437  0.363811  1
  S  S17  1  0.777604  0.505358  0.745996  1
