# generated using pymatgen
data_Tb3Bi(Rh2O7)2
_symmetry_space_group_name_H-M   'P 1'
_cell_length_a   7.26524635
_cell_length_b   7.28665680
_cell_length_c   7.26524600
_cell_angle_alpha   60.09715255
_cell_angle_beta   60.00000157
_cell_angle_gamma   60.09715202
_symmetry_Int_Tables_number   1
_chemical_formula_structural   Tb3Bi(Rh2O7)2
_chemical_formula_sum   'Tb3 Bi1 Rh4 O14'
_cell_volume   272.36429541
_cell_formula_units_Z   1
loop_
 _symmetry_equiv_pos_site_id
 _symmetry_equiv_pos_as_xyz
  1  'x, y, z'
loop_
 _atom_site_type_symbol
 _atom_site_label
 _atom_site_symmetry_multiplicity
 _atom_site_fract_x
 _atom_site_fract_y
 _atom_site_fract_z
 _atom_site_occupancy
  Tb  Tb0  1  0.125000  0.125000  0.125000  1
  Tb  Tb1  1  0.625000  0.125000  0.125000  1
  Tb  Tb2  1  0.125000  0.125000  0.625000  1
  Bi  Bi3  1  0.125000  0.625000  0.125000  1
  Rh  Rh4  1  0.625000  0.625000  0.625000  1
  Rh  Rh5  1  0.625000  0.625000  0.125000  1
  Rh  Rh6  1  0.125000  0.625000  0.625000  1
  Rh  Rh7  1  0.625000  0.125000  0.625000  1
  O  O8  1  0.251944  0.244167  0.251944  1
  O  O9  1  0.289721  0.713218  0.289721  1
  O  O10  1  0.961451  0.961710  0.538419  1
  O  O11  1  0.538419  0.961710  0.538419  1
  O  O12  1  0.707339  0.713218  0.289721  1
  O  O13  1  0.960279  0.536782  0.542661  1
  O  O14  1  0.711581  0.288290  0.711581  1
  O  O15  1  0.288549  0.288290  0.711581  1
  O  O16  1  0.711581  0.288290  0.288549  1
  O  O17  1  0.289721  0.713218  0.707339  1
  O  O18  1  0.960279  0.536782  0.960279  1
  O  O19  1  0.542661  0.536782  0.960279  1
  O  O20  1  0.998056  0.005833  0.998056  1
  O  O21  1  0.538419  0.961710  0.961451  1
