# generated using pymatgen
data_TbEuDy5NiI12
_symmetry_space_group_name_H-M   'P 1'
_cell_length_a   9.76836632
_cell_length_b   9.77098711
_cell_length_c   9.77011540
_cell_angle_alpha   106.55687499
_cell_angle_beta   106.54536256
_cell_angle_gamma   106.55291746
_symmetry_Int_Tables_number   1
_chemical_formula_structural   TbEuDy5NiI12
_chemical_formula_sum   'Tb1 Eu1 Dy5 Ni1 I12'
_cell_volume   785.91857048
_cell_formula_units_Z   1
loop_
 _symmetry_equiv_pos_site_id
 _symmetry_equiv_pos_as_xyz
  1  'x, y, z'
loop_
 _atom_site_type_symbol
 _atom_site_label
 _atom_site_symmetry_multiplicity
 _atom_site_fract_x
 _atom_site_fract_y
 _atom_site_fract_z
 _atom_site_occupancy
  Tb  Tb0  1  0.023220  0.292995  0.094279  1
  Eu  Eu1  1  0.499997  0.499989  0.499999  1
  Dy  Dy2  1  0.906012  0.976643  0.707719  1
  Dy  Dy3  1  0.707717  0.905835  0.976731  1
  Dy  Dy4  1  0.976796  0.707796  0.906027  1
  Dy  Dy5  1  0.093985  0.023081  0.292197  1
  Dy  Dy6  1  0.292246  0.093852  0.023175  1
  Ni  Ni7  1  0.999976  0.999788  0.999929  1
  I  I8  1  0.925896  0.321828  0.775863  1
  I  I9  1  0.776415  0.926078  0.321894  1
  I  I10  1  0.321928  0.776406  0.926075  1
  I  I11  1  0.073969  0.678367  0.223662  1
  I  I12  1  0.223581  0.073919  0.678108  1
  I  I13  1  0.677699  0.223389  0.073857  1
  I  I14  1  0.546515  0.859537  0.625809  1
  I  I15  1  0.625787  0.546489  0.859526  1
  I  I16  1  0.859541  0.625793  0.546503  1
  I  I17  1  0.453489  0.140458  0.374196  1
  I  I18  1  0.374592  0.453552  0.140485  1
  I  I19  1  0.140640  0.374203  0.453964  1
