# generated using pymatgen
data_Ba6Y3Sc(IrO9)2
_symmetry_space_group_name_H-M   'P 1'
_cell_length_a   6.03720118
_cell_length_b   8.52490300
_cell_length_c   10.43274471
_cell_angle_alpha   65.88529206
_cell_angle_beta   73.18161157
_cell_angle_gamma   89.99999663
_symmetry_Int_Tables_number   1
_chemical_formula_structural   Ba6Y3Sc(IrO9)2
_chemical_formula_sum   'Ba6 Y3 Sc1 Ir2 O18'
_cell_volume   464.80231497
_cell_formula_units_Z   1
loop_
 _symmetry_equiv_pos_site_id
 _symmetry_equiv_pos_as_xyz
  1  'x, y, z'
loop_
 _atom_site_type_symbol
 _atom_site_label
 _atom_site_symmetry_multiplicity
 _atom_site_fract_x
 _atom_site_fract_y
 _atom_site_fract_z
 _atom_site_occupancy
  Ba  Ba0  1  0.500000  0.264754  0.000000  1
  Ba  Ba1  1  0.839375  0.580000  0.321250  1
  Ba  Ba2  1  0.160625  0.901251  0.678750  1
  Ba  Ba3  1  0.500000  0.735246  0.000000  1
  Ba  Ba4  1  0.839375  0.098749  0.321250  1
  Ba  Ba5  1  0.160625  0.420000  0.678750  1
  Y  Y6  1  0.000000  0.000000  0.000000  1
  Y  Y7  1  0.331323  0.331323  0.337352  1
  Y  Y8  1  0.668677  0.668677  0.662648  1
  Sc  Sc9  1  0.000000  0.500000  0.000000  1
  Ir  Ir10  1  0.334171  0.834171  0.331655  1
  Ir  Ir11  1  0.665829  0.165829  0.668345  1
  O  O12  1  0.000000  0.254444  0.000000  1
  O  O13  1  0.331702  0.601034  0.336594  1
  O  O14  1  0.668298  0.937628  0.663406  1
  O  O15  1  0.158779  0.414725  0.170551  1
  O  O16  1  0.490047  0.758684  0.482633  1
  O  O17  1  0.818804  0.089042  0.821914  1
  O  O18  1  0.329330  0.585275  0.829449  1
  O  O19  1  0.640719  0.910958  0.178086  1
  O  O20  1  0.972681  0.241316  0.517367  1
  O  O21  1  0.000000  0.745556  0.000000  1
  O  O22  1  0.331702  0.062372  0.336594  1
  O  O23  1  0.668298  0.398966  0.663406  1
  O  O24  1  0.841221  0.585275  0.829449  1
  O  O25  1  0.181196  0.910958  0.178086  1
  O  O26  1  0.509953  0.241316  0.517367  1
  O  O27  1  0.670670  0.414725  0.170551  1
  O  O28  1  0.027319  0.758684  0.482633  1
  O  O29  1  0.359281  0.089042  0.821914  1
