# generated using pymatgen
data_DyTm19(FeSb2)4
_symmetry_space_group_name_H-M   'P 1'
_cell_length_a   7.67618118
_cell_length_b   8.72447900
_cell_length_c   11.94336595
_cell_angle_alpha   90.00000000
_cell_angle_beta   90.10435205
_cell_angle_gamma   90.00000000
_symmetry_Int_Tables_number   1
_chemical_formula_structural   DyTm19(FeSb2)4
_chemical_formula_sum   'Dy1 Tm19 Fe4 Sb8'
_cell_volume   799.85403098
_cell_formula_units_Z   1
loop_
 _symmetry_equiv_pos_site_id
 _symmetry_equiv_pos_as_xyz
  1  'x, y, z'
loop_
 _atom_site_type_symbol
 _atom_site_label
 _atom_site_symmetry_multiplicity
 _atom_site_fract_x
 _atom_site_fract_y
 _atom_site_fract_z
 _atom_site_occupancy
  Dy  Dy0  1  0.875635  0.750000  0.808177  1
  Tm  Tm1  1  0.156419  0.750000  0.205942  1
  Tm  Tm2  1  0.657744  0.250000  0.293329  1
  Tm  Tm3  1  0.841947  0.250000  0.793527  1
  Tm  Tm4  1  0.343323  0.750000  0.706326  1
  Tm  Tm5  1  0.447777  0.750000  0.995701  1
  Tm  Tm6  1  0.949559  0.250000  0.503557  1
  Tm  Tm7  1  0.548860  0.250000  0.004039  1
  Tm  Tm8  1  0.051359  0.750000  0.495752  1
  Tm  Tm9  1  0.624272  0.750000  0.308397  1
  Tm  Tm10  1  0.125022  0.250000  0.192441  1
  Tm  Tm11  1  0.375921  0.250000  0.692100  1
  Tm  Tm12  1  0.824904  0.966631  0.064634  1
  Tm  Tm13  1  0.324126  0.037080  0.435172  1
  Tm  Tm14  1  0.177152  0.460916  0.935089  1
  Tm  Tm15  1  0.675803  0.534894  0.564420  1
  Tm  Tm16  1  0.177152  0.039084  0.935089  1
  Tm  Tm17  1  0.675803  0.965106  0.564420  1
  Tm  Tm18  1  0.824904  0.533369  0.064634  1
  Tm  Tm19  1  0.324126  0.462920  0.435172  1
  Fe  Fe20  1  0.429341  0.750000  0.490101  1
  Fe  Fe21  1  0.927586  0.250000  0.010680  1
  Fe  Fe22  1  0.571975  0.250000  0.510052  1
  Fe  Fe23  1  0.069577  0.750000  0.991163  1
  Sb  Sb24  1  0.930697  0.993219  0.327951  1
  Sb  Sb25  1  0.430892  0.005968  0.172046  1
  Sb  Sb26  1  0.070159  0.493038  0.671793  1
  Sb  Sb27  1  0.568108  0.506159  0.828251  1
  Sb  Sb28  1  0.070159  0.006962  0.671793  1
  Sb  Sb29  1  0.568108  0.993841  0.828251  1
  Sb  Sb30  1  0.930697  0.506781  0.327951  1
  Sb  Sb31  1  0.430892  0.494032  0.172046  1
