# generated using pymatgen
data_LuMn2SbO6
_symmetry_space_group_name_H-M   'P 1'
_cell_length_a   6.35613921
_cell_length_b   6.41518551
_cell_length_c   6.39416726
_cell_angle_alpha   90.97470202
_cell_angle_beta   91.13556257
_cell_angle_gamma   91.28267641
_symmetry_Int_Tables_number   1
_chemical_formula_structural   LuMn2SbO6
_chemical_formula_sum   'Lu2 Mn4 Sb2 O12'
_cell_volume   260.57110023
_cell_formula_units_Z   2
loop_
 _symmetry_equiv_pos_site_id
 _symmetry_equiv_pos_as_xyz
  1  'x, y, z'
loop_
 _atom_site_type_symbol
 _atom_site_label
 _atom_site_symmetry_multiplicity
 _atom_site_fract_x
 _atom_site_fract_y
 _atom_site_fract_z
 _atom_site_occupancy
  Lu  Lu0  1  0.062526  0.751550  0.564262  1
  Lu  Lu1  1  0.748129  0.564289  0.059480  1
  Mn  Mn2  1  0.560961  0.052663  0.746739  1
  Mn  Mn3  1  0.942754  0.246395  0.439901  1
  Mn  Mn4  1  0.252110  0.431594  0.946717  1
  Mn  Mn5  1  0.440024  0.954361  0.249214  1
  Sb  Sb6  1  0.497347  0.496395  0.500322  1
  Sb  Sb7  1  0.001590  0.005621  0.000936  1
  O  O8  1  0.038607  0.699642  0.909583  1
  O  O9  1  0.702292  0.907780  0.043444  1
  O  O10  1  0.912353  0.036738  0.699223  1
  O  O11  1  0.954974  0.300742  0.090306  1
  O  O12  1  0.300886  0.089256  0.955486  1
  O  O13  1  0.087601  0.955322  0.298486  1
  O  O14  1  0.799642  0.575215  0.420699  1
  O  O15  1  0.573338  0.431270  0.798987  1
  O  O16  1  0.418892  0.795104  0.567189  1
  O  O17  1  0.196621  0.431447  0.574997  1
  O  O18  1  0.431226  0.571109  0.200653  1
  O  O19  1  0.578129  0.203505  0.433375  1
