# generated using pymatgen
data_Sc6ReBi2
_symmetry_space_group_name_H-M   'P 1'
_cell_length_a   7.75430100
_cell_length_b   7.75430155
_cell_length_c   4.11628400
_cell_angle_alpha   90.00000000
_cell_angle_beta   90.00000000
_cell_angle_gamma   120.00000192
_symmetry_Int_Tables_number   1
_chemical_formula_structural   Sc6ReBi2
_chemical_formula_sum   'Sc6 Re1 Bi2'
_cell_volume   214.34891778
_cell_formula_units_Z   1
loop_
 _symmetry_equiv_pos_site_id
 _symmetry_equiv_pos_as_xyz
  1  'x, y, z'
loop_
 _atom_site_type_symbol
 _atom_site_label
 _atom_site_symmetry_multiplicity
 _atom_site_fract_x
 _atom_site_fract_y
 _atom_site_fract_z
 _atom_site_occupancy
  Sc  Sc0  1  0.617477  0.000000  0.000000  1
  Sc  Sc1  1  0.382524  0.382523  0.000000  1
  Sc  Sc2  1  0.000000  0.617478  0.000000  1
  Sc  Sc3  1  0.230857  0.000000  0.500000  1
  Sc  Sc4  1  0.000000  0.230858  0.500000  1
  Sc  Sc5  1  0.769143  0.769143  0.500000  1
  Re  Re6  1  0.000000  0.000000  0.000000  1
  Bi  Bi7  1  0.666667  0.333334  0.500000  1
  Bi  Bi8  1  0.333334  0.666667  0.500000  1
