# generated using pymatgen
data_Tb3Dy5Sc11Si16Tc
_symmetry_space_group_name_H-M   'P 1'
_cell_length_a   7.02562357
_cell_length_b   7.35114622
_cell_length_c   13.90599879
_cell_angle_alpha   90.02307040
_cell_angle_beta   89.96891529
_cell_angle_gamma   90.13312854
_symmetry_Int_Tables_number   1
_chemical_formula_structural   Tb3Dy5Sc11Si16Tc
_chemical_formula_sum   'Tb3 Dy5 Sc11 Si16 Tc1'
_cell_volume   718.19248123
_cell_formula_units_Z   1
loop_
 _symmetry_equiv_pos_site_id
 _symmetry_equiv_pos_as_xyz
  1  'x, y, z'
loop_
 _atom_site_type_symbol
 _atom_site_label
 _atom_site_symmetry_multiplicity
 _atom_site_fract_x
 _atom_site_fract_y
 _atom_site_fract_z
 _atom_site_occupancy
  Tb  Tb0  1  0.011937  0.176637  0.406194  1
  Tb  Tb1  1  0.511470  0.324249  0.404367  1
  Tb  Tb2  1  0.487012  0.671954  0.598643  1
  Dy  Dy3  1  0.012049  0.176922  0.093977  1
  Dy  Dy4  1  0.992716  0.818672  0.900337  1
  Dy  Dy5  1  0.486815  0.672007  0.901234  1
  Dy  Dy6  1  0.992757  0.818653  0.599804  1
  Dy  Dy7  1  0.511604  0.324009  0.095771  1
  Sc  Sc8  1  0.841146  0.496446  0.249908  1
  Sc  Sc9  1  0.341547  0.003204  0.249852  1
  Sc  Sc10  1  0.658136  0.996577  0.750039  1
  Sc  Sc11  1  0.326045  0.178464  0.627341  1
  Sc  Sc12  1  0.672007  0.823981  0.374719  1
  Sc  Sc13  1  0.171829  0.674747  0.376646  1
  Sc  Sc14  1  0.671917  0.823876  0.125138  1
  Sc  Sc15  1  0.828803  0.330795  0.628171  1
  Sc  Sc16  1  0.326158  0.178761  0.872721  1
  Sc  Sc17  1  0.828719  0.330698  0.871873  1
  Sc  Sc18  1  0.171923  0.674792  0.123271  1
  Si  Si19  1  0.029878  0.121580  0.750048  1
  Si  Si20  1  0.971645  0.884240  0.249879  1
  Si  Si21  1  0.468257  0.617494  0.249863  1
  Si  Si22  1  0.520641  0.392146  0.750202  1
  Si  Si23  1  0.285248  0.865749  0.750201  1
  Si  Si24  1  0.716357  0.127923  0.249641  1
  Si  Si25  1  0.214218  0.372701  0.249639  1
  Si  Si26  1  0.794951  0.627912  0.750150  1
  Si  Si27  1  0.155059  0.465927  0.547174  1
  Si  Si28  1  0.843620  0.536231  0.463021  1
  Si  Si29  1  0.346173  0.964618  0.463084  1
  Si  Si30  1  0.842986  0.535679  0.037102  1
  Si  Si31  1  0.657207  0.034417  0.540204  1
  Si  Si32  1  0.155758  0.465861  0.952837  1
  Si  Si33  1  0.657203  0.034416  0.959853  1
  Si  Si34  1  0.345919  0.964889  0.036993  1
  Tc  Tc35  1  0.150291  0.492770  0.750101  1
