# generated using pymatgen
data_Mn3H2(Br2O)2
_symmetry_space_group_name_H-M   'P 1'
_cell_length_a   9.55805561
_cell_length_b   9.55805671
_cell_length_c   6.28318956
_cell_angle_alpha   94.01364349
_cell_angle_beta   94.01364292
_cell_angle_gamma   22.89119670
_symmetry_Int_Tables_number   1
_chemical_formula_structural   Mn3H2(Br2O)2
_chemical_formula_sum   'Mn3 H2 Br4 O2'
_cell_volume   222.70963094
_cell_formula_units_Z   1
loop_
 _symmetry_equiv_pos_site_id
 _symmetry_equiv_pos_as_xyz
  1  'x, y, z'
loop_
 _atom_site_type_symbol
 _atom_site_label
 _atom_site_symmetry_multiplicity
 _atom_site_fract_x
 _atom_site_fract_y
 _atom_site_fract_z
 _atom_site_occupancy
  Mn  Mn0  1  0.000000  0.000000  0.500000  1
  Mn  Mn1  1  0.678119  0.678119  0.016728  1
  Mn  Mn2  1  0.321881  0.321881  0.983272  1
  H  H3  1  0.799436  0.799436  0.292717  1
  H  H4  1  0.200564  0.200564  0.707283  1
  Br  Br5  1  0.449392  0.449392  0.234427  1
  Br  Br6  1  0.550608  0.550608  0.765573  1
  Br  Br7  1  0.865995  0.865995  0.692439  1
  Br  Br8  1  0.134005  0.134005  0.307561  1
  O  O9  1  0.789374  0.789374  0.137588  1
  O  O10  1  0.210626  0.210626  0.862412  1
