# generated using pymatgen
data_Ce5GaBi3
_symmetry_space_group_name_H-M   'P 1'
_cell_length_a   6.51520401
_cell_length_b   9.68044380
_cell_length_c   9.67775812
_cell_angle_alpha   120.00918523
_cell_angle_beta   89.99685653
_cell_angle_gamma   90.00628495
_symmetry_Int_Tables_number   1
_chemical_formula_structural   Ce5GaBi3
_chemical_formula_sum   'Ce10 Ga2 Bi6'
_cell_volume   528.55291887
_cell_formula_units_Z   2
loop_
 _symmetry_equiv_pos_site_id
 _symmetry_equiv_pos_as_xyz
  1  'x, y, z'
loop_
 _atom_site_type_symbol
 _atom_site_label
 _atom_site_symmetry_multiplicity
 _atom_site_fract_x
 _atom_site_fract_y
 _atom_site_fract_z
 _atom_site_occupancy
  Ce  Ce0  1  0.499864  0.333235  0.666489  1
  Ce  Ce1  1  0.499864  0.666747  0.333511  1
  Ce  Ce2  1  0.000188  0.666770  0.333535  1
  Ce  Ce3  1  0.000188  0.333236  0.666465  1
  Ce  Ce4  1  0.749956  0.261338  0.000000  1
  Ce  Ce5  1  0.749971  0.738489  0.738469  1
  Ce  Ce6  1  0.749971  0.000020  0.261531  1
  Ce  Ce7  1  0.250010  0.738856  0.000000  1
  Ce  Ce8  1  0.249979  0.261363  0.261460  1
  Ce  Ce9  1  0.249979  0.999903  0.738540  1
  Ga  Ga10  1  0.500035  0.000028  0.000000  1
  Ga  Ga11  1  0.999966  0.000032  0.000000  1
  Bi  Bi12  1  0.750024  0.617914  0.000000  1
  Bi  Bi13  1  0.750012  0.381988  0.382060  1
  Bi  Bi14  1  0.750012  0.999929  0.617940  1
  Bi  Bi15  1  0.249987  0.382209  0.000000  1
  Bi  Bi16  1  0.249999  0.617894  0.617843  1
  Bi  Bi17  1  0.249999  0.000050  0.382157  1
