# generated using pymatgen
data_Re2Tc3MoPd2
_symmetry_space_group_name_H-M   'P 1'
_cell_length_a   5.58828873
_cell_length_b   5.58901534
_cell_length_c   4.41520500
_cell_angle_alpha   90.00000000
_cell_angle_beta   90.00000000
_cell_angle_gamma   119.80109755
_symmetry_Int_Tables_number   1
_chemical_formula_structural   Re2Tc3MoPd2
_chemical_formula_sum   'Re2 Tc3 Mo1 Pd2'
_cell_volume   119.66374839
_cell_formula_units_Z   1
loop_
 _symmetry_equiv_pos_site_id
 _symmetry_equiv_pos_as_xyz
  1  'x, y, z'
loop_
 _atom_site_type_symbol
 _atom_site_label
 _atom_site_symmetry_multiplicity
 _atom_site_fract_x
 _atom_site_fract_y
 _atom_site_fract_z
 _atom_site_occupancy
  Re  Re0  1  0.314891  0.157819  0.750000  1
  Re  Re1  1  0.156980  0.842086  0.250000  1
  Tc  Tc2  1  0.841936  0.685512  0.750000  1
  Tc  Tc3  1  0.685943  0.840730  0.250000  1
  Tc  Tc4  1  0.158868  0.314240  0.250000  1
  Mo  Mo5  1  0.841123  0.157957  0.750000  1
  Pd  Pd6  1  0.666360  0.334729  0.250000  1
  Pd  Pd7  1  0.333899  0.666927  0.750000  1
