# generated using pymatgen
data_Y6Zn(P3Rh5)4
_symmetry_space_group_name_H-M   'P 1'
_cell_length_a   13.43913900
_cell_length_b   13.43913808
_cell_length_c   3.90628100
_cell_angle_alpha   90.00000000
_cell_angle_beta   90.00000000
_cell_angle_gamma   119.99999981
_symmetry_Int_Tables_number   1
_chemical_formula_structural   Y6Zn(P3Rh5)4
_chemical_formula_sum   'Y6 Zn1 P12 Rh20'
_cell_volume   610.99404231
_cell_formula_units_Z   1
loop_
 _symmetry_equiv_pos_site_id
 _symmetry_equiv_pos_as_xyz
  1  'x, y, z'
loop_
 _atom_site_type_symbol
 _atom_site_label
 _atom_site_symmetry_multiplicity
 _atom_site_fract_x
 _atom_site_fract_y
 _atom_site_fract_z
 _atom_site_occupancy
  Y  Y0  1  0.530858  0.717271  0.250563  1
  Y  Y1  1  0.282729  0.813587  0.250563  1
  Y  Y2  1  0.186413  0.469142  0.250563  1
  Y  Y3  1  0.469142  0.282729  0.749437  1
  Y  Y4  1  0.717271  0.186413  0.749437  1
  Y  Y5  1  0.813587  0.530858  0.749437  1
  Zn  Zn6  1  0.000000  0.000000  0.000000  1
  P  P7  1  0.527008  0.138344  0.249978  1
  P  P8  1  0.861656  0.388665  0.249978  1
  P  P9  1  0.611335  0.472992  0.249978  1
  P  P10  1  0.949419  0.720599  0.247879  1
  P  P11  1  0.279401  0.228821  0.247879  1
  P  P12  1  0.771179  0.050581  0.247879  1
  P  P13  1  0.388665  0.527008  0.750022  1
  P  P14  1  0.472992  0.861656  0.750022  1
  P  P15  1  0.138344  0.611335  0.750022  1
  P  P16  1  0.720599  0.771179  0.752121  1
  P  P17  1  0.228821  0.949419  0.752121  1
  P  P18  1  0.050581  0.279401  0.752121  1
  Rh  Rh19  1  0.333333  0.666667  0.751949  1
  Rh  Rh20  1  0.919020  0.251672  0.247844  1
  Rh  Rh21  1  0.748328  0.667347  0.247844  1
  Rh  Rh22  1  0.332653  0.080980  0.247844  1
  Rh  Rh23  1  0.441217  0.025515  0.750070  1
  Rh  Rh24  1  0.974485  0.415705  0.750070  1
  Rh  Rh25  1  0.584295  0.558783  0.750070  1
  Rh  Rh26  1  0.666667  0.333333  0.248051  1
  Rh  Rh27  1  0.095434  0.203157  0.255301  1
  Rh  Rh28  1  0.796843  0.892277  0.255301  1
  Rh  Rh29  1  0.107723  0.904566  0.255301  1
  Rh  Rh30  1  0.025515  0.584295  0.249930  1
  Rh  Rh31  1  0.415705  0.441217  0.249930  1
  Rh  Rh32  1  0.558783  0.974485  0.249930  1
  Rh  Rh33  1  0.667347  0.919020  0.752156  1
  Rh  Rh34  1  0.080980  0.748328  0.752156  1
  Rh  Rh35  1  0.251672  0.332653  0.752156  1
  Rh  Rh36  1  0.904566  0.796843  0.744699  1
  Rh  Rh37  1  0.203157  0.107723  0.744699  1
  Rh  Rh38  1  0.892277  0.095434  0.744699  1
