# generated using pymatgen
data_YbDy3(Ga2Ag)4
_symmetry_space_group_name_H-M   'P 1'
_cell_length_a   4.36299000
_cell_length_b   6.97561345
_cell_length_c   10.26979381
_cell_angle_alpha   90.32908097
_cell_angle_beta   90.00000000
_cell_angle_gamma   90.00000000
_symmetry_Int_Tables_number   1
_chemical_formula_structural   YbDy3(Ga2Ag)4
_chemical_formula_sum   'Yb1 Dy3 Ga8 Ag4'
_cell_volume   312.55121028
_cell_formula_units_Z   1
loop_
 _symmetry_equiv_pos_site_id
 _symmetry_equiv_pos_as_xyz
  1  'x, y, z'
loop_
 _atom_site_type_symbol
 _atom_site_label
 _atom_site_symmetry_multiplicity
 _atom_site_fract_x
 _atom_site_fract_y
 _atom_site_fract_z
 _atom_site_occupancy
  Yb  Yb0  1  0.250000  0.276325  0.671629  1
  Dy  Dy1  1  0.250000  0.780500  0.826698  1
  Dy  Dy2  1  0.750000  0.222342  0.172240  1
  Dy  Dy3  1  0.750000  0.720061  0.328630  1
  Ga  Ga4  1  0.250000  0.704115  0.536147  1
  Ga  Ga5  1  0.750000  0.297830  0.464002  1
  Ga  Ga6  1  0.750000  0.793553  0.037684  1
  Ga  Ga7  1  0.250000  0.202157  0.964044  1
  Ga  Ga8  1  0.250000  0.927190  0.154870  1
  Ga  Ga9  1  0.750000  0.071436  0.849691  1
  Ga  Ga10  1  0.750000  0.571750  0.650840  1
  Ga  Ga11  1  0.250000  0.427843  0.344231  1
  Ag  Ag12  1  0.250000  0.544341  0.096692  1
  Ag  Ag13  1  0.750000  0.456177  0.901265  1
  Ag  Ag14  1  0.750000  0.959546  0.598083  1
  Ag  Ag15  1  0.250000  0.044834  0.403253  1
