# generated using pymatgen
data_VFeP4PbO14
_symmetry_space_group_name_H-M   'P 1'
_cell_length_a   4.88576082
_cell_length_b   7.19975697
_cell_length_c   8.04122546
_cell_angle_alpha   89.28111110
_cell_angle_beta   92.89072234
_cell_angle_gamma   106.47007886
_symmetry_Int_Tables_number   1
_chemical_formula_structural   VFeP4PbO14
_chemical_formula_sum   'V1 Fe1 P4 Pb1 O14'
_cell_volume   270.90851563
_cell_formula_units_Z   1
loop_
 _symmetry_equiv_pos_site_id
 _symmetry_equiv_pos_as_xyz
  1  'x, y, z'
loop_
 _atom_site_type_symbol
 _atom_site_label
 _atom_site_symmetry_multiplicity
 _atom_site_fract_x
 _atom_site_fract_y
 _atom_site_fract_z
 _atom_site_occupancy
  V  V0  1  0.499999  0.500000  0.500000  1
  Fe  Fe1  1  0.000000  0.000000  0.000000  1
  P  P2  1  0.614989  0.226892  0.203813  1
  P  P3  1  0.025971  0.616436  0.251332  1
  P  P4  1  0.974028  0.383566  0.748667  1
  P  P5  1  0.385009  0.773108  0.796187  1
  Pb  Pb6  1  0.000001  0.999999  0.500001  1
  O  O7  1  0.375066  0.176572  0.071904  1
  O  O8  1  0.084842  0.797198  0.145603  1
  O  O9  1  0.802576  0.442581  0.151449  1
  O  O10  1  0.815097  0.094428  0.206256  1
  O  O11  1  0.296053  0.557600  0.294647  1
  O  O12  1  0.517270  0.239493  0.383573  1
  O  O13  1  0.876427  0.650289  0.410290  1
  O  O14  1  0.123573  0.349711  0.589711  1
  O  O15  1  0.482731  0.760507  0.616427  1
  O  O16  1  0.703948  0.442401  0.705354  1
  O  O17  1  0.184903  0.905572  0.793744  1
  O  O18  1  0.197424  0.557419  0.848552  1
  O  O19  1  0.915159  0.202802  0.854398  1
  O  O20  1  0.624933  0.823429  0.928096  1
