# generated using pymatgen
data_La6Pr10Cd3HgPt4
_symmetry_space_group_name_H-M   'P 1'
_cell_length_a   10.12348330
_cell_length_b   10.13871100
_cell_length_c   10.13871025
_cell_angle_alpha   59.98793992
_cell_angle_beta   60.18825062
_cell_angle_gamma   60.18824839
_symmetry_Int_Tables_number   1
_chemical_formula_structural   La6Pr10Cd3HgPt4
_chemical_formula_sum   'La6 Pr10 Cd3 Hg1 Pt4'
_cell_volume   737.85411013
_cell_formula_units_Z   1
loop_
 _symmetry_equiv_pos_site_id
 _symmetry_equiv_pos_as_xyz
  1  'x, y, z'
loop_
 _atom_site_type_symbol
 _atom_site_label
 _atom_site_symmetry_multiplicity
 _atom_site_fract_x
 _atom_site_fract_y
 _atom_site_fract_z
 _atom_site_occupancy
  La  La0  1  0.348366  0.348951  0.348951  1
  La  La1  1  0.351911  0.351128  0.946629  1
  La  La2  1  0.351911  0.946629  0.351128  1
  La  La3  1  0.946577  0.351880  0.351880  1
  La  La4  1  0.809985  0.191053  0.191053  1
  La  La5  1  0.191879  0.807759  0.807759  1
  Pr  Pr6  1  0.191620  0.809329  0.191718  1
  Pr  Pr7  1  0.807218  0.192327  0.807333  1
  Pr  Pr8  1  0.191620  0.191718  0.809329  1
  Pr  Pr9  1  0.807218  0.807333  0.192327  1
  Pr  Pr10  1  0.938224  0.563781  0.563781  1
  Pr  Pr11  1  0.563161  0.934870  0.934870  1
  Pr  Pr12  1  0.563574  0.938317  0.563714  1
  Pr  Pr13  1  0.934937  0.563163  0.934882  1
  Pr  Pr14  1  0.563574  0.563714  0.938317  1
  Pr  Pr15  1  0.934937  0.934882  0.563163  1
  Cd  Cd16  1  0.579728  0.580185  0.258810  1
  Cd  Cd17  1  0.579728  0.258810  0.580185  1
  Cd  Cd18  1  0.258870  0.579696  0.579696  1
  Hg  Hg19  1  0.584551  0.584280  0.584280  1
  Pt  Pt20  1  0.142822  0.144058  0.144058  1
  Pt  Pt21  1  0.142750  0.141446  0.571992  1
  Pt  Pt22  1  0.142750  0.571992  0.141446  1
  Pt  Pt23  1  0.572087  0.142696  0.142696  1
