# generated using pymatgen
data_Al2V3SiOs6
_symmetry_space_group_name_H-M   'P 1'
_cell_length_a   4.25400500
_cell_length_b   6.01810600
_cell_length_c   12.76577200
_cell_angle_alpha   90.00000000
_cell_angle_beta   90.00000000
_cell_angle_gamma   90.00000000
_symmetry_Int_Tables_number   1
_chemical_formula_structural   Al2V3SiOs6
_chemical_formula_sum   'Al4 V6 Si2 Os12'
_cell_volume   326.81720574
_cell_formula_units_Z   2
loop_
 _symmetry_equiv_pos_site_id
 _symmetry_equiv_pos_as_xyz
  1  'x, y, z'
loop_
 _atom_site_type_symbol
 _atom_site_label
 _atom_site_symmetry_multiplicity
 _atom_site_fract_x
 _atom_site_fract_y
 _atom_site_fract_z
 _atom_site_occupancy
  Al  Al0  1  0.000024  0.000000  0.998454  1
  Al  Al1  1  0.499740  0.500001  0.166287  1
  Al  Al2  1  0.999739  0.000000  0.333713  1
  Al  Al3  1  0.500024  0.500001  0.501546  1
  V  V4  1  0.999981  0.500001  0.003205  1
  V  V5  1  0.499739  0.000000  0.166549  1
  V  V6  1  0.999738  0.500001  0.333451  1
  V  V7  1  0.499981  0.000000  0.496795  1
  V  V8  1  0.000254  0.500001  0.663664  1
  V  V9  1  0.500253  0.000000  0.836336  1
  Si  Si10  1  0.000274  0.000000  0.667911  1
  Si  Si11  1  0.500274  0.500001  0.832089  1
  Os  Os12  1  0.500016  0.252962  0.996631  1
  Os  Os13  1  0.500016  0.747038  0.996631  1
  Os  Os14  1  0.999763  0.249641  0.165941  1
  Os  Os15  1  0.999763  0.750359  0.165941  1
  Os  Os16  1  0.499764  0.250360  0.334059  1
  Os  Os17  1  0.499764  0.749640  0.334059  1
  Os  Os18  1  0.000016  0.247039  0.503369  1
  Os  Os19  1  0.000016  0.752961  0.503369  1
  Os  Os20  1  0.500217  0.247134  0.669221  1
  Os  Os21  1  0.500217  0.752866  0.669221  1
  Os  Os22  1  0.000215  0.252867  0.830779  1
  Os  Os23  1  0.000215  0.747133  0.830779  1
