# generated using pymatgen
data_Rb2HgF6
_symmetry_space_group_name_H-M   'P 1'
_cell_length_a   6.44392109
_cell_length_b   6.44100203
_cell_length_c   4.73596636
_cell_angle_alpha   89.96987127
_cell_angle_beta   89.98622597
_cell_angle_gamma   120.00105181
_symmetry_Int_Tables_number   1
_chemical_formula_structural   Rb2HgF6
_chemical_formula_sum   'Rb2 Hg1 F6'
_cell_volume   170.23080563
_cell_formula_units_Z   1
loop_
 _symmetry_equiv_pos_site_id
 _symmetry_equiv_pos_as_xyz
  1  'x, y, z'
loop_
 _atom_site_type_symbol
 _atom_site_label
 _atom_site_symmetry_multiplicity
 _atom_site_fract_x
 _atom_site_fract_y
 _atom_site_fract_z
 _atom_site_occupancy
  Rb  Rb0  1  0.000006  0.999983  0.199819  1
  Rb  Rb1  1  0.333337  0.666662  0.642593  1
  Hg  Hg2  1  0.666705  0.333279  0.922122  1
  F  F3  1  0.453715  0.009079  0.150935  1
  F  F4  1  0.990837  0.444652  0.150843  1
  F  F5  1  0.555346  0.546225  0.150869  1
  F  F6  1  0.342168  0.222069  0.694015  1
  F  F7  1  0.879924  0.657949  0.693929  1
  F  F8  1  0.777962  0.120101  0.693958  1
