# generated using pymatgen
data_Y5Ho5(InSb)3
_symmetry_space_group_name_H-M   'P 1'
_cell_length_a   8.97412000
_cell_length_b   8.94787764
_cell_length_c   6.53737700
_cell_angle_alpha   90.00000000
_cell_angle_beta   90.00000000
_cell_angle_gamma   120.09706386
_symmetry_Int_Tables_number   1
_chemical_formula_structural   Y5Ho5(InSb)3
_chemical_formula_sum   'Y5 Ho5 In3 Sb3'
_cell_volume   454.17211413
_cell_formula_units_Z   1
loop_
 _symmetry_equiv_pos_site_id
 _symmetry_equiv_pos_as_xyz
  1  'x, y, z'
loop_
 _atom_site_type_symbol
 _atom_site_label
 _atom_site_symmetry_multiplicity
 _atom_site_fract_x
 _atom_site_fract_y
 _atom_site_fract_z
 _atom_site_occupancy
  Y  Y0  1  0.760263  0.000000  0.750000  1
  Y  Y1  1  0.762761  0.759530  0.250000  1
  Y  Y2  1  0.003231  0.240470  0.250000  1
  Y  Y3  1  0.002252  0.762590  0.750000  1
  Y  Y4  1  0.239663  0.237410  0.750000  1
  Ho  Ho5  1  0.331121  0.666117  0.000922  1
  Ho  Ho6  1  0.665005  0.333883  0.499078  1
  Ho  Ho7  1  0.665005  0.333883  0.000922  1
  Ho  Ho8  1  0.331121  0.666117  0.499078  1
  Ho  Ho9  1  0.238441  0.000000  0.250000  1
  In  In10  1  0.396454  0.000000  0.750000  1
  In  In11  1  0.395046  0.395995  0.250000  1
  In  In12  1  0.999050  0.604005  0.250000  1
  Sb  Sb13  1  0.997782  0.392173  0.750000  1
  Sb  Sb14  1  0.605609  0.607827  0.750000  1
  Sb  Sb15  1  0.607193  0.000000  0.250000  1
