# generated using pymatgen
data_ScGaNi3Au
_symmetry_space_group_name_H-M   'P 1'
_cell_length_a   4.94863198
_cell_length_b   4.94863109
_cell_length_c   4.84758021
_cell_angle_alpha   59.30799789
_cell_angle_beta   59.30800266
_cell_angle_gamma   59.99999398
_symmetry_Int_Tables_number   1
_chemical_formula_structural   ScGaNi3Au
_chemical_formula_sum   'Sc1 Ga1 Ni3 Au1'
_cell_volume   83.05343532
_cell_formula_units_Z   1
loop_
 _symmetry_equiv_pos_site_id
 _symmetry_equiv_pos_as_xyz
  1  'x, y, z'
loop_
 _atom_site_type_symbol
 _atom_site_label
 _atom_site_symmetry_multiplicity
 _atom_site_fract_x
 _atom_site_fract_y
 _atom_site_fract_z
 _atom_site_occupancy
  Sc  Sc0  1  0.003172  0.003172  0.990484  1
  Ga  Ga1  1  0.623862  0.623862  0.128412  1
  Ni  Ni2  1  0.623802  0.125502  0.626892  1
  Ni  Ni3  1  0.125502  0.623802  0.626892  1
  Ni  Ni4  1  0.623802  0.623802  0.626892  1
  Au  Au5  1  0.249858  0.249858  0.250426  1
