# generated using pymatgen
data_Cd3BiIr2(RhO7)2
_symmetry_space_group_name_H-M   'P 1'
_cell_length_a   7.28967176
_cell_length_b   7.28967289
_cell_length_c   7.30513076
_cell_angle_alpha   59.25493348
_cell_angle_beta   59.25493199
_cell_angle_gamma   59.28351167
_symmetry_Int_Tables_number   1
_chemical_formula_structural   Cd3BiIr2(RhO7)2
_chemical_formula_sum   'Cd3 Bi1 Ir2 Rh2 O14'
_cell_volume   269.89327261
_cell_formula_units_Z   1
loop_
 _symmetry_equiv_pos_site_id
 _symmetry_equiv_pos_as_xyz
  1  'x, y, z'
loop_
 _atom_site_type_symbol
 _atom_site_label
 _atom_site_symmetry_multiplicity
 _atom_site_fract_x
 _atom_site_fract_y
 _atom_site_fract_z
 _atom_site_occupancy
  Cd  Cd0  1  0.125000  0.625000  0.125000  1
  Cd  Cd1  1  0.625000  0.125000  0.125000  1
  Cd  Cd2  1  0.125000  0.125000  0.625000  1
  Bi  Bi3  1  0.125000  0.125000  0.125000  1
  Ir  Ir4  1  0.625000  0.625000  0.625000  1
  Ir  Ir5  1  0.625000  0.625000  0.125000  1
  Rh  Rh6  1  0.125000  0.625000  0.625000  1
  Rh  Rh7  1  0.625000  0.125000  0.625000  1
  O  O8  1  0.252536  0.252536  0.249303  1
  O  O9  1  0.296260  0.709374  0.291826  1
  O  O10  1  0.961511  0.961511  0.536670  1
  O  O11  1  0.559259  0.946516  0.542941  1
  O  O12  1  0.692459  0.692459  0.304831  1
  O  O13  1  0.946516  0.559259  0.542941  1
  O  O14  1  0.690741  0.303484  0.707059  1
  O  O15  1  0.288489  0.288489  0.713330  1
  O  O16  1  0.709374  0.296260  0.291826  1
  O  O17  1  0.303484  0.690741  0.707059  1
  O  O18  1  0.953740  0.540626  0.958174  1
  O  O19  1  0.557541  0.557541  0.945169  1
  O  O20  1  0.997464  0.997464  0.000697  1
  O  O21  1  0.540626  0.953740  0.958174  1
