# generated using pymatgen
data_Ta2ReSi2Ru
_symmetry_space_group_name_H-M   'P 1'
_cell_length_a   7.51199688
_cell_length_b   7.47680638
_cell_length_c   7.50209412
_cell_angle_alpha   127.28693064
_cell_angle_beta   123.05272726
_cell_angle_gamma   81.30497770
_symmetry_Int_Tables_number   1
_chemical_formula_structural   Ta2ReSi2Ru
_chemical_formula_sum   'Ta6 Re3 Si6 Ru3'
_cell_volume   270.64739010
_cell_formula_units_Z   3
loop_
 _symmetry_equiv_pos_site_id
 _symmetry_equiv_pos_as_xyz
  1  'x, y, z'
loop_
 _atom_site_type_symbol
 _atom_site_label
 _atom_site_symmetry_multiplicity
 _atom_site_fract_x
 _atom_site_fract_y
 _atom_site_fract_z
 _atom_site_occupancy
  Ta  Ta0  1  0.937896  0.908677  0.467278  1
  Ta  Ta1  1  0.051006  0.507868  0.955013  1
  Ta  Ta2  1  0.539536  0.508685  0.462882  1
  Ta  Ta3  1  0.473426  0.941244  0.978442  1
  Ta  Ta4  1  0.753399  0.075984  0.837179  1
  Ta  Ta5  1  0.247864  0.087594  0.332863  1
  Re  Re6  1  0.473586  0.748413  0.226929  1
  Re  Re7  1  0.027228  0.753123  0.779715  1
  Re  Re8  1  0.900896  0.253290  0.408679  1
  Si  Si9  1  0.725738  0.479390  0.247671  1
  Si  Si10  1  0.283539  0.509013  0.726094  1
  Si  Si11  1  0.667077  0.176219  0.514383  1
  Si  Si12  1  0.325638  0.839918  0.503416  1
  Si  Si13  1  0.169202  0.177346  0.008332  1
  Si  Si14  1  0.836793  0.832602  0.010654  1
  Ru  Ru15  1  0.095244  0.503984  0.346220  1
  Ru  Ru16  1  0.334498  0.253079  0.842269  1
  Ru  Ru17  1  0.657435  0.501371  0.909781  1
