# generated using pymatgen
data_Tb2Yb4Si24Os5Ru3
_symmetry_space_group_name_H-M   'P 1'
_cell_length_a   10.14887914
_cell_length_b   10.14845947
_cell_length_c   8.15384302
_cell_angle_alpha   89.99992661
_cell_angle_beta   90.00598194
_cell_angle_gamma   132.65646043
_symmetry_Int_Tables_number   1
_chemical_formula_structural   Tb2Yb4Si24Os5Ru3
_chemical_formula_sum   'Tb2 Yb4 Si24 Os5 Ru3'
_cell_volume   617.62052722
_cell_formula_units_Z   1
loop_
 _symmetry_equiv_pos_site_id
 _symmetry_equiv_pos_as_xyz
  1  'x, y, z'
loop_
 _atom_site_type_symbol
 _atom_site_label
 _atom_site_symmetry_multiplicity
 _atom_site_fract_x
 _atom_site_fract_y
 _atom_site_fract_z
 _atom_site_occupancy
  Tb  Tb0  1  0.500717  0.000213  0.250206  1
  Tb  Tb1  1  0.999585  0.499659  0.749925  1
  Yb  Yb2  1  0.499451  0.499282  0.499944  1
  Yb  Yb3  1  0.999786  0.999987  0.999310  1
  Yb  Yb4  1  0.500065  0.000064  0.749997  1
  Yb  Yb5  1  0.999858  0.500349  0.250165  1
  Si  Si6  1  0.796220  0.204016  0.499988  1
  Si  Si7  1  0.295560  0.704603  0.000063  1
  Si  Si8  1  0.204538  0.795733  0.500029  1
  Si  Si9  1  0.703990  0.296036  0.999997  1
  Si  Si10  1  0.331813  0.336786  0.832108  1
  Si  Si11  1  0.663566  0.668481  0.168131  1
  Si  Si12  1  0.167840  0.162495  0.330050  1
  Si  Si13  1  0.834962  0.829939  0.667520  1
  Si  Si14  1  0.123775  0.890996  0.730797  1
  Si  Si15  1  0.109296  0.876939  0.269357  1
  Si  Si16  1  0.607784  0.375444  0.230286  1
  Si  Si17  1  0.625198  0.392564  0.769960  1
  Si  Si18  1  0.876592  0.108736  0.269713  1
  Si  Si19  1  0.891176  0.123879  0.730441  1
  Si  Si20  1  0.391696  0.624588  0.769693  1
  Si  Si21  1  0.375812  0.608387  0.230512  1
  Si  Si22  1  0.347442  0.113790  0.507120  1
  Si  Si23  1  0.886298  0.653125  0.493624  1
  Si  Si24  1  0.386311  0.153233  0.009734  1
  Si  Si25  1  0.846806  0.614103  0.990882  1
  Si  Si26  1  0.653281  0.885713  0.491920  1
  Si  Si27  1  0.114197  0.347229  0.508724  1
  Si  Si28  1  0.613481  0.846870  0.992685  1
  Si  Si29  1  0.153096  0.386919  0.007777  1
  Os  Os30  1  0.671235  0.328935  0.500031  1
  Os  Os31  1  0.170397  0.829690  0.999972  1
  Os  Os32  1  0.329797  0.670340  0.499981  1
  Os  Os33  1  0.828824  0.171217  0.999995  1
  Os  Os34  1  0.126815  0.127139  0.624759  1
  Ru  Ru35  1  0.872536  0.873034  0.374913  1
  Ru  Ru36  1  0.373203  0.372794  0.124464  1
  Ru  Ru37  1  0.627002  0.626694  0.875229  1
