# generated using pymatgen
data_La4CdRh
_symmetry_space_group_name_H-M   'P 1'
_cell_length_a   10.13580645
_cell_length_b   10.13580600
_cell_length_c   10.13580600
_cell_angle_alpha   60.00000000
_cell_angle_beta   60.00000146
_cell_angle_gamma   60.00000140
_symmetry_Int_Tables_number   1
_chemical_formula_structural   La4CdRh
_chemical_formula_sum   'La16 Cd4 Rh4'
_cell_volume   736.30864445
_cell_formula_units_Z   4
loop_
 _symmetry_equiv_pos_site_id
 _symmetry_equiv_pos_as_xyz
  1  'x, y, z'
loop_
 _atom_site_type_symbol
 _atom_site_label
 _atom_site_symmetry_multiplicity
 _atom_site_fract_x
 _atom_site_fract_y
 _atom_site_fract_z
 _atom_site_occupancy
  La  La0  1  0.062483  0.437517  0.437517  1
  La  La1  1  0.062483  0.437517  0.062483  1
  La  La2  1  0.062483  0.062483  0.437517  1
  La  La3  1  0.437517  0.062483  0.062483  1
  La  La4  1  0.437517  0.062483  0.437517  1
  La  La5  1  0.437517  0.437517  0.062483  1
  La  La6  1  0.189400  0.810600  0.810600  1
  La  La7  1  0.189400  0.810600  0.189400  1
  La  La8  1  0.189400  0.189400  0.810600  1
  La  La9  1  0.810600  0.189400  0.189400  1
  La  La10  1  0.810600  0.189400  0.810600  1
  La  La11  1  0.810600  0.810600  0.189400  1
  La  La12  1  0.039916  0.653361  0.653361  1
  La  La13  1  0.653361  0.039916  0.653361  1
  La  La14  1  0.653361  0.653361  0.039916  1
  La  La15  1  0.653361  0.653361  0.653361  1
  Cd  Cd16  1  0.737230  0.420923  0.420923  1
  Cd  Cd17  1  0.420923  0.737230  0.420923  1
  Cd  Cd18  1  0.420923  0.420923  0.737230  1
  Cd  Cd19  1  0.420923  0.420923  0.420923  1
  Rh  Rh20  1  0.424134  0.858622  0.858622  1
  Rh  Rh21  1  0.858622  0.424134  0.858622  1
  Rh  Rh22  1  0.858622  0.858622  0.424134  1
  Rh  Rh23  1  0.858622  0.858622  0.858622  1
