# generated using pymatgen
data_Er(GeRh2)2
_symmetry_space_group_name_H-M   'P 1'
_cell_length_a   4.22017300
_cell_length_b   9.17971500
_cell_length_c   11.49025900
_cell_angle_alpha   90.00000000
_cell_angle_beta   90.00000000
_cell_angle_gamma   90.00000000
_symmetry_Int_Tables_number   1
_chemical_formula_structural   Er(GeRh2)2
_chemical_formula_sum   'Er4 Ge8 Rh16'
_cell_volume   445.13246580
_cell_formula_units_Z   4
loop_
 _symmetry_equiv_pos_site_id
 _symmetry_equiv_pos_as_xyz
  1  'x, y, z'
loop_
 _atom_site_type_symbol
 _atom_site_label
 _atom_site_symmetry_multiplicity
 _atom_site_fract_x
 _atom_site_fract_y
 _atom_site_fract_z
 _atom_site_occupancy
  Er  Er0  1  0.250000  0.147659  0.825549  1
  Er  Er1  1  0.250000  0.352341  0.325549  1
  Er  Er2  1  0.750000  0.852341  0.174451  1
  Er  Er3  1  0.750000  0.647659  0.674451  1
  Ge  Ge4  1  0.250000  0.414080  0.638483  1
  Ge  Ge5  1  0.250000  0.085920  0.138483  1
  Ge  Ge6  1  0.750000  0.585920  0.361517  1
  Ge  Ge7  1  0.750000  0.914080  0.861517  1
  Ge  Ge8  1  0.250000  0.618107  0.059449  1
  Ge  Ge9  1  0.250000  0.881893  0.559449  1
  Ge  Ge10  1  0.750000  0.381893  0.940551  1
  Ge  Ge11  1  0.750000  0.118107  0.440551  1
  Rh  Rh12  1  0.250000  0.615532  0.498896  1
  Rh  Rh13  1  0.250000  0.884468  0.998896  1
  Rh  Rh14  1  0.750000  0.384468  0.501104  1
  Rh  Rh15  1  0.750000  0.115532  0.001104  1
  Rh  Rh16  1  0.250000  0.691358  0.268728  1
  Rh  Rh17  1  0.250000  0.808642  0.768728  1
  Rh  Rh18  1  0.750000  0.308642  0.731272  1
  Rh  Rh19  1  0.750000  0.191358  0.231272  1
  Rh  Rh20  1  0.250000  0.170840  0.560860  1
  Rh  Rh21  1  0.250000  0.329160  0.060860  1
  Rh  Rh22  1  0.750000  0.829160  0.439140  1
  Rh  Rh23  1  0.750000  0.670840  0.939140  1
  Rh  Rh24  1  0.250000  0.003713  0.344371  1
  Rh  Rh25  1  0.250000  0.496287  0.844371  1
  Rh  Rh26  1  0.750000  0.996287  0.655629  1
  Rh  Rh27  1  0.750000  0.503713  0.155629  1
