# generated using pymatgen
data_Nd3Ho4Th(ReB6)4
_symmetry_space_group_name_H-M   'P 1'
_cell_length_a   3.73846400
_cell_length_b   9.24266430
_cell_length_c   11.69518512
_cell_angle_alpha   90.05652882
_cell_angle_beta   90.00000000
_cell_angle_gamma   90.00000000
_symmetry_Int_Tables_number   1
_chemical_formula_structural   Nd3Ho4Th(ReB6)4
_chemical_formula_sum   'Nd3 Ho4 Th1 Re4 B24'
_cell_volume   404.10783559
_cell_formula_units_Z   1
loop_
 _symmetry_equiv_pos_site_id
 _symmetry_equiv_pos_as_xyz
  1  'x, y, z'
loop_
 _atom_site_type_symbol
 _atom_site_label
 _atom_site_symmetry_multiplicity
 _atom_site_fract_x
 _atom_site_fract_y
 _atom_site_fract_z
 _atom_site_occupancy
  Nd  Nd0  1  0.000000  0.677904  0.586346  1
  Nd  Nd1  1  0.000000  0.822778  0.085320  1
  Nd  Nd2  1  0.000000  0.176757  0.914140  1
  Ho  Ho3  1  0.000000  0.942113  0.369147  1
  Ho  Ho4  1  0.000000  0.056642  0.631235  1
  Ho  Ho5  1  0.000000  0.443094  0.129471  1
  Ho  Ho6  1  0.000000  0.557370  0.869359  1
  Th  Th7  1  0.000000  0.322653  0.414432  1
  Re  Re8  1  0.000000  0.637788  0.319990  1
  Re  Re9  1  0.000000  0.361125  0.679770  1
  Re  Re10  1  0.000000  0.140051  0.181068  1
  Re  Re11  1  0.000000  0.860884  0.819560  1
  B  B12  1  0.500000  0.555130  0.430318  1
  B  B13  1  0.500000  0.444644  0.569806  1
  B  B14  1  0.500000  0.054979  0.069171  1
  B  B15  1  0.500000  0.945241  0.930846  1
  B  B16  1  0.500000  0.750066  0.415809  1
  B  B17  1  0.500000  0.250277  0.584596  1
  B  B18  1  0.500000  0.249697  0.083557  1
  B  B19  1  0.500000  0.750167  0.916112  1
  B  B20  1  0.500000  0.790939  0.266069  1
  B  B21  1  0.500000  0.209032  0.734256  1
  B  B22  1  0.500000  0.290991  0.233603  1
  B  B23  1  0.500000  0.708758  0.766208  1
  B  B24  1  0.500000  0.630006  0.185918  1
  B  B25  1  0.500000  0.370513  0.813915  1
  B  B26  1  0.500000  0.129881  0.313394  1
  B  B27  1  0.500000  0.870213  0.686523  1
  B  B28  1  0.500000  0.984402  0.212833  1
  B  B29  1  0.500000  0.015733  0.787164  1
  B  B30  1  0.500000  0.484718  0.286441  1
  B  B31  1  0.500000  0.515922  0.713794  1
  B  B32  1  0.500000  0.596945  0.026640  1
  B  B33  1  0.500000  0.403300  0.972803  1
  B  B34  1  0.500000  0.096856  0.473183  1
  B  B35  1  0.500000  0.902426  0.527204  1
