# generated using pymatgen
data_Li3TbDy2HgGe2
_symmetry_space_group_name_H-M   'P 1'
_cell_length_a   7.25152755
_cell_length_b   7.25152855
_cell_length_c   4.22272100
_cell_angle_alpha   90.00000000
_cell_angle_beta   90.00000000
_cell_angle_gamma   120.04458594
_symmetry_Int_Tables_number   1
_chemical_formula_structural   Li3TbDy2HgGe2
_chemical_formula_sum   'Li3 Tb1 Dy2 Hg1 Ge2'
_cell_volume   192.21478406
_cell_formula_units_Z   1
loop_
 _symmetry_equiv_pos_site_id
 _symmetry_equiv_pos_as_xyz
  1  'x, y, z'
loop_
 _atom_site_type_symbol
 _atom_site_label
 _atom_site_symmetry_multiplicity
 _atom_site_fract_x
 _atom_site_fract_y
 _atom_site_fract_z
 _atom_site_occupancy
  Li  Li0  1  0.753293  0.753293  0.500000  1
  Li  Li1  1  0.246750  0.999953  0.500000  1
  Li  Li2  1  0.999953  0.246750  0.500000  1
  Tb  Tb3  1  0.432040  0.432040  0.000000  1
  Dy  Dy4  1  0.567944  0.999986  0.000000  1
  Dy  Dy5  1  0.999986  0.567944  0.000000  1
  Hg  Hg6  1  0.999885  0.999885  0.000000  1
  Ge  Ge7  1  0.666857  0.333292  0.500000  1
  Ge  Ge8  1  0.333292  0.666857  0.500000  1
