# generated using pymatgen
data_Li3Yb4AlAu4
_symmetry_space_group_name_H-M   'P 1'
_cell_length_a   4.28012300
_cell_length_b   7.29182205
_cell_length_c   8.44302133
_cell_angle_alpha   90.78973874
_cell_angle_beta   90.00000000
_cell_angle_gamma   90.00000000
_symmetry_Int_Tables_number   1
_chemical_formula_structural   Li3Yb4AlAu4
_chemical_formula_sum   'Li3 Yb4 Al1 Au4'
_cell_volume   263.48078090
_cell_formula_units_Z   1
loop_
 _symmetry_equiv_pos_site_id
 _symmetry_equiv_pos_as_xyz
  1  'x, y, z'
loop_
 _atom_site_type_symbol
 _atom_site_label
 _atom_site_symmetry_multiplicity
 _atom_site_fract_x
 _atom_site_fract_y
 _atom_site_fract_z
 _atom_site_occupancy
  Li  Li0  1  0.250000  0.638906  0.564540  1
  Li  Li1  1  0.250000  0.134388  0.938523  1
  Li  Li2  1  0.750000  0.367943  0.437299  1
  Yb  Yb3  1  0.750000  0.471136  0.822062  1
  Yb  Yb4  1  0.250000  0.030665  0.317167  1
  Yb  Yb5  1  0.750000  0.965026  0.680671  1
  Yb  Yb6  1  0.250000  0.532056  0.180822  1
  Al  Al7  1  0.750000  0.862028  0.058324  1
  Au  Au8  1  0.250000  0.770454  0.893347  1
  Au  Au9  1  0.250000  0.262157  0.622431  1
  Au  Au10  1  0.750000  0.740130  0.365612  1
  Au  Au11  1  0.750000  0.225112  0.119203  1
