# generated using pymatgen
data_NdThHgAu2
_symmetry_space_group_name_H-M   'P 1'
_cell_length_a   3.86625800
_cell_length_b   8.16769123
_cell_length_c   8.16769103
_cell_angle_alpha   91.02401723
_cell_angle_beta   90.00000000
_cell_angle_gamma   90.00000000
_symmetry_Int_Tables_number   1
_chemical_formula_structural   NdThHgAu2
_chemical_formula_sum   'Nd2 Th2 Hg2 Au4'
_cell_volume   257.88143482
_cell_formula_units_Z   2
loop_
 _symmetry_equiv_pos_site_id
 _symmetry_equiv_pos_as_xyz
  1  'x, y, z'
loop_
 _atom_site_type_symbol
 _atom_site_label
 _atom_site_symmetry_multiplicity
 _atom_site_fract_x
 _atom_site_fract_y
 _atom_site_fract_z
 _atom_site_occupancy
  Nd  Nd0  1  0.500000  0.326466  0.173534  1
  Nd  Nd1  1  0.500000  0.673534  0.826466  1
  Th  Th2  1  0.500000  0.174084  0.674084  1
  Th  Th3  1  0.500000  0.825916  0.325916  1
  Hg  Hg4  1  0.000000  0.000000  0.000000  1
  Hg  Hg5  1  0.000000  0.500000  0.500000  1
  Au  Au6  1  0.000000  0.627524  0.127524  1
  Au  Au7  1  0.000000  0.372476  0.872476  1
  Au  Au8  1  0.000000  0.874559  0.625441  1
  Au  Au9  1  0.000000  0.125441  0.374559  1
