# generated using pymatgen
data_Y20Cd6FeCu
_symmetry_space_group_name_H-M   'P 1'
_cell_length_a   9.65927400
_cell_length_b   9.65927429
_cell_length_c   9.82567800
_cell_angle_alpha   90.00000000
_cell_angle_beta   90.00000000
_cell_angle_gamma   119.99999901
_symmetry_Int_Tables_number   1
_chemical_formula_structural   Y20Cd6FeCu
_chemical_formula_sum   'Y20 Cd6 Fe1 Cu1'
_cell_volume   793.92988153
_cell_formula_units_Z   1
loop_
 _symmetry_equiv_pos_site_id
 _symmetry_equiv_pos_as_xyz
  1  'x, y, z'
loop_
 _atom_site_type_symbol
 _atom_site_label
 _atom_site_symmetry_multiplicity
 _atom_site_fract_x
 _atom_site_fract_y
 _atom_site_fract_z
 _atom_site_occupancy
  Y  Y0  1  0.212300  0.787700  0.935998  1
  Y  Y1  1  0.212300  0.424599  0.935998  1
  Y  Y2  1  0.575401  0.787700  0.935998  1
  Y  Y3  1  0.791216  0.208784  0.058802  1
  Y  Y4  1  0.791216  0.582433  0.058802  1
  Y  Y5  1  0.417567  0.208784  0.058802  1
  Y  Y6  1  0.791216  0.208784  0.441198  1
  Y  Y7  1  0.791216  0.582433  0.441198  1
  Y  Y8  1  0.417567  0.208784  0.441198  1
  Y  Y9  1  0.212300  0.787700  0.564002  1
  Y  Y10  1  0.212300  0.424599  0.564002  1
  Y  Y11  1  0.575401  0.787700  0.564002  1
  Y  Y12  1  0.541239  0.458761  0.750000  1
  Y  Y13  1  0.541239  0.082477  0.750000  1
  Y  Y14  1  0.917523  0.458761  0.750000  1
  Y  Y15  1  0.456157  0.543843  0.250000  1
  Y  Y16  1  0.456157  0.912313  0.250000  1
  Y  Y17  1  0.087687  0.543843  0.250000  1
  Y  Y18  1  0.000000  0.000000  0.999880  1
  Y  Y19  1  0.000000  0.000000  0.500120  1
  Cd  Cd20  1  0.884979  0.115021  0.750000  1
  Cd  Cd21  1  0.884979  0.769960  0.750000  1
  Cd  Cd22  1  0.230040  0.115021  0.750000  1
  Cd  Cd23  1  0.115508  0.884492  0.250000  1
  Cd  Cd24  1  0.115508  0.231014  0.250000  1
  Cd  Cd25  1  0.768986  0.884492  0.250000  1
  Fe  Fe26  1  0.333333  0.666667  0.750000  1
  Cu  Cu27  1  0.666667  0.333333  0.250000  1
