# generated using pymatgen
data_Rb4Y3Zr5S16
_symmetry_space_group_name_H-M   'P 1'
_cell_length_a   6.61986530
_cell_length_b   7.54811000
_cell_length_c   16.02691400
_cell_angle_alpha   90.00000000
_cell_angle_beta   90.39872764
_cell_angle_gamma   90.00000000
_symmetry_Int_Tables_number   1
_chemical_formula_structural   Rb4Y3Zr5S16
_chemical_formula_sum   'Rb4 Y3 Zr5 S16'
_cell_volume   800.80497608
_cell_formula_units_Z   1
loop_
 _symmetry_equiv_pos_site_id
 _symmetry_equiv_pos_as_xyz
  1  'x, y, z'
loop_
 _atom_site_type_symbol
 _atom_site_label
 _atom_site_symmetry_multiplicity
 _atom_site_fract_x
 _atom_site_fract_y
 _atom_site_fract_z
 _atom_site_occupancy
  Rb  Rb0  1  0.347244  0.000000  0.999576  1
  Rb  Rb1  1  0.645747  0.500000  0.499935  1
  Rb  Rb2  1  0.027072  0.000000  0.499710  1
  Rb  Rb3  1  0.972508  0.500000  0.002025  1
  Y  Y4  1  0.000979  0.000000  0.246824  1
  Y  Y5  1  0.001679  0.000000  0.753234  1
  Y  Y6  1  0.998704  0.500000  0.253412  1
  Zr  Zr7  1  0.999639  0.500000  0.747230  1
  Zr  Zr8  1  0.499970  0.249878  0.250068  1
  Zr  Zr9  1  0.499798  0.750115  0.749840  1
  Zr  Zr10  1  0.499970  0.750122  0.250068  1
  Zr  Zr11  1  0.499798  0.249885  0.749840  1
  S  S12  1  0.817335  0.246416  0.344714  1
  S  S13  1  0.825852  0.742226  0.657207  1
  S  S14  1  0.182479  0.746594  0.155577  1
  S  S15  1  0.177378  0.264062  0.842705  1
  S  S16  1  0.182479  0.253406  0.155577  1
  S  S17  1  0.177378  0.735938  0.842705  1
  S  S18  1  0.817335  0.753584  0.344714  1
  S  S19  1  0.825852  0.257774  0.657207  1
  S  S20  1  0.652979  0.000000  0.158210  1
  S  S21  1  0.655476  0.000000  0.841961  1
  S  S22  1  0.346410  0.500000  0.341628  1
  S  S23  1  0.327832  0.500000  0.659479  1
  S  S24  1  0.347307  0.000000  0.341104  1
  S  S25  1  0.347287  0.000000  0.658214  1
  S  S26  1  0.652210  0.500000  0.159312  1
  S  S27  1  0.671303  0.500000  0.837929  1
