# generated using pymatgen
data_Dy2B6(Ir2Rh)3
_symmetry_space_group_name_H-M   'P 1'
_cell_length_a   5.62723712
_cell_length_b   5.62014539
_cell_length_c   8.64367700
_cell_angle_alpha   90.00000000
_cell_angle_beta   90.00000000
_cell_angle_gamma   119.85937420
_symmetry_Int_Tables_number   1
_chemical_formula_structural   Dy2B6(Ir2Rh)3
_chemical_formula_sum   'Dy2 B6 Ir6 Rh3'
_cell_volume   237.07491172
_cell_formula_units_Z   1
loop_
 _symmetry_equiv_pos_site_id
 _symmetry_equiv_pos_as_xyz
  1  'x, y, z'
loop_
 _atom_site_type_symbol
 _atom_site_label
 _atom_site_symmetry_multiplicity
 _atom_site_fract_x
 _atom_site_fract_y
 _atom_site_fract_z
 _atom_site_occupancy
  Dy  Dy0  1  0.000000  0.000000  0.701351  1
  Dy  Dy1  1  0.000000  0.000000  0.299396  1
  B  B2  1  0.667537  0.332926  0.999833  1
  B  B3  1  0.332463  0.667074  0.999833  1
  B  B4  1  0.666825  0.333210  0.667929  1
  B  B5  1  0.333175  0.666790  0.667929  1
  B  B6  1  0.332675  0.666147  0.331893  1
  B  B7  1  0.667325  0.333853  0.331893  1
  Ir  Ir8  1  0.500000  0.000000  0.836755  1
  Ir  Ir9  1  0.000000  0.500000  0.836438  1
  Ir  Ir10  1  0.000000  0.500000  0.163752  1
  Ir  Ir11  1  0.500000  0.500000  0.499692  1
  Ir  Ir12  1  0.500000  0.000000  0.499027  1
  Ir  Ir13  1  0.000000  0.500000  0.499868  1
  Rh  Rh14  1  0.500000  0.500000  0.836439  1
  Rh  Rh15  1  0.500000  0.500000  0.163882  1
  Rh  Rh16  1  0.500000  0.000000  0.164091  1
