# generated using pymatgen
data_Nd4Zn(CdCo)2
_symmetry_space_group_name_H-M   'P 1'
_cell_length_a   3.83334400
_cell_length_b   7.36721078
_cell_length_c   8.17446880
_cell_angle_alpha   71.82390460
_cell_angle_beta   90.00000000
_cell_angle_gamma   90.00000000
_symmetry_Int_Tables_number   1
_chemical_formula_structural   Nd4Zn(CdCo)2
_chemical_formula_sum   'Nd4 Zn1 Cd2 Co2'
_cell_volume   219.33643983
_cell_formula_units_Z   1
loop_
 _symmetry_equiv_pos_site_id
 _symmetry_equiv_pos_as_xyz
  1  'x, y, z'
loop_
 _atom_site_type_symbol
 _atom_site_label
 _atom_site_symmetry_multiplicity
 _atom_site_fract_x
 _atom_site_fract_y
 _atom_site_fract_z
 _atom_site_occupancy
  Nd  Nd0  1  0.500000  0.612312  0.187187  1
  Nd  Nd1  1  0.500000  0.085187  0.268110  1
  Nd  Nd2  1  0.500000  0.387688  0.812813  1
  Nd  Nd3  1  0.500000  0.914813  0.731890  1
  Zn  Zn4  1  0.000000  0.000000  0.000000  1
  Cd  Cd5  1  0.000000  0.704519  0.511844  1
  Cd  Cd6  1  0.000000  0.295481  0.488156  1
  Co  Co7  1  0.000000  0.650929  0.901399  1
  Co  Co8  1  0.000000  0.349071  0.098601  1
