# generated using pymatgen
data_Zn22CoNiIr
_symmetry_space_group_name_H-M   'P 1'
_cell_length_a   7.71130398
_cell_length_b   7.71130386
_cell_length_c   7.73433903
_cell_angle_alpha   71.67529524
_cell_angle_beta   71.67530289
_cell_angle_gamma   57.98606605
_symmetry_Int_Tables_number   1
_chemical_formula_structural   Zn22CoNiIr
_chemical_formula_sum   'Zn22 Co1 Ni1 Ir1'
_cell_volume   363.90813143
_cell_formula_units_Z   1
loop_
 _symmetry_equiv_pos_site_id
 _symmetry_equiv_pos_as_xyz
  1  'x, y, z'
loop_
 _atom_site_type_symbol
 _atom_site_label
 _atom_site_symmetry_multiplicity
 _atom_site_fract_x
 _atom_site_fract_y
 _atom_site_fract_z
 _atom_site_occupancy
  Zn  Zn0  1  0.336563  0.743807  0.317985  1
  Zn  Zn1  1  0.656091  0.258549  0.688826  1
  Zn  Zn2  1  0.258549  0.656091  0.688826  1
  Zn  Zn3  1  0.743807  0.336563  0.317985  1
  Zn  Zn4  1  0.676276  0.321094  0.999170  1
  Zn  Zn5  1  0.321094  0.676276  0.999170  1
  Zn  Zn6  1  0.834095  0.834095  0.776320  1
  Zn  Zn7  1  0.168577  0.168577  0.217591  1
  Zn  Zn8  1  0.977342  0.977342  0.177399  1
  Zn  Zn9  1  0.022553  0.022553  0.823212  1
  Zn  Zn10  1  0.350090  0.350090  0.273663  1
  Zn  Zn11  1  0.648362  0.648362  0.721508  1
  Zn  Zn12  1  0.686234  0.686234  0.378217  1
  Zn  Zn13  1  0.315756  0.315756  0.621733  1
  Zn  Zn14  1  0.662317  0.024231  0.463748  1
  Zn  Zn15  1  0.334973  0.977710  0.537159  1
  Zn  Zn16  1  0.977710  0.334973  0.537159  1
  Zn  Zn17  1  0.024231  0.662317  0.463748  1
  Zn  Zn18  1  0.615405  0.004126  0.099540  1
  Zn  Zn19  1  0.375872  0.009646  0.899224  1
  Zn  Zn20  1  0.009646  0.375872  0.899224  1
  Zn  Zn21  1  0.004126  0.615405  0.099540  1
  Co  Co22  1  0.000053  0.000053  0.499598  1
  Ni  Ni23  1  0.342494  0.342494  0.944923  1
  Ir  Ir24  1  0.657784  0.657784  0.054533  1
