# generated using pymatgen
data_TbPa(Ga2Pd)2
_symmetry_space_group_name_H-M   'P 1'
_cell_length_a   5.53704173
_cell_length_b   5.53704084
_cell_length_c   6.60713700
_cell_angle_alpha   90.00000000
_cell_angle_beta   90.00000000
_cell_angle_gamma   132.03811540
_symmetry_Int_Tables_number   1
_chemical_formula_structural   TbPa(Ga2Pd)2
_chemical_formula_sum   'Tb1 Pa1 Ga4 Pd2'
_cell_volume   150.44646396
_cell_formula_units_Z   1
loop_
 _symmetry_equiv_pos_site_id
 _symmetry_equiv_pos_as_xyz
  1  'x, y, z'
loop_
 _atom_site_type_symbol
 _atom_site_label
 _atom_site_symmetry_multiplicity
 _atom_site_fract_x
 _atom_site_fract_y
 _atom_site_fract_z
 _atom_site_occupancy
  Tb  Tb0  1  0.906210  0.093790  0.250000  1
  Pa  Pa1  1  0.093733  0.906267  0.750000  1
  Ga  Ga2  1  0.376113  0.623887  0.552355  1
  Ga  Ga3  1  0.624762  0.375238  0.052255  1
  Ga  Ga4  1  0.624762  0.375238  0.447745  1
  Ga  Ga5  1  0.376113  0.623887  0.947645  1
  Pd  Pd6  1  0.801947  0.198053  0.750000  1
  Pd  Pd7  1  0.196361  0.803639  0.250000  1
