# generated using pymatgen
data_Ho3Fe3Co4(P3Rh)2
_symmetry_space_group_name_H-M   'P 1'
_cell_length_a   3.72787200
_cell_length_b   10.67903000
_cell_length_c   12.29531300
_cell_angle_alpha   90.00000000
_cell_angle_beta   90.00000000
_cell_angle_gamma   90.00000000
_symmetry_Int_Tables_number   1
_chemical_formula_structural   Ho3Fe3Co4(P3Rh)2
_chemical_formula_sum   'Ho6 Fe6 Co8 P12 Rh4'
_cell_volume   489.47711043
_cell_formula_units_Z   2
loop_
 _symmetry_equiv_pos_site_id
 _symmetry_equiv_pos_as_xyz
  1  'x, y, z'
loop_
 _atom_site_type_symbol
 _atom_site_label
 _atom_site_symmetry_multiplicity
 _atom_site_fract_x
 _atom_site_fract_y
 _atom_site_fract_z
 _atom_site_occupancy
  Ho  Ho0  1  0.000000  0.500000  0.521276  1
  Ho  Ho1  1  0.500000  0.000000  0.478724  1
  Ho  Ho2  1  0.500000  0.815319  0.205397  1
  Ho  Ho3  1  0.500000  0.184681  0.205397  1
  Ho  Ho4  1  0.000000  0.684681  0.794603  1
  Ho  Ho5  1  0.000000  0.315319  0.794603  1
  Fe  Fe6  1  0.000000  0.500000  0.989478  1
  Fe  Fe7  1  0.500000  0.000000  0.010522  1
  Fe  Fe8  1  0.500000  0.299479  0.429303  1
  Fe  Fe9  1  0.500000  0.700521  0.429303  1
  Fe  Fe10  1  0.000000  0.200521  0.570697  1
  Fe  Fe11  1  0.000000  0.799479  0.570697  1
  Co  Co12  1  0.500000  0.880486  0.710418  1
  Co  Co13  1  0.500000  0.119514  0.710418  1
  Co  Co14  1  0.000000  0.619514  0.289582  1
  Co  Co15  1  0.000000  0.380486  0.289582  1
  Co  Co16  1  0.500000  0.331390  0.994570  1
  Co  Co17  1  0.500000  0.668610  0.994570  1
  Co  Co18  1  0.000000  0.168610  0.005430  1
  Co  Co19  1  0.000000  0.831390  0.005430  1
  P  P20  1  0.500000  0.301225  0.612552  1
  P  P21  1  0.500000  0.698775  0.612552  1
  P  P22  1  0.000000  0.198775  0.387448  1
  P  P23  1  0.000000  0.801225  0.387448  1
  P  P24  1  0.500000  0.500000  0.890791  1
  P  P25  1  0.000000  0.000000  0.109209  1
  P  P26  1  0.500000  0.844388  0.895613  1
  P  P27  1  0.500000  0.155612  0.895613  1
  P  P28  1  0.000000  0.655612  0.104387  1
  P  P29  1  0.000000  0.344388  0.104387  1
  P  P30  1  0.500000  0.500000  0.351603  1
  P  P31  1  0.000000  0.000000  0.648397  1
  Rh  Rh32  1  0.500000  0.500000  0.160202  1
  Rh  Rh33  1  0.000000  0.000000  0.839798  1
  Rh  Rh34  1  0.500000  0.500000  0.701801  1
  Rh  Rh35  1  0.000000  0.000000  0.298199  1
