# generated using pymatgen
data_Tb2Dy3Lu3Au4
_symmetry_space_group_name_H-M   'P 1'
_cell_length_a   4.90176800
_cell_length_b   7.10381245
_cell_length_c   8.88906469
_cell_angle_alpha   90.20867620
_cell_angle_beta   90.00000000
_cell_angle_gamma   90.00000000
_symmetry_Int_Tables_number   1
_chemical_formula_structural   Tb2Dy3Lu3Au4
_chemical_formula_sum   'Tb2 Dy3 Lu3 Au4'
_cell_volume   309.52620691
_cell_formula_units_Z   1
loop_
 _symmetry_equiv_pos_site_id
 _symmetry_equiv_pos_as_xyz
  1  'x, y, z'
loop_
 _atom_site_type_symbol
 _atom_site_label
 _atom_site_symmetry_multiplicity
 _atom_site_fract_x
 _atom_site_fract_y
 _atom_site_fract_z
 _atom_site_occupancy
  Tb  Tb0  1  0.250000  0.484283  0.177085  1
  Tb  Tb1  1  0.250000  0.986527  0.322528  1
  Dy  Dy2  1  0.750000  0.648141  0.420526  1
  Dy  Dy3  1  0.750000  0.514940  0.822948  1
  Dy  Dy4  1  0.750000  0.015940  0.678076  1
  Lu  Lu5  1  0.250000  0.852228  0.921042  1
  Lu  Lu6  1  0.250000  0.351984  0.580187  1
  Lu  Lu7  1  0.750000  0.147922  0.078113  1
  Au  Au8  1  0.250000  0.253511  0.899296  1
  Au  Au9  1  0.250000  0.754816  0.602810  1
  Au  Au10  1  0.750000  0.746644  0.097770  1
  Au  Au11  1  0.750000  0.243063  0.399620  1
