# generated using pymatgen
data_V6Tc12GeW5
_symmetry_space_group_name_H-M   'P 1'
_cell_length_a   4.35146400
_cell_length_b   6.15777200
_cell_length_c   13.09549100
_cell_angle_alpha   90.00000000
_cell_angle_beta   90.00066169
_cell_angle_gamma   90.00000000
_symmetry_Int_Tables_number   1
_chemical_formula_structural   V6Tc12GeW5
_chemical_formula_sum   'V6 Tc12 Ge1 W5'
_cell_volume   350.89791351
_cell_formula_units_Z   1
loop_
 _symmetry_equiv_pos_site_id
 _symmetry_equiv_pos_as_xyz
  1  'x, y, z'
loop_
 _atom_site_type_symbol
 _atom_site_label
 _atom_site_symmetry_multiplicity
 _atom_site_fract_x
 _atom_site_fract_y
 _atom_site_fract_z
 _atom_site_occupancy
  V  V0  1  0.999885  0.500001  0.998868  1
  V  V1  1  0.499701  0.000000  0.164192  1
  V  V2  1  0.999729  0.500001  0.333341  1
  V  V3  1  0.500026  0.000000  0.502494  1
  V  V4  1  0.000214  0.500001  0.667792  1
  V  V5  1  0.500320  0.000000  0.833320  1
  Tc  Tc6  1  0.499986  0.250832  0.999959  1
  Tc  Tc7  1  0.499986  0.749167  0.999959  1
  Tc  Tc8  1  0.999641  0.250205  0.166742  1
  Tc  Tc9  1  0.999641  0.749797  0.166742  1
  Tc  Tc10  1  0.499635  0.250818  0.333362  1
  Tc  Tc11  1  0.499635  0.749182  0.333362  1
  Tc  Tc12  1  0.999988  0.250113  0.499923  1
  Tc  Tc13  1  0.999988  0.749885  0.499923  1
  Tc  Tc14  1  0.500360  0.250769  0.666677  1
  Tc  Tc15  1  0.500360  0.749231  0.666677  1
  Tc  Tc16  1  0.000374  0.251888  0.833337  1
  Tc  Tc17  1  0.000374  0.748114  0.833337  1
  Ge  Ge18  1  0.500516  0.500001  0.833359  1
  W  W19  1  0.000006  0.000000  0.997442  1
  W  W20  1  0.499625  0.500001  0.165884  1
  W  W21  1  0.999619  0.000000  0.333356  1
  W  W22  1  0.499983  0.500001  0.500768  1
  W  W23  1  0.000404  0.000000  0.669185  1
