# generated using pymatgen
data_YInGaRh2
_symmetry_space_group_name_H-M   'P 1'
_cell_length_a   5.41227036
_cell_length_b   5.41227017
_cell_length_c   5.41227033
_cell_angle_alpha   135.97017344
_cell_angle_beta   116.27253285
_cell_angle_gamma   80.69909436
_symmetry_Int_Tables_number   1
_chemical_formula_structural   YInGaRh2
_chemical_formula_sum   'Y1 In1 Ga1 Rh2'
_cell_volume   95.63631218
_cell_formula_units_Z   1
loop_
 _symmetry_equiv_pos_site_id
 _symmetry_equiv_pos_as_xyz
  1  'x, y, z'
loop_
 _atom_site_type_symbol
 _atom_site_label
 _atom_site_symmetry_multiplicity
 _atom_site_fract_x
 _atom_site_fract_y
 _atom_site_fract_z
 _atom_site_occupancy
  Y  Y0  1  0.305534  0.805534  0.500000  1
  In  In1  1  0.696369  0.196368  0.500000  1
  Ga  Ga2  1  0.994017  0.994017  0.000000  1
  Rh  Rh3  1  0.744614  0.502041  0.242573  1
  Rh  Rh4  1  0.259469  0.502041  0.757427  1
