# generated using pymatgen
data_Er12Ir3I16
_symmetry_space_group_name_H-M   'P 1'
_cell_length_a   9.60632849
_cell_length_b   12.23996740
_cell_length_c   12.93864463
_cell_angle_alpha   116.96535912
_cell_angle_beta   101.40465756
_cell_angle_gamma   100.98684595
_symmetry_Int_Tables_number   1
_chemical_formula_structural   Er12Ir3I16
_chemical_formula_sum   'Er12 Ir3 I16'
_cell_volume   1258.93348626
_cell_formula_units_Z   1
loop_
 _symmetry_equiv_pos_site_id
 _symmetry_equiv_pos_as_xyz
  1  'x, y, z'
loop_
 _atom_site_type_symbol
 _atom_site_label
 _atom_site_symmetry_multiplicity
 _atom_site_fract_x
 _atom_site_fract_y
 _atom_site_fract_z
 _atom_site_occupancy
  Er  Er0  1  0.084904  0.267582  0.356360  1
  Er  Er1  1  0.915096  0.732418  0.643640  1
  Er  Er2  1  0.782747  0.534353  0.328399  1
  Er  Er3  1  0.217253  0.465647  0.671601  1
  Er  Er4  1  0.274981  0.733083  0.643149  1
  Er  Er5  1  0.725019  0.266917  0.356851  1
  Er  Er6  1  0.141784  0.534682  0.328164  1
  Er  Er7  1  0.858216  0.465318  0.671836  1
  Er  Er8  1  0.404405  0.356431  0.270780  1
  Er  Er9  1  0.595595  0.643569  0.729220  1
  Er  Er10  1  0.458958  0.310908  0.520522  1
  Er  Er11  1  0.541042  0.689092  0.479478  1
  Ir  Ir12  1  0.000000  0.500000  0.500000  1
  Ir  Ir13  1  0.340953  0.500172  0.499404  1
  Ir  Ir14  1  0.659048  0.499828  0.500596  1
  I  I15  1  0.394846  0.746220  0.892616  1
  I  I16  1  0.605154  0.253780  0.107384  1
  I  I17  1  0.192330  0.975599  0.788940  1
  I  I18  1  0.807670  0.024401  0.211060  1
  I  I19  1  0.334356  0.087390  0.247352  1
  I  I20  1  0.665644  0.912610  0.752648  1
  I  I21  1  0.559680  0.436185  0.804401  1
  I  I22  1  0.440320  0.563815  0.195599  1
  I  I23  1  0.305208  0.833409  0.461551  1
  I  I24  1  0.694792  0.166591  0.538449  1
  I  I25  1  0.160982  0.166636  0.535855  1
  I  I26  1  0.839018  0.833364  0.464145  1
  I  I27  1  0.924921  0.578365  0.153555  1
  I  I28  1  0.075079  0.421635  0.846445  1
  I  I29  1  0.932061  0.744886  0.893154  1
  I  I30  1  0.067939  0.255114  0.106846  1
