# generated using pymatgen
data_Tb4WI4
_symmetry_space_group_name_H-M   'P 1'
_cell_length_a   11.57456374
_cell_length_b   11.57456610
_cell_length_c   5.98953705
_cell_angle_alpha   89.99300249
_cell_angle_beta   89.99299959
_cell_angle_gamma   89.95327056
_symmetry_Int_Tables_number   1
_chemical_formula_structural   Tb4WI4
_chemical_formula_sum   'Tb8 W2 I8'
_cell_volume   802.42131257
_cell_formula_units_Z   2
loop_
 _symmetry_equiv_pos_site_id
 _symmetry_equiv_pos_as_xyz
  1  'x, y, z'
loop_
 _atom_site_type_symbol
 _atom_site_label
 _atom_site_symmetry_multiplicity
 _atom_site_fract_x
 _atom_site_fract_y
 _atom_site_fract_z
 _atom_site_occupancy
  Tb  Tb0  1  0.794726  0.084456  0.000389  1
  Tb  Tb1  1  0.084456  0.794726  0.500389  1
  Tb  Tb2  1  0.084270  0.205206  0.000292  1
  Tb  Tb3  1  0.205206  0.084270  0.500292  1
  Tb  Tb4  1  0.915730  0.794794  0.999708  1
  Tb  Tb5  1  0.915544  0.205274  0.499611  1
  Tb  Tb6  1  0.205274  0.915544  0.999611  1
  Tb  Tb7  1  0.794794  0.915730  0.499708  1
  W  W8  1  0.000093  0.999907  0.250000  1
  W  W9  1  0.999907  0.000093  0.750000  1
  I  I10  1  0.644437  0.149378  0.497015  1
  I  I11  1  0.850936  0.644556  0.503063  1
  I  I12  1  0.355444  0.149064  0.996937  1
  I  I13  1  0.149064  0.355444  0.496937  1
  I  I14  1  0.644556  0.850936  0.003063  1
  I  I15  1  0.355563  0.850622  0.502985  1
  I  I16  1  0.149378  0.644437  0.997015  1
  I  I17  1  0.850622  0.355563  0.002985  1
