# generated using pymatgen
data_Mn3Co(TcP)4
_symmetry_space_group_name_H-M   'P 1'
_cell_length_a   3.75783100
_cell_length_b   5.78994140
_cell_length_c   6.62517825
_cell_angle_alpha   89.70375067
_cell_angle_beta   90.00000000
_cell_angle_gamma   90.00000000
_symmetry_Int_Tables_number   1
_chemical_formula_structural   Mn3Co(TcP)4
_chemical_formula_sum   'Mn3 Co1 Tc4 P4'
_cell_volume   144.14619247
_cell_formula_units_Z   1
loop_
 _symmetry_equiv_pos_site_id
 _symmetry_equiv_pos_as_xyz
  1  'x, y, z'
loop_
 _atom_site_type_symbol
 _atom_site_label
 _atom_site_symmetry_multiplicity
 _atom_site_fract_x
 _atom_site_fract_y
 _atom_site_fract_z
 _atom_site_occupancy
  Mn  Mn0  1  0.750000  0.635079  0.437047  1
  Mn  Mn1  1  0.250000  0.859506  0.932412  1
  Mn  Mn2  1  0.750000  0.142427  0.061660  1
  Co  Co3  1  0.250000  0.358328  0.569267  1
  Tc  Tc4  1  0.250000  0.474214  0.167951  1
  Tc  Tc5  1  0.250000  0.974253  0.327496  1
  Tc  Tc6  1  0.750000  0.024553  0.669260  1
  Tc  Tc7  1  0.750000  0.531159  0.834781  1
  P  P8  1  0.250000  0.736226  0.616041  1
  P  P9  1  0.250000  0.237805  0.881848  1
  P  P10  1  0.750000  0.260579  0.380322  1
  P  P11  1  0.750000  0.765873  0.121915  1
