# generated using pymatgen
data_Li3Sm3CdSb2
_symmetry_space_group_name_H-M   'P 1'
_cell_length_a   7.37073100
_cell_length_b   7.37073223
_cell_length_c   4.51062100
_cell_angle_alpha   90.00000000
_cell_angle_beta   90.00000000
_cell_angle_gamma   119.99998999
_symmetry_Int_Tables_number   1
_chemical_formula_structural   Li3Sm3CdSb2
_chemical_formula_sum   'Li3 Sm3 Cd1 Sb2'
_cell_volume   212.22092773
_cell_formula_units_Z   1
loop_
 _symmetry_equiv_pos_site_id
 _symmetry_equiv_pos_as_xyz
  1  'x, y, z'
loop_
 _atom_site_type_symbol
 _atom_site_label
 _atom_site_symmetry_multiplicity
 _atom_site_fract_x
 _atom_site_fract_y
 _atom_site_fract_z
 _atom_site_occupancy
  Li  Li0  1  0.240976  0.000000  0.500000  1
  Li  Li1  1  0.759024  0.759024  0.500000  1
  Li  Li2  1  0.000000  0.240976  0.500000  1
  Sm  Sm3  1  0.000000  0.577543  0.000000  1
  Sm  Sm4  1  0.577543  0.000000  0.000000  1
  Sm  Sm5  1  0.422457  0.422457  0.000000  1
  Cd  Cd6  1  0.000000  0.000000  0.000000  1
  Sb  Sb7  1  0.333333  0.666667  0.500000  1
  Sb  Sb8  1  0.666667  0.333333  0.500000  1
