# generated using pymatgen
data_Na(VS2)6
_symmetry_space_group_name_H-M   'P 1'
_cell_length_a   5.51915464
_cell_length_b   5.51915494
_cell_length_c   14.44099861
_cell_angle_alpha   86.25601507
_cell_angle_beta   86.25601253
_cell_angle_gamma   120.00026535
_symmetry_Int_Tables_number   1
_chemical_formula_structural   Na(VS2)6
_chemical_formula_sum   'Na1 V6 S12'
_cell_volume   377.69071557
_cell_formula_units_Z   1
loop_
 _symmetry_equiv_pos_site_id
 _symmetry_equiv_pos_as_xyz
  1  'x, y, z'
loop_
 _atom_site_type_symbol
 _atom_site_label
 _atom_site_symmetry_multiplicity
 _atom_site_fract_x
 _atom_site_fract_y
 _atom_site_fract_z
 _atom_site_occupancy
  Na  Na0  1  0.000000  0.000000  0.000000  1
  V  V1  1  0.086483  0.086483  0.740857  1
  V  V2  1  0.419829  0.753076  0.741239  1
  V  V3  1  0.753076  0.419829  0.741239  1
  V  V4  1  0.246924  0.580171  0.258761  1
  V  V5  1  0.580171  0.246924  0.258761  1
  V  V6  1  0.913517  0.913517  0.259143  1
  S  S7  1  0.283720  0.283720  0.154574  1
  S  S8  1  0.614451  0.949119  0.154644  1
  S  S9  1  0.949119  0.614451  0.154644  1
  S  S10  1  0.050881  0.385549  0.845356  1
  S  S11  1  0.385549  0.050881  0.845356  1
  S  S12  1  0.716280  0.716280  0.845426  1
  S  S13  1  0.211867  0.211867  0.361949  1
  S  S14  1  0.544786  0.878347  0.361908  1
  S  S15  1  0.878347  0.544786  0.361908  1
  S  S16  1  0.121653  0.455214  0.638092  1
  S  S17  1  0.455214  0.121653  0.638092  1
  S  S18  1  0.788133  0.788133  0.638051  1
