# generated using pymatgen
data_PmLuCu4
_symmetry_space_group_name_H-M   'P 1'
_cell_length_a   4.23688100
_cell_length_b   4.23688248
_cell_length_c   7.05253100
_cell_angle_alpha   90.00000000
_cell_angle_beta   90.00000000
_cell_angle_gamma   119.99999625
_symmetry_Int_Tables_number   1
_chemical_formula_structural   PmLuCu4
_chemical_formula_sum   'Pm1 Lu1 Cu4'
_cell_volume   109.63982565
_cell_formula_units_Z   1
loop_
 _symmetry_equiv_pos_site_id
 _symmetry_equiv_pos_as_xyz
  1  'x, y, z'
loop_
 _atom_site_type_symbol
 _atom_site_label
 _atom_site_symmetry_multiplicity
 _atom_site_fract_x
 _atom_site_fract_y
 _atom_site_fract_z
 _atom_site_occupancy
  Pm  Pm0  1  0.000000  0.000000  0.500001  1
  Lu  Lu1  1  0.000000  0.000000  0.000000  1
  Cu  Cu2  1  0.666667  0.333334  0.227950  1
  Cu  Cu3  1  0.333333  0.666665  0.227950  1
  Cu  Cu4  1  0.666667  0.333334  0.772050  1
  Cu  Cu5  1  0.333333  0.666665  0.772050  1
