# generated using pymatgen
data_Na4YBiO6
_symmetry_space_group_name_H-M   'P 1'
_cell_length_a   5.85460838
_cell_length_b   5.85463771
_cell_length_c   5.94886474
_cell_angle_alpha   99.61982011
_cell_angle_beta   99.62063613
_cell_angle_gamma   119.89919548
_symmetry_Int_Tables_number   1
_chemical_formula_structural   Na4YBiO6
_chemical_formula_sum   'Na4 Y1 Bi1 O6'
_cell_volume   166.63364812
_cell_formula_units_Z   1
loop_
 _symmetry_equiv_pos_site_id
 _symmetry_equiv_pos_as_xyz
  1  'x, y, z'
loop_
 _atom_site_type_symbol
 _atom_site_label
 _atom_site_symmetry_multiplicity
 _atom_site_fract_x
 _atom_site_fract_y
 _atom_site_fract_z
 _atom_site_occupancy
  Na  Na0  1  0.499814  0.500188  0.000000  1
  Na  Na1  1  0.006184  0.993814  0.499999  1
  Na  Na2  1  0.656939  0.343062  0.500000  1
  Na  Na3  1  0.338506  0.661496  0.500001  1
  Y  Y4  1  0.833164  0.166834  0.000000  1
  Bi  Bi5  1  0.167350  0.832648  0.000000  1
  O  O6  1  0.944914  0.590664  0.216415  1
  O  O7  1  0.557833  0.929663  0.221409  1
  O  O8  1  0.218798  0.203092  0.221629  1
  O  O9  1  0.796909  0.781204  0.778372  1
  O  O10  1  0.070338  0.442169  0.778592  1
  O  O11  1  0.409336  0.055087  0.783585  1
