# generated using pymatgen
data_Ba7NaSrAu6
_symmetry_space_group_name_H-M   'P 1'
_cell_length_a   8.71715061
_cell_length_b   8.71715141
_cell_length_c   8.71715082
_cell_angle_alpha   70.29593283
_cell_angle_beta   70.29592948
_cell_angle_gamma   70.29593689
_symmetry_Int_Tables_number   1
_chemical_formula_structural   Ba7NaSrAu6
_chemical_formula_sum   'Ba7 Na1 Sr1 Au6'
_cell_volume   568.13404492
_cell_formula_units_Z   1
loop_
 _symmetry_equiv_pos_site_id
 _symmetry_equiv_pos_as_xyz
  1  'x, y, z'
loop_
 _atom_site_type_symbol
 _atom_site_label
 _atom_site_symmetry_multiplicity
 _atom_site_fract_x
 _atom_site_fract_y
 _atom_site_fract_z
 _atom_site_occupancy
  Ba  Ba0  1  0.887217  0.175476  0.650939  1
  Ba  Ba1  1  0.650939  0.887217  0.175476  1
  Ba  Ba2  1  0.175476  0.650939  0.887217  1
  Ba  Ba3  1  0.107822  0.823989  0.352643  1
  Ba  Ba4  1  0.352643  0.107822  0.823989  1
  Ba  Ba5  1  0.823989  0.352643  0.107822  1
  Ba  Ba6  1  0.311439  0.311439  0.311439  1
  Na  Na7  1  0.501585  0.501585  0.501585  1
  Sr  Sr8  1  0.687859  0.687859  0.687859  1
  Au  Au9  1  0.912529  0.545051  0.342174  1
  Au  Au10  1  0.342174  0.912529  0.545051  1
  Au  Au11  1  0.545051  0.342174  0.912529  1
  Au  Au12  1  0.072387  0.461135  0.667756  1
  Au  Au13  1  0.667756  0.072387  0.461135  1
  Au  Au14  1  0.461135  0.667756  0.072387  1
