# generated using pymatgen
data_Tb13Tm3InAg3PdRh3
_symmetry_space_group_name_H-M   'P 1'
_cell_length_a   9.53312799
_cell_length_b   9.57875897
_cell_length_c   9.57450900
_cell_angle_alpha   60.23190135
_cell_angle_beta   60.01713323
_cell_angle_gamma   59.94263043
_symmetry_Int_Tables_number   1
_chemical_formula_structural   Tb13Tm3InAg3PdRh3
_chemical_formula_sum   'Tb13 Tm3 In1 Ag3 Pd1 Rh3'
_cell_volume   619.11109717
_cell_formula_units_Z   1
loop_
 _symmetry_equiv_pos_site_id
 _symmetry_equiv_pos_as_xyz
  1  'x, y, z'
loop_
 _atom_site_type_symbol
 _atom_site_label
 _atom_site_symmetry_multiplicity
 _atom_site_fract_x
 _atom_site_fract_y
 _atom_site_fract_z
 _atom_site_occupancy
  Tb  Tb0  1  0.648394  0.055856  0.648615  1
  Tb  Tb1  1  0.067726  0.061939  0.436169  1
  Tb  Tb2  1  0.436760  0.434758  0.063160  1
  Tb  Tb3  1  0.647143  0.648880  0.645961  1
  Tb  Tb4  1  0.810198  0.185932  0.192724  1
  Tb  Tb5  1  0.185209  0.814525  0.813607  1
  Tb  Tb6  1  0.057830  0.648757  0.646632  1
  Tb  Tb7  1  0.438822  0.064018  0.062691  1
  Tb  Tb8  1  0.438718  0.062613  0.435144  1
  Tb  Tb9  1  0.069727  0.435633  0.061939  1
  Tb  Tb10  1  0.647967  0.650046  0.056227  1
  Tb  Tb11  1  0.185906  0.813876  0.188184  1
  Tb  Tb12  1  0.070339  0.434429  0.433251  1
  Tm  Tm13  1  0.811712  0.811040  0.188432  1
  Tm  Tm14  1  0.811985  0.185139  0.810455  1
  Tm  Tm15  1  0.190406  0.185306  0.812602  1
  In  In16  1  0.736800  0.421200  0.420889  1
  Ag  Ag17  1  0.416442  0.417908  0.418169  1
  Ag  Ag18  1  0.416116  0.417204  0.747852  1
  Ag  Ag19  1  0.416389  0.747848  0.417350  1
  Pd  Pd20  1  0.857329  0.428309  0.855608  1
  Rh  Rh21  1  0.855083  0.858964  0.859001  1
  Rh  Rh22  1  0.854957  0.856619  0.428450  1
  Rh  Rh23  1  0.428045  0.859198  0.856885  1
