# generated using pymatgen
data_NdCdCu5
_symmetry_space_group_name_H-M   'P 1'
_cell_length_a   5.12071100
_cell_length_b   8.33424800
_cell_length_c   10.47468100
_cell_angle_alpha   90.00000000
_cell_angle_beta   90.00000000
_cell_angle_gamma   90.00000000
_symmetry_Int_Tables_number   1
_chemical_formula_structural   NdCdCu5
_chemical_formula_sum   'Nd4 Cd4 Cu20'
_cell_volume   447.03084587
_cell_formula_units_Z   4
loop_
 _symmetry_equiv_pos_site_id
 _symmetry_equiv_pos_as_xyz
  1  'x, y, z'
loop_
 _atom_site_type_symbol
 _atom_site_label
 _atom_site_symmetry_multiplicity
 _atom_site_fract_x
 _atom_site_fract_y
 _atom_site_fract_z
 _atom_site_occupancy
  Nd  Nd0  1  0.250000  0.255696  0.560473  1
  Nd  Nd1  1  0.250000  0.755696  0.939527  1
  Nd  Nd2  1  0.750000  0.744304  0.439527  1
  Nd  Nd3  1  0.750000  0.244304  0.060473  1
  Cd  Cd4  1  0.250000  0.137206  0.862056  1
  Cd  Cd5  1  0.250000  0.637206  0.637944  1
  Cd  Cd6  1  0.750000  0.862794  0.137944  1
  Cd  Cd7  1  0.750000  0.362794  0.362056  1
  Cu  Cu8  1  0.250000  0.815586  0.254997  1
  Cu  Cu9  1  0.250000  0.315586  0.245003  1
  Cu  Cu10  1  0.750000  0.184414  0.745003  1
  Cu  Cu11  1  0.750000  0.684414  0.754997  1
  Cu  Cu12  1  0.250000  0.556364  0.390606  1
  Cu  Cu13  1  0.250000  0.056364  0.109394  1
  Cu  Cu14  1  0.750000  0.443636  0.609394  1
  Cu  Cu15  1  0.750000  0.943636  0.890606  1
  Cu  Cu16  1  0.250000  0.914907  0.483080  1
  Cu  Cu17  1  0.250000  0.414907  0.016920  1
  Cu  Cu18  1  0.750000  0.085093  0.516920  1
  Cu  Cu19  1  0.750000  0.585093  0.983080  1
  Cu  Cu20  1  0.000891  0.432256  0.813857  1
  Cu  Cu21  1  0.499109  0.932256  0.686143  1
  Cu  Cu22  1  0.500891  0.567744  0.186143  1
  Cu  Cu23  1  0.999109  0.067744  0.313857  1
  Cu  Cu24  1  0.999109  0.567744  0.186143  1
  Cu  Cu25  1  0.500891  0.067744  0.313857  1
  Cu  Cu26  1  0.499109  0.432256  0.813857  1
  Cu  Cu27  1  0.000891  0.932256  0.686143  1
