# generated using pymatgen
data_Eu2Pa(GaRh)3
_symmetry_space_group_name_H-M   'P 1'
_cell_length_a   7.37764094
_cell_length_b   7.42493355
_cell_length_c   3.87603900
_cell_angle_alpha   90.00000000
_cell_angle_beta   90.00000000
_cell_angle_gamma   120.21228543
_symmetry_Int_Tables_number   1
_chemical_formula_structural   Eu2Pa(GaRh)3
_chemical_formula_sum   'Eu2 Pa1 Ga3 Rh3'
_cell_volume   183.48301326
_cell_formula_units_Z   1
loop_
 _symmetry_equiv_pos_site_id
 _symmetry_equiv_pos_as_xyz
  1  'x, y, z'
loop_
 _atom_site_type_symbol
 _atom_site_label
 _atom_site_symmetry_multiplicity
 _atom_site_fract_x
 _atom_site_fract_y
 _atom_site_fract_z
 _atom_site_occupancy
  Eu  Eu0  1  0.591305  0.588902  0.500000  1
  Eu  Eu1  1  0.408695  0.997597  0.500000  1
  Pa  Pa2  1  0.000000  0.412541  0.500000  1
  Ga  Ga3  1  0.000000  0.764015  0.000000  1
  Ga  Ga4  1  0.252224  0.249251  0.000000  1
  Ga  Ga5  1  0.747776  0.997027  0.000000  1
  Rh  Rh6  1  0.285066  0.624370  0.000000  1
  Rh  Rh7  1  0.714934  0.339303  0.000000  1
  Rh  Rh8  1  0.000000  0.026994  0.500000  1
