# generated using pymatgen
data_Sr6TlRh2PbO12
_symmetry_space_group_name_H-M   'P 1'
_cell_length_a   6.90257592
_cell_length_b   6.90257552
_cell_length_c   6.90257525
_cell_angle_alpha   89.42348142
_cell_angle_beta   89.42348663
_cell_angle_gamma   89.42348269
_symmetry_Int_Tables_number   1
_chemical_formula_structural   Sr6TlRh2PbO12
_chemical_formula_sum   'Sr6 Tl1 Rh2 Pb1 O12'
_cell_volume   328.82739148
_cell_formula_units_Z   1
loop_
 _symmetry_equiv_pos_site_id
 _symmetry_equiv_pos_as_xyz
  1  'x, y, z'
loop_
 _atom_site_type_symbol
 _atom_site_label
 _atom_site_symmetry_multiplicity
 _atom_site_fract_x
 _atom_site_fract_y
 _atom_site_fract_z
 _atom_site_occupancy
  Sr  Sr0  1  0.883168  0.616832  0.250000  1
  Sr  Sr1  1  0.117993  0.382007  0.750000  1
  Sr  Sr2  1  0.250000  0.883168  0.616832  1
  Sr  Sr3  1  0.616832  0.250000  0.883168  1
  Sr  Sr4  1  0.382007  0.750000  0.117993  1
  Sr  Sr5  1  0.750000  0.117993  0.382007  1
  Tl  Tl6  1  0.250000  0.250000  0.250000  1
  Rh  Rh7  1  0.000822  0.000822  0.000822  1
  Rh  Rh8  1  0.499178  0.499178  0.499178  1
  Pb  Pb9  1  0.750000  0.750000  0.750000  1
  O  O10  1  0.443878  0.579971  0.783811  1
  O  O11  1  0.579971  0.783811  0.443878  1
  O  O12  1  0.951097  0.286358  0.086251  1
  O  O13  1  0.548903  0.413749  0.213642  1
  O  O14  1  0.213642  0.548903  0.413749  1
  O  O15  1  0.056122  0.716189  0.920029  1
  O  O16  1  0.783811  0.443878  0.579971  1
  O  O17  1  0.716189  0.920029  0.056122  1
  O  O18  1  0.086251  0.951097  0.286358  1
  O  O19  1  0.920029  0.056122  0.716189  1
  O  O20  1  0.413749  0.213642  0.548903  1
  O  O21  1  0.286358  0.086251  0.951097  1
