# generated using pymatgen
data_PrErCo9P6Ru
_symmetry_space_group_name_H-M   'P 1'
_cell_length_a   3.68475000
_cell_length_b   10.38399600
_cell_length_c   11.79377700
_cell_angle_alpha   90.00000000
_cell_angle_beta   90.00000000
_cell_angle_gamma   90.00000000
_symmetry_Int_Tables_number   1
_chemical_formula_structural   PrErCo9P6Ru
_chemical_formula_sum   'Pr2 Er2 Co18 P12 Ru2'
_cell_volume   451.25855818
_cell_formula_units_Z   2
loop_
 _symmetry_equiv_pos_site_id
 _symmetry_equiv_pos_as_xyz
  1  'x, y, z'
loop_
 _atom_site_type_symbol
 _atom_site_label
 _atom_site_symmetry_multiplicity
 _atom_site_fract_x
 _atom_site_fract_y
 _atom_site_fract_z
 _atom_site_occupancy
  Pr  Pr0  1  0.250000  0.582579  0.702282  1
  Pr  Pr1  1  0.250000  0.917421  0.202282  1
  Er  Er2  1  0.750000  0.413488  0.296493  1
  Er  Er3  1  0.750000  0.086512  0.796493  1
  Co  Co4  1  0.750000  0.285019  0.007520  1
  Co  Co5  1  0.750000  0.214981  0.507520  1
  Co  Co6  1  0.250000  0.403697  0.485316  1
  Co  Co7  1  0.250000  0.096303  0.985316  1
  Co  Co8  1  0.750000  0.589540  0.505517  1
  Co  Co9  1  0.750000  0.910460  0.005517  1
  Co  Co10  1  0.250000  0.221516  0.175941  1
  Co  Co11  1  0.250000  0.278484  0.675941  1
  Co  Co12  1  0.750000  0.780160  0.823615  1
  Co  Co13  1  0.750000  0.719840  0.323615  1
  Co  Co14  1  0.250000  0.889701  0.702335  1
  Co  Co15  1  0.250000  0.610299  0.202335  1
  Co  Co16  1  0.750000  0.119685  0.302416  1
  Co  Co17  1  0.750000  0.380315  0.802416  1
  Co  Co18  1  0.250000  0.461870  0.935432  1
  Co  Co19  1  0.250000  0.038130  0.435432  1
  Co  Co20  1  0.750000  0.529180  0.070997  1
  Co  Co21  1  0.750000  0.970820  0.570997  1
  P  P22  1  0.250000  0.416393  0.114138  1
  P  P23  1  0.250000  0.083607  0.614138  1
  P  P24  1  0.750000  0.577862  0.891425  1
  P  P25  1  0.750000  0.922138  0.391425  1
  P  P26  1  0.250000  0.270377  0.867410  1
  P  P27  1  0.250000  0.229623  0.367410  1
  P  P28  1  0.750000  0.723000  0.131947  1
  P  P29  1  0.750000  0.777000  0.631947  1
  P  P30  1  0.250000  0.594375  0.390391  1
  P  P31  1  0.250000  0.905625  0.890391  1
  P  P32  1  0.750000  0.392789  0.606319  1
  P  P33  1  0.750000  0.107211  0.106319  1
  Ru  Ru34  1  0.250000  0.714145  0.990504  1
  Ru  Ru35  1  0.250000  0.785855  0.490504  1
