# generated using pymatgen
data_Zr5TiCBr12
_symmetry_space_group_name_H-M   'P 1'
_cell_length_a   8.56202450
_cell_length_b   8.87800760
_cell_length_c   8.59538367
_cell_angle_alpha   106.36683735
_cell_angle_beta   106.61534552
_cell_angle_gamma   107.04563235
_symmetry_Int_Tables_number   1
_chemical_formula_structural   Zr5TiCBr12
_chemical_formula_sum   'Zr5 Ti1 C1 Br12'
_cell_volume   548.85411751
_cell_formula_units_Z   1
loop_
 _symmetry_equiv_pos_site_id
 _symmetry_equiv_pos_as_xyz
  1  'x, y, z'
loop_
 _atom_site_type_symbol
 _atom_site_label
 _atom_site_symmetry_multiplicity
 _atom_site_fract_x
 _atom_site_fract_y
 _atom_site_fract_z
 _atom_site_occupancy
  Zr  Zr0  1  0.284170  0.091834  0.026455  1
  Zr  Zr1  1  0.092952  0.026757  0.282730  1
  Zr  Zr2  1  0.905864  0.970775  0.716415  1
  Zr  Zr3  1  0.715118  0.906374  0.973772  1
  Zr  Zr4  1  0.023441  0.273130  0.087813  1
  Ti  Ti5  1  0.979003  0.748521  0.918536  1
  C  C6  1  0.999761  0.002439  0.000742  1
  Br  Br7  1  0.915822  0.293445  0.768770  1
  Br  Br8  1  0.681654  0.215287  0.074276  1
  Br  Br9  1  0.444630  0.142570  0.367147  1
  Br  Br10  1  0.869983  0.644024  0.579632  1
  Br  Br11  1  0.225496  0.074984  0.684241  1
  Br  Br12  1  0.652702  0.573929  0.866093  1
  Br  Br13  1  0.364018  0.431373  0.134999  1
  Br  Br14  1  0.772696  0.917952  0.313478  1
  Br  Br15  1  0.137463  0.357100  0.438211  1
  Br  Br16  1  0.553857  0.853142  0.633016  1
  Br  Br17  1  0.304921  0.780011  0.924263  1
  Br  Br18  1  0.076451  0.696353  0.209412  1
