# generated using pymatgen
data_La8Er12Si15As
_symmetry_space_group_name_H-M   'P 1'
_cell_length_a   7.77843141
_cell_length_b   7.81146131
_cell_length_c   14.45009000
_cell_angle_alpha   89.30295344
_cell_angle_beta   90.20830304
_cell_angle_gamma   90.17463780
_symmetry_Int_Tables_number   1
_chemical_formula_structural   La8Er12Si15As
_chemical_formula_sum   'La8 Er12 Si15 As1'
_cell_volume   877.92596688
_cell_formula_units_Z   1
loop_
 _symmetry_equiv_pos_site_id
 _symmetry_equiv_pos_as_xyz
  1  'x, y, z'
loop_
 _atom_site_type_symbol
 _atom_site_label
 _atom_site_symmetry_multiplicity
 _atom_site_fract_x
 _atom_site_fract_y
 _atom_site_fract_z
 _atom_site_occupancy
  La  La0  1  0.641066  0.990970  0.459761  1
  La  La1  1  0.356520  0.005726  0.958925  1
  La  La2  1  0.997014  0.647793  0.539791  1
  La  La3  1  0.492289  0.849658  0.211111  1
  La  La4  1  0.510925  0.155002  0.713105  1
  La  La5  1  0.855073  0.495843  0.790767  1
  La  La6  1  0.142397  0.499343  0.288058  1
  La  La7  1  0.007240  0.352989  0.040665  1
  Er  Er8  1  0.493022  0.355145  0.123860  1
  Er  Er9  1  0.990598  0.149463  0.628773  1
  Er  Er10  1  0.857448  0.007612  0.874956  1
  Er  Er11  1  0.145797  0.986129  0.378075  1
  Er  Er12  1  0.502202  0.649680  0.620148  1
  Er  Er13  1  0.357388  0.495180  0.875784  1
  Er  Er14  1  0.646989  0.499759  0.372944  1
  Er  Er15  1  0.005963  0.856201  0.125771  1
  Er  Er16  1  0.318511  0.327492  0.498267  1
  Er  Er17  1  0.180945  0.824058  0.752607  1
  Er  Er18  1  0.819009  0.174614  0.251013  1
  Er  Er19  1  0.681075  0.679283  0.999389  1
  Si  Si20  1  0.711177  0.060271  0.062377  1
  Si  Si21  1  0.938986  0.285295  0.438919  1
  Si  Si22  1  0.438325  0.202635  0.311976  1
  Si  Si23  1  0.560943  0.791339  0.810782  1
  Si  Si24  1  0.210810  0.446385  0.687274  1
  Si  Si25  1  0.786905  0.558505  0.185817  1
  Si  Si26  1  0.061346  0.710272  0.938270  1
  Si  Si27  1  0.794712  0.853598  0.688379  1
  Si  Si28  1  0.206173  0.143824  0.191372  1
  Si  Si29  1  0.852425  0.794753  0.311529  1
  Si  Si30  1  0.356360  0.686012  0.425593  1
  Si  Si31  1  0.648898  0.295161  0.939970  1
  Si  Si32  1  0.702665  0.353952  0.560163  1
  Si  Si33  1  0.293366  0.647525  0.059451  1
  Si  Si34  1  0.148405  0.206911  0.812512  1
  As  As35  1  0.287037  0.961621  0.571847  1
