# generated using pymatgen
data_Zr2TaB2Ru5
_symmetry_space_group_name_H-M   'P 1'
_cell_length_a   9.51138500
_cell_length_b   9.51138500
_cell_length_c   3.11564600
_cell_angle_alpha   90.00000000
_cell_angle_beta   90.00000000
_cell_angle_gamma   90.00000000
_symmetry_Int_Tables_number   1
_chemical_formula_structural   Zr2TaB2Ru5
_chemical_formula_sum   'Zr4 Ta2 B4 Ru10'
_cell_volume   281.86141631
_cell_formula_units_Z   2
loop_
 _symmetry_equiv_pos_site_id
 _symmetry_equiv_pos_as_xyz
  1  'x, y, z'
loop_
 _atom_site_type_symbol
 _atom_site_label
 _atom_site_symmetry_multiplicity
 _atom_site_fract_x
 _atom_site_fract_y
 _atom_site_fract_z
 _atom_site_occupancy
  Zr  Zr0  1  0.824017  0.675983  0.000000  1
  Zr  Zr1  1  0.175983  0.324017  0.000000  1
  Zr  Zr2  1  0.324017  0.824017  0.000000  1
  Zr  Zr3  1  0.675983  0.175983  0.000000  1
  Ta  Ta4  1  0.500000  0.500000  0.000000  1
  Ta  Ta5  1  0.000000  0.000000  0.000000  1
  B  B6  1  0.621091  0.878909  0.000000  1
  B  B7  1  0.378909  0.121091  0.000000  1
  B  B8  1  0.121091  0.621091  0.000000  1
  B  B9  1  0.878909  0.378909  0.000000  1
  Ru  Ru10  1  0.570443  0.718389  0.500000  1
  Ru  Ru11  1  0.429557  0.281611  0.500000  1
  Ru  Ru12  1  0.070443  0.781611  0.500000  1
  Ru  Ru13  1  0.929557  0.218389  0.500000  1
  Ru  Ru14  1  0.281611  0.570443  0.500000  1
  Ru  Ru15  1  0.718389  0.429557  0.500000  1
  Ru  Ru16  1  0.218389  0.070443  0.500000  1
  Ru  Ru17  1  0.781611  0.929557  0.500000  1
  Ru  Ru18  1  0.500000  0.000000  0.500000  1
  Ru  Ru19  1  0.000000  0.500000  0.500000  1
