# generated using pymatgen
data_Eu2TaTcO8
_symmetry_space_group_name_H-M   'P 1'
_cell_length_a   5.82710600
_cell_length_b   5.30374907
_cell_length_c   5.44128994
_cell_angle_alpha   84.81509188
_cell_angle_beta   90.00000000
_cell_angle_gamma   90.00000000
_symmetry_Int_Tables_number   1
_chemical_formula_structural   Eu2TaTcO8
_chemical_formula_sum   'Eu2 Ta1 Tc1 O8'
_cell_volume   167.47773542
_cell_formula_units_Z   1
loop_
 _symmetry_equiv_pos_site_id
 _symmetry_equiv_pos_as_xyz
  1  'x, y, z'
loop_
 _atom_site_type_symbol
 _atom_site_label
 _atom_site_symmetry_multiplicity
 _atom_site_fract_x
 _atom_site_fract_y
 _atom_site_fract_z
 _atom_site_occupancy
  Eu  Eu0  1  0.776448  0.000000  0.750000  1
  Eu  Eu1  1  0.238758  0.000000  0.250000  1
  Ta  Ta2  1  0.312464  0.500000  0.750000  1
  Tc  Tc3  1  0.677777  0.500000  0.250000  1
  O  O4  1  0.574670  0.280708  0.010242  1
  O  O5  1  0.574670  0.719292  0.489758  1
  O  O6  1  0.432760  0.717427  0.002066  1
  O  O7  1  0.432760  0.282573  0.497934  1
  O  O8  1  0.107702  0.745026  0.611326  1
  O  O9  1  0.107702  0.254974  0.888674  1
  O  O10  1  0.882145  0.267904  0.382721  1
  O  O11  1  0.882145  0.732096  0.117279  1
