# generated using pymatgen
data_Ac2PPt8
_symmetry_space_group_name_H-M   'P 1'
_cell_length_a   9.38894736
_cell_length_b   9.38894647
_cell_length_c   4.34116900
_cell_angle_alpha   90.00000000
_cell_angle_beta   90.00000000
_cell_angle_gamma   145.77334847
_symmetry_Int_Tables_number   1
_chemical_formula_structural   Ac2PPt8
_chemical_formula_sum   'Ac2 P1 Pt8'
_cell_volume   215.24759626
_cell_formula_units_Z   1
loop_
 _symmetry_equiv_pos_site_id
 _symmetry_equiv_pos_as_xyz
  1  'x, y, z'
loop_
 _atom_site_type_symbol
 _atom_site_label
 _atom_site_symmetry_multiplicity
 _atom_site_fract_x
 _atom_site_fract_y
 _atom_site_fract_z
 _atom_site_occupancy
  Ac  Ac0  1  0.619156  0.372856  0.500000  1
  Ac  Ac1  1  0.372856  0.619156  0.500000  1
  P  P2  1  0.217262  0.217262  0.000000  1
  Pt  Pt3  1  0.110218  0.890351  0.000000  1
  Pt  Pt4  1  0.890351  0.110218  0.000000  1
  Pt  Pt5  1  0.491501  0.987230  0.000000  1
  Pt  Pt6  1  0.987230  0.491501  0.000000  1
  Pt  Pt7  1  0.195620  0.793148  0.500000  1
  Pt  Pt8  1  0.793148  0.195620  0.500000  1
  Pt  Pt9  1  0.006258  0.006258  0.500000  1
  Pt  Pt10  1  0.629998  0.629998  0.000000  1
