# generated using pymatgen
data_Lu4Tc3Ru5
_symmetry_space_group_name_H-M   'P 1'
_cell_length_a   5.23060218
_cell_length_b   5.24560185
_cell_length_c   8.91391800
_cell_angle_alpha   90.00000000
_cell_angle_beta   90.00000000
_cell_angle_gamma   120.09489341
_symmetry_Int_Tables_number   1
_chemical_formula_structural   Lu4Tc3Ru5
_chemical_formula_sum   'Lu4 Tc3 Ru5'
_cell_volume   211.60708750
_cell_formula_units_Z   1
loop_
 _symmetry_equiv_pos_site_id
 _symmetry_equiv_pos_as_xyz
  1  'x, y, z'
loop_
 _atom_site_type_symbol
 _atom_site_label
 _atom_site_symmetry_multiplicity
 _atom_site_fract_x
 _atom_site_fract_y
 _atom_site_fract_z
 _atom_site_occupancy
  Lu  Lu0  1  0.336793  0.668397  0.433404  1
  Lu  Lu1  1  0.669038  0.334519  0.564784  1
  Lu  Lu2  1  0.669038  0.334519  0.935216  1
  Lu  Lu3  1  0.336793  0.668397  0.066596  1
  Tc  Tc4  1  0.163695  0.337003  0.750000  1
  Tc  Tc5  1  0.163695  0.826694  0.750000  1
  Tc  Tc6  1  0.332310  0.166154  0.250000  1
  Ru  Ru7  1  0.817786  0.650493  0.250000  1
  Ru  Ru8  1  0.647470  0.823735  0.750000  1
  Ru  Ru9  1  0.022798  0.011399  0.001791  1
  Ru  Ru10  1  0.817786  0.167292  0.250000  1
  Ru  Ru11  1  0.022798  0.011399  0.498209  1
