# generated using pymatgen
data_Ho8Cu3Si12Pd
_symmetry_space_group_name_H-M   'P 1'
_cell_length_a   8.01659400
_cell_length_b   8.01659395
_cell_length_c   8.04950000
_cell_angle_alpha   90.00000000
_cell_angle_beta   90.00000000
_cell_angle_gamma   120.00000020
_symmetry_Int_Tables_number   1
_chemical_formula_structural   Ho8Cu3Si12Pd
_chemical_formula_sum   'Ho8 Cu3 Si12 Pd1'
_cell_volume   448.00133854
_cell_formula_units_Z   1
loop_
 _symmetry_equiv_pos_site_id
 _symmetry_equiv_pos_as_xyz
  1  'x, y, z'
loop_
 _atom_site_type_symbol
 _atom_site_label
 _atom_site_symmetry_multiplicity
 _atom_site_fract_x
 _atom_site_fract_y
 _atom_site_fract_z
 _atom_site_occupancy
  Ho  Ho0  1  0.500702  0.001404  0.249421  1
  Ho  Ho1  1  0.500545  0.001088  0.750775  1
  Ho  Ho2  1  0.998596  0.499298  0.249421  1
  Ho  Ho3  1  0.998912  0.499455  0.750775  1
  Ho  Ho4  1  0.500702  0.499298  0.249421  1
  Ho  Ho5  1  0.500545  0.499455  0.750775  1
  Ho  Ho6  1  0.000000  0.000000  0.249333  1
  Ho  Ho7  1  0.000000  0.000000  0.751121  1
  Cu  Cu8  1  0.333333  0.666667  0.998755  1
  Cu  Cu9  1  0.666667  0.333333  0.998685  1
  Cu  Cu10  1  0.666667  0.333333  0.500435  1
  Si  Si11  1  0.169465  0.338931  0.000141  1
  Si  Si12  1  0.831047  0.662093  0.000166  1
  Si  Si13  1  0.661069  0.830535  0.000141  1
  Si  Si14  1  0.831163  0.662327  0.500163  1
  Si  Si15  1  0.337907  0.168953  0.000166  1
  Si  Si16  1  0.165894  0.331787  0.500180  1
  Si  Si17  1  0.169465  0.830535  0.000141  1
  Si  Si18  1  0.337673  0.168837  0.500163  1
  Si  Si19  1  0.831047  0.168953  0.000166  1
  Si  Si20  1  0.668213  0.834106  0.500180  1
  Si  Si21  1  0.831163  0.168837  0.500163  1
  Si  Si22  1  0.165894  0.834106  0.500180  1
  Pd  Pd23  1  0.333333  0.666667  0.499135  1
