# generated using pymatgen
data_Nd3Dy(Si5Pt3)2
_symmetry_space_group_name_H-M   'P 1'
_cell_length_a   8.24129033
_cell_length_b   8.23489413
_cell_length_c   8.23489403
_cell_angle_alpha   136.39029063
_cell_angle_beta   105.26662384
_cell_angle_gamma   90.71161816
_symmetry_Int_Tables_number   1
_chemical_formula_structural   Nd3Dy(Si5Pt3)2
_chemical_formula_sum   'Nd3 Dy1 Si10 Pt6'
_cell_volume   354.13246899
_cell_formula_units_Z   1
loop_
 _symmetry_equiv_pos_site_id
 _symmetry_equiv_pos_as_xyz
  1  'x, y, z'
loop_
 _atom_site_type_symbol
 _atom_site_label
 _atom_site_symmetry_multiplicity
 _atom_site_fract_x
 _atom_site_fract_y
 _atom_site_fract_z
 _atom_site_occupancy
  Nd  Nd0  1  0.638901  0.370743  0.268156  1
  Nd  Nd1  1  0.360709  0.629134  0.731575  1
  Nd  Nd2  1  0.102181  0.870811  0.231369  1
  Dy  Dy3  1  0.899678  0.129453  0.770225  1
  Si  Si4  1  0.270434  0.521070  0.249256  1
  Si  Si5  1  0.728484  0.478087  0.750098  1
  Si  Si6  1  0.728484  0.978387  0.250397  1
  Si  Si7  1  0.270434  0.021177  0.749364  1
  Si  Si8  1  0.462133  0.112741  0.349391  1
  Si  Si9  1  0.540252  0.889431  0.650822  1
  Si  Si10  1  0.762876  0.612732  0.150144  1
  Si  Si11  1  0.236060  0.386017  0.850043  1
  Si  Si12  1  0.999712  0.250729  0.250017  1
  Si  Si13  1  0.999712  0.749695  0.748983  1
  Pt  Pt14  1  0.245677  0.136434  0.109243  1
  Pt  Pt15  1  0.754267  0.864518  0.889749  1
  Pt  Pt16  1  0.025459  0.636569  0.388890  1
  Pt  Pt17  1  0.972521  0.361553  0.610967  1
  Pt  Pt18  1  0.501015  0.249949  0.750244  1
  Pt  Pt19  1  0.501015  0.750771  0.251066  1
