# generated using pymatgen
data_Sr9Ho11Pb16
_symmetry_space_group_name_H-M   'P 1'
_cell_length_a   8.18805301
_cell_length_b   8.70595228
_cell_length_c   16.37409700
_cell_angle_alpha   90.00000000
_cell_angle_beta   90.00000000
_cell_angle_gamma   89.86793324
_symmetry_Int_Tables_number   1
_chemical_formula_structural   Sr9Ho11Pb16
_chemical_formula_sum   'Sr9 Ho11 Pb16'
_cell_volume   1167.22110797
_cell_formula_units_Z   1
loop_
 _symmetry_equiv_pos_site_id
 _symmetry_equiv_pos_as_xyz
  1  'x, y, z'
loop_
 _atom_site_type_symbol
 _atom_site_label
 _atom_site_symmetry_multiplicity
 _atom_site_fract_x
 _atom_site_fract_y
 _atom_site_fract_z
 _atom_site_occupancy
  Sr  Sr0  1  0.495266  0.678696  0.593591  1
  Sr  Sr1  1  0.995172  0.820669  0.906353  1
  Sr  Sr2  1  0.502035  0.319135  0.090664  1
  Sr  Sr3  1  0.002512  0.181524  0.411058  1
  Sr  Sr4  1  0.502035  0.319135  0.409336  1
  Sr  Sr5  1  0.002512  0.181524  0.088942  1
  Sr  Sr6  1  0.495266  0.678696  0.906409  1
  Sr  Sr7  1  0.995172  0.820669  0.593647  1
  Sr  Sr8  1  0.674630  0.012368  0.250000  1
  Ho  Ho9  1  0.670464  0.158711  0.625715  1
  Ho  Ho10  1  0.169822  0.342739  0.875129  1
  Ho  Ho11  1  0.330826  0.839145  0.120911  1
  Ho  Ho12  1  0.832864  0.661884  0.378759  1
  Ho  Ho13  1  0.330826  0.839145  0.379089  1
  Ho  Ho14  1  0.832864  0.661884  0.121241  1
  Ho  Ho15  1  0.670464  0.158711  0.874285  1
  Ho  Ho16  1  0.169822  0.342739  0.624871  1
  Ho  Ho17  1  0.830188  0.504833  0.750000  1
  Ho  Ho18  1  0.330438  0.996035  0.750000  1
  Ho  Ho19  1  0.174629  0.493588  0.250000  1
  Pb  Pb20  1  0.671279  0.953960  0.461335  1
  Pb  Pb21  1  0.173019  0.542049  0.043463  1
  Pb  Pb22  1  0.327033  0.042411  0.954119  1
  Pb  Pb23  1  0.826776  0.457172  0.545417  1
  Pb  Pb24  1  0.327033  0.042411  0.545881  1
  Pb  Pb25  1  0.826776  0.457172  0.954583  1
  Pb  Pb26  1  0.671279  0.953960  0.038665  1
  Pb  Pb27  1  0.173019  0.542049  0.456537  1
  Pb  Pb28  1  0.471458  0.362383  0.750000  1
  Pb  Pb29  1  0.972920  0.136983  0.750000  1
  Pb  Pb30  1  0.528908  0.629662  0.250000  1
  Pb  Pb31  1  0.039354  0.852589  0.250000  1
  Pb  Pb32  1  0.695681  0.858514  0.750000  1
  Pb  Pb33  1  0.196635  0.641468  0.750000  1
  Pb  Pb34  1  0.282482  0.136313  0.250000  1
  Pb  Pb35  1  0.808538  0.379071  0.250000  1
