# generated using pymatgen
data_Ac7La3Os4
_symmetry_space_group_name_H-M   'P 1'
_cell_length_a   9.34891584
_cell_length_b   9.32858709
_cell_length_c   7.68680222
_cell_angle_alpha   84.32397310
_cell_angle_beta   83.79589859
_cell_angle_gamma   43.91673641
_symmetry_Int_Tables_number   1
_chemical_formula_structural   Ac7La3Os4
_chemical_formula_sum   'Ac7 La3 Os4'
_cell_volume   462.04684247
_cell_formula_units_Z   1
loop_
 _symmetry_equiv_pos_site_id
 _symmetry_equiv_pos_as_xyz
  1  'x, y, z'
loop_
 _atom_site_type_symbol
 _atom_site_label
 _atom_site_symmetry_multiplicity
 _atom_site_fract_x
 _atom_site_fract_y
 _atom_site_fract_z
 _atom_site_occupancy
  Ac  Ac0  1  0.808788  0.011435  0.411234  1
  Ac  Ac1  1  0.355680  0.212343  0.816159  1
  Ac  Ac2  1  0.790037  0.639298  0.683577  1
  Ac  Ac3  1  0.642025  0.788745  0.181980  1
  Ac  Ac4  1  0.210704  0.358117  0.314835  1
  Ac  Ac5  1  0.571091  0.429984  0.752020  1
  Ac  Ac6  1  0.426465  0.574360  0.249150  1
  La  La7  1  0.007417  0.810701  0.904522  1
  La  La8  1  0.193087  0.990476  0.597488  1
  La  La9  1  0.991202  0.190233  0.095530  1
  Os  Os10  1  0.171872  0.609216  0.585234  1
  Os  Os11  1  0.379937  0.838763  0.918683  1
  Os  Os12  1  0.839100  0.378495  0.417105  1
  Os  Os13  1  0.612595  0.167832  0.072483  1
