# generated using pymatgen
data_Pr17Y3Si15Os
_symmetry_space_group_name_H-M   'P 1'
_cell_length_a   7.89703800
_cell_length_b   7.86350783
_cell_length_c   15.18503803
_cell_angle_alpha   90.26206851
_cell_angle_beta   89.85616663
_cell_angle_gamma   90.16855374
_symmetry_Int_Tables_number   1
_chemical_formula_structural   Pr17Y3Si15Os
_chemical_formula_sum   'Pr17 Y3 Si15 Os1'
_cell_volume   942.94998703
_cell_formula_units_Z   1
loop_
 _symmetry_equiv_pos_site_id
 _symmetry_equiv_pos_as_xyz
  1  'x, y, z'
loop_
 _atom_site_type_symbol
 _atom_site_label
 _atom_site_symmetry_multiplicity
 _atom_site_fract_x
 _atom_site_fract_y
 _atom_site_fract_z
 _atom_site_occupancy
  Pr  Pr0  1  0.697157  0.688825  0.501871  1
  Pr  Pr1  1  0.373079  0.011729  0.449898  1
  Pr  Pr2  1  0.485512  0.879613  0.699381  1
  Pr  Pr3  1  0.512243  0.124813  0.198336  1
  Pr  Pr4  1  0.875699  0.486318  0.299338  1
  Pr  Pr5  1  0.127231  0.502444  0.798504  1
  Pr  Pr6  1  0.625525  0.987632  0.948560  1
  Pr  Pr7  1  0.006991  0.374849  0.552514  1
  Pr  Pr8  1  0.987719  0.625336  0.050276  1
  Pr  Pr9  1  0.133827  0.983480  0.872412  1
  Pr  Pr10  1  0.519809  0.631100  0.125601  1
  Pr  Pr11  1  0.469317  0.362079  0.630502  1
  Pr  Pr12  1  0.628008  0.517306  0.874716  1
  Pr  Pr13  1  0.375379  0.481081  0.372107  1
  Pr  Pr14  1  0.873245  0.022712  0.376955  1
  Pr  Pr15  1  0.979985  0.126867  0.123009  1
  Pr  Pr16  1  0.028232  0.882804  0.626321  1
  Y  Y17  1  0.308054  0.307816  0.999314  1
  Y  Y18  1  0.189386  0.809530  0.250240  1
  Y  Y19  1  0.822659  0.189998  0.749154  1
  Si  Si20  1  0.331236  0.691684  0.952994  1
  Si  Si21  1  0.662987  0.302505  0.453656  1
  Si  Si22  1  0.693367  0.331268  0.047516  1
  Si  Si23  1  0.305951  0.669162  0.545516  1
  Si  Si24  1  0.808934  0.831127  0.204542  1
  Si  Si25  1  0.169726  0.193017  0.295001  1
  Si  Si26  1  0.830319  0.805928  0.798023  1
  Si  Si27  1  0.286839  0.922839  0.061338  1
  Si  Si28  1  0.575864  0.788759  0.309939  1
  Si  Si29  1  0.425818  0.209089  0.815146  1
  Si  Si30  1  0.780473  0.579183  0.691569  1
  Si  Si31  1  0.212479  0.423314  0.186590  1
  Si  Si32  1  0.705264  0.075928  0.562240  1
  Si  Si33  1  0.920718  0.284702  0.938682  1
  Si  Si34  1  0.083825  0.718173  0.436849  1
  Os  Os35  1  0.187145  0.176991  0.701386  1
