# generated using pymatgen
data_Nd8CoHg2Pd
_symmetry_space_group_name_H-M   'P 1'
_cell_length_a   9.88174248
_cell_length_b   9.89107470
_cell_length_c   9.88174141
_cell_angle_alpha   59.96876013
_cell_angle_beta   60.16052776
_cell_angle_gamma   59.96876205
_symmetry_Int_Tables_number   1
_chemical_formula_structural   Nd8CoHg2Pd
_chemical_formula_sum   'Nd16 Co2 Hg4 Pd2'
_cell_volume   683.46123712
_cell_formula_units_Z   2
loop_
 _symmetry_equiv_pos_site_id
 _symmetry_equiv_pos_as_xyz
  1  'x, y, z'
loop_
 _atom_site_type_symbol
 _atom_site_label
 _atom_site_symmetry_multiplicity
 _atom_site_fract_x
 _atom_site_fract_y
 _atom_site_fract_z
 _atom_site_occupancy
  Nd  Nd0  1  0.938496  0.935779  0.562787  1
  Nd  Nd1  1  0.564271  0.935729  0.564271  1
  Nd  Nd2  1  0.562787  0.935779  0.938496  1
  Nd  Nd3  1  0.680045  0.700025  0.310412  1
  Nd  Nd4  1  0.158592  0.147195  0.547015  1
  Nd  Nd5  1  0.310412  0.700025  0.680045  1
  Nd  Nd6  1  0.153391  0.139371  0.153391  1
  Nd  Nd7  1  0.547015  0.147195  0.158592  1
  Nd  Nd8  1  0.311417  0.688583  0.311417  1
  Nd  Nd9  1  0.310412  0.309517  0.680045  1
  Nd  Nd10  1  0.692813  0.307187  0.692813  1
  Nd  Nd11  1  0.938496  0.562938  0.562787  1
  Nd  Nd12  1  0.562787  0.562938  0.938496  1
  Nd  Nd13  1  0.153391  0.553845  0.153391  1
  Nd  Nd14  1  0.680045  0.309517  0.310412  1
  Nd  Nd15  1  0.938298  0.561702  0.938298  1
  Co  Co16  1  0.357139  0.927629  0.357139  1
  Co  Co17  1  0.357139  0.358093  0.357139  1
  Hg  Hg18  1  0.252612  0.916277  0.914832  1
  Hg  Hg19  1  0.916297  0.917010  0.916297  1
  Hg  Hg20  1  0.914832  0.916277  0.252612  1
  Hg  Hg21  1  0.916297  0.250395  0.916297  1
  Pd  Pd22  1  0.928101  0.358494  0.354911  1
  Pd  Pd23  1  0.354911  0.358494  0.928101  1
