# generated using pymatgen
data_Y3Tm5(AlPt)2
_symmetry_space_group_name_H-M   'P 1'
_cell_length_a   9.51860051
_cell_length_b   9.51860078
_cell_length_c   9.51859900
_cell_angle_alpha   60.00000270
_cell_angle_beta   60.00000178
_cell_angle_gamma   59.99999809
_symmetry_Int_Tables_number   1
_chemical_formula_structural   Y3Tm5(AlPt)2
_chemical_formula_sum   'Y6 Tm10 Al4 Pt4'
_cell_volume   609.82363773
_cell_formula_units_Z   2
loop_
 _symmetry_equiv_pos_site_id
 _symmetry_equiv_pos_as_xyz
  1  'x, y, z'
loop_
 _atom_site_type_symbol
 _atom_site_label
 _atom_site_symmetry_multiplicity
 _atom_site_fract_x
 _atom_site_fract_y
 _atom_site_fract_z
 _atom_site_occupancy
  Y  Y0  1  0.937482  0.562518  0.562518  1
  Y  Y1  1  0.562518  0.937482  0.937482  1
  Y  Y2  1  0.562518  0.937482  0.562518  1
  Y  Y3  1  0.937482  0.562518  0.937482  1
  Y  Y4  1  0.562518  0.562518  0.937482  1
  Y  Y5  1  0.937482  0.937482  0.562518  1
  Tm  Tm6  1  0.354336  0.354336  0.354336  1
  Tm  Tm7  1  0.354336  0.354336  0.936991  1
  Tm  Tm8  1  0.354336  0.936991  0.354336  1
  Tm  Tm9  1  0.936991  0.354336  0.354336  1
  Tm  Tm10  1  0.808815  0.191185  0.191185  1
  Tm  Tm11  1  0.191185  0.808815  0.808815  1
  Tm  Tm12  1  0.191185  0.808815  0.191185  1
  Tm  Tm13  1  0.808815  0.191185  0.808815  1
  Tm  Tm14  1  0.191185  0.191185  0.808815  1
  Tm  Tm15  1  0.808815  0.808815  0.191185  1
  Al  Al16  1  0.577699  0.577699  0.577699  1
  Al  Al17  1  0.577699  0.577699  0.266904  1
  Al  Al18  1  0.577699  0.266904  0.577699  1
  Al  Al19  1  0.266904  0.577699  0.577699  1
  Pt  Pt20  1  0.143650  0.143650  0.143650  1
  Pt  Pt21  1  0.143650  0.143650  0.569050  1
  Pt  Pt22  1  0.143650  0.569050  0.143650  1
  Pt  Pt23  1  0.569050  0.143650  0.143650  1
