# generated using pymatgen
data_Er12ZnCo3SiBi
_symmetry_space_group_name_H-M   'P 1'
_cell_length_a   8.32862021
_cell_length_b   8.32861909
_cell_length_c   8.32862081
_cell_angle_alpha   110.83516193
_cell_angle_beta   112.58298990
_cell_angle_gamma   105.08775883
_symmetry_Int_Tables_number   1
_chemical_formula_structural   Er12ZnCo3SiBi
_chemical_formula_sum   'Er12 Zn1 Co3 Si1 Bi1'
_cell_volume   442.68617349
_cell_formula_units_Z   1
loop_
 _symmetry_equiv_pos_site_id
 _symmetry_equiv_pos_as_xyz
  1  'x, y, z'
loop_
 _atom_site_type_symbol
 _atom_site_label
 _atom_site_symmetry_multiplicity
 _atom_site_fract_x
 _atom_site_fract_y
 _atom_site_fract_z
 _atom_site_occupancy
  Er  Er0  1  0.286369  0.182189  0.468559  1
  Er  Er1  1  0.718743  0.816391  0.535132  1
  Er  Er2  1  0.281257  0.816391  0.097648  1
  Er  Er3  1  0.713631  0.182189  0.895820  1
  Er  Er4  1  0.620603  0.310728  0.314587  1
  Er  Er5  1  0.379397  0.693985  0.690126  1
  Er  Er6  1  0.996143  0.310728  0.690126  1
  Er  Er7  1  0.003857  0.693985  0.314587  1
  Er  Er8  1  0.231413  0.430403  0.198990  1
  Er  Er9  1  0.776900  0.574258  0.797359  1
  Er  Er10  1  0.223100  0.020459  0.797359  1
  Er  Er11  1  0.768587  0.967577  0.198990  1
  Zn  Zn12  1  0.000000  0.995708  0.995708  1
  Co  Co13  1  0.000000  0.642461  0.642461  1
  Co  Co14  1  0.389651  0.888654  0.499003  1
  Co  Co15  1  0.610349  0.109352  0.499003  1
  Si  Si16  1  0.000000  0.370123  0.370123  1
  Bi  Bi17  1  0.500000  0.494420  0.994420  1
