# generated using pymatgen
data_CeTmTh(SnRh)3
_symmetry_space_group_name_H-M   'P 1'
_cell_length_a   7.49453018
_cell_length_b   7.52739676
_cell_length_c   4.02810800
_cell_angle_alpha   90.00000000
_cell_angle_beta   90.00000000
_cell_angle_gamma   120.22952560
_symmetry_Int_Tables_number   1
_chemical_formula_structural   CeTmTh(SnRh)3
_chemical_formula_sum   'Ce1 Tm1 Th1 Sn3 Rh3'
_cell_volume   196.34138308
_cell_formula_units_Z   1
loop_
 _symmetry_equiv_pos_site_id
 _symmetry_equiv_pos_as_xyz
  1  'x, y, z'
loop_
 _atom_site_type_symbol
 _atom_site_label
 _atom_site_symmetry_multiplicity
 _atom_site_fract_x
 _atom_site_fract_y
 _atom_site_fract_z
 _atom_site_occupancy
  Ce  Ce0  1  0.587053  0.999985  0.500000  1
  Tm  Tm1  1  0.406919  0.406853  0.500000  1
  Th  Th2  1  0.000036  0.586640  0.500000  1
  Sn  Sn3  1  0.736259  0.739508  0.000000  1
  Sn  Sn4  1  0.258155  0.010698  0.000000  1
  Sn  Sn5  1  0.007977  0.251890  0.000000  1
  Rh  Rh6  1  0.675362  0.334900  0.000000  1
  Rh  Rh7  1  0.329931  0.673789  0.000000  1
  Rh  Rh8  1  0.998309  0.995738  0.500000  1
