# generated using pymatgen
data_KLaMnS3
_symmetry_space_group_name_H-M   'P 1'
_cell_length_a   11.46699400
_cell_length_b   4.31110400
_cell_length_c   12.21306000
_cell_angle_alpha   90.00000000
_cell_angle_beta   90.00000000
_cell_angle_gamma   90.00000000
_symmetry_Int_Tables_number   1
_chemical_formula_structural   KLaMnS3
_chemical_formula_sum   'K4 La4 Mn4 S12'
_cell_volume   603.75755153
_cell_formula_units_Z   4
loop_
 _symmetry_equiv_pos_site_id
 _symmetry_equiv_pos_as_xyz
  1  'x, y, z'
loop_
 _atom_site_type_symbol
 _atom_site_label
 _atom_site_symmetry_multiplicity
 _atom_site_fract_x
 _atom_site_fract_y
 _atom_site_fract_z
 _atom_site_occupancy
  K  K0  1  0.668729  0.749999  0.008342  1
  K  K1  1  0.168730  0.749999  0.491659  1
  K  K2  1  0.831271  0.250000  0.508342  1
  K  K3  1  0.331270  0.250000  0.991658  1
  La  La4  1  0.984655  0.250000  0.174885  1
  La  La5  1  0.484656  0.250000  0.325116  1
  La  La6  1  0.515345  0.749999  0.674884  1
  La  La7  1  0.015344  0.749999  0.825116  1
  Mn  Mn8  1  0.247874  0.749999  0.205622  1
  Mn  Mn9  1  0.747874  0.749999  0.294377  1
  Mn  Mn10  1  0.252126  0.250000  0.705622  1
  Mn  Mn11  1  0.752126  0.250000  0.794378  1
  S  S12  1  0.110514  0.749999  0.059757  1
  S  S13  1  0.448283  0.749999  0.167769  1
  S  S14  1  0.720905  0.250000  0.203981  1
  S  S15  1  0.220906  0.250000  0.296019  1
  S  S16  1  0.948283  0.749999  0.332230  1
  S  S17  1  0.610515  0.749999  0.440244  1
  S  S18  1  0.389485  0.250000  0.559756  1
  S  S19  1  0.051717  0.250000  0.667770  1
  S  S20  1  0.779095  0.749999  0.703982  1
  S  S21  1  0.279094  0.749999  0.796018  1
  S  S22  1  0.551717  0.250000  0.832230  1
  S  S23  1  0.889485  0.250000  0.940244  1
