# generated using pymatgen
data_Y5Si12Tc3Ni16
_symmetry_space_group_name_H-M   'P 1'
_cell_length_a   12.47389300
_cell_length_b   12.47389392
_cell_length_c   3.82861200
_cell_angle_alpha   90.00000000
_cell_angle_beta   90.00000000
_cell_angle_gamma   120.00000020
_symmetry_Int_Tables_number   1
_chemical_formula_structural   Y5Si12Tc3Ni16
_chemical_formula_sum   'Y5 Si12 Tc3 Ni16'
_cell_volume   515.91249701
_cell_formula_units_Z   1
loop_
 _symmetry_equiv_pos_site_id
 _symmetry_equiv_pos_as_xyz
  1  'x, y, z'
loop_
 _atom_site_type_symbol
 _atom_site_label
 _atom_site_symmetry_multiplicity
 _atom_site_fract_x
 _atom_site_fract_y
 _atom_site_fract_z
 _atom_site_occupancy
  Y  Y0  1  0.666667  0.333333  0.000000  1
  Y  Y1  1  0.333333  0.666667  0.000000  1
  Y  Y2  1  0.812447  0.812447  0.500000  1
  Y  Y3  1  0.187553  0.000000  0.500000  1
  Y  Y4  1  0.000000  0.187553  0.500000  1
  Si  Si5  1  0.683699  0.160682  0.500000  1
  Si  Si6  1  0.839318  0.523017  0.500000  1
  Si  Si7  1  0.476983  0.316301  0.500000  1
  Si  Si8  1  0.160682  0.683699  0.500000  1
  Si  Si9  1  0.523017  0.839318  0.500000  1
  Si  Si10  1  0.316301  0.476983  0.500000  1
  Si  Si11  1  0.182235  0.182235  0.000000  1
  Si  Si12  1  0.817765  0.000000  0.000000  1
  Si  Si13  1  0.000000  0.817765  0.000000  1
  Si  Si14  1  0.629747  0.629747  0.000000  1
  Si  Si15  1  0.370253  0.000000  0.000000  1
  Si  Si16  1  0.000000  0.370253  0.000000  1
  Tc  Tc17  1  0.436971  0.436971  0.000000  1
  Tc  Tc18  1  0.563029  0.000000  0.000000  1
  Tc  Tc19  1  0.000000  0.563029  0.000000  1
  Ni  Ni20  1  0.876258  0.356170  0.500000  1
  Ni  Ni21  1  0.643830  0.520088  0.500000  1
  Ni  Ni22  1  0.479912  0.123742  0.500000  1
  Ni  Ni23  1  0.356170  0.876258  0.500000  1
  Ni  Ni24  1  0.520088  0.643830  0.500000  1
  Ni  Ni25  1  0.123742  0.479912  0.500000  1
  Ni  Ni26  1  0.804630  0.182520  0.000000  1
  Ni  Ni27  1  0.817480  0.622108  0.000000  1
  Ni  Ni28  1  0.377892  0.195370  0.000000  1
  Ni  Ni29  1  0.182520  0.804630  0.000000  1
  Ni  Ni30  1  0.622108  0.817480  0.000000  1
  Ni  Ni31  1  0.195370  0.377892  0.000000  1
  Ni  Ni32  1  0.278269  0.278269  0.500000  1
  Ni  Ni33  1  0.721731  0.000000  0.500000  1
  Ni  Ni34  1  0.000000  0.721731  0.500000  1
  Ni  Ni35  1  0.000000  0.000000  0.000000  1
