# generated using pymatgen
data_Cs12Na8Zr3SnSb12
_symmetry_space_group_name_H-M   'P 1'
_cell_length_a   11.78892514
_cell_length_b   11.78892423
_cell_length_c   17.74457727
_cell_angle_alpha   89.94038090
_cell_angle_beta   89.94038374
_cell_angle_gamma   142.85727308
_symmetry_Int_Tables_number   1
_chemical_formula_structural   Cs12Na8Zr3SnSb12
_chemical_formula_sum   'Cs12 Na8 Zr3 Sn1 Sb12'
_cell_volume   1489.04116276
_cell_formula_units_Z   1
loop_
 _symmetry_equiv_pos_site_id
 _symmetry_equiv_pos_as_xyz
  1  'x, y, z'
loop_
 _atom_site_type_symbol
 _atom_site_label
 _atom_site_symmetry_multiplicity
 _atom_site_fract_x
 _atom_site_fract_y
 _atom_site_fract_z
 _atom_site_occupancy
  Cs  Cs0  1  0.944265  0.606827  0.827854  1
  Cs  Cs1  1  0.555548  0.893586  0.327008  1
  Cs  Cs2  1  0.393173  0.055735  0.172146  1
  Cs  Cs3  1  0.056375  0.394392  0.173426  1
  Cs  Cs4  1  0.899203  0.565355  0.328607  1
  Cs  Cs5  1  0.434645  0.100797  0.671393  1
  Cs  Cs6  1  0.605608  0.943625  0.826574  1
  Cs  Cs7  1  0.274393  0.271727  0.320620  1
  Cs  Cs8  1  0.777200  0.777045  0.179457  1
  Cs  Cs9  1  0.222955  0.222800  0.820543  1
  Cs  Cs10  1  0.728273  0.725607  0.679380  1
  Cs  Cs11  1  0.106414  0.444452  0.672992  1
  Na  Na12  1  0.918676  0.081324  0.000000  1
  Na  Na13  1  0.581755  0.418245  0.500000  1
  Na  Na14  1  0.081262  0.918738  0.000000  1
  Na  Na15  1  0.418300  0.581700  0.500000  1
  Na  Na16  1  0.753931  0.246069  0.000000  1
  Na  Na17  1  0.745909  0.254091  0.500000  1
  Na  Na18  1  0.246089  0.753911  0.000000  1
  Na  Na19  1  0.254020  0.745980  0.500000  1
  Zr  Zr20  1  0.586123  0.413877  0.000000  1
  Zr  Zr21  1  0.916872  0.083128  0.500000  1
  Zr  Zr22  1  0.413855  0.586145  0.000000  1
  Sn  Sn23  1  0.084823  0.915177  0.500000  1
  Sb  Sb24  1  0.876049  0.560403  0.093910  1
  Sb  Sb25  1  0.439597  0.123951  0.906090  1
  Sb  Sb26  1  0.627217  0.941402  0.593648  1
  Sb  Sb27  1  0.935534  0.618723  0.596949  1
  Sb  Sb28  1  0.123909  0.439596  0.906113  1
  Sb  Sb29  1  0.560404  0.876091  0.093887  1
  Sb  Sb30  1  0.381277  0.064466  0.403051  1
  Sb  Sb31  1  0.209194  0.211393  0.590437  1
  Sb  Sb32  1  0.705474  0.705529  0.913001  1
  Sb  Sb33  1  0.294471  0.294526  0.086999  1
  Sb  Sb34  1  0.058598  0.372783  0.406352  1
  Sb  Sb35  1  0.788607  0.790806  0.409563  1
