# generated using pymatgen
data_Ho16Mg(ZrIr4)3
_symmetry_space_group_name_H-M   'P 1'
_cell_length_a   10.79118400
_cell_length_b   10.79118400
_cell_length_c   6.23554200
_cell_angle_alpha   90.00000000
_cell_angle_beta   90.00000000
_cell_angle_gamma   90.00000000
_symmetry_Int_Tables_number   1
_chemical_formula_structural   Ho16Mg(ZrIr4)3
_chemical_formula_sum   'Ho16 Mg1 Zr3 Ir12'
_cell_volume   726.12669669
_cell_formula_units_Z   1
loop_
 _symmetry_equiv_pos_site_id
 _symmetry_equiv_pos_as_xyz
  1  'x, y, z'
loop_
 _atom_site_type_symbol
 _atom_site_label
 _atom_site_symmetry_multiplicity
 _atom_site_fract_x
 _atom_site_fract_y
 _atom_site_fract_z
 _atom_site_occupancy
  Ho  Ho0  1  0.283442  0.083398  0.375037  1
  Ho  Ho1  1  0.289741  0.912239  0.876229  1
  Ho  Ho2  1  0.710259  0.087761  0.876229  1
  Ho  Ho3  1  0.716558  0.916602  0.375037  1
  Ho  Ho4  1  0.588037  0.789818  0.874876  1
  Ho  Ho5  1  0.585303  0.208760  0.372592  1
  Ho  Ho6  1  0.414697  0.791240  0.372592  1
  Ho  Ho7  1  0.411963  0.210182  0.874876  1
  Ho  Ho8  1  0.208760  0.414697  0.627408  1
  Ho  Ho9  1  0.210182  0.588037  0.125124  1
  Ho  Ho10  1  0.789818  0.411963  0.125124  1
  Ho  Ho11  1  0.791240  0.585303  0.627408  1
  Ho  Ho12  1  0.912239  0.710259  0.123771  1
  Ho  Ho13  1  0.916602  0.283442  0.624963  1
  Ho  Ho14  1  0.083398  0.716558  0.624963  1
  Ho  Ho15  1  0.087761  0.289741  0.123771  1
  Mg  Mg16  1  0.000000  0.000000  0.500000  1
  Zr  Zr17  1  0.000000  0.000000  0.000000  1
  Zr  Zr18  1  0.500000  0.500000  0.000000  1
  Zr  Zr19  1  0.500000  0.500000  0.500000  1
  Ir  Ir20  1  0.851621  0.152035  0.239515  1
  Ir  Ir21  1  0.847965  0.851621  0.760485  1
  Ir  Ir22  1  0.152035  0.148379  0.760485  1
  Ir  Ir23  1  0.148379  0.847965  0.239515  1
  Ir  Ir24  1  0.646008  0.354560  0.746848  1
  Ir  Ir25  1  0.645440  0.646008  0.253152  1
  Ir  Ir26  1  0.354560  0.353992  0.253152  1
  Ir  Ir27  1  0.353992  0.645440  0.746848  1
  Ir  Ir28  1  0.500000  0.000000  0.121976  1
  Ir  Ir29  1  0.500000  0.000000  0.619886  1
  Ir  Ir30  1  0.000000  0.500000  0.878024  1
  Ir  Ir31  1  0.000000  0.500000  0.380114  1
