# generated using pymatgen
data_Nb12Al7Ga(CuC)4
_symmetry_space_group_name_H-M   'P 1'
_cell_length_a   8.32460229
_cell_length_b   8.32460187
_cell_length_c   8.32459918
_cell_angle_alpha   60.01933282
_cell_angle_beta   60.01932054
_cell_angle_gamma   60.01932842
_symmetry_Int_Tables_number   1
_chemical_formula_structural   Nb12Al7Ga(CuC)4
_chemical_formula_sum   'Nb12 Al7 Ga1 Cu4 C4'
_cell_volume   408.09901078
_cell_formula_units_Z   1
loop_
 _symmetry_equiv_pos_site_id
 _symmetry_equiv_pos_as_xyz
  1  'x, y, z'
loop_
 _atom_site_type_symbol
 _atom_site_label
 _atom_site_symmetry_multiplicity
 _atom_site_fract_x
 _atom_site_fract_y
 _atom_site_fract_z
 _atom_site_occupancy
  Nb  Nb0  1  0.566630  0.933228  0.566630  1
  Nb  Nb1  1  0.316794  0.683366  0.683365  1
  Nb  Nb2  1  0.683319  0.316536  0.316535  1
  Nb  Nb3  1  0.316536  0.683319  0.316535  1
  Nb  Nb4  1  0.683366  0.683365  0.316794  1
  Nb  Nb5  1  0.316535  0.316535  0.683319  1
  Nb  Nb6  1  0.566630  0.566630  0.933228  1
  Nb  Nb7  1  0.933228  0.566630  0.566630  1
  Nb  Nb8  1  0.567103  0.933261  0.933261  1
  Nb  Nb9  1  0.933261  0.933261  0.567102  1
  Nb  Nb10  1  0.683366  0.316794  0.683365  1
  Nb  Nb11  1  0.933261  0.567103  0.933261  1
  Al  Al12  1  0.999642  0.333426  0.333426  1
  Al  Al13  1  0.333425  0.999642  0.333426  1
  Al  Al14  1  0.333425  0.333426  0.999642  1
  Al  Al15  1  0.916427  0.250596  0.916426  1
  Al  Al16  1  0.916427  0.916426  0.250596  1
  Al  Al17  1  0.250596  0.916427  0.916427  1
  Al  Al18  1  0.333455  0.333455  0.333455  1
  Ga  Ga19  1  0.916107  0.916107  0.916107  1
  Cu  Cu20  1  0.124838  0.124838  0.124839  1
  Cu  Cu21  1  0.624321  0.125572  0.125572  1
  Cu  Cu22  1  0.125572  0.624321  0.125572  1
  Cu  Cu23  1  0.125571  0.125571  0.624322  1
  C  C24  1  0.624866  0.624866  0.624867  1
  C  C25  1  0.124955  0.625172  0.625172  1
  C  C26  1  0.625172  0.124955  0.625172  1
  C  C27  1  0.625172  0.625172  0.124955  1
