# generated using pymatgen
data_Y2ZrIr3
_symmetry_space_group_name_H-M   'P 1'
_cell_length_a   5.72788400
_cell_length_b   5.72788445
_cell_length_c   16.71015200
_cell_angle_alpha   90.00000000
_cell_angle_beta   90.00000000
_cell_angle_gamma   120.00000893
_symmetry_Int_Tables_number   1
_chemical_formula_structural   Y2ZrIr3
_chemical_formula_sum   'Y8 Zr4 Ir12'
_cell_volume   474.78769581
_cell_formula_units_Z   4
loop_
 _symmetry_equiv_pos_site_id
 _symmetry_equiv_pos_as_xyz
  1  'x, y, z'
loop_
 _atom_site_type_symbol
 _atom_site_label
 _atom_site_symmetry_multiplicity
 _atom_site_fract_x
 _atom_site_fract_y
 _atom_site_fract_z
 _atom_site_occupancy
  Y  Y0  1  0.000000  0.000000  0.092594  1
  Y  Y1  1  0.666667  0.333333  0.155180  1
  Y  Y2  1  0.666667  0.333333  0.344820  1
  Y  Y3  1  0.000000  0.000000  0.407406  1
  Y  Y4  1  0.000000  0.000000  0.592594  1
  Y  Y5  1  0.333333  0.666666  0.655181  1
  Y  Y6  1  0.333333  0.666666  0.844820  1
  Y  Y7  1  0.000000  0.000000  0.907406  1
  Zr  Zr8  1  0.333333  0.666666  0.127211  1
  Zr  Zr9  1  0.333333  0.666666  0.372789  1
  Zr  Zr10  1  0.666667  0.333333  0.627211  1
  Zr  Zr11  1  0.666667  0.333333  0.872789  1
  Ir  Ir12  1  0.500001  0.000000  0.000000  1
  Ir  Ir13  1  0.000000  0.500000  0.000000  1
  Ir  Ir14  1  0.500001  0.500000  0.000000  1
  Ir  Ir15  1  0.157619  0.315239  0.250000  1
  Ir  Ir16  1  0.157619  0.842381  0.250000  1
  Ir  Ir17  1  0.684761  0.842381  0.250000  1
  Ir  Ir18  1  0.500001  0.000000  0.500000  1
  Ir  Ir19  1  0.000000  0.500000  0.500000  1
  Ir  Ir20  1  0.500001  0.500000  0.500000  1
  Ir  Ir21  1  0.315238  0.157618  0.750000  1
  Ir  Ir22  1  0.842381  0.157618  0.750000  1
  Ir  Ir23  1  0.842382  0.684762  0.750000  1
