# generated using pymatgen
data_ErPu(AlB4)2
_symmetry_space_group_name_H-M   'P 1'
_cell_length_a   3.56932600
_cell_length_b   5.94133913
_cell_length_c   11.51878026
_cell_angle_alpha   89.97581487
_cell_angle_beta   90.00000000
_cell_angle_gamma   90.00000000
_symmetry_Int_Tables_number   1
_chemical_formula_structural   ErPu(AlB4)2
_chemical_formula_sum   'Er2 Pu2 Al4 B16'
_cell_volume   244.27386994
_cell_formula_units_Z   2
loop_
 _symmetry_equiv_pos_site_id
 _symmetry_equiv_pos_as_xyz
  1  'x, y, z'
loop_
 _atom_site_type_symbol
 _atom_site_label
 _atom_site_symmetry_multiplicity
 _atom_site_fract_x
 _atom_site_fract_y
 _atom_site_fract_z
 _atom_site_occupancy
  Er  Er0  1  0.500000  0.127879  0.650075  1
  Er  Er1  1  0.500000  0.872121  0.349925  1
  Pu  Pu2  1  0.500000  0.370609  0.150418  1
  Pu  Pu3  1  0.500000  0.629391  0.849582  1
  Al  Al4  1  0.500000  0.362489  0.408812  1
  Al  Al5  1  0.500000  0.637511  0.591188  1
  Al  Al6  1  0.500000  0.138738  0.909993  1
  Al  Al7  1  0.500000  0.861262  0.090007  1
  B  B8  1  0.000000  0.113411  0.047241  1
  B  B9  1  0.000000  0.886589  0.952759  1
  B  B10  1  0.000000  0.385176  0.546342  1
  B  B11  1  0.000000  0.614824  0.453658  1
  B  B12  1  0.000000  0.133047  0.468974  1
  B  B13  1  0.000000  0.866953  0.531026  1
  B  B14  1  0.000000  0.366678  0.968518  1
  B  B15  1  0.000000  0.633322  0.031482  1
  B  B16  1  0.000000  0.027557  0.193023  1
  B  B17  1  0.000000  0.972443  0.806977  1
  B  B18  1  0.000000  0.472236  0.692457  1
  B  B19  1  0.000000  0.527764  0.307543  1
  B  B20  1  0.000000  0.211072  0.312430  1
  B  B21  1  0.000000  0.788928  0.687570  1
  B  B22  1  0.000000  0.289406  0.812136  1
  B  B23  1  0.000000  0.710594  0.187864  1
