# generated using pymatgen
data_KNd(LuSe2)2
_symmetry_space_group_name_H-M   'P 1'
_cell_length_a   4.11029900
_cell_length_b   4.11029881
_cell_length_c   29.03364600
_cell_angle_alpha   90.00000000
_cell_angle_beta   90.00000000
_cell_angle_gamma   119.99997737
_symmetry_Int_Tables_number   1
_chemical_formula_structural   KNd(LuSe2)2
_chemical_formula_sum   'K2 Nd2 Lu4 Se8'
_cell_volume   424.79472869
_cell_formula_units_Z   2
loop_
 _symmetry_equiv_pos_site_id
 _symmetry_equiv_pos_as_xyz
  1  'x, y, z'
loop_
 _atom_site_type_symbol
 _atom_site_label
 _atom_site_symmetry_multiplicity
 _atom_site_fract_x
 _atom_site_fract_y
 _atom_site_fract_z
 _atom_site_occupancy
  K  K0  1  0.666667  0.333333  0.250000  1
  K  K1  1  0.333333  0.666667  0.750000  1
  Nd  Nd2  1  0.000000  0.000000  0.500000  1
  Nd  Nd3  1  0.000000  0.000000  0.000000  1
  Lu  Lu4  1  0.666667  0.333333  0.615851  1
  Lu  Lu5  1  0.666667  0.333333  0.884149  1
  Lu  Lu6  1  0.333333  0.666667  0.384149  1
  Lu  Lu7  1  0.333333  0.666667  0.115851  1
  Se  Se8  1  0.000000  0.000000  0.169190  1
  Se  Se9  1  0.666667  0.333333  0.436855  1
  Se  Se10  1  0.000000  0.000000  0.669190  1
  Se  Se11  1  0.333333  0.666667  0.936855  1
  Se  Se12  1  0.333333  0.666667  0.563145  1
  Se  Se13  1  0.000000  0.000000  0.330810  1
  Se  Se14  1  0.666667  0.333333  0.063145  1
  Se  Se15  1  0.000000  0.000000  0.830810  1
