# generated using pymatgen
data_Y7Ho9Cd4(RuPt)2
_symmetry_space_group_name_H-M   'P 1'
_cell_length_a   9.63814018
_cell_length_b   9.63814107
_cell_length_c   9.67454500
_cell_angle_alpha   59.87498014
_cell_angle_beta   59.87497704
_cell_angle_gamma   59.88883611
_symmetry_Int_Tables_number   1
_chemical_formula_structural   Y7Ho9Cd4(RuPt)2
_chemical_formula_sum   'Y7 Ho9 Cd4 Ru2 Pt2'
_cell_volume   633.74418460
_cell_formula_units_Z   1
loop_
 _symmetry_equiv_pos_site_id
 _symmetry_equiv_pos_as_xyz
  1  'x, y, z'
loop_
 _atom_site_type_symbol
 _atom_site_label
 _atom_site_symmetry_multiplicity
 _atom_site_fract_x
 _atom_site_fract_y
 _atom_site_fract_z
 _atom_site_occupancy
  Y  Y0  1  0.808289  0.808289  0.191711  1
  Y  Y1  1  0.937863  0.558491  0.566222  1
  Y  Y2  1  0.558491  0.937863  0.937424  1
  Y  Y3  1  0.558491  0.937863  0.566222  1
  Y  Y4  1  0.937863  0.558491  0.937424  1
  Y  Y5  1  0.562667  0.562667  0.937333  1
  Y  Y6  1  0.938535  0.938535  0.561465  1
  Ho  Ho7  1  0.349123  0.349123  0.352285  1
  Ho  Ho8  1  0.349123  0.349123  0.949469  1
  Ho  Ho9  1  0.345916  0.955494  0.349295  1
  Ho  Ho10  1  0.955494  0.345916  0.349295  1
  Ho  Ho11  1  0.815188  0.188027  0.190046  1
  Ho  Ho12  1  0.188027  0.815188  0.806740  1
  Ho  Ho13  1  0.188027  0.815188  0.190046  1
  Ho  Ho14  1  0.815188  0.188027  0.806740  1
  Ho  Ho15  1  0.187656  0.187656  0.812344  1
  Cd  Cd16  1  0.579773  0.579773  0.581192  1
  Cd  Cd17  1  0.579773  0.579773  0.259262  1
  Cd  Cd18  1  0.580887  0.255731  0.581691  1
  Cd  Cd19  1  0.255731  0.580887  0.581691  1
  Ru  Ru20  1  0.144061  0.144061  0.137795  1
  Ru  Ru21  1  0.144061  0.144061  0.574083  1
  Pt  Pt22  1  0.146651  0.573124  0.140113  1
  Pt  Pt23  1  0.573124  0.146651  0.140113  1
