# generated using pymatgen
data_Na6Zr6BeCl18
_symmetry_space_group_name_H-M   'P 1'
_cell_length_a   10.40750076
_cell_length_b   10.40759176
_cell_length_c   10.40755070
_cell_angle_alpha   111.27085458
_cell_angle_beta   111.27011956
_cell_angle_gamma   111.26950440
_symmetry_Int_Tables_number   1
_chemical_formula_structural   Na6Zr6BeCl18
_chemical_formula_sum   'Na6 Zr6 Be1 Cl18'
_cell_volume   804.84538152
_cell_formula_units_Z   1
loop_
 _symmetry_equiv_pos_site_id
 _symmetry_equiv_pos_as_xyz
  1  'x, y, z'
loop_
 _atom_site_type_symbol
 _atom_site_label
 _atom_site_symmetry_multiplicity
 _atom_site_fract_x
 _atom_site_fract_y
 _atom_site_fract_z
 _atom_site_occupancy
  Na  Na0  1  0.333159  0.397720  0.771357  1
  Na  Na1  1  0.771353  0.333156  0.397718  1
  Na  Na2  1  0.397724  0.771367  0.333161  1
  Na  Na3  1  0.666841  0.602280  0.228643  1
  Na  Na4  1  0.228647  0.666844  0.602282  1
  Na  Na5  1  0.602276  0.228633  0.666839  1
  Zr  Zr6  1  0.976698  0.840815  0.753601  1
  Zr  Zr7  1  0.753602  0.976698  0.840815  1
  Zr  Zr8  1  0.840816  0.753604  0.976699  1
  Zr  Zr9  1  0.023302  0.159185  0.246399  1
  Zr  Zr10  1  0.246398  0.023302  0.159185  1
  Zr  Zr11  1  0.159184  0.246396  0.023301  1
  Be  Be12  1  0.000000  0.000000  0.000000  1
  Cl  Cl13  1  0.298366  0.202314  0.448913  1
  Cl  Cl14  1  0.448916  0.298360  0.202317  1
  Cl  Cl15  1  0.202310  0.448907  0.298361  1
  Cl  Cl16  1  0.701634  0.797686  0.551087  1
  Cl  Cl17  1  0.551084  0.701640  0.797683  1
  Cl  Cl18  1  0.797690  0.551093  0.701639  1
  Cl  Cl19  1  0.243280  0.850529  0.903639  1
  Cl  Cl20  1  0.903641  0.243275  0.850530  1
  Cl  Cl21  1  0.850531  0.903645  0.243279  1
  Cl  Cl22  1  0.756720  0.149471  0.096361  1
  Cl  Cl23  1  0.096359  0.756725  0.149470  1
  Cl  Cl24  1  0.149469  0.096355  0.756721  1
  Cl  Cl25  1  0.060709  0.352628  0.537216  1
  Cl  Cl26  1  0.537220  0.060707  0.352626  1
  Cl  Cl27  1  0.352628  0.537217  0.060712  1
  Cl  Cl28  1  0.939291  0.647372  0.462784  1
  Cl  Cl29  1  0.462780  0.939293  0.647374  1
  Cl  Cl30  1  0.647372  0.462783  0.939288  1
