# generated using pymatgen
data_Ba6Li2V2Sb2O17
_symmetry_space_group_name_H-M   'P 1'
_cell_length_a   5.91518300
_cell_length_b   5.91518297
_cell_length_c   30.06797500
_cell_angle_alpha   90.00000000
_cell_angle_beta   90.00000000
_cell_angle_gamma   119.99999458
_symmetry_Int_Tables_number   1
_chemical_formula_structural   Ba6Li2V2Sb2O17
_chemical_formula_sum   'Ba12 Li4 V4 Sb4 O34'
_cell_volume   911.11081936
_cell_formula_units_Z   2
loop_
 _symmetry_equiv_pos_site_id
 _symmetry_equiv_pos_as_xyz
  1  'x, y, z'
loop_
 _atom_site_type_symbol
 _atom_site_label
 _atom_site_symmetry_multiplicity
 _atom_site_fract_x
 _atom_site_fract_y
 _atom_site_fract_z
 _atom_site_occupancy
  Ba  Ba0  1  0.333333  0.666667  0.172617  1
  Ba  Ba1  1  0.666667  0.333333  0.827383  1
  Ba  Ba2  1  0.666667  0.333333  0.672617  1
  Ba  Ba3  1  0.333333  0.666667  0.327383  1
  Ba  Ba4  1  0.000000  0.000000  0.000000  1
  Ba  Ba5  1  0.000000  0.000000  0.500000  1
  Ba  Ba6  1  0.333333  0.666667  0.590204  1
  Ba  Ba7  1  0.666667  0.333333  0.409796  1
  Ba  Ba8  1  0.666667  0.333333  0.090204  1
  Ba  Ba9  1  0.333333  0.666667  0.909796  1
  Ba  Ba10  1  0.000000  0.000000  0.250000  1
  Ba  Ba11  1  0.000000  0.000000  0.750000  1
  Li  Li12  1  0.000000  0.000000  0.135054  1
  Li  Li13  1  0.000000  0.000000  0.864946  1
  Li  Li14  1  0.000000  0.000000  0.635054  1
  Li  Li15  1  0.000000  0.000000  0.364946  1
  V  V16  1  0.333333  0.666667  0.053878  1
  V  V17  1  0.666667  0.333333  0.946122  1
  V  V18  1  0.666667  0.333333  0.553878  1
  V  V19  1  0.333333  0.666667  0.446122  1
  Sb  Sb20  1  0.333333  0.666667  0.701929  1
  Sb  Sb21  1  0.666667  0.333333  0.298071  1
  Sb  Sb22  1  0.666667  0.333333  0.201929  1
  Sb  Sb23  1  0.333333  0.666667  0.798071  1
  O  O24  1  0.333333  0.666667  0.503656  1
  O  O25  1  0.666667  0.333333  0.496344  1
  O  O26  1  0.666667  0.333333  0.003656  1
  O  O27  1  0.333333  0.666667  0.996344  1
  O  O28  1  0.169973  0.339947  0.668399  1
  O  O29  1  0.830027  0.660053  0.331601  1
  O  O30  1  0.660053  0.830027  0.668399  1
  O  O31  1  0.830027  0.660053  0.168399  1
  O  O32  1  0.339947  0.169973  0.331601  1
  O  O33  1  0.169973  0.339947  0.831601  1
  O  O34  1  0.169973  0.830027  0.668399  1
  O  O35  1  0.339947  0.169973  0.168399  1
  O  O36  1  0.830027  0.169973  0.331601  1
  O  O37  1  0.660053  0.830027  0.831601  1
  O  O38  1  0.830027  0.169973  0.168399  1
  O  O39  1  0.169973  0.830027  0.831601  1
  O  O40  1  0.517071  0.034143  0.250000  1
  O  O41  1  0.482929  0.965857  0.750000  1
  O  O42  1  0.965857  0.482929  0.250000  1
  O  O43  1  0.034143  0.517071  0.750000  1
  O  O44  1  0.517071  0.482929  0.250000  1
  O  O45  1  0.482929  0.517071  0.750000  1
  O  O46  1  0.174399  0.348799  0.075001  1
  O  O47  1  0.825601  0.651201  0.924999  1
  O  O48  1  0.651201  0.825601  0.075001  1
  O  O49  1  0.825601  0.651201  0.575001  1
  O  O50  1  0.348799  0.174399  0.924999  1
  O  O51  1  0.174399  0.348799  0.424999  1
  O  O52  1  0.174399  0.825601  0.075001  1
  O  O53  1  0.348799  0.174399  0.575001  1
  O  O54  1  0.825601  0.174399  0.924999  1
  O  O55  1  0.651201  0.825601  0.424999  1
  O  O56  1  0.825601  0.174399  0.575001  1
  O  O57  1  0.174399  0.825601  0.424999  1
