# generated using pymatgen
data_Li2Dy8Sc9Si16Os
_symmetry_space_group_name_H-M   'P 1'
_cell_length_a   6.92257443
_cell_length_b   7.34193738
_cell_length_c   13.93677000
_cell_angle_alpha   90.00000000
_cell_angle_beta   90.00000000
_cell_angle_gamma   90.04247410
_symmetry_Int_Tables_number   1
_chemical_formula_structural   Li2Dy8Sc9Si16Os
_chemical_formula_sum   'Li2 Dy8 Sc9 Si16 Os1'
_cell_volume   708.33764538
_cell_formula_units_Z   1
loop_
 _symmetry_equiv_pos_site_id
 _symmetry_equiv_pos_as_xyz
  1  'x, y, z'
loop_
 _atom_site_type_symbol
 _atom_site_label
 _atom_site_symmetry_multiplicity
 _atom_site_fract_x
 _atom_site_fract_y
 _atom_site_fract_z
 _atom_site_occupancy
  Li  Li0  1  0.843226  0.495062  0.250000  1
  Li  Li1  1  0.341619  0.005301  0.250000  1
  Dy  Dy2  1  0.015494  0.183557  0.096314  1
  Dy  Dy3  1  0.993359  0.819914  0.900871  1
  Dy  Dy4  1  0.489410  0.672030  0.903230  1
  Dy  Dy5  1  0.993359  0.819914  0.599129  1
  Dy  Dy6  1  0.515887  0.318287  0.098228  1
  Dy  Dy7  1  0.015494  0.183557  0.403686  1
  Dy  Dy8  1  0.515887  0.318287  0.401772  1
  Dy  Dy9  1  0.489410  0.672030  0.596770  1
  Sc  Sc10  1  0.658277  0.996808  0.750000  1
  Sc  Sc11  1  0.325491  0.177594  0.627038  1
  Sc  Sc12  1  0.669627  0.822874  0.373600  1
  Sc  Sc13  1  0.170976  0.677190  0.375595  1
  Sc  Sc14  1  0.669627  0.822874  0.126400  1
  Sc  Sc15  1  0.823839  0.331126  0.628000  1
  Sc  Sc16  1  0.325491  0.177594  0.872962  1
  Sc  Sc17  1  0.823839  0.331126  0.872000  1
  Sc  Sc18  1  0.170976  0.677190  0.124405  1
  Si  Si19  1  0.028601  0.121650  0.750000  1
  Si  Si20  1  0.971785  0.894729  0.250000  1
  Si  Si21  1  0.470269  0.603523  0.250000  1
  Si  Si22  1  0.513487  0.395528  0.750000  1
  Si  Si23  1  0.287056  0.863896  0.750000  1
  Si  Si24  1  0.722284  0.119630  0.250000  1
  Si  Si25  1  0.218700  0.381145  0.250000  1
  Si  Si26  1  0.795801  0.629002  0.750000  1
  Si  Si27  1  0.153033  0.464947  0.547306  1
  Si  Si28  1  0.841096  0.538525  0.466298  1
  Si  Si29  1  0.343118  0.961871  0.466210  1
  Si  Si30  1  0.841096  0.538525  0.033702  1
  Si  Si31  1  0.658123  0.033432  0.539235  1
  Si  Si32  1  0.153033  0.464947  0.952694  1
  Si  Si33  1  0.658123  0.033432  0.960765  1
  Si  Si34  1  0.343118  0.961871  0.033790  1
  Os  Os35  1  0.149985  0.491035  0.750000  1
