# generated using pymatgen
data_LaYHo2(WN3)4
_symmetry_space_group_name_H-M   'P 1'
_cell_length_a   7.33852430
_cell_length_b   7.33852373
_cell_length_c   6.28357000
_cell_angle_alpha   74.19843440
_cell_angle_beta   74.19841943
_cell_angle_gamma   82.35602388
_symmetry_Int_Tables_number   1
_chemical_formula_structural   LaYHo2(WN3)4
_chemical_formula_sum   'La1 Y1 Ho2 W4 N12'
_cell_volume   312.66876308
_cell_formula_units_Z   1
loop_
 _symmetry_equiv_pos_site_id
 _symmetry_equiv_pos_as_xyz
  1  'x, y, z'
loop_
 _atom_site_type_symbol
 _atom_site_label
 _atom_site_symmetry_multiplicity
 _atom_site_fract_x
 _atom_site_fract_y
 _atom_site_fract_z
 _atom_site_occupancy
  La  La0  1  0.702155  0.297845  0.250000  1
  Y  Y1  1  0.293721  0.706279  0.750000  1
  Ho  Ho2  1  0.915066  0.084934  0.750000  1
  Ho  Ho3  1  0.092646  0.907354  0.250000  1
  W  W4  1  0.800115  0.622268  0.753378  1
  W  W5  1  0.198992  0.380510  0.241844  1
  W  W6  1  0.619490  0.801008  0.258156  1
  W  W7  1  0.377732  0.199885  0.746622  1
  N  N8  1  0.218434  0.998015  0.852021  1
  N  N9  1  0.349085  0.356520  0.461354  1
  N  N10  1  0.639602  0.642895  0.545932  1
  N  N11  1  0.621220  0.111281  0.670417  1
  N  N12  1  0.001985  0.781566  0.647979  1
  N  N13  1  0.790410  0.991426  0.147337  1
  N  N14  1  0.103540  0.622069  0.161609  1
  N  N15  1  0.888719  0.378780  0.829583  1
  N  N16  1  0.008574  0.209590  0.352663  1
  N  N17  1  0.357105  0.360398  0.954068  1
  N  N18  1  0.643480  0.650915  0.038646  1
  N  N19  1  0.377931  0.896460  0.338391  1
