# generated using pymatgen
data_Ho9ErSi5Sn
_symmetry_space_group_name_H-M   'P 1'
_cell_length_a   8.47663900
_cell_length_b   8.50414790
_cell_length_c   6.34834000
_cell_angle_alpha   89.99745533
_cell_angle_beta   90.00023220
_cell_angle_gamma   119.88981672
_symmetry_Int_Tables_number   1
_chemical_formula_structural   Ho9ErSi5Sn
_chemical_formula_sum   'Ho9 Er1 Si5 Sn1'
_cell_volume   396.75866553
_cell_formula_units_Z   1
loop_
 _symmetry_equiv_pos_site_id
 _symmetry_equiv_pos_as_xyz
  1  'x, y, z'
loop_
 _atom_site_type_symbol
 _atom_site_label
 _atom_site_symmetry_multiplicity
 _atom_site_fract_x
 _atom_site_fract_y
 _atom_site_fract_z
 _atom_site_occupancy
  Ho  Ho0  1  0.989738  0.749327  0.750023  1
  Ho  Ho1  1  0.998331  0.242073  0.249961  1
  Ho  Ho2  1  0.756227  0.757960  0.249970  1
  Ho  Ho3  1  0.765891  0.999978  0.750028  1
  Ho  Ho4  1  0.240384  0.250711  0.750034  1
  Ho  Ho5  1  0.240968  0.999977  0.249970  1
  Ho  Ho6  1  0.331298  0.657478  0.496991  1
  Ho  Ho7  1  0.673824  0.342528  0.003022  1
  Ho  Ho8  1  0.673823  0.342534  0.496980  1
  Er  Er9  1  0.331299  0.657435  0.003013  1
  Si  Si10  1  0.393330  0.391965  0.249909  1
  Si  Si11  1  0.001564  0.608131  0.249922  1
  Si  Si12  1  0.998679  0.394295  0.750081  1
  Si  Si13  1  0.604283  0.605793  0.750083  1
  Si  Si14  1  0.604958  0.999919  0.249932  1
  Sn  Sn15  1  0.395405  0.999893  0.750081  1
