# generated using pymatgen
data_Yb5YPa2(B6Os)4
_symmetry_space_group_name_H-M   'P 1'
_cell_length_a   3.66897500
_cell_length_b   9.11568995
_cell_length_c   11.43453847
_cell_angle_alpha   90.43803996
_cell_angle_beta   90.00000000
_cell_angle_gamma   90.00000000
_symmetry_Int_Tables_number   1
_chemical_formula_structural   Yb5YPa2(B6Os)4
_chemical_formula_sum   'Yb5 Y1 Pa2 B24 Os4'
_cell_volume   382.41969011
_cell_formula_units_Z   1
loop_
 _symmetry_equiv_pos_site_id
 _symmetry_equiv_pos_as_xyz
  1  'x, y, z'
loop_
 _atom_site_type_symbol
 _atom_site_label
 _atom_site_symmetry_multiplicity
 _atom_site_fract_x
 _atom_site_fract_y
 _atom_site_fract_z
 _atom_site_occupancy
  Yb  Yb0  1  0.000000  0.175976  0.912883  1
  Yb  Yb1  1  0.000000  0.945996  0.376581  1
  Yb  Yb2  1  0.000000  0.054852  0.625250  1
  Yb  Yb3  1  0.000000  0.442710  0.124585  1
  Yb  Yb4  1  0.000000  0.555708  0.874748  1
  Y  Y5  1  0.000000  0.824261  0.085105  1
  Pa  Pa6  1  0.000000  0.319191  0.411552  1
  Pa  Pa7  1  0.000000  0.680498  0.589085  1
  B  B8  1  0.500000  0.553405  0.432270  1
  B  B9  1  0.500000  0.446996  0.566983  1
  B  B10  1  0.500000  0.054289  0.068117  1
  B  B11  1  0.500000  0.946424  0.931419  1
  B  B12  1  0.500000  0.749112  0.420713  1
  B  B13  1  0.500000  0.251453  0.579636  1
  B  B14  1  0.500000  0.247972  0.079788  1
  B  B15  1  0.500000  0.751339  0.919947  1
  B  B16  1  0.500000  0.791609  0.267729  1
  B  B17  1  0.500000  0.208968  0.732547  1
  B  B18  1  0.500000  0.291894  0.232163  1
  B  B19  1  0.500000  0.707028  0.768018  1
  B  B20  1  0.500000  0.631299  0.184736  1
  B  B21  1  0.500000  0.368674  0.814425  1
  B  B22  1  0.500000  0.132412  0.314683  1
  B  B23  1  0.500000  0.867158  0.686337  1
  B  B24  1  0.500000  0.982574  0.213767  1
  B  B25  1  0.500000  0.017526  0.786880  1
  B  B26  1  0.500000  0.483722  0.285294  1
  B  B27  1  0.500000  0.516210  0.713941  1
  B  B28  1  0.500000  0.605006  0.029590  1
  B  B29  1  0.500000  0.396099  0.970495  1
  B  B30  1  0.500000  0.117060  0.468042  1
  B  B31  1  0.500000  0.882911  0.532720  1
  Os  Os32  1  0.000000  0.635268  0.325358  1
  Os  Os33  1  0.000000  0.365397  0.673964  1
  Os  Os34  1  0.000000  0.140758  0.183338  1
  Os  Os35  1  0.000000  0.858245  0.817310  1
