# generated using pymatgen
data_Ba2TbDy2BiS8
_symmetry_space_group_name_H-M   'P 1'
_cell_length_a   4.08169500
_cell_length_b   12.39757700
_cell_length_c   14.70286600
_cell_angle_alpha   90.00000000
_cell_angle_beta   90.00000000
_cell_angle_gamma   90.00000000
_symmetry_Int_Tables_number   1
_chemical_formula_structural   Ba2TbDy2BiS8
_chemical_formula_sum   'Ba4 Tb2 Dy4 Bi2 S16'
_cell_volume   744.01101094
_cell_formula_units_Z   2
loop_
 _symmetry_equiv_pos_site_id
 _symmetry_equiv_pos_as_xyz
  1  'x, y, z'
loop_
 _atom_site_type_symbol
 _atom_site_label
 _atom_site_symmetry_multiplicity
 _atom_site_fract_x
 _atom_site_fract_y
 _atom_site_fract_z
 _atom_site_occupancy
  Ba  Ba0  1  0.250000  0.760318  0.337062  1
  Ba  Ba1  1  0.250000  0.260318  0.162938  1
  Ba  Ba2  1  0.750000  0.240173  0.662537  1
  Ba  Ba3  1  0.750000  0.740173  0.837463  1
  Tb  Tb4  1  0.750000  0.565924  0.610869  1
  Tb  Tb5  1  0.750000  0.065924  0.889131  1
  Dy  Dy6  1  0.250000  0.419941  0.898743  1
  Dy  Dy7  1  0.250000  0.919941  0.601257  1
  Dy  Dy8  1  0.750000  0.578659  0.099456  1
  Dy  Dy9  1  0.750000  0.078659  0.400544  1
  Bi  Bi10  1  0.250000  0.435175  0.390610  1
  Bi  Bi11  1  0.250000  0.935175  0.109390  1
  S  S12  1  0.250000  0.206430  0.836358  1
  S  S13  1  0.250000  0.706430  0.663642  1
  S  S14  1  0.750000  0.788234  0.165961  1
  S  S15  1  0.750000  0.288234  0.334039  1
  S  S16  1  0.250000  0.122383  0.524729  1
  S  S17  1  0.250000  0.622383  0.975271  1
  S  S18  1  0.750000  0.876647  0.476957  1
  S  S19  1  0.750000  0.376647  0.023043  1
  S  S20  1  0.250000  0.525287  0.213077  1
  S  S21  1  0.250000  0.025287  0.286923  1
  S  S22  1  0.750000  0.475092  0.784288  1
  S  S23  1  0.750000  0.975092  0.715712  1
  S  S24  1  0.250000  0.417917  0.580403  1
  S  S25  1  0.250000  0.917917  0.919597  1
  S  S26  1  0.750000  0.587822  0.426086  1
  S  S27  1  0.750000  0.087822  0.073914  1
