# generated using pymatgen
data_YNi(BRu)2
_symmetry_space_group_name_H-M   'P 1'
_cell_length_a   5.58882300
_cell_length_b   5.24603574
_cell_length_c   3.04315100
_cell_angle_alpha   90.00000000
_cell_angle_beta   90.00000000
_cell_angle_gamma   122.18611336
_symmetry_Int_Tables_number   1
_chemical_formula_structural   YNi(BRu)2
_chemical_formula_sum   'Y1 Ni1 B2 Ru2'
_cell_volume   75.51111517
_cell_formula_units_Z   1
loop_
 _symmetry_equiv_pos_site_id
 _symmetry_equiv_pos_as_xyz
  1  'x, y, z'
loop_
 _atom_site_type_symbol
 _atom_site_label
 _atom_site_symmetry_multiplicity
 _atom_site_fract_x
 _atom_site_fract_y
 _atom_site_fract_z
 _atom_site_occupancy
  Y  Y0  1  0.000000  0.000000  0.000000  1
  Ni  Ni1  1  0.500000  0.000000  0.500000  1
  B  B2  1  0.332023  0.664048  0.000000  1
  B  B3  1  0.667977  0.335952  0.000000  1
  Ru  Ru4  1  0.000000  0.500000  0.500000  1
  Ru  Ru5  1  0.500000  0.500000  0.500000  1
