# generated using pymatgen
data_Ho8In2IrPt
_symmetry_space_group_name_H-M   'P 1'
_cell_length_a   9.61740239
_cell_length_b   9.64596941
_cell_length_c   9.64609728
_cell_angle_alpha   60.30161919
_cell_angle_beta   60.09792666
_cell_angle_gamma   60.09833528
_symmetry_Int_Tables_number   1
_chemical_formula_structural   Ho8In2IrPt
_chemical_formula_sum   'Ho16 In4 Ir2 Pt2'
_cell_volume   635.13497052
_cell_formula_units_Z   2
loop_
 _symmetry_equiv_pos_site_id
 _symmetry_equiv_pos_as_xyz
  1  'x, y, z'
loop_
 _atom_site_type_symbol
 _atom_site_label
 _atom_site_symmetry_multiplicity
 _atom_site_fract_x
 _atom_site_fract_y
 _atom_site_fract_z
 _atom_site_occupancy
  Ho  Ho0  1  0.440937  0.436474  0.061166  1
  Ho  Ho1  1  0.650536  0.645470  0.053459  1
  Ho  Ho2  1  0.187696  0.808154  0.194454  1
  Ho  Ho3  1  0.061424  0.436475  0.061165  1
  Ho  Ho4  1  0.191721  0.808278  0.808277  1
  Ho  Ho5  1  0.061694  0.438304  0.438306  1
  Ho  Ho6  1  0.809456  0.190545  0.190549  1
  Ho  Ho7  1  0.654370  0.649585  0.649582  1
  Ho  Ho8  1  0.809694  0.194452  0.808157  1
  Ho  Ho9  1  0.187698  0.194452  0.808156  1
  Ho  Ho10  1  0.046464  0.649585  0.649581  1
  Ho  Ho11  1  0.439060  0.060943  0.060937  1
  Ho  Ho12  1  0.061426  0.061163  0.436477  1
  Ho  Ho13  1  0.650539  0.053456  0.645467  1
  Ho  Ho14  1  0.809694  0.808157  0.194454  1
  Ho  Ho15  1  0.440934  0.061166  0.436476  1
  In  In16  1  0.416502  0.416768  0.416769  1
  In  In17  1  0.416640  0.417271  0.749453  1
  In  In18  1  0.416638  0.749454  0.417270  1
  In  In19  1  0.749959  0.416766  0.416767  1
  Ir  Ir20  1  0.857344  0.425384  0.859930  1
  Ir  Ir21  1  0.857344  0.859930  0.425381  1
  Pt  Pt22  1  0.426667  0.858885  0.858885  1
  Pt  Pt23  1  0.855561  0.858885  0.858885  1
