# generated using pymatgen
data_DyYNb4(B2Ru5)2
_symmetry_space_group_name_H-M   'P 1'
_cell_length_a   9.56990101
_cell_length_b   9.56990145
_cell_length_c   3.08899800
_cell_angle_alpha   90.00000000
_cell_angle_beta   90.00000000
_cell_angle_gamma   90.76544094
_symmetry_Int_Tables_number   1
_chemical_formula_structural   DyYNb4(B2Ru5)2
_chemical_formula_sum   'Dy1 Y1 Nb4 B4 Ru10'
_cell_volume   282.87448847
_cell_formula_units_Z   1
loop_
 _symmetry_equiv_pos_site_id
 _symmetry_equiv_pos_as_xyz
  1  'x, y, z'
loop_
 _atom_site_type_symbol
 _atom_site_label
 _atom_site_symmetry_multiplicity
 _atom_site_fract_x
 _atom_site_fract_y
 _atom_site_fract_z
 _atom_site_occupancy
  Dy  Dy0  1  0.176244  0.323756  0.000000  1
  Y  Y1  1  0.823756  0.676244  0.000000  1
  Nb  Nb2  1  0.324605  0.824639  0.000000  1
  Nb  Nb3  1  0.675361  0.175395  0.000000  1
  Nb  Nb4  1  0.500017  0.499968  0.000000  1
  Nb  Nb5  1  0.000032  0.999983  0.000000  1
  B  B6  1  0.620566  0.879434  0.000000  1
  B  B7  1  0.379441  0.120559  0.000000  1
  B  B8  1  0.121238  0.621188  0.000000  1
  B  B9  1  0.878812  0.378762  0.000000  1
  Ru  Ru10  1  0.559238  0.723242  0.500000  1
  Ru  Ru11  1  0.440196  0.277011  0.500000  1
  Ru  Ru12  1  0.081961  0.785120  0.500000  1
  Ru  Ru13  1  0.918504  0.214864  0.500000  1
  Ru  Ru14  1  0.285136  0.581496  0.500000  1
  Ru  Ru15  1  0.714880  0.418039  0.500000  1
  Ru  Ru16  1  0.222989  0.059804  0.500000  1
  Ru  Ru17  1  0.776758  0.940762  0.500000  1
  Ru  Ru18  1  0.499899  0.000101  0.500000  1
  Ru  Ru19  1  0.000366  0.499634  0.500000  1
