# generated using pymatgen
data_Ho6Si12IrPt7
_symmetry_space_group_name_H-M   'P 1'
_cell_length_a   4.24414400
_cell_length_b   8.56114258
_cell_length_c   12.87042017
_cell_angle_alpha   80.05755495
_cell_angle_beta   90.00000000
_cell_angle_gamma   90.00000000
_symmetry_Int_Tables_number   1
_chemical_formula_structural   Ho6Si12IrPt7
_chemical_formula_sum   'Ho6 Si12 Ir1 Pt7'
_cell_volume   460.61992817
_cell_formula_units_Z   1
loop_
 _symmetry_equiv_pos_site_id
 _symmetry_equiv_pos_as_xyz
  1  'x, y, z'
loop_
 _atom_site_type_symbol
 _atom_site_label
 _atom_site_symmetry_multiplicity
 _atom_site_fract_x
 _atom_site_fract_y
 _atom_site_fract_z
 _atom_site_occupancy
  Ho  Ho0  1  0.250000  0.766030  0.439456  1
  Ho  Ho1  1  0.250000  0.587450  0.184265  1
  Ho  Ho2  1  0.750000  0.234078  0.560840  1
  Ho  Ho3  1  0.750000  0.416798  0.815278  1
  Ho  Ho4  1  0.750000  0.925113  0.815564  1
  Ho  Ho5  1  0.250000  0.069958  0.182984  1
  Si  Si6  1  0.750000  0.588496  0.571544  1
  Si  Si7  1  0.750000  0.132676  0.007078  1
  Si  Si8  1  0.750000  0.871899  0.574313  1
  Si  Si9  1  0.250000  0.695422  0.713361  1
  Si  Si10  1  0.750000  0.304484  0.282903  1
  Si  Si11  1  0.750000  0.807146  0.276792  1
  Si  Si12  1  0.250000  0.871471  0.994575  1
  Si  Si13  1  0.250000  0.194045  0.724199  1
  Si  Si14  1  0.250000  0.377198  0.002603  1
  Si  Si15  1  0.250000  0.125330  0.428819  1
  Si  Si16  1  0.750000  0.617418  0.999842  1
  Si  Si17  1  0.250000  0.412546  0.430418  1
  Ir  Ir18  1  0.750000  0.352912  0.099697  1
  Pt  Pt19  1  0.250000  0.971513  0.623211  1
  Pt  Pt20  1  0.750000  0.850813  0.087593  1
  Pt  Pt21  1  0.750000  0.030995  0.375396  1
  Pt  Pt22  1  0.250000  0.647990  0.900214  1
  Pt  Pt23  1  0.250000  0.148910  0.911758  1
  Pt  Pt24  1  0.750000  0.532428  0.374620  1
  Pt  Pt25  1  0.250000  0.466883  0.622678  1
