# generated using pymatgen
data_Er10Tm2InCo4Os
_symmetry_space_group_name_H-M   'P 1'
_cell_length_a   8.19769152
_cell_length_b   8.20047656
_cell_length_c   8.19769086
_cell_angle_alpha   111.55318676
_cell_angle_beta   110.68669494
_cell_angle_gamma   106.20995388
_symmetry_Int_Tables_number   1
_chemical_formula_structural   Er10Tm2InCo4Os
_chemical_formula_sum   'Er10 Tm2 In1 Co4 Os1'
_cell_volume   423.25256285
_cell_formula_units_Z   1
loop_
 _symmetry_equiv_pos_site_id
 _symmetry_equiv_pos_as_xyz
  1  'x, y, z'
loop_
 _atom_site_type_symbol
 _atom_site_label
 _atom_site_symmetry_multiplicity
 _atom_site_fract_x
 _atom_site_fract_y
 _atom_site_fract_z
 _atom_site_occupancy
  Er  Er0  1  0.415755  0.221152  0.193989  1
  Er  Er1  1  0.584245  0.778848  0.806011  1
  Er  Er2  1  0.027164  0.221152  0.805397  1
  Er  Er3  1  0.972836  0.778848  0.194603  1
  Er  Er4  1  0.181680  0.279832  0.462366  1
  Er  Er5  1  0.818320  0.720168  0.537634  1
  Er  Er6  1  0.182535  0.720168  0.901848  1
  Er  Er7  1  0.817465  0.279832  0.098152  1
  Er  Er8  1  0.314548  0.620156  0.305608  1
  Er  Er9  1  0.685452  0.379844  0.694392  1
  Tm  Tm10  1  0.314815  0.008853  0.694037  1
  Tm  Tm11  1  0.685185  0.991147  0.305963  1
  In  In12  1  0.500000  0.500000  0.000000  1
  Co  Co13  1  0.375864  0.000000  0.375864  1
  Co  Co14  1  0.624136  0.000000  0.624136  1
  Co  Co15  1  0.111947  0.612110  0.500163  1
  Co  Co16  1  0.888053  0.387890  0.499837  1
  Os  Os17  1  0.000000  0.000000  0.000000  1
