# generated using pymatgen
data_Ca4Ti4FeNi3(P2O9)4
_symmetry_space_group_name_H-M   'P 1'
_cell_length_a   6.48936500
_cell_length_b   7.46980100
_cell_length_c   14.35587500
_cell_angle_alpha   90.00001534
_cell_angle_beta   90.00002649
_cell_angle_gamma   90.00002301
_symmetry_Int_Tables_number   1
_chemical_formula_structural   Ca4Ti4FeNi3(P2O9)4
_chemical_formula_sum   'Ca4 Ti4 Fe1 Ni3 P8 O36'
_cell_volume   695.89049145
_cell_formula_units_Z   1
loop_
 _symmetry_equiv_pos_site_id
 _symmetry_equiv_pos_as_xyz
  1  'x, y, z'
loop_
 _atom_site_type_symbol
 _atom_site_label
 _atom_site_symmetry_multiplicity
 _atom_site_fract_x
 _atom_site_fract_y
 _atom_site_fract_z
 _atom_site_occupancy
  Ca  Ca0  1  0.751760  0.883537  0.780439  1
  Ca  Ca1  1  0.750029  0.616586  0.281306  1
  Ca  Ca2  1  0.248240  0.116464  0.219561  1
  Ca  Ca3  1  0.249972  0.383413  0.718694  1
  Ti  Ti4  1  0.750189  0.346685  0.881979  1
  Ti  Ti5  1  0.249811  0.653316  0.118021  1
  Ti  Ti6  1  0.250058  0.845341  0.616894  1
  Ti  Ti7  1  0.749942  0.154660  0.383105  1
  Fe  Fe8  1  0.500000  0.000001  0.000001  1
  Ni  Ni9  1  0.500000  0.500001  0.500001  1
  Ni  Ni10  1  0.000001  0.500000  0.500000  1
  Ni  Ni11  1  0.000001  0.000003  0.000000  1
  P  P12  1  0.247560  0.356603  0.935652  1
  P  P13  1  0.752440  0.643397  0.064348  1
  P  P14  1  0.749893  0.854532  0.563919  1
  P  P15  1  0.250107  0.145469  0.436080  1
  P  P16  1  0.749821  0.393609  0.690797  1
  P  P17  1  0.250179  0.606390  0.309204  1
  P  P18  1  0.249327  0.892642  0.807708  1
  P  P19  1  0.750673  0.107357  0.192292  1
  O  O20  1  0.051824  0.606726  0.368254  1
  O  O21  1  0.551618  0.393456  0.631675  1
  O  O22  1  0.946964  0.108068  0.132533  1
  O  O23  1  0.447946  0.892336  0.866677  1
  O  O24  1  0.948176  0.393273  0.631746  1
  O  O25  1  0.448382  0.606543  0.368325  1
  O  O26  1  0.053036  0.891931  0.867467  1
  O  O27  1  0.552053  0.107663  0.133323  1
  O  O28  1  0.249965  0.330450  0.482753  1
  O  O29  1  0.750035  0.669550  0.517247  1
  O  O30  1  0.757336  0.827540  0.017099  1
  O  O31  1  0.242664  0.172460  0.982901  1
  O  O32  1  0.760244  0.140600  0.938068  1
  O  O33  1  0.239756  0.859400  0.061931  1
  O  O34  1  0.250010  0.639881  0.559584  1
  O  O35  1  0.749990  0.360121  0.440417  1
  O  O36  1  0.749455  0.222042  0.755697  1
  O  O37  1  0.250545  0.777958  0.244303  1
  O  O38  1  0.249007  0.721013  0.742963  1
  O  O39  1  0.750993  0.278986  0.257037  1
  O  O40  1  0.438666  0.125253  0.369981  1
  O  O41  1  0.938548  0.874845  0.629930  1
  O  O42  1  0.561923  0.626893  0.129742  1
  O  O43  1  0.061310  0.379751  0.868491  1
  O  O44  1  0.561334  0.874747  0.630018  1
  O  O45  1  0.061451  0.125155  0.370070  1
  O  O46  1  0.438077  0.373106  0.870258  1
  O  O47  1  0.938690  0.620248  0.131509  1
  O  O48  1  0.750378  0.953320  0.265952  1
  O  O49  1  0.249621  0.046679  0.734047  1
  O  O50  1  0.250429  0.452896  0.235012  1
  O  O51  1  0.749571  0.547104  0.764988  1
  O  O52  1  0.749968  0.999755  0.488665  1
  O  O53  1  0.250032  0.000246  0.511334  1
  O  O54  1  0.250059  0.501876  0.010931  1
  O  O55  1  0.749941  0.498123  0.989070  1
