# generated using pymatgen
data_Sm3DyBI5
_symmetry_space_group_name_H-M   'P 1'
_cell_length_a   9.78764632
_cell_length_b   9.78764711
_cell_length_c   8.73987561
_cell_angle_alpha   102.30063353
_cell_angle_beta   102.30063317
_cell_angle_gamma   24.62920914
_symmetry_Int_Tables_number   1
_chemical_formula_structural   Sm3DyBI5
_chemical_formula_sum   'Sm3 Dy1 B1 I5'
_cell_volume   340.52786995
_cell_formula_units_Z   1
loop_
 _symmetry_equiv_pos_site_id
 _symmetry_equiv_pos_as_xyz
  1  'x, y, z'
loop_
 _atom_site_type_symbol
 _atom_site_label
 _atom_site_symmetry_multiplicity
 _atom_site_fract_x
 _atom_site_fract_y
 _atom_site_fract_z
 _atom_site_occupancy
  Sm  Sm0  1  0.637374  0.637374  0.070051  1
  Sm  Sm1  1  0.999026  0.999026  0.197766  1
  Sm  Sm2  1  0.001007  0.001007  0.802310  1
  Dy  Dy3  1  0.364123  0.364123  0.930191  1
  B  B4  1  0.498326  0.498326  0.999052  1
  I  I5  1  0.827872  0.827872  0.168983  1
  I  I6  1  0.166408  0.166408  0.345092  1
  I  I7  1  0.499712  0.499712  0.499960  1
  I  I8  1  0.833209  0.833209  0.662706  1
  I  I9  1  0.172942  0.172942  0.823889  1
