# generated using pymatgen
data_Er2Ga(PIr2)6
_symmetry_space_group_name_H-M   'P 1'
_cell_length_a   9.68194900
_cell_length_b   9.68194670
_cell_length_c   3.93389800
_cell_angle_alpha   90.00000000
_cell_angle_beta   90.00000000
_cell_angle_gamma   119.99999170
_symmetry_Int_Tables_number   1
_chemical_formula_structural   Er2Ga(PIr2)6
_chemical_formula_sum   'Er2 Ga1 P6 Ir12'
_cell_volume   319.35905992
_cell_formula_units_Z   1
loop_
 _symmetry_equiv_pos_site_id
 _symmetry_equiv_pos_as_xyz
  1  'x, y, z'
loop_
 _atom_site_type_symbol
 _atom_site_label
 _atom_site_symmetry_multiplicity
 _atom_site_fract_x
 _atom_site_fract_y
 _atom_site_fract_z
 _atom_site_occupancy
  Er  Er0  1  0.333333  0.666667  0.751725  1
  Er  Er1  1  0.666667  0.333333  0.248275  1
  Ga  Ga2  1  0.000000  0.000000  0.500000  1
  P  P3  1  0.405074  0.282483  0.747202  1
  P  P4  1  0.717517  0.122591  0.747202  1
  P  P5  1  0.877409  0.594926  0.747202  1
  P  P6  1  0.594926  0.717517  0.252798  1
  P  P7  1  0.282483  0.877409  0.252798  1
  P  P8  1  0.122591  0.405074  0.252798  1
  Ir  Ir9  1  0.457810  0.070244  0.748148  1
  Ir  Ir10  1  0.929756  0.387565  0.748148  1
  Ir  Ir11  1  0.612435  0.542190  0.748148  1
  Ir  Ir12  1  0.542190  0.929756  0.251852  1
  Ir  Ir13  1  0.070244  0.612435  0.251852  1
  Ir  Ir14  1  0.387565  0.457810  0.251852  1
  Ir  Ir15  1  0.160862  0.282939  0.757761  1
  Ir  Ir16  1  0.717061  0.877923  0.757761  1
  Ir  Ir17  1  0.122077  0.839138  0.757761  1
  Ir  Ir18  1  0.839138  0.717061  0.242239  1
  Ir  Ir19  1  0.282939  0.122077  0.242239  1
  Ir  Ir20  1  0.877923  0.160862  0.242239  1
