# generated using pymatgen
data_Tb10Hg8IrPd3
_symmetry_space_group_name_H-M   'P 1'
_cell_length_a   7.99439660
_cell_length_b   18.15320429
_cell_length_c   3.68379700
_cell_angle_alpha   90.00000000
_cell_angle_beta   90.00000000
_cell_angle_gamma   90.41269597
_symmetry_Int_Tables_number   1
_chemical_formula_structural   Tb10Hg8IrPd3
_chemical_formula_sum   'Tb10 Hg8 Ir1 Pd3'
_cell_volume   534.59317319
_cell_formula_units_Z   1
loop_
 _symmetry_equiv_pos_site_id
 _symmetry_equiv_pos_as_xyz
  1  'x, y, z'
loop_
 _atom_site_type_symbol
 _atom_site_label
 _atom_site_symmetry_multiplicity
 _atom_site_fract_x
 _atom_site_fract_y
 _atom_site_fract_z
 _atom_site_occupancy
  Tb  Tb0  1  0.498983  0.499536  0.000000  1
  Tb  Tb1  1  0.998881  0.000687  0.000000  1
  Tb  Tb2  1  0.723403  0.282475  0.000000  1
  Tb  Tb3  1  0.265630  0.714508  0.000000  1
  Tb  Tb4  1  0.766381  0.785600  0.000000  1
  Tb  Tb5  1  0.248743  0.215765  0.000000  1
  Tb  Tb6  1  0.612428  0.088204  0.000000  1
  Tb  Tb7  1  0.386114  0.915468  0.000000  1
  Tb  Tb8  1  0.884869  0.584455  0.000000  1
  Tb  Tb9  1  0.113120  0.414634  0.000000  1
  Hg  Hg10  1  0.711367  0.935415  0.500000  1
  Hg  Hg11  1  0.287581  0.062850  0.500000  1
  Hg  Hg12  1  0.789606  0.435553  0.500000  1
  Hg  Hg13  1  0.209836  0.563950  0.500000  1
  Hg  Hg14  1  0.583944  0.647689  0.500000  1
  Hg  Hg15  1  0.415454  0.354349  0.500000  1
  Hg  Hg16  1  0.921713  0.147235  0.500000  1
  Hg  Hg17  1  0.083533  0.852447  0.500000  1
  Ir  Ir18  1  0.523535  0.196562  0.500000  1
  Pd  Pd19  1  0.475716  0.803684  0.500000  1
  Pd  Pd20  1  0.976081  0.696123  0.500000  1
  Pd  Pd21  1  0.023083  0.302811  0.500000  1
