# generated using pymatgen
data_Pr8Er12Tl9Bi7
_symmetry_space_group_name_H-M   'P 1'
_cell_length_a   8.27536845
_cell_length_b   8.26926901
_cell_length_c   15.63045800
_cell_angle_alpha   90.03991659
_cell_angle_beta   89.94060197
_cell_angle_gamma   90.00087976
_symmetry_Int_Tables_number   1
_chemical_formula_structural   Pr8Er12Tl9Bi7
_chemical_formula_sum   'Pr8 Er12 Tl9 Bi7'
_cell_volume   1069.61091056
_cell_formula_units_Z   1
loop_
 _symmetry_equiv_pos_site_id
 _symmetry_equiv_pos_as_xyz
  1  'x, y, z'
loop_
 _atom_site_type_symbol
 _atom_site_label
 _atom_site_symmetry_multiplicity
 _atom_site_fract_x
 _atom_site_fract_y
 _atom_site_fract_z
 _atom_site_occupancy
  Pr  Pr0  1  0.528184  0.325070  0.902256  1
  Pr  Pr1  1  0.024741  0.177002  0.599527  1
  Pr  Pr2  1  0.475452  0.677666  0.400531  1
  Pr  Pr3  1  0.975845  0.819244  0.099421  1
  Pr  Pr4  1  0.481373  0.676303  0.097450  1
  Pr  Pr5  1  0.975440  0.822148  0.400423  1
  Pr  Pr6  1  0.524808  0.322633  0.599367  1
  Pr  Pr7  1  0.022353  0.179463  0.901475  1
  Er  Er8  1  0.364825  0.840643  0.874977  1
  Er  Er9  1  0.865288  0.659546  0.625152  1
  Er  Er10  1  0.634519  0.159484  0.375259  1
  Er  Er11  1  0.130384  0.341085  0.125322  1
  Er  Er12  1  0.638223  0.163360  0.123891  1
  Er  Er13  1  0.135107  0.340279  0.374809  1
  Er  Er14  1  0.364238  0.840883  0.625645  1
  Er  Er15  1  0.862211  0.656606  0.876183  1
  Er  Er16  1  0.199144  0.502146  0.750212  1
  Er  Er17  1  0.698663  0.997828  0.750807  1
  Er  Er18  1  0.801133  0.496886  0.246942  1
  Er  Er19  1  0.302253  0.001229  0.248366  1
  Tl  Tl20  1  0.793927  0.460901  0.043140  1
  Tl  Tl21  1  0.562270  0.624317  0.749499  1
  Tl  Tl22  1  0.061979  0.875155  0.750545  1
  Tl  Tl23  1  0.436776  0.375322  0.250024  1
  Tl  Tl24  1  0.937196  0.123450  0.251364  1
  Tl  Tl25  1  0.328963  0.142784  0.750810  1
  Tl  Tl26  1  0.828282  0.358006  0.749610  1
  Tl  Tl27  1  0.671844  0.859214  0.249956  1
  Tl  Tl28  1  0.173585  0.642175  0.250350  1
  Bi  Bi29  1  0.293432  0.039797  0.042989  1
  Bi  Bi30  1  0.793001  0.460762  0.456211  1
  Bi  Bi31  1  0.706532  0.960271  0.543300  1
  Bi  Bi32  1  0.201622  0.539709  0.957726  1
  Bi  Bi33  1  0.706460  0.960127  0.956827  1
  Bi  Bi34  1  0.206768  0.539234  0.543021  1
  Bi  Bi35  1  0.293184  0.039272  0.456613  1
