# generated using pymatgen
data_Hf3Sc5(InAu2)4
_symmetry_space_group_name_H-M   'P 1'
_cell_length_a   7.63840673
_cell_length_b   7.63840673
_cell_length_c   7.06409600
_cell_angle_alpha   90.00000000
_cell_angle_beta   90.00000000
_cell_angle_gamma   89.85967103
_symmetry_Int_Tables_number   1
_chemical_formula_structural   Hf3Sc5(InAu2)4
_chemical_formula_sum   'Hf3 Sc5 In4 Au8'
_cell_volume   412.15526277
_cell_formula_units_Z   1
loop_
 _symmetry_equiv_pos_site_id
 _symmetry_equiv_pos_as_xyz
  1  'x, y, z'
loop_
 _atom_site_type_symbol
 _atom_site_label
 _atom_site_symmetry_multiplicity
 _atom_site_fract_x
 _atom_site_fract_y
 _atom_site_fract_z
 _atom_site_occupancy
  Hf  Hf0  1  0.144457  0.148036  0.000000  1
  Hf  Hf1  1  0.851964  0.855543  0.000000  1
  Hf  Hf2  1  0.685377  0.314623  0.000000  1
  Sc  Sc3  1  0.648387  0.351613  0.500000  1
  Sc  Sc4  1  0.350978  0.649022  0.500000  1
  Sc  Sc5  1  0.314229  0.685771  0.000000  1
  Sc  Sc6  1  0.815234  0.813198  0.500000  1
  Sc  Sc7  1  0.186802  0.184766  0.500000  1
  In  In8  1  0.499844  0.998452  0.245099  1
  In  In9  1  0.499844  0.998452  0.754901  1
  In  In10  1  0.001548  0.500156  0.245099  1
  In  In11  1  0.001548  0.500156  0.754901  1
  Au  Au12  1  0.368851  0.367660  0.212361  1
  Au  Au13  1  0.632340  0.631149  0.787639  1
  Au  Au14  1  0.632340  0.631149  0.212361  1
  Au  Au15  1  0.867907  0.132093  0.713512  1
  Au  Au16  1  0.867907  0.132093  0.286488  1
  Au  Au17  1  0.368851  0.367660  0.787639  1
  Au  Au18  1  0.130795  0.869205  0.284698  1
  Au  Au19  1  0.130795  0.869205  0.715302  1
