# generated using pymatgen
data_LiHfSiAs
_symmetry_space_group_name_H-M   'P 1'
_cell_length_a   3.63376600
_cell_length_b   3.63376600
_cell_length_c   10.02999700
_cell_angle_alpha   90.00000000
_cell_angle_beta   90.00000000
_cell_angle_gamma   90.00000000
_symmetry_Int_Tables_number   1
_chemical_formula_structural   LiHfSiAs
_chemical_formula_sum   'Li2 Hf2 Si2 As2'
_cell_volume   132.43864148
_cell_formula_units_Z   2
loop_
 _symmetry_equiv_pos_site_id
 _symmetry_equiv_pos_as_xyz
  1  'x, y, z'
loop_
 _atom_site_type_symbol
 _atom_site_label
 _atom_site_symmetry_multiplicity
 _atom_site_fract_x
 _atom_site_fract_y
 _atom_site_fract_z
 _atom_site_occupancy
  Li  Li0  1  0.500000  0.500000  0.500000  1
  Li  Li1  1  0.000000  0.000000  0.500000  1
  Hf  Hf2  1  0.000000  0.500000  0.787374  1
  Hf  Hf3  1  0.500000  0.000000  0.212626  1
  Si  Si4  1  0.500000  0.500000  0.000000  1
  Si  Si5  1  0.000000  0.000000  0.000000  1
  As  As6  1  0.000000  0.500000  0.320984  1
  As  As7  1  0.500000  0.000000  0.679016  1
