# generated using pymatgen
data_Ho11Pu(SiPd)12
_symmetry_space_group_name_H-M   'P 1'
_cell_length_a   4.34266000
_cell_length_b   7.42395964
_cell_length_c   21.00003663
_cell_angle_alpha   90.04636360
_cell_angle_beta   90.00000000
_cell_angle_gamma   90.00000000
_symmetry_Int_Tables_number   1
_chemical_formula_structural   Ho11Pu(SiPd)12
_chemical_formula_sum   'Ho11 Pu1 Si12 Pd12'
_cell_volume   677.03534324
_cell_formula_units_Z   1
loop_
 _symmetry_equiv_pos_site_id
 _symmetry_equiv_pos_as_xyz
  1  'x, y, z'
loop_
 _atom_site_type_symbol
 _atom_site_label
 _atom_site_symmetry_multiplicity
 _atom_site_fract_x
 _atom_site_fract_y
 _atom_site_fract_z
 _atom_site_occupancy
  Ho  Ho0  1  0.250000  0.705190  0.332319  1
  Ho  Ho1  1  0.750000  0.294365  0.668065  1
  Ho  Ho2  1  0.750000  0.205609  0.166340  1
  Ho  Ho3  1  0.250000  0.794772  0.833539  1
  Ho  Ho4  1  0.250000  0.793015  0.165699  1
  Ho  Ho5  1  0.750000  0.206946  0.834247  1
  Ho  Ho6  1  0.750000  0.293090  0.332685  1
  Ho  Ho7  1  0.250000  0.707515  0.667106  1
  Ho  Ho8  1  0.250000  0.710654  0.000929  1
  Ho  Ho9  1  0.750000  0.289338  0.998968  1
  Ho  Ho10  1  0.750000  0.210260  0.498965  1
  Pu  Pu11  1  0.250000  0.791090  0.501232  1
  Si  Si12  1  0.250000  0.089312  0.071068  1
  Si  Si13  1  0.750000  0.910687  0.928852  1
  Si  Si14  1  0.750000  0.588607  0.427816  1
  Si  Si15  1  0.250000  0.409801  0.571685  1
  Si  Si16  1  0.250000  0.085427  0.270411  1
  Si  Si17  1  0.750000  0.914957  0.729764  1
  Si  Si18  1  0.750000  0.585475  0.228054  1
  Si  Si19  1  0.250000  0.414694  0.772166  1
  Si  Si20  1  0.250000  0.086692  0.394319  1
  Si  Si21  1  0.750000  0.912939  0.605674  1
  Si  Si22  1  0.750000  0.587156  0.104003  1
  Si  Si23  1  0.250000  0.412848  0.895848  1
  Pd  Pd24  1  0.250000  0.416369  0.235955  1
  Pd  Pd25  1  0.750000  0.583340  0.763938  1
  Pd  Pd26  1  0.750000  0.916653  0.261576  1
  Pd  Pd27  1  0.250000  0.083913  0.738430  1
  Pd  Pd28  1  0.250000  0.413693  0.435887  1
  Pd  Pd29  1  0.750000  0.581043  0.565043  1
  Pd  Pd30  1  0.750000  0.917005  0.062269  1
  Pd  Pd31  1  0.250000  0.083166  0.937580  1
  Pd  Pd32  1  0.250000  0.419523  0.092933  1
  Pd  Pd33  1  0.750000  0.580385  0.906911  1
  Pd  Pd34  1  0.750000  0.921283  0.404418  1
  Pd  Pd35  1  0.250000  0.083188  0.595308  1
