# generated using pymatgen
data_Tb5Ho5Si5Sn
_symmetry_space_group_name_H-M   'P 1'
_cell_length_a   8.52886226
_cell_length_b   8.55428048
_cell_length_c   6.39866200
_cell_angle_alpha   90.00000000
_cell_angle_beta   90.00000000
_cell_angle_gamma   119.83946317
_symmetry_Int_Tables_number   1
_chemical_formula_structural   Tb5Ho5Si5Sn
_chemical_formula_sum   'Tb5 Ho5 Si5 Sn1'
_cell_volume   404.94371702
_cell_formula_units_Z   1
loop_
 _symmetry_equiv_pos_site_id
 _symmetry_equiv_pos_as_xyz
  1  'x, y, z'
loop_
 _atom_site_type_symbol
 _atom_site_label
 _atom_site_symmetry_multiplicity
 _atom_site_fract_x
 _atom_site_fract_y
 _atom_site_fract_z
 _atom_site_occupancy
  Tb  Tb0  1  0.989655  0.748739  0.750000  1
  Tb  Tb1  1  0.998950  0.243030  0.250000  1
  Tb  Tb2  1  0.755518  0.756731  0.250000  1
  Tb  Tb3  1  0.764955  0.000137  0.750000  1
  Tb  Tb4  1  0.241647  0.000183  0.250000  1
  Ho  Ho5  1  0.241042  0.251498  0.750000  1
  Ho  Ho6  1  0.331467  0.657797  0.497041  1
  Ho  Ho7  1  0.673409  0.342016  0.003015  1
  Ho  Ho8  1  0.673409  0.342016  0.496985  1
  Ho  Ho9  1  0.331467  0.657797  0.002959  1
  Si  Si10  1  0.394130  0.392789  0.250000  1
  Si  Si11  1  0.001424  0.607381  0.250000  1
  Si  Si12  1  0.999107  0.394515  0.750000  1
  Si  Si13  1  0.603448  0.604850  0.750000  1
  Si  Si14  1  0.605147  0.000070  0.250000  1
  Sn  Sn15  1  0.395225  0.000452  0.750000  1
