# generated using pymatgen
data_Dy4Ga4Pd3Pt
_symmetry_space_group_name_H-M   'P 1'
_cell_length_a   4.45931000
_cell_length_b   6.93991241
_cell_length_c   7.69645462
_cell_angle_alpha   90.75423730
_cell_angle_beta   90.00000000
_cell_angle_gamma   90.00000000
_symmetry_Int_Tables_number   1
_chemical_formula_structural   Dy4Ga4Pd3Pt
_chemical_formula_sum   'Dy4 Ga4 Pd3 Pt1'
_cell_volume   238.16324355
_cell_formula_units_Z   1
loop_
 _symmetry_equiv_pos_site_id
 _symmetry_equiv_pos_as_xyz
  1  'x, y, z'
loop_
 _atom_site_type_symbol
 _atom_site_label
 _atom_site_symmetry_multiplicity
 _atom_site_fract_x
 _atom_site_fract_y
 _atom_site_fract_z
 _atom_site_occupancy
  Dy  Dy0  1  0.250000  0.985341  0.302854  1
  Dy  Dy1  1  0.250000  0.479164  0.199825  1
  Dy  Dy2  1  0.750000  0.020809  0.696855  1
  Dy  Dy3  1  0.750000  0.520647  0.801044  1
  Ga  Ga4  1  0.250000  0.326915  0.575440  1
  Ga  Ga5  1  0.250000  0.825148  0.927680  1
  Ga  Ga6  1  0.750000  0.673136  0.424963  1
  Ga  Ga7  1  0.750000  0.176901  0.072112  1
  Pd  Pd8  1  0.250000  0.219804  0.900558  1
  Pd  Pd9  1  0.250000  0.720648  0.598849  1
  Pd  Pd10  1  0.750000  0.778598  0.098487  1
  Pt  Pt11  1  0.750000  0.272889  0.401332  1
