# generated using pymatgen
data_Dy4Tm4InAgIr2
_symmetry_space_group_name_H-M   'P 1'
_cell_length_a   9.52993636
_cell_length_b   9.52943922
_cell_length_c   9.56568056
_cell_angle_alpha   59.96514427
_cell_angle_beta   59.96744528
_cell_angle_gamma   60.07310438
_symmetry_Int_Tables_number   1
_chemical_formula_structural   Dy4Tm4InAgIr2
_chemical_formula_sum   'Dy8 Tm8 In2 Ag2 Ir4'
_cell_volume   614.29347462
_cell_formula_units_Z   2
loop_
 _symmetry_equiv_pos_site_id
 _symmetry_equiv_pos_as_xyz
  1  'x, y, z'
loop_
 _atom_site_type_symbol
 _atom_site_label
 _atom_site_symmetry_multiplicity
 _atom_site_fract_x
 _atom_site_fract_y
 _atom_site_fract_z
 _atom_site_occupancy
  Dy  Dy0  1  0.441167  0.441165  0.058302  1
  Dy  Dy1  1  0.061579  0.061573  0.436731  1
  Dy  Dy2  1  0.186140  0.808799  0.812517  1
  Dy  Dy3  1  0.808708  0.185353  0.193373  1
  Dy  Dy4  1  0.808798  0.186126  0.812518  1
  Dy  Dy5  1  0.185366  0.808708  0.193366  1
  Dy  Dy6  1  0.807574  0.807542  0.192757  1
  Dy  Dy7  1  0.188837  0.188838  0.811459  1
  Tm  Tm8  1  0.599677  0.599682  0.599724  1
  Tm  Tm9  1  0.599250  0.599299  0.200565  1
  Tm  Tm10  1  0.600974  0.201589  0.599412  1
  Tm  Tm11  1  0.201589  0.600996  0.599364  1
  Tm  Tm12  1  0.058451  0.439981  0.442429  1
  Tm  Tm13  1  0.438667  0.059989  0.058088  1
  Tm  Tm14  1  0.439962  0.058454  0.442452  1
  Tm  Tm15  1  0.060003  0.438692  0.058071  1
  In  In16  1  0.833797  0.507888  0.829127  1
  In  In17  1  0.507908  0.833792  0.829118  1
  Ag  Ag18  1  0.833466  0.833465  0.830905  1
  Ag  Ag19  1  0.833587  0.833591  0.501728  1
  Ir  Ir20  1  0.391787  0.391779  0.392291  1
  Ir  Ir21  1  0.391889  0.391892  0.824736  1
  Ir  Ir22  1  0.395909  0.824909  0.390487  1
  Ir  Ir23  1  0.824918  0.395902  0.390479  1
