# generated using pymatgen
data_Hf4Sc2Si6OsRu5
_symmetry_space_group_name_H-M   'P 1'
_cell_length_a   7.62668089
_cell_length_b   7.62464803
_cell_length_c   7.62464921
_cell_angle_alpha   127.64574791
_cell_angle_beta   123.14831481
_cell_angle_gamma   80.92718563
_symmetry_Int_Tables_number   1
_chemical_formula_structural   Hf4Sc2Si6OsRu5
_chemical_formula_sum   'Hf4 Sc2 Si6 Os1 Ru5'
_cell_volume   283.35198032
_cell_formula_units_Z   1
loop_
 _symmetry_equiv_pos_site_id
 _symmetry_equiv_pos_as_xyz
  1  'x, y, z'
loop_
 _atom_site_type_symbol
 _atom_site_label
 _atom_site_symmetry_multiplicity
 _atom_site_fract_x
 _atom_site_fract_y
 _atom_site_fract_z
 _atom_site_occupancy
  Hf  Hf0  1  0.747305  0.835700  0.587428  1
  Hf  Hf1  1  0.252695  0.840121  0.088394  1
  Hf  Hf2  1  0.052886  0.256352  0.703703  1
  Hf  Hf3  1  0.947114  0.650818  0.203464  1
  Sc  Sc4  1  0.465565  0.688532  0.723112  1
  Sc  Sc5  1  0.534435  0.257547  0.222967  1
  Si  Si6  1  0.270390  0.269651  0.498076  1
  Si  Si7  1  0.729610  0.227684  0.999261  1
  Si  Si8  1  0.328262  0.585988  0.250938  1
  Si  Si9  1  0.671738  0.922676  0.257726  1
  Si  Si10  1  0.164357  0.922845  0.751001  1
  Si  Si11  1  0.835643  0.586644  0.758487  1
  Os  Os12  1  0.500000  0.501166  0.001166  1
  Ru  Ru13  1  0.000000  0.500552  0.500552  1
  Ru  Ru14  1  0.098069  0.252120  0.103724  1
  Ru  Ru15  1  0.901931  0.005655  0.154052  1
  Ru  Ru16  1  0.352140  0.004805  0.602888  1
  Ru  Ru17  1  0.647860  0.250746  0.652665  1
