# generated using pymatgen
data_Er3PuFe8
_symmetry_space_group_name_H-M   'P 1'
_cell_length_a   5.25501159
_cell_length_b   5.25595593
_cell_length_c   8.48373196
_cell_angle_alpha   108.05180485
_cell_angle_beta   71.93034186
_cell_angle_gamma   120.01163957
_symmetry_Int_Tables_number   1
_chemical_formula_structural   Er3PuFe8
_chemical_formula_sum   'Er3 Pu1 Fe8'
_cell_volume   189.45917665
_cell_formula_units_Z   1
loop_
 _symmetry_equiv_pos_site_id
 _symmetry_equiv_pos_as_xyz
  1  'x, y, z'
loop_
 _atom_site_type_symbol
 _atom_site_label
 _atom_site_symmetry_multiplicity
 _atom_site_fract_x
 _atom_site_fract_y
 _atom_site_fract_z
 _atom_site_occupancy
  Er  Er0  1  0.999916  0.000200  0.000638  1
  Er  Er1  1  0.858252  0.141746  0.424993  1
  Er  Er2  1  0.141370  0.858668  0.575451  1
  Pu  Pu3  1  0.666659  0.333416  0.000791  1
  Fe  Fe4  1  0.333374  0.666391  0.999784  1
  Fe  Fe5  1  0.925299  0.586110  0.246597  1
  Fe  Fe6  1  0.413880  0.074632  0.246598  1
  Fe  Fe7  1  0.414142  0.585898  0.246283  1
  Fe  Fe8  1  0.500275  0.499572  0.498618  1
  Fe  Fe9  1  0.578129  0.421882  0.753378  1
  Fe  Fe10  1  0.578058  0.909472  0.753412  1
  Fe  Fe11  1  0.090653  0.422015  0.753453  1
