# generated using pymatgen
data_TbTm5ReSb2
_symmetry_space_group_name_H-M   'P 1'
_cell_length_a   8.06661027
_cell_length_b   8.07708442
_cell_length_c   4.28245900
_cell_angle_alpha   90.00000000
_cell_angle_beta   90.00000000
_cell_angle_gamma   120.04294800
_symmetry_Int_Tables_number   1
_chemical_formula_structural   TbTm5ReSb2
_chemical_formula_sum   'Tb1 Tm5 Re1 Sb2'
_cell_volume   241.53575489
_cell_formula_units_Z   1
loop_
 _symmetry_equiv_pos_site_id
 _symmetry_equiv_pos_as_xyz
  1  'x, y, z'
loop_
 _atom_site_type_symbol
 _atom_site_label
 _atom_site_symmetry_multiplicity
 _atom_site_fract_x
 _atom_site_fract_y
 _atom_site_fract_z
 _atom_site_occupancy
  Tb  Tb0  1  0.000000  0.605953  0.500000  1
  Tm  Tm1  1  0.235190  0.000932  0.000000  1
  Tm  Tm2  1  0.764810  0.765742  0.000000  1
  Tm  Tm3  1  0.000000  0.236037  0.000000  1
  Tm  Tm4  1  0.391139  0.390812  0.500000  1
  Tm  Tm5  1  0.608861  0.999673  0.500000  1
  Re  Re6  1  0.000000  0.002008  0.500000  1
  Sb  Sb7  1  0.335590  0.667218  0.000000  1
  Sb  Sb8  1  0.664410  0.331627  0.000000  1
