# generated using pymatgen
data_Y18GeBi9O10
_symmetry_space_group_name_H-M   'P 1'
_cell_length_a   10.02033800
_cell_length_b   10.02033800
_cell_length_c   9.00833300
_cell_angle_alpha   90.00000000
_cell_angle_beta   90.00000000
_cell_angle_gamma   90.00000000
_symmetry_Int_Tables_number   1
_chemical_formula_structural   Y18GeBi9O10
_chemical_formula_sum   'Y18 Ge1 Bi9 O10'
_cell_volume   904.50125569
_cell_formula_units_Z   1
loop_
 _symmetry_equiv_pos_site_id
 _symmetry_equiv_pos_as_xyz
  1  'x, y, z'
loop_
 _atom_site_type_symbol
 _atom_site_label
 _atom_site_symmetry_multiplicity
 _atom_site_fract_x
 _atom_site_fract_y
 _atom_site_fract_z
 _atom_site_occupancy
  Y  Y0  1  0.205745  0.894461  0.336386  1
  Y  Y1  1  0.500000  0.000000  0.676865  1
  Y  Y2  1  0.274354  0.601879  0.663522  1
  Y  Y3  1  0.725646  0.398121  0.663522  1
  Y  Y4  1  0.726116  0.917113  0.999291  1
  Y  Y5  1  0.394461  0.294255  0.336386  1
  Y  Y6  1  0.101879  0.225646  0.663522  1
  Y  Y7  1  0.605539  0.705745  0.336386  1
  Y  Y8  1  0.000000  0.500000  0.336382  1
  Y  Y9  1  0.898121  0.774354  0.663522  1
  Y  Y10  1  0.273884  0.082887  0.999291  1
  Y  Y11  1  0.776181  0.583011  0.998223  1
  Y  Y12  1  0.223819  0.416989  0.998223  1
  Y  Y13  1  0.794255  0.105539  0.336386  1
  Y  Y14  1  0.582887  0.226116  0.999291  1
  Y  Y15  1  0.916989  0.276181  0.998223  1
  Y  Y16  1  0.083011  0.723819  0.998223  1
  Y  Y17  1  0.417113  0.773884  0.999291  1
  Ge  Ge18  1  0.000000  0.500000  0.680179  1
  Bi  Bi19  1  0.590035  0.691661  0.694907  1
  Bi  Bi20  1  0.904912  0.805543  0.303864  1
  Bi  Bi21  1  0.694457  0.404912  0.303864  1
  Bi  Bi22  1  0.191661  0.909965  0.694907  1
  Bi  Bi23  1  0.808339  0.090035  0.694907  1
  Bi  Bi24  1  0.305543  0.595088  0.303864  1
  Bi  Bi25  1  0.409965  0.308339  0.694907  1
  Bi  Bi26  1  0.095088  0.194457  0.303864  1
  Bi  Bi27  1  0.500000  0.000000  0.320019  1
  O  O28  1  0.227058  0.879168  0.083655  1
  O  O29  1  0.727398  0.379912  0.916132  1
  O  O30  1  0.500000  0.000000  0.936240  1
  O  O31  1  0.620832  0.727058  0.083655  1
  O  O32  1  0.000000  0.500000  0.066391  1
  O  O33  1  0.879912  0.772602  0.916132  1
  O  O34  1  0.120088  0.227398  0.916132  1
  O  O35  1  0.379168  0.272942  0.083655  1
  O  O36  1  0.772942  0.120832  0.083655  1
  O  O37  1  0.272602  0.620088  0.916132  1
