# generated using pymatgen
data_Na4LuUSe6
_symmetry_space_group_name_H-M   'P 1'
_cell_length_a   7.18100827
_cell_length_b   7.18100908
_cell_length_c   7.37078821
_cell_angle_alpha   80.57455976
_cell_angle_beta   80.57456104
_cell_angle_gamma   120.01602815
_symmetry_Int_Tables_number   1
_chemical_formula_structural   Na4LuUSe6
_chemical_formula_sum   'Na4 Lu1 U1 Se6'
_cell_volume   310.95074643
_cell_formula_units_Z   1
loop_
 _symmetry_equiv_pos_site_id
 _symmetry_equiv_pos_as_xyz
  1  'x, y, z'
loop_
 _atom_site_type_symbol
 _atom_site_label
 _atom_site_symmetry_multiplicity
 _atom_site_fract_x
 _atom_site_fract_y
 _atom_site_fract_z
 _atom_site_occupancy
  Na  Na0  1  0.000007  0.999993  0.000000  1
  Na  Na1  1  0.501151  0.498849  0.500000  1
  Na  Na2  1  0.839103  0.160897  0.500000  1
  Na  Na3  1  0.159758  0.840242  0.500000  1
  Lu  Lu4  1  0.667218  0.332782  0.000000  1
  U  U5  1  0.332627  0.667373  0.000000  1
  Se  Se6  1  0.277588  0.282005  0.228088  1
  Se  Se7  1  0.430213  0.071455  0.772566  1
  Se  Se8  1  0.081496  0.435701  0.774004  1
  Se  Se9  1  0.717995  0.722412  0.771912  1
  Se  Se10  1  0.564299  0.918504  0.225996  1
  Se  Se11  1  0.928545  0.569787  0.227434  1
