# generated using pymatgen
data_Er2Tm2Ga17SiRh6
_symmetry_space_group_name_H-M   'P 1'
_cell_length_a   7.55193141
_cell_length_b   7.52456038
_cell_length_c   9.47318913
_cell_angle_alpha   90.05838071
_cell_angle_beta   89.87640790
_cell_angle_gamma   119.89140186
_symmetry_Int_Tables_number   1
_chemical_formula_structural   Er2Tm2Ga17SiRh6
_chemical_formula_sum   'Er2 Tm2 Ga17 Si1 Rh6'
_cell_volume   466.70151344
_cell_formula_units_Z   1
loop_
 _symmetry_equiv_pos_site_id
 _symmetry_equiv_pos_as_xyz
  1  'x, y, z'
loop_
 _atom_site_type_symbol
 _atom_site_label
 _atom_site_symmetry_multiplicity
 _atom_site_fract_x
 _atom_site_fract_y
 _atom_site_fract_z
 _atom_site_occupancy
  Er  Er0  1  0.995775  0.663384  0.247633  1
  Er  Er1  1  0.003482  0.330955  0.752431  1
  Tm  Tm2  1  0.674368  0.003232  0.247717  1
  Tm  Tm3  1  0.329863  0.002596  0.749542  1
  Ga  Ga4  1  0.127795  0.127123  0.250544  1
  Ga  Ga5  1  0.872672  0.874678  0.750551  1
  Ga  Ga6  1  0.999487  0.670841  0.918254  1
  Ga  Ga7  1  0.000437  0.665452  0.579282  1
  Ga  Ga8  1  0.333880  0.998009  0.419914  1
  Ga  Ga9  1  0.999949  0.334748  0.422064  1
  Ga  Ga10  1  0.665360  0.000305  0.579284  1
  Ga  Ga11  1  0.658970  0.995527  0.918263  1
  Ga  Ga12  1  0.333199  0.997931  0.080462  1
  Ga  Ga13  1  0.333351  0.332386  0.566210  1
  Ga  Ga14  1  0.668652  0.669142  0.433398  1
  Ga  Ga15  1  0.667405  0.669051  0.068581  1
  Ga  Ga16  1  0.338477  0.332541  0.932376  1
  Ga  Ga17  1  0.339185  0.547892  0.251002  1
  Ga  Ga18  1  0.663146  0.451010  0.751076  1
  Ga  Ga19  1  0.547253  0.338153  0.250539  1
  Ga  Ga20  1  0.450323  0.659581  0.750310  1
  Si  Si21  1  0.000418  0.334439  0.074555  1
  Rh  Rh22  1  0.684579  0.329850  0.003902  1
  Rh  Rh23  1  0.314189  0.657685  0.001269  1
  Rh  Rh24  1  0.328215  0.671681  0.499993  1
  Rh  Rh25  1  0.671803  0.328257  0.499818  1
  Rh  Rh26  1  0.997826  0.013242  0.001171  1
  Rh  Rh27  1  0.999939  0.000309  0.499856  1
