# generated using pymatgen
data_Co6ReSi2Mo3
_symmetry_space_group_name_H-M   'P 1'
_cell_length_a   4.75573900
_cell_length_b   4.75573843
_cell_length_c   7.37941500
_cell_angle_alpha   90.00000000
_cell_angle_beta   90.00000000
_cell_angle_gamma   119.99998307
_symmetry_Int_Tables_number   1
_chemical_formula_structural   Co6ReSi2Mo3
_chemical_formula_sum   'Co6 Re1 Si2 Mo3'
_cell_volume   144.54018720
_cell_formula_units_Z   1
loop_
 _symmetry_equiv_pos_site_id
 _symmetry_equiv_pos_as_xyz
  1  'x, y, z'
loop_
 _atom_site_type_symbol
 _atom_site_label
 _atom_site_symmetry_multiplicity
 _atom_site_fract_x
 _atom_site_fract_y
 _atom_site_fract_z
 _atom_site_occupancy
  Co  Co0  1  0.829162  0.170838  0.250533  1
  Co  Co1  1  0.829162  0.658324  0.250533  1
  Co  Co2  1  0.341676  0.170838  0.250533  1
  Co  Co3  1  0.171402  0.828598  0.749313  1
  Co  Co4  1  0.171402  0.342804  0.749313  1
  Co  Co5  1  0.657196  0.828598  0.749313  1
  Re  Re6  1  0.333333  0.666667  0.434012  1
  Si  Si7  1  0.000000  0.000000  0.500144  1
  Si  Si8  1  0.000000  0.000000  0.999438  1
  Mo  Mo9  1  0.666667  0.333333  0.565714  1
  Mo  Mo10  1  0.666667  0.333333  0.931923  1
  Mo  Mo11  1  0.333333  0.666667  0.069229  1
