# generated using pymatgen
data_KV6O12
_symmetry_space_group_name_H-M   'P 1'
_cell_length_a   9.16700020
_cell_length_b   10.41321079
_cell_length_c   8.43773628
_cell_angle_alpha   66.39242113
_cell_angle_beta   57.13723219
_cell_angle_gamma   42.83370136
_symmetry_Int_Tables_number   1
_chemical_formula_structural   KV6O12
_chemical_formula_sum   'K2 V12 O24'
_cell_volume   459.96663589
_cell_formula_units_Z   2
loop_
 _symmetry_equiv_pos_site_id
 _symmetry_equiv_pos_as_xyz
  1  'x, y, z'
loop_
 _atom_site_type_symbol
 _atom_site_label
 _atom_site_symmetry_multiplicity
 _atom_site_fract_x
 _atom_site_fract_y
 _atom_site_fract_z
 _atom_site_occupancy
  K  K0  1  0.212972  0.997445  0.999726  1
  K  K1  1  0.790297  0.001726  0.001003  1
  V  V2  1  0.000446  0.492186  0.182557  1
  V  V3  1  0.260034  0.181596  0.509791  1
  V  V4  1  0.331468  0.494403  0.183076  1
  V  V5  1  0.067527  0.821521  0.494417  1
  V  V6  1  0.594362  0.183317  0.508390  1
  V  V7  1  0.331127  0.509239  0.819525  1
  V  V8  1  0.666625  0.490648  0.183120  1
  V  V9  1  0.411257  0.815300  0.486477  1
  V  V10  1  0.931200  0.182411  0.510324  1
  V  V11  1  0.669996  0.508317  0.817314  1
  V  V12  1  0.742815  0.819695  0.489593  1
  V  V13  1  0.003166  0.510036  0.821217  1
  O  O14  1  0.007839  0.362785  0.041608  1
  O  O15  1  0.146811  0.041098  0.641866  1
  O  O16  1  0.067835  0.292976  0.378691  1
  O  O17  1  0.993231  0.634376  0.296994  1
  O  O18  1  0.349827  0.363864  0.041599  1
  O  O19  1  0.479434  0.039501  0.638123  1
  O  O20  1  0.394211  0.301806  0.367270  1
  O  O21  1  0.333551  0.377629  0.707348  1
  O  O22  1  0.329981  0.630026  0.297817  1
  O  O23  1  0.678837  0.359747  0.045167  1
  O  O24  1  0.270520  0.702401  0.629469  1
  O  O25  1  0.188934  0.956857  0.362557  1
  O  O26  1  0.818596  0.039057  0.639977  1
  O  O27  1  0.740652  0.300263  0.367383  1
  O  O28  1  0.325888  0.641913  0.955742  1
  O  O29  1  0.677879  0.366354  0.704648  1
  O  O30  1  0.651638  0.633313  0.300386  1
  O  O31  1  0.604497  0.697997  0.628585  1
  O  O32  1  0.523205  0.956218  0.361400  1
  O  O33  1  0.656150  0.638507  0.954566  1
  O  O34  1  0.009785  0.367323  0.703754  1
  O  O35  1  0.937658  0.699072  0.626143  1
  O  O36  1  0.868583  0.945905  0.357860  1
  O  O37  1  0.994167  0.643168  0.944516  1
