# generated using pymatgen
data_Sc2B2Ru4RhW
_symmetry_space_group_name_H-M   'P 1'
_cell_length_a   9.45864400
_cell_length_b   9.45864400
_cell_length_c   3.05851200
_cell_angle_alpha   90.00000000
_cell_angle_beta   90.00000000
_cell_angle_gamma   90.00000000
_symmetry_Int_Tables_number   1
_chemical_formula_structural   Sc2B2Ru4RhW
_chemical_formula_sum   'Sc4 B4 Ru8 Rh2 W2'
_cell_volume   273.63267041
_cell_formula_units_Z   2
loop_
 _symmetry_equiv_pos_site_id
 _symmetry_equiv_pos_as_xyz
  1  'x, y, z'
loop_
 _atom_site_type_symbol
 _atom_site_label
 _atom_site_symmetry_multiplicity
 _atom_site_fract_x
 _atom_site_fract_y
 _atom_site_fract_z
 _atom_site_occupancy
  Sc  Sc0  1  0.677546  0.177546  0.000000  1
  Sc  Sc1  1  0.322454  0.822454  0.000000  1
  Sc  Sc2  1  0.177546  0.322454  0.000000  1
  Sc  Sc3  1  0.822454  0.677546  0.000000  1
  B  B4  1  0.123814  0.623814  0.000000  1
  B  B5  1  0.876186  0.376186  0.000000  1
  B  B6  1  0.623814  0.876186  0.000000  1
  B  B7  1  0.376186  0.123814  0.000000  1
  Ru  Ru8  1  0.568737  0.717651  0.500000  1
  Ru  Ru9  1  0.431263  0.282349  0.500000  1
  Ru  Ru10  1  0.068737  0.782349  0.500000  1
  Ru  Ru11  1  0.931263  0.217651  0.500000  1
  Ru  Ru12  1  0.282349  0.568737  0.500000  1
  Ru  Ru13  1  0.717651  0.431263  0.500000  1
  Ru  Ru14  1  0.217651  0.068737  0.500000  1
  Ru  Ru15  1  0.782349  0.931263  0.500000  1
  Rh  Rh16  1  0.500000  0.000000  0.500000  1
  Rh  Rh17  1  0.000000  0.500000  0.500000  1
  W  W18  1  0.500000  0.500000  0.000000  1
  W  W19  1  0.000000  0.000000  0.000000  1
