# generated using pymatgen
data_Yb8LuPd6
_symmetry_space_group_name_H-M   'P 1'
_cell_length_a   7.56454344
_cell_length_b   7.56454434
_cell_length_c   7.56454300
_cell_angle_alpha   70.78803582
_cell_angle_beta   70.78802543
_cell_angle_gamma   70.78803352
_symmetry_Int_Tables_number   1
_chemical_formula_structural   Yb8LuPd6
_chemical_formula_sum   'Yb8 Lu1 Pd6'
_cell_volume   373.97136298
_cell_formula_units_Z   1
loop_
 _symmetry_equiv_pos_site_id
 _symmetry_equiv_pos_as_xyz
  1  'x, y, z'
loop_
 _atom_site_type_symbol
 _atom_site_label
 _atom_site_symmetry_multiplicity
 _atom_site_fract_x
 _atom_site_fract_y
 _atom_site_fract_z
 _atom_site_occupancy
  Yb  Yb0  1  0.797160  0.797160  0.797160  1
  Yb  Yb1  1  0.202840  0.202840  0.202840  1
  Yb  Yb2  1  0.330969  0.602928  0.844335  1
  Yb  Yb3  1  0.844335  0.330969  0.602928  1
  Yb  Yb4  1  0.602928  0.844335  0.330969  1
  Yb  Yb5  1  0.669031  0.397072  0.155665  1
  Yb  Yb6  1  0.155665  0.669031  0.397072  1
  Yb  Yb7  1  0.397072  0.155665  0.669031  1
  Lu  Lu8  1  0.000000  0.000000  0.000000  1
  Pd  Pd9  1  0.151218  0.956311  0.602670  1
  Pd  Pd10  1  0.602670  0.151218  0.956311  1
  Pd  Pd11  1  0.956311  0.602670  0.151218  1
  Pd  Pd12  1  0.848782  0.043689  0.397330  1
  Pd  Pd13  1  0.397330  0.848782  0.043689  1
  Pd  Pd14  1  0.043689  0.397330  0.848782  1
