# generated using pymatgen
data_Gd2Er3Si4
_symmetry_space_group_name_H-M   'P 1'
_cell_length_a   7.44694500
_cell_length_b   14.66560200
_cell_length_c   7.73509700
_cell_angle_alpha   90.00000000
_cell_angle_beta   89.99999231
_cell_angle_gamma   90.00000000
_symmetry_Int_Tables_number   1
_chemical_formula_structural   Gd2Er3Si4
_chemical_formula_sum   'Gd8 Er12 Si16'
_cell_volume   844.78035379
_cell_formula_units_Z   4
loop_
 _symmetry_equiv_pos_site_id
 _symmetry_equiv_pos_as_xyz
  1  'x, y, z'
loop_
 _atom_site_type_symbol
 _atom_site_label
 _atom_site_symmetry_multiplicity
 _atom_site_fract_x
 _atom_site_fract_y
 _atom_site_fract_z
 _atom_site_occupancy
  Gd  Gd0  1  0.524996  0.346918  0.182138  1
  Gd  Gd1  1  0.524996  0.653082  0.182138  1
  Gd  Gd2  1  0.024995  0.346918  0.317862  1
  Gd  Gd3  1  0.024995  0.653082  0.317862  1
  Gd  Gd4  1  0.975006  0.153082  0.682138  1
  Gd  Gd5  1  0.975006  0.846918  0.682138  1
  Gd  Gd6  1  0.475006  0.153082  0.817862  1
  Gd  Gd7  1  0.475006  0.846918  0.817862  1
  Er  Er8  1  0.850354  0.500000  0.012568  1
  Er  Er9  1  0.818222  0.127113  0.178772  1
  Er  Er10  1  0.818222  0.872887  0.178772  1
  Er  Er11  1  0.318223  0.127113  0.321230  1
  Er  Er12  1  0.318223  0.872887  0.321230  1
  Er  Er13  1  0.350355  0.500000  0.487433  1
  Er  Er14  1  0.649647  0.000000  0.512568  1
  Er  Er15  1  0.681779  0.372887  0.678771  1
  Er  Er16  1  0.681779  0.627113  0.678771  1
  Er  Er17  1  0.181780  0.372887  0.821230  1
  Er  Er18  1  0.181780  0.627113  0.821230  1
  Er  Er19  1  0.149646  0.000000  0.987433  1
  Si  Si20  1  0.145783  0.209549  0.028742  1
  Si  Si21  1  0.145783  0.790451  0.028742  1
  Si  Si22  1  0.522727  0.000000  0.105926  1
  Si  Si23  1  0.233326  0.500000  0.124122  1
  Si  Si24  1  0.733326  0.500000  0.375878  1
  Si  Si25  1  0.022727  0.000000  0.394075  1
  Si  Si26  1  0.645783  0.209549  0.471258  1
  Si  Si27  1  0.645783  0.790451  0.471258  1
  Si  Si28  1  0.354218  0.290451  0.528742  1
  Si  Si29  1  0.354218  0.709549  0.528742  1
  Si  Si30  1  0.977275  0.500000  0.605926  1
  Si  Si31  1  0.266676  0.000000  0.624123  1
  Si  Si32  1  0.766676  0.000000  0.875878  1
  Si  Si33  1  0.477275  0.500000  0.894074  1
  Si  Si34  1  0.854219  0.290451  0.971258  1
  Si  Si35  1  0.854219  0.709549  0.971258  1
