# generated using pymatgen
data_Ho12TlTc2Ni2Rh
_symmetry_space_group_name_H-M   'P 1'
_cell_length_a   8.35054604
_cell_length_b   8.35054873
_cell_length_c   8.35054767
_cell_angle_alpha   113.06020453
_cell_angle_beta   110.31067554
_cell_angle_gamma   105.14077602
_symmetry_Int_Tables_number   1
_chemical_formula_structural   Ho12TlTc2Ni2Rh
_chemical_formula_sum   'Ho12 Tl1 Tc2 Ni2 Rh1'
_cell_volume   446.07226430
_cell_formula_units_Z   1
loop_
 _symmetry_equiv_pos_site_id
 _symmetry_equiv_pos_as_xyz
  1  'x, y, z'
loop_
 _atom_site_type_symbol
 _atom_site_label
 _atom_site_symmetry_multiplicity
 _atom_site_fract_x
 _atom_site_fract_y
 _atom_site_fract_z
 _atom_site_occupancy
  Ho  Ho0  1  0.422645  0.233517  0.189127  1
  Ho  Ho1  1  0.577355  0.766483  0.810873  1
  Ho  Ho2  1  0.044389  0.233517  0.810873  1
  Ho  Ho3  1  0.955611  0.766483  0.189127  1
  Ho  Ho4  1  0.178248  0.272215  0.450464  1
  Ho  Ho5  1  0.821752  0.727785  0.549536  1
  Ho  Ho6  1  0.178248  0.727785  0.906033  1
  Ho  Ho7  1  0.821752  0.272215  0.093967  1
  Ho  Ho8  1  0.330194  0.645636  0.315442  1
  Ho  Ho9  1  0.669806  0.354364  0.684558  1
  Ho  Ho10  1  0.330194  0.014752  0.684558  1
  Ho  Ho11  1  0.669806  0.985248  0.315442  1
  Tl  Tl12  1  0.500000  0.500000  0.000000  1
  Tc  Tc13  1  0.329656  0.000000  0.329656  1
  Tc  Tc14  1  0.670344  0.000000  0.670344  1
  Ni  Ni15  1  0.114439  0.614439  0.500000  1
  Ni  Ni16  1  0.885561  0.385561  0.500000  1
  Rh  Rh17  1  0.000000  0.000000  0.000000  1
