# generated using pymatgen
data_Ta2Mn3Nb2AlCr4
_symmetry_space_group_name_H-M   'P 1'
_cell_length_a   4.83445392
_cell_length_b   4.83406306
_cell_length_c   8.14718720
_cell_angle_alpha   89.62048598
_cell_angle_beta   89.62088547
_cell_angle_gamma   60.36786129
_symmetry_Int_Tables_number   1
_chemical_formula_structural   Ta2Mn3Nb2AlCr4
_chemical_formula_sum   'Ta2 Mn3 Nb2 Al1 Cr4'
_cell_volume   165.49438748
_cell_formula_units_Z   1
loop_
 _symmetry_equiv_pos_site_id
 _symmetry_equiv_pos_as_xyz
  1  'x, y, z'
loop_
 _atom_site_type_symbol
 _atom_site_label
 _atom_site_symmetry_multiplicity
 _atom_site_fract_x
 _atom_site_fract_y
 _atom_site_fract_z
 _atom_site_occupancy
  Ta  Ta0  1  0.333184  0.333189  0.562799  1
  Ta  Ta1  1  0.665845  0.665767  0.440624  1
  Mn  Mn2  1  0.000249  0.000231  0.504406  1
  Mn  Mn3  1  0.829170  0.346168  0.743983  1
  Mn  Mn4  1  0.346148  0.829157  0.744006  1
  Nb  Nb5  1  0.666228  0.666289  0.067401  1
  Nb  Nb6  1  0.334301  0.334303  0.930960  1
  Al  Al7  1  0.001136  0.001246  0.996781  1
  Cr  Cr8  1  0.828477  0.828475  0.742675  1
  Cr  Cr9  1  0.169286  0.656905  0.255304  1
  Cr  Cr10  1  0.656916  0.169260  0.255305  1
  Cr  Cr11  1  0.169058  0.169006  0.255756  1
