# generated using pymatgen
data_TmLu2(Ga2Ni3)3
_symmetry_space_group_name_H-M   'P 1'
_cell_length_a   8.66088000
_cell_length_b   8.66087941
_cell_length_c   4.10609900
_cell_angle_alpha   90.00000000
_cell_angle_beta   90.00000000
_cell_angle_gamma   119.99999460
_symmetry_Int_Tables_number   1
_chemical_formula_structural   TmLu2(Ga2Ni3)3
_chemical_formula_sum   'Tm1 Lu2 Ga6 Ni9'
_cell_volume   266.73750514
_cell_formula_units_Z   1
loop_
 _symmetry_equiv_pos_site_id
 _symmetry_equiv_pos_as_xyz
  1  'x, y, z'
loop_
 _atom_site_type_symbol
 _atom_site_label
 _atom_site_symmetry_multiplicity
 _atom_site_fract_x
 _atom_site_fract_y
 _atom_site_fract_z
 _atom_site_occupancy
  Tm  Tm0  1  0.000000  0.000000  0.000000  1
  Lu  Lu1  1  0.666667  0.333333  0.500000  1
  Lu  Lu2  1  0.333333  0.666667  0.500000  1
  Ga  Ga3  1  0.481350  0.481350  0.000000  1
  Ga  Ga4  1  0.518650  0.000000  0.000000  1
  Ga  Ga5  1  0.000000  0.518650  0.000000  1
  Ga  Ga6  1  0.729427  0.729427  0.500000  1
  Ga  Ga7  1  0.270573  0.000000  0.500000  1
  Ga  Ga8  1  0.000000  0.270573  0.500000  1
  Ni  Ni9  1  0.825292  0.200234  0.000000  1
  Ni  Ni10  1  0.799766  0.625058  0.000000  1
  Ni  Ni11  1  0.374942  0.174708  0.000000  1
  Ni  Ni12  1  0.200234  0.825292  0.000000  1
  Ni  Ni13  1  0.625058  0.799766  0.000000  1
  Ni  Ni14  1  0.174708  0.374942  0.000000  1
  Ni  Ni15  1  0.296039  0.296039  0.500000  1
  Ni  Ni16  1  0.703961  0.000000  0.500000  1
  Ni  Ni17  1  0.000000  0.703961  0.500000  1
