# generated using pymatgen
data_Yb5Ho(Si3Ru)8
_symmetry_space_group_name_H-M   'P 1'
_cell_length_a   10.15590783
_cell_length_b   10.15590780
_cell_length_c   8.13744919
_cell_angle_alpha   89.97732664
_cell_angle_beta   90.02267109
_cell_angle_gamma   132.74338829
_symmetry_Int_Tables_number   1
_chemical_formula_structural   Yb5Ho(Si3Ru)8
_chemical_formula_sum   'Yb5 Ho1 Si24 Ru8'
_cell_volume   616.39472306
_cell_formula_units_Z   1
loop_
 _symmetry_equiv_pos_site_id
 _symmetry_equiv_pos_as_xyz
  1  'x, y, z'
loop_
 _atom_site_type_symbol
 _atom_site_label
 _atom_site_symmetry_multiplicity
 _atom_site_fract_x
 _atom_site_fract_y
 _atom_site_fract_z
 _atom_site_occupancy
  Yb  Yb0  1  0.499574  0.499548  0.499734  1
  Yb  Yb1  1  0.999548  0.999574  0.000266  1
  Yb  Yb2  1  0.500709  0.000709  0.750000  1
  Yb  Yb3  1  0.999525  0.499525  0.250000  1
  Yb  Yb4  1  0.498448  0.998448  0.250000  1
  Ho  Ho5  1  0.999951  0.499951  0.750000  1
  Si  Si6  1  0.794343  0.204258  0.498415  1
  Si  Si7  1  0.295373  0.705800  0.000180  1
  Si  Si8  1  0.205800  0.795373  0.499820  1
  Si  Si9  1  0.704258  0.294343  0.001585  1
  Si  Si10  1  0.332600  0.333331  0.832166  1
  Si  Si11  1  0.664369  0.667666  0.168096  1
  Si  Si12  1  0.167666  0.164369  0.331904  1
  Si  Si13  1  0.833331  0.832600  0.667834  1
  Si  Si14  1  0.124990  0.892393  0.730411  1
  Si  Si15  1  0.108820  0.875624  0.268988  1
  Si  Si16  1  0.607754  0.374423  0.231467  1
  Si  Si17  1  0.625424  0.392974  0.769839  1
  Si  Si18  1  0.874423  0.107754  0.268533  1
  Si  Si19  1  0.892974  0.125424  0.730161  1
  Si  Si20  1  0.392393  0.624990  0.769589  1
  Si  Si21  1  0.375624  0.608820  0.231012  1
  Si  Si22  1  0.348043  0.113854  0.507238  1
  Si  Si23  1  0.886899  0.654165  0.492453  1
  Si  Si24  1  0.386073  0.152335  0.007899  1
  Si  Si25  1  0.846470  0.613540  0.990413  1
  Si  Si26  1  0.652335  0.886073  0.492101  1
  Si  Si27  1  0.113540  0.346470  0.509587  1
  Si  Si28  1  0.613854  0.848043  0.992762  1
  Si  Si29  1  0.154165  0.386899  0.007547  1
  Ru  Ru30  1  0.672568  0.331438  0.501519  1
  Ru  Ru31  1  0.169092  0.828791  0.998676  1
  Ru  Ru32  1  0.328791  0.669092  0.501324  1
  Ru  Ru33  1  0.831438  0.172568  0.998481  1
  Ru  Ru34  1  0.126664  0.126137  0.624682  1
  Ru  Ru35  1  0.872571  0.873461  0.374979  1
  Ru  Ru36  1  0.373461  0.372571  0.125021  1
  Ru  Ru37  1  0.626137  0.626664  0.875318  1
