# generated using pymatgen
data_Pr2Sn5PtAu
_symmetry_space_group_name_H-M   'P 1'
_cell_length_a   4.61415100
_cell_length_b   9.40464555
_cell_length_c   10.39787200
_cell_angle_alpha   89.42260002
_cell_angle_beta   90.00000000
_cell_angle_gamma   90.00000000
_symmetry_Int_Tables_number   1
_chemical_formula_structural   Pr2Sn5PtAu
_chemical_formula_sum   'Pr4 Sn10 Pt2 Au2'
_cell_volume   451.18707358
_cell_formula_units_Z   2
loop_
 _symmetry_equiv_pos_site_id
 _symmetry_equiv_pos_as_xyz
  1  'x, y, z'
loop_
 _atom_site_type_symbol
 _atom_site_label
 _atom_site_symmetry_multiplicity
 _atom_site_fract_x
 _atom_site_fract_y
 _atom_site_fract_z
 _atom_site_occupancy
  Pr  Pr0  1  0.750000  0.632881  0.248333  1
  Pr  Pr1  1  0.250000  0.367119  0.751667  1
  Pr  Pr2  1  0.750000  0.104750  0.252642  1
  Pr  Pr3  1  0.250000  0.895250  0.747358  1
  Sn  Sn4  1  0.250000  0.128437  0.482713  1
  Sn  Sn5  1  0.750000  0.871563  0.517287  1
  Sn  Sn6  1  0.250000  0.367484  0.246344  1
  Sn  Sn7  1  0.750000  0.632516  0.753656  1
  Sn  Sn8  1  0.250000  0.604106  0.512387  1
  Sn  Sn9  1  0.750000  0.395894  0.487613  1
  Sn  Sn10  1  0.250000  0.613185  0.986128  1
  Sn  Sn11  1  0.750000  0.386815  0.013872  1
  Sn  Sn12  1  0.750000  0.108424  0.874120  1
  Sn  Sn13  1  0.250000  0.891576  0.125880  1
  Pt  Pt14  1  0.750000  0.147060  0.617189  1
  Pt  Pt15  1  0.250000  0.852940  0.382811  1
  Au  Au16  1  0.750000  0.826254  0.972335  1
  Au  Au17  1  0.250000  0.173746  0.027665  1
