# generated using pymatgen
data_Sc2AlSi2Ru5
_symmetry_space_group_name_H-M   'P 1'
_cell_length_a   9.77121400
_cell_length_b   9.77121400
_cell_length_c   3.16557700
_cell_angle_alpha   90.00000000
_cell_angle_beta   90.00000000
_cell_angle_gamma   90.00000000
_symmetry_Int_Tables_number   1
_chemical_formula_structural   Sc2AlSi2Ru5
_chemical_formula_sum   'Sc4 Al2 Si4 Ru10'
_cell_volume   302.23860191
_cell_formula_units_Z   2
loop_
 _symmetry_equiv_pos_site_id
 _symmetry_equiv_pos_as_xyz
  1  'x, y, z'
loop_
 _atom_site_type_symbol
 _atom_site_label
 _atom_site_symmetry_multiplicity
 _atom_site_fract_x
 _atom_site_fract_y
 _atom_site_fract_z
 _atom_site_occupancy
  Sc  Sc0  1  0.672057  0.172057  0.000000  1
  Sc  Sc1  1  0.327943  0.827943  0.000000  1
  Sc  Sc2  1  0.172057  0.327943  0.000000  1
  Sc  Sc3  1  0.827943  0.672057  0.000000  1
  Al  Al4  1  0.000000  0.000000  0.000000  1
  Al  Al5  1  0.500000  0.500000  0.000000  1
  Si  Si6  1  0.129419  0.629419  0.000000  1
  Si  Si7  1  0.870581  0.370581  0.000000  1
  Si  Si8  1  0.629419  0.870581  0.000000  1
  Si  Si9  1  0.370581  0.129419  0.000000  1
  Ru  Ru10  1  0.203253  0.067331  0.500000  1
  Ru  Ru11  1  0.796747  0.932669  0.500000  1
  Ru  Ru12  1  0.067331  0.796747  0.500000  1
  Ru  Ru13  1  0.703253  0.432669  0.500000  1
  Ru  Ru14  1  0.932669  0.203253  0.500000  1
  Ru  Ru15  1  0.296747  0.567331  0.500000  1
  Ru  Ru16  1  0.567331  0.703253  0.500000  1
  Ru  Ru17  1  0.432669  0.296747  0.500000  1
  Ru  Ru18  1  0.500000  0.000000  0.500000  1
  Ru  Ru19  1  0.000000  0.500000  0.500000  1
