# generated using pymatgen
data_HfSc2Sn3IrRh2
_symmetry_space_group_name_H-M   'P 1'
_cell_length_a   7.60061201
_cell_length_b   7.64914540
_cell_length_c   3.38869600
_cell_angle_alpha   90.00000000
_cell_angle_beta   90.00000000
_cell_angle_gamma   120.05204698
_symmetry_Int_Tables_number   1
_chemical_formula_structural   HfSc2Sn3IrRh2
_chemical_formula_sum   'Hf1 Sc2 Sn3 Ir1 Rh2'
_cell_volume   170.52839823
_cell_formula_units_Z   1
loop_
 _symmetry_equiv_pos_site_id
 _symmetry_equiv_pos_as_xyz
  1  'x, y, z'
loop_
 _atom_site_type_symbol
 _atom_site_label
 _atom_site_symmetry_multiplicity
 _atom_site_fract_x
 _atom_site_fract_y
 _atom_site_fract_z
 _atom_site_occupancy
  Hf  Hf0  1  0.002573  0.609327  0.500000  1
  Sc  Sc1  1  0.390190  0.392244  0.500000  1
  Sc  Sc2  1  0.608812  0.999741  0.500000  1
  Sn  Sn3  1  0.717091  0.721591  0.000000  1
  Sn  Sn4  1  0.285046  0.009268  0.000000  1
  Sn  Sn5  1  0.997651  0.268480  0.000000  1
  Ir  Ir6  1  0.320741  0.665181  0.000000  1
  Rh  Rh7  1  0.677974  0.343278  0.000000  1
  Rh  Rh8  1  0.999922  0.990889  0.500000  1
