# generated using pymatgen
data_Ga10NiPt
_symmetry_space_group_name_H-M   'P 1'
_cell_length_a   6.73882841
_cell_length_b   6.73882858
_cell_length_c   6.73882853
_cell_angle_alpha   123.05937549
_cell_angle_beta   123.05937356
_cell_angle_gamma   84.77796000
_symmetry_Int_Tables_number   1
_chemical_formula_structural   Ga10NiPt
_chemical_formula_sum   'Ga10 Ni1 Pt1'
_cell_volume   205.45186989
_cell_formula_units_Z   1
loop_
 _symmetry_equiv_pos_site_id
 _symmetry_equiv_pos_as_xyz
  1  'x, y, z'
loop_
 _atom_site_type_symbol
 _atom_site_label
 _atom_site_symmetry_multiplicity
 _atom_site_fract_x
 _atom_site_fract_y
 _atom_site_fract_z
 _atom_site_occupancy
  Ga  Ga0  1  0.493884  0.493884  0.000000  1
  Ga  Ga1  1  0.006116  0.006116  0.000000  1
  Ga  Ga2  1  0.284429  0.489443  0.490730  1
  Ga  Ga3  1  0.998712  0.793698  0.509270  1
  Ga  Ga4  1  0.501287  0.010557  0.794985  1
  Ga  Ga5  1  0.215571  0.706301  0.205014  1
  Ga  Ga6  1  0.010557  0.215571  0.509270  1
  Ga  Ga7  1  0.706301  0.501287  0.490730  1
  Ga  Ga8  1  0.489443  0.998712  0.205014  1
  Ga  Ga9  1  0.793698  0.284429  0.794985  1
  Ni  Ni10  1  0.249999  0.249999  0.000000  1
  Pt  Pt11  1  0.749999  0.749999  0.000000  1
