# generated using pymatgen
data_Yb3DyTi4O12
_symmetry_space_group_name_H-M   'P 1'
_cell_length_a   5.34018656
_cell_length_b   5.51176866
_cell_length_c   7.63384700
_cell_angle_alpha   90.00000000
_cell_angle_beta   90.00000000
_cell_angle_gamma   89.85062894
_symmetry_Int_Tables_number   1
_chemical_formula_structural   Yb3DyTi4O12
_chemical_formula_sum   'Yb3 Dy1 Ti4 O12'
_cell_volume   224.69291887
_cell_formula_units_Z   1
loop_
 _symmetry_equiv_pos_site_id
 _symmetry_equiv_pos_as_xyz
  1  'x, y, z'
loop_
 _atom_site_type_symbol
 _atom_site_label
 _atom_site_symmetry_multiplicity
 _atom_site_fract_x
 _atom_site_fract_y
 _atom_site_fract_z
 _atom_site_occupancy
  Yb  Yb0  1  0.513182  0.945556  0.750000  1
  Yb  Yb1  1  0.486211  0.054173  0.250000  1
  Yb  Yb2  1  0.012199  0.553167  0.250000  1
  Dy  Dy3  1  0.986520  0.439499  0.750000  1
  Ti  Ti4  1  0.001596  0.998194  0.002528  1
  Ti  Ti5  1  0.001596  0.998194  0.497472  1
  Ti  Ti6  1  0.497950  0.501230  0.003207  1
  Ti  Ti7  1  0.497950  0.501230  0.496793  1
  O  O8  1  0.088913  0.028313  0.750000  1
  O  O9  1  0.201830  0.296226  0.043637  1
  O  O10  1  0.201830  0.296226  0.456363  1
  O  O11  1  0.298344  0.796004  0.453586  1
  O  O12  1  0.298344  0.796004  0.046414  1
  O  O13  1  0.402190  0.526367  0.750000  1
  O  O14  1  0.585652  0.475480  0.250000  1
  O  O15  1  0.706809  0.209021  0.950038  1
  O  O16  1  0.706809  0.209021  0.549962  1
  O  O17  1  0.800665  0.701080  0.550523  1
  O  O18  1  0.800665  0.701080  0.949477  1
  O  O19  1  0.910746  0.973935  0.250000  1
