# generated using pymatgen
data_Sc12Fe2PtBr16
_symmetry_space_group_name_H-M   'P 1'
_cell_length_a   8.83732485
_cell_length_b   11.17888364
_cell_length_c   11.83394354
_cell_angle_alpha   116.98910465
_cell_angle_beta   101.45448214
_cell_angle_gamma   101.15287610
_symmetry_Int_Tables_number   1
_chemical_formula_structural   Sc12Fe2PtBr16
_chemical_formula_sum   'Sc12 Fe2 Pt1 Br16'
_cell_volume   965.70804005
_cell_formula_units_Z   1
loop_
 _symmetry_equiv_pos_site_id
 _symmetry_equiv_pos_as_xyz
  1  'x, y, z'
loop_
 _atom_site_type_symbol
 _atom_site_label
 _atom_site_symmetry_multiplicity
 _atom_site_fract_x
 _atom_site_fract_y
 _atom_site_fract_z
 _atom_site_occupancy
  Sc  Sc0  1  0.089795  0.259792  0.352298  1
  Sc  Sc1  1  0.910205  0.740208  0.647702  1
  Sc  Sc2  1  0.773095  0.537017  0.322812  1
  Sc  Sc3  1  0.226905  0.462983  0.677188  1
  Sc  Sc4  1  0.286219  0.740491  0.647578  1
  Sc  Sc5  1  0.713781  0.259509  0.352422  1
  Sc  Sc6  1  0.149285  0.536760  0.322949  1
  Sc  Sc7  1  0.850715  0.463240  0.677051  1
  Sc  Sc8  1  0.404800  0.357219  0.272219  1
  Sc  Sc9  1  0.595200  0.642781  0.727781  1
  Sc  Sc10  1  0.458884  0.310877  0.520020  1
  Sc  Sc11  1  0.541116  0.689123  0.479980  1
  Fe  Fe12  1  0.338301  0.499956  0.499677  1
  Fe  Fe13  1  0.661700  0.500044  0.500323  1
  Pt  Pt14  1  0.000000  0.500000  0.500000  1
  Br  Br15  1  0.396601  0.740530  0.883436  1
  Br  Br16  1  0.603399  0.259470  0.116564  1
  Br  Br17  1  0.188140  0.963120  0.781906  1
  Br  Br18  1  0.811860  0.036880  0.218094  1
  Br  Br19  1  0.337212  0.095551  0.251901  1
  Br  Br20  1  0.662788  0.904449  0.748099  1
  Br  Br21  1  0.558322  0.437546  0.797660  1
  Br  Br22  1  0.441678  0.562454  0.202340  1
  Br  Br23  1  0.310668  0.826468  0.463591  1
  Br  Br24  1  0.689332  0.173532  0.536409  1
  Br  Br25  1  0.168729  0.172557  0.533769  1
  Br  Br26  1  0.831271  0.827443  0.466231  1
  Br  Br27  1  0.927358  0.575144  0.162062  1
  Br  Br28  1  0.072642  0.424856  0.837938  1
  Br  Br29  1  0.923333  0.739547  0.883677  1
  Br  Br30  1  0.076667  0.260453  0.116323  1
