# generated using pymatgen
data_Lu8B24MoRu2W
_symmetry_space_group_name_H-M   'P 1'
_cell_length_a   3.57845700
_cell_length_b   9.10454511
_cell_length_c   11.48615868
_cell_angle_alpha   89.78193505
_cell_angle_beta   90.00000000
_cell_angle_gamma   90.00000000
_symmetry_Int_Tables_number   1
_chemical_formula_structural   Lu8B24MoRu2W
_chemical_formula_sum   'Lu8 B24 Mo1 Ru2 W1'
_cell_volume   374.21890295
_cell_formula_units_Z   1
loop_
 _symmetry_equiv_pos_site_id
 _symmetry_equiv_pos_as_xyz
  1  'x, y, z'
loop_
 _atom_site_type_symbol
 _atom_site_label
 _atom_site_symmetry_multiplicity
 _atom_site_fract_x
 _atom_site_fract_y
 _atom_site_fract_z
 _atom_site_occupancy
  Lu  Lu0  1  0.000000  0.321522  0.414923  1
  Lu  Lu1  1  0.000000  0.677932  0.586365  1
  Lu  Lu2  1  0.000000  0.821104  0.086125  1
  Lu  Lu3  1  0.000000  0.178609  0.913187  1
  Lu  Lu4  1  0.000000  0.945668  0.371714  1
  Lu  Lu5  1  0.000000  0.055593  0.629076  1
  Lu  Lu6  1  0.000000  0.441826  0.127109  1
  Lu  Lu7  1  0.000000  0.557535  0.871658  1
  B  B8  1  0.500000  0.550729  0.435297  1
  B  B9  1  0.500000  0.448259  0.565906  1
  B  B10  1  0.500000  0.053602  0.066017  1
  B  B11  1  0.500000  0.946097  0.933965  1
  B  B12  1  0.500000  0.752482  0.422476  1
  B  B13  1  0.500000  0.248535  0.578534  1
  B  B14  1  0.500000  0.249067  0.079901  1
  B  B15  1  0.500000  0.750522  0.919574  1
  B  B16  1  0.500000  0.797107  0.262586  1
  B  B17  1  0.500000  0.204003  0.737044  1
  B  B18  1  0.500000  0.290778  0.233855  1
  B  B19  1  0.500000  0.708934  0.765727  1
  B  B20  1  0.500000  0.631458  0.180775  1
  B  B21  1  0.500000  0.368603  0.818080  1
  B  B22  1  0.500000  0.130677  0.314378  1
  B  B23  1  0.500000  0.869786  0.685811  1
  B  B24  1  0.500000  0.982711  0.211641  1
  B  B25  1  0.500000  0.017752  0.788509  1
  B  B26  1  0.500000  0.475960  0.286328  1
  B  B27  1  0.500000  0.522705  0.713254  1
  B  B28  1  0.500000  0.602397  0.027119  1
  B  B29  1  0.500000  0.396988  0.972074  1
  B  B30  1  0.500000  0.102804  0.471050  1
  B  B31  1  0.500000  0.898138  0.529364  1
  Mo  Mo32  1  0.000000  0.361160  0.680704  1
  Ru  Ru33  1  0.000000  0.138050  0.178554  1
  Ru  Ru34  1  0.000000  0.862102  0.821855  1
  W  W35  1  0.000000  0.638808  0.319463  1
