# generated using pymatgen
data_DyHo9(In2Bi)2
_symmetry_space_group_name_H-M   'P 1'
_cell_length_a   9.02287505
_cell_length_b   9.01836985
_cell_length_c   6.60366600
_cell_angle_alpha   90.00000000
_cell_angle_beta   90.00000000
_cell_angle_gamma   120.01538816
_symmetry_Int_Tables_number   1
_chemical_formula_structural   DyHo9(In2Bi)2
_chemical_formula_sum   'Dy1 Ho9 In4 Bi2'
_cell_volume   465.28746550
_cell_formula_units_Z   1
loop_
 _symmetry_equiv_pos_site_id
 _symmetry_equiv_pos_as_xyz
  1  'x, y, z'
loop_
 _atom_site_type_symbol
 _atom_site_label
 _atom_site_symmetry_multiplicity
 _atom_site_fract_x
 _atom_site_fract_y
 _atom_site_fract_z
 _atom_site_occupancy
  Dy  Dy0  1  0.237618  0.237959  0.250000  1
  Ho  Ho1  1  0.670945  0.338007  0.006387  1
  Ho  Ho2  1  0.329188  0.667198  0.006397  1
  Ho  Ho3  1  0.329188  0.667198  0.493603  1
  Ho  Ho4  1  0.670945  0.338007  0.493613  1
  Ho  Ho5  1  0.769030  0.760703  0.750000  1
  Ho  Ho6  1  0.231052  0.991611  0.750000  1
  Ho  Ho7  1  0.999963  0.242734  0.750000  1
  Ho  Ho8  1  0.762324  0.000287  0.250000  1
  Ho  Ho9  1  0.999925  0.760449  0.250000  1
  In  In10  1  0.999938  0.598748  0.750000  1
  In  In11  1  0.604718  0.606629  0.250000  1
  In  In12  1  0.395441  0.001728  0.250000  1
  In  In13  1  0.999807  0.395388  0.250000  1
  Bi  Bi14  1  0.394800  0.394098  0.750000  1
  Bi  Bi15  1  0.605117  0.999257  0.750000  1
