# generated using pymatgen
data_Li3Ho4CuSi6
_symmetry_space_group_name_H-M   'P 1'
_cell_length_a   9.19635577
_cell_length_b   9.19635549
_cell_length_c   6.68468600
_cell_angle_alpha   90.52343720
_cell_angle_beta   89.47656281
_cell_angle_gamma   153.40572143
_symmetry_Int_Tables_number   1
_chemical_formula_structural   Li3Ho4CuSi6
_chemical_formula_sum   'Li3 Ho4 Cu1 Si6'
_cell_volume   253.07613051
_cell_formula_units_Z   1
loop_
 _symmetry_equiv_pos_site_id
 _symmetry_equiv_pos_as_xyz
  1  'x, y, z'
loop_
 _atom_site_type_symbol
 _atom_site_label
 _atom_site_symmetry_multiplicity
 _atom_site_fract_x
 _atom_site_fract_y
 _atom_site_fract_z
 _atom_site_occupancy
  Li  Li0  1  0.186960  0.813040  0.432870  1
  Li  Li1  1  0.194477  0.805523  0.053902  1
  Li  Li2  1  0.810796  0.189204  0.936394  1
  Ho  Ho3  1  0.550793  0.449207  0.253554  1
  Ho  Ho4  1  0.447881  0.552119  0.756298  1
  Ho  Ho5  1  0.344418  0.655582  0.261400  1
  Ho  Ho6  1  0.655370  0.344630  0.736308  1
  Cu  Cu7  1  0.809553  0.190447  0.557607  1
  Si  Si8  1  0.940556  0.059444  0.077273  1
  Si  Si9  1  0.061368  0.938632  0.932640  1
  Si  Si10  1  0.057118  0.942882  0.576409  1
  Si  Si11  1  0.936863  0.063137  0.434362  1
  Si  Si12  1  0.722749  0.277251  0.260556  1
  Si  Si13  1  0.281099  0.718901  0.730425  1
