# generated using pymatgen
data_Lu10ReHg3
_symmetry_space_group_name_H-M   'P 1'
_cell_length_a   9.32350800
_cell_length_b   9.32350906
_cell_length_c   9.66576000
_cell_angle_alpha   90.00000000
_cell_angle_beta   90.00000000
_cell_angle_gamma   119.99999625
_symmetry_Int_Tables_number   1
_chemical_formula_structural   Lu10ReHg3
_chemical_formula_sum   'Lu20 Re2 Hg6'
_cell_volume   727.65480304
_cell_formula_units_Z   2
loop_
 _symmetry_equiv_pos_site_id
 _symmetry_equiv_pos_as_xyz
  1  'x, y, z'
loop_
 _atom_site_type_symbol
 _atom_site_label
 _atom_site_symmetry_multiplicity
 _atom_site_fract_x
 _atom_site_fract_y
 _atom_site_fract_z
 _atom_site_occupancy
  Lu  Lu0  1  0.000000  0.000000  0.500000  1
  Lu  Lu1  1  0.000000  0.000000  0.000000  1
  Lu  Lu2  1  0.209610  0.790390  0.443713  1
  Lu  Lu3  1  0.209610  0.419223  0.443713  1
  Lu  Lu4  1  0.580777  0.790390  0.443713  1
  Lu  Lu5  1  0.790390  0.209610  0.556287  1
  Lu  Lu6  1  0.790390  0.580777  0.556287  1
  Lu  Lu7  1  0.419223  0.209610  0.556287  1
  Lu  Lu8  1  0.790390  0.209610  0.943713  1
  Lu  Lu9  1  0.790390  0.580777  0.943713  1
  Lu  Lu10  1  0.419223  0.209610  0.943713  1
  Lu  Lu11  1  0.209610  0.790390  0.056287  1
  Lu  Lu12  1  0.209610  0.419223  0.056287  1
  Lu  Lu13  1  0.580777  0.790390  0.056287  1
  Lu  Lu14  1  0.537334  0.462666  0.250000  1
  Lu  Lu15  1  0.537334  0.074668  0.250000  1
  Lu  Lu16  1  0.925332  0.462666  0.250000  1
  Lu  Lu17  1  0.462666  0.537334  0.750000  1
  Lu  Lu18  1  0.462666  0.925332  0.750000  1
  Lu  Lu19  1  0.074668  0.537334  0.750000  1
  Re  Re20  1  0.333333  0.666667  0.250000  1
  Re  Re21  1  0.666667  0.333333  0.750000  1
  Hg  Hg22  1  0.882327  0.117673  0.250000  1
  Hg  Hg23  1  0.882327  0.764654  0.250000  1
  Hg  Hg24  1  0.235346  0.117673  0.250000  1
  Hg  Hg25  1  0.117673  0.882327  0.750000  1
  Hg  Hg26  1  0.117673  0.235346  0.750000  1
  Hg  Hg27  1  0.764654  0.882327  0.750000  1
