# generated using pymatgen
data_Tb2Ti3P7(RuRh2)3
_symmetry_space_group_name_H-M   'P 1'
_cell_length_a   3.81872500
_cell_length_b   9.70145811
_cell_length_c   9.70136812
_cell_angle_alpha   119.99396600
_cell_angle_beta   89.99972550
_cell_angle_gamma   90.00091452
_symmetry_Int_Tables_number   1
_chemical_formula_structural   Tb2Ti3P7(RuRh2)3
_chemical_formula_sum   'Tb2 Ti3 P7 Ru3 Rh6'
_cell_volume   311.27584162
_cell_formula_units_Z   1
loop_
 _symmetry_equiv_pos_site_id
 _symmetry_equiv_pos_as_xyz
  1  'x, y, z'
loop_
 _atom_site_type_symbol
 _atom_site_label
 _atom_site_symmetry_multiplicity
 _atom_site_fract_x
 _atom_site_fract_y
 _atom_site_fract_z
 _atom_site_occupancy
  Tb  Tb0  1  0.261751  0.666601  0.333312  1
  Tb  Tb1  1  0.761766  0.333380  0.666680  1
  Ti  Ti2  1  0.762021  0.102635  0.882443  1
  Ti  Ti3  1  0.762031  0.117486  0.220115  1
  Ti  Ti4  1  0.762025  0.779816  0.897398  1
  P  P5  1  0.262083  0.999946  0.999971  1
  P  P6  1  0.761891  0.875641  0.592560  1
  P  P7  1  0.761875  0.407394  0.283080  1
  P  P8  1  0.761848  0.716940  0.124435  1
  P  P9  1  0.261819  0.114054  0.414617  1
  P  P10  1  0.261845  0.585425  0.699404  1
  P  P11  1  0.261830  0.300628  0.886011  1
  Ru  Ru12  1  0.261986  0.882308  0.159096  1
  Ru  Ru13  1  0.262050  0.840897  0.723185  1
  Ru  Ru14  1  0.261966  0.276713  0.117635  1
  Rh  Rh15  1  0.761926  0.608246  0.555479  1
  Rh  Rh16  1  0.761891  0.444549  0.052810  1
  Rh  Rh17  1  0.761855  0.947243  0.391788  1
  Rh  Rh18  1  0.261896  0.364597  0.435946  1
  Rh  Rh19  1  0.261856  0.564034  0.928588  1
  Rh  Rh20  1  0.261788  0.071465  0.635449  1
