# generated using pymatgen
data_FeHg5F18
_symmetry_space_group_name_H-M   'P 1'
_cell_length_a   8.17094868
_cell_length_b   8.32258768
_cell_length_c   8.45782687
_cell_angle_alpha   90.16754038
_cell_angle_beta   89.68199636
_cell_angle_gamma   119.14557916
_symmetry_Int_Tables_number   1
_chemical_formula_structural   FeHg5F18
_chemical_formula_sum   'Fe1 Hg5 F18'
_cell_volume   502.32953134
_cell_formula_units_Z   1
loop_
 _symmetry_equiv_pos_site_id
 _symmetry_equiv_pos_as_xyz
  1  'x, y, z'
loop_
 _atom_site_type_symbol
 _atom_site_label
 _atom_site_symmetry_multiplicity
 _atom_site_fract_x
 _atom_site_fract_y
 _atom_site_fract_z
 _atom_site_occupancy
  Fe  Fe0  1  0.500000  0.500000  0.000000  1
  Hg  Hg1  1  0.000000  0.500000  0.500000  1
  Hg  Hg2  1  0.000000  0.500000  0.000000  1
  Hg  Hg3  1  0.500000  0.000000  0.500000  1
  Hg  Hg4  1  0.500000  0.000000  0.000000  1
  Hg  Hg5  1  0.500000  0.500000  0.500000  1
  F  F6  1  0.760732  0.557390  0.040267  1
  F  F7  1  0.239268  0.442610  0.959733  1
  F  F8  1  0.216231  0.420756  0.535479  1
  F  F9  1  0.783769  0.579244  0.464521  1
  F  F10  1  0.579733  0.739743  0.956049  1
  F  F11  1  0.420267  0.260257  0.043951  1
  F  F12  1  0.427790  0.221042  0.465914  1
  F  F13  1  0.572210  0.778958  0.534086  1
  F  F14  1  0.778907  0.217358  0.543031  1
  F  F15  1  0.221093  0.782642  0.456969  1
  F  F16  1  0.230024  0.801016  0.052068  1
  F  F17  1  0.769976  0.198984  0.947932  1
  F  F18  1  0.990602  0.431196  0.237640  1
  F  F19  1  0.009398  0.568804  0.762360  1
  F  F20  1  0.429076  0.987587  0.764478  1
  F  F21  1  0.570924  0.012413  0.235522  1
  F  F22  1  0.527445  0.458422  0.791517  1
  F  F23  1  0.472555  0.541578  0.208483  1
