# generated using pymatgen
data_TmAl10OsRh
_symmetry_space_group_name_H-M   'P 1'
_cell_length_a   6.83976428
_cell_length_b   6.83976379
_cell_length_c   9.14586282
_cell_angle_alpha   90.45109726
_cell_angle_beta   90.45109795
_cell_angle_gamma   96.94744466
_symmetry_Int_Tables_number   1
_chemical_formula_structural   TmAl10OsRh
_chemical_formula_sum   'Tm2 Al20 Os2 Rh2'
_cell_volume   424.69361542
_cell_formula_units_Z   2
loop_
 _symmetry_equiv_pos_site_id
 _symmetry_equiv_pos_as_xyz
  1  'x, y, z'
loop_
 _atom_site_type_symbol
 _atom_site_label
 _atom_site_symmetry_multiplicity
 _atom_site_fract_x
 _atom_site_fract_y
 _atom_site_fract_z
 _atom_site_occupancy
  Tm  Tm0  1  0.870158  0.129842  0.750000  1
  Tm  Tm1  1  0.129842  0.870158  0.250000  1
  Al  Al2  1  0.621701  0.376551  0.550617  1
  Al  Al3  1  0.378299  0.623449  0.449383  1
  Al  Al4  1  0.376551  0.621701  0.050617  1
  Al  Al5  1  0.623449  0.378299  0.949383  1
  Al  Al6  1  0.221928  0.222242  0.500646  1
  Al  Al7  1  0.778072  0.777758  0.499354  1
  Al  Al8  1  0.777758  0.778072  0.999354  1
  Al  Al9  1  0.222242  0.221928  0.000646  1
  Al  Al10  1  0.846068  0.155261  0.101602  1
  Al  Al11  1  0.153932  0.844739  0.898398  1
  Al  Al12  1  0.155261  0.846068  0.601602  1
  Al  Al13  1  0.844739  0.153932  0.398398  1
  Al  Al14  1  0.855503  0.586748  0.749599  1
  Al  Al15  1  0.144497  0.413252  0.250401  1
  Al  Al16  1  0.413252  0.144497  0.750401  1
  Al  Al17  1  0.586748  0.855503  0.249599  1
  Al  Al18  1  0.222495  0.480860  0.752715  1
  Al  Al19  1  0.777505  0.519140  0.247285  1
  Al  Al20  1  0.519140  0.777505  0.747285  1
  Al  Al21  1  0.480860  0.222495  0.252715  1
  Os  Os22  1  0.000000  0.500000  0.000000  1
  Os  Os23  1  0.500000  0.000000  0.500000  1
  Rh  Rh24  1  0.000000  0.500000  0.500000  1
  Rh  Rh25  1  0.500000  0.000000  0.000000  1
