# generated using pymatgen
data_LaPr7(Er3Si4)4
_symmetry_space_group_name_H-M   'P 1'
_cell_length_a   7.76009629
_cell_length_b   7.76001808
_cell_length_c   14.37634242
_cell_angle_alpha   89.99687870
_cell_angle_beta   89.97308166
_cell_angle_gamma   89.98368964
_symmetry_Int_Tables_number   1
_chemical_formula_structural   LaPr7(Er3Si4)4
_chemical_formula_sum   'La1 Pr7 Er12 Si16'
_cell_volume   865.72146400
_cell_formula_units_Z   1
loop_
 _symmetry_equiv_pos_site_id
 _symmetry_equiv_pos_as_xyz
  1  'x, y, z'
loop_
 _atom_site_type_symbol
 _atom_site_label
 _atom_site_symmetry_multiplicity
 _atom_site_fract_x
 _atom_site_fract_y
 _atom_site_fract_z
 _atom_site_occupancy
  La  La0  1  0.361554  0.011064  0.456993  1
  Pr  Pr1  1  0.989734  0.638447  0.042745  1
  Pr  Pr2  1  0.009988  0.362130  0.543600  1
  Pr  Pr3  1  0.638294  0.989783  0.956985  1
  Pr  Pr4  1  0.138033  0.509802  0.793364  1
  Pr  Pr5  1  0.861797  0.489482  0.292721  1
  Pr  Pr6  1  0.509831  0.138364  0.206680  1
  Pr  Pr7  1  0.490304  0.861241  0.707312  1
  Er  Er8  1  0.363683  0.490957  0.374852  1
  Er  Er9  1  0.863451  0.009327  0.375073  1
  Er  Er10  1  0.990488  0.136162  0.124864  1
  Er  Er11  1  0.009147  0.863252  0.624932  1
  Er  Er12  1  0.636367  0.509148  0.874734  1
  Er  Er13  1  0.491202  0.363737  0.625135  1
  Er  Er14  1  0.508884  0.636488  0.125177  1
  Er  Er15  1  0.136304  0.990872  0.875105  1
  Er  Er16  1  0.684995  0.684323  0.499787  1
  Er  Er17  1  0.815281  0.184545  0.749772  1
  Er  Er18  1  0.184348  0.815321  0.250354  1
  Er  Er19  1  0.315386  0.315071  0.000150  1
  Si  Si20  1  0.065323  0.711151  0.438252  1
  Si  Si21  1  0.933790  0.287755  0.938378  1
  Si  Si22  1  0.713803  0.067178  0.561926  1
  Si  Si23  1  0.211789  0.434807  0.187916  1
  Si  Si24  1  0.787719  0.566263  0.688371  1
  Si  Si25  1  0.433545  0.212300  0.811773  1
  Si  Si26  1  0.567226  0.787170  0.311336  1
  Si  Si27  1  0.287265  0.933892  0.061612  1
  Si  Si28  1  0.844547  0.798909  0.808924  1
  Si  Si29  1  0.154850  0.202144  0.307473  1
  Si  Si30  1  0.799226  0.843782  0.191209  1
  Si  Si31  1  0.298027  0.654367  0.559240  1
  Si  Si32  1  0.700970  0.344617  0.058495  1
  Si  Si33  1  0.656763  0.299987  0.441539  1
  Si  Si34  1  0.344466  0.700980  0.941346  1
  Si  Si35  1  0.201620  0.155181  0.691874  1
