# generated using pymatgen
data_Tb3MgZnSb3O14
_symmetry_space_group_name_H-M   'P 1'
_cell_length_a   7.18257472
_cell_length_b   7.18257350
_cell_length_c   7.18257753
_cell_angle_alpha   117.45161205
_cell_angle_beta   62.54837986
_cell_angle_gamma   117.45160603
_symmetry_Int_Tables_number   1
_chemical_formula_structural   Tb3MgZnSb3O14
_chemical_formula_sum   'Tb3 Mg1 Zn1 Sb3 O14'
_cell_volume   276.88943572
_cell_formula_units_Z   1
loop_
 _symmetry_equiv_pos_site_id
 _symmetry_equiv_pos_as_xyz
  1  'x, y, z'
loop_
 _atom_site_type_symbol
 _atom_site_label
 _atom_site_symmetry_multiplicity
 _atom_site_fract_x
 _atom_site_fract_y
 _atom_site_fract_z
 _atom_site_occupancy
  Tb  Tb0  1  0.999999  0.500001  0.000002  1
  Tb  Tb1  1  0.499999  0.000001  0.999998  1
  Tb  Tb2  1  0.500002  0.500001  0.499999  1
  Mg  Mg3  1  0.000001  0.999998  0.500003  1
  Zn  Zn4  1  0.500003  0.500007  0.000000  1
  Sb  Sb5  1  0.500003  0.999997  0.500003  1
  Sb  Sb6  1  0.999997  0.500001  0.499997  1
  Sb  Sb7  1  0.000001  0.000000  0.000001  1
  O  O8  1  0.613642  0.386357  0.113643  1
  O  O9  1  0.386354  0.613645  0.886355  1
  O  O10  1  0.075961  0.323262  0.176738  1
  O  O11  1  0.676736  0.924035  0.176735  1
  O  O12  1  0.676737  0.323263  0.575962  1
  O  O13  1  0.924036  0.676736  0.823264  1
  O  O14  1  0.323262  0.075957  0.823261  1
  O  O15  1  0.323263  0.676738  0.424039  1
  O  O16  1  0.652100  0.907223  0.592776  1
  O  O17  1  0.092780  0.347899  0.592779  1
  O  O18  1  0.092778  0.907223  0.152100  1
  O  O19  1  0.347900  0.092779  0.407221  1
  O  O20  1  0.907224  0.652098  0.407223  1
  O  O21  1  0.907222  0.092778  0.847901  1
