# generated using pymatgen
data_Tm2GaTc3
_symmetry_space_group_name_H-M   'P 1'
_cell_length_a   5.31389500
_cell_length_b   5.31389606
_cell_length_c   8.93463100
_cell_angle_alpha   90.00000000
_cell_angle_beta   90.00000000
_cell_angle_gamma   119.99999962
_symmetry_Int_Tables_number   1
_chemical_formula_structural   Tm2GaTc3
_chemical_formula_sum   'Tm4 Ga2 Tc6'
_cell_volume   218.49086216
_cell_formula_units_Z   2
loop_
 _symmetry_equiv_pos_site_id
 _symmetry_equiv_pos_as_xyz
  1  'x, y, z'
loop_
 _atom_site_type_symbol
 _atom_site_label
 _atom_site_symmetry_multiplicity
 _atom_site_fract_x
 _atom_site_fract_y
 _atom_site_fract_z
 _atom_site_occupancy
  Tm  Tm0  1  0.333333  0.666667  0.432107  1
  Tm  Tm1  1  0.666667  0.333333  0.567893  1
  Tm  Tm2  1  0.666667  0.333333  0.932107  1
  Tm  Tm3  1  0.333333  0.666667  0.067893  1
  Ga  Ga4  1  0.000000  0.000000  0.500000  1
  Ga  Ga5  1  0.000000  0.000000  0.000000  1
  Tc  Tc6  1  0.828759  0.171241  0.250000  1
  Tc  Tc7  1  0.828759  0.657517  0.250000  1
  Tc  Tc8  1  0.342483  0.171241  0.250000  1
  Tc  Tc9  1  0.171241  0.828759  0.750000  1
  Tc  Tc10  1  0.171241  0.342483  0.750000  1
  Tc  Tc11  1  0.657517  0.828759  0.750000  1
