# generated using pymatgen
data_Er3Tm9Co4SnRh
_symmetry_space_group_name_H-M   'P 1'
_cell_length_a   8.20156519
_cell_length_b   8.18816708
_cell_length_c   8.18816715
_cell_angle_alpha   110.94790352
_cell_angle_beta   110.82252219
_cell_angle_gamma   106.61606617
_symmetry_Int_Tables_number   1
_chemical_formula_structural   Er3Tm9Co4SnRh
_chemical_formula_sum   'Er3 Tm9 Co4 Sn1 Rh1'
_cell_volume   422.86052049
_cell_formula_units_Z   1
loop_
 _symmetry_equiv_pos_site_id
 _symmetry_equiv_pos_as_xyz
  1  'x, y, z'
loop_
 _atom_site_type_symbol
 _atom_site_label
 _atom_site_symmetry_multiplicity
 _atom_site_fract_x
 _atom_site_fract_y
 _atom_site_fract_z
 _atom_site_occupancy
  Er  Er0  1  0.411451  0.214582  0.196870  1
  Er  Er1  1  0.588724  0.785287  0.803436  1
  Er  Er2  1  0.018031  0.214397  0.803633  1
  Tm  Tm3  1  0.982529  0.785565  0.196964  1
  Tm  Tm4  1  0.185947  0.288978  0.475123  1
  Tm  Tm5  1  0.813864  0.710437  0.524140  1
  Tm  Tm6  1  0.185947  0.710824  0.896969  1
  Tm  Tm7  1  0.813864  0.289724  0.103427  1
  Tm  Tm8  1  0.313054  0.618858  0.305195  1
  Tm  Tm9  1  0.687139  0.381496  0.695007  1
  Tm  Tm10  1  0.313054  0.007858  0.694198  1
  Tm  Tm11  1  0.687139  0.992132  0.305641  1
  Co  Co12  1  0.376642  0.999803  0.376839  1
  Co  Co13  1  0.622594  0.000054  0.622540  1
  Co  Co14  1  0.111890  0.612501  0.499389  1
  Co  Co15  1  0.888085  0.387830  0.500255  1
  Sn  Sn16  1  0.500019  0.500053  0.999966  1
  Rh  Rh17  1  0.000029  0.999622  0.000406  1
