# generated using pymatgen
data_ErMgSi4Tc3
_symmetry_space_group_name_H-M   'P 1'
_cell_length_a   6.77163600
_cell_length_b   6.44917217
_cell_length_c   6.75200046
_cell_angle_alpha   71.16815972
_cell_angle_beta   90.00000000
_cell_angle_gamma   90.00000000
_symmetry_Int_Tables_number   1
_chemical_formula_structural   ErMgSi4Tc3
_chemical_formula_sum   'Er2 Mg2 Si8 Tc6'
_cell_volume   279.08526271
_cell_formula_units_Z   2
loop_
 _symmetry_equiv_pos_site_id
 _symmetry_equiv_pos_as_xyz
  1  'x, y, z'
loop_
 _atom_site_type_symbol
 _atom_site_label
 _atom_site_symmetry_multiplicity
 _atom_site_fract_x
 _atom_site_fract_y
 _atom_site_fract_z
 _atom_site_occupancy
  Er  Er0  1  0.332245  0.557665  0.808768  1
  Er  Er1  1  0.832245  0.942335  0.191232  1
  Mg  Mg2  1  0.668582  0.449414  0.185881  1
  Mg  Mg3  1  0.168582  0.050586  0.814119  1
  Si  Si4  1  0.456724  0.127097  0.101534  1
  Si  Si5  1  0.956724  0.372903  0.898466  1
  Si  Si6  1  0.540088  0.879832  0.899858  1
  Si  Si7  1  0.040088  0.620168  0.100142  1
  Si  Si8  1  0.859530  0.142208  0.507885  1
  Si  Si9  1  0.359530  0.357792  0.492115  1
  Si  Si10  1  0.138942  0.872202  0.494187  1
  Si  Si11  1  0.638942  0.627798  0.505813  1
  Tc  Tc12  1  0.501410  0.002830  0.499751  1
  Tc  Tc13  1  0.001410  0.497170  0.500249  1
  Tc  Tc14  1  0.160630  0.243529  0.227477  1
  Tc  Tc15  1  0.660630  0.256471  0.772523  1
  Tc  Tc16  1  0.841849  0.760097  0.768420  1
  Tc  Tc17  1  0.341849  0.739903  0.231580  1
