# generated using pymatgen
data_Ti6AlAsC4
_symmetry_space_group_name_H-M   'P 1'
_cell_length_a   3.10509100
_cell_length_b   3.10509152
_cell_length_c   18.01189500
_cell_angle_alpha   90.00000000
_cell_angle_beta   90.00000000
_cell_angle_gamma   120.00000510
_symmetry_Int_Tables_number   1
_chemical_formula_structural   Ti6AlAsC4
_chemical_formula_sum   'Ti6 Al1 As1 C4'
_cell_volume   150.39685467
_cell_formula_units_Z   1
loop_
 _symmetry_equiv_pos_site_id
 _symmetry_equiv_pos_as_xyz
  1  'x, y, z'
loop_
 _atom_site_type_symbol
 _atom_site_label
 _atom_site_symmetry_multiplicity
 _atom_site_fract_x
 _atom_site_fract_y
 _atom_site_fract_z
 _atom_site_occupancy
  Ti  Ti0  1  0.666667  0.333333  0.376321  1
  Ti  Ti1  1  0.333333  0.666667  0.861040  1
  Ti  Ti2  1  0.333333  0.666667  0.638960  1
  Ti  Ti3  1  0.666667  0.333333  0.123679  1
  Ti  Ti4  1  0.000000  0.000000  0.507512  1
  Ti  Ti5  1  0.000000  0.000000  0.992488  1
  Al  Al6  1  0.000000  0.000000  0.250000  1
  As  As7  1  0.000000  0.000000  0.750000  1
  C  C8  1  0.333333  0.666667  0.435597  1
  C  C9  1  0.666667  0.333333  0.921835  1
  C  C10  1  0.333333  0.666667  0.064403  1
  C  C11  1  0.666667  0.333333  0.578165  1
