# generated using pymatgen
data_SrLi2MnN3
_symmetry_space_group_name_H-M   'P 1'
_cell_length_a   7.17878700
_cell_length_b   8.93636400
_cell_length_c   10.29249000
_cell_angle_alpha   90.00000000
_cell_angle_beta   90.00000000
_cell_angle_gamma   90.00000000
_symmetry_Int_Tables_number   1
_chemical_formula_structural   SrLi2MnN3
_chemical_formula_sum   'Sr8 Li16 Mn8 N24'
_cell_volume   660.28642979
_cell_formula_units_Z   8
loop_
 _symmetry_equiv_pos_site_id
 _symmetry_equiv_pos_as_xyz
  1  'x, y, z'
loop_
 _atom_site_type_symbol
 _atom_site_label
 _atom_site_symmetry_multiplicity
 _atom_site_fract_x
 _atom_site_fract_y
 _atom_site_fract_z
 _atom_site_occupancy
  Sr  Sr0  1  0.914903  0.189459  0.078170  1
  Sr  Sr1  1  0.085097  0.810541  0.921830  1
  Sr  Sr2  1  0.585097  0.689459  0.921830  1
  Sr  Sr3  1  0.414903  0.810541  0.421830  1
  Sr  Sr4  1  0.914903  0.689459  0.421830  1
  Sr  Sr5  1  0.414903  0.310541  0.078170  1
  Sr  Sr6  1  0.085097  0.310541  0.578170  1
  Sr  Sr7  1  0.585097  0.189459  0.578170  1
  Li  Li8  1  0.290403  0.622257  0.685003  1
  Li  Li9  1  0.094732  0.380819  0.279257  1
  Li  Li10  1  0.594732  0.619181  0.220743  1
  Li  Li11  1  0.709597  0.377743  0.314997  1
  Li  Li12  1  0.405268  0.380819  0.779257  1
  Li  Li13  1  0.790403  0.377743  0.814997  1
  Li  Li14  1  0.209597  0.122257  0.314997  1
  Li  Li15  1  0.905268  0.119181  0.779257  1
  Li  Li16  1  0.905268  0.619181  0.720743  1
  Li  Li17  1  0.094732  0.880819  0.220743  1
  Li  Li18  1  0.405268  0.880819  0.720743  1
  Li  Li19  1  0.290403  0.122257  0.814997  1
  Li  Li20  1  0.790403  0.877743  0.685003  1
  Li  Li21  1  0.594732  0.119181  0.279257  1
  Li  Li22  1  0.209597  0.622257  0.185003  1
  Li  Li23  1  0.709597  0.877743  0.185003  1
  Mn  Mn24  1  0.607241  0.549066  0.585218  1
  Mn  Mn25  1  0.107241  0.950934  0.585218  1
  Mn  Mn26  1  0.892759  0.049066  0.414782  1
  Mn  Mn27  1  0.392759  0.450934  0.414782  1
  Mn  Mn28  1  0.107241  0.450934  0.914782  1
  Mn  Mn29  1  0.607241  0.049066  0.914782  1
  Mn  Mn30  1  0.892759  0.549066  0.085218  1
  Mn  Mn31  1  0.392759  0.950934  0.085218  1
  N  N32  1  0.601286  0.065143  0.094089  1
  N  N33  1  0.919785  0.221789  0.341012  1
  N  N34  1  0.799854  0.451123  0.627615  1
  N  N35  1  0.101286  0.934857  0.405911  1
  N  N36  1  0.580215  0.221789  0.841012  1
  N  N37  1  0.398714  0.434857  0.594089  1
  N  N38  1  0.700146  0.451123  0.127615  1
  N  N39  1  0.919785  0.721789  0.158988  1
  N  N40  1  0.299854  0.548877  0.872385  1
  N  N41  1  0.200146  0.548877  0.372385  1
  N  N42  1  0.080215  0.778211  0.658988  1
  N  N43  1  0.419785  0.278211  0.341012  1
  N  N44  1  0.101286  0.434857  0.094089  1
  N  N45  1  0.580215  0.721789  0.658988  1
  N  N46  1  0.419785  0.778211  0.158988  1
  N  N47  1  0.200146  0.048877  0.127615  1
  N  N48  1  0.080215  0.278211  0.841012  1
  N  N49  1  0.601286  0.565143  0.405911  1
  N  N50  1  0.799854  0.951123  0.872385  1
  N  N51  1  0.299854  0.048877  0.627615  1
  N  N52  1  0.398714  0.934857  0.905911  1
  N  N53  1  0.898714  0.565143  0.905911  1
  N  N54  1  0.898714  0.065143  0.594089  1
  N  N55  1  0.700146  0.951123  0.372385  1
