# generated using pymatgen
data_SmTm5NbCo17P12
_symmetry_space_group_name_H-M   'P 1'
_cell_length_a   3.69227000
_cell_length_b   10.55322500
_cell_length_c   12.24088700
_cell_angle_alpha   90.00000000
_cell_angle_beta   90.00000000
_cell_angle_gamma   90.00000000
_symmetry_Int_Tables_number   1
_chemical_formula_structural   SmTm5NbCo17P12
_chemical_formula_sum   'Sm1 Tm5 Nb1 Co17 P12'
_cell_volume   476.97052058
_cell_formula_units_Z   1
loop_
 _symmetry_equiv_pos_site_id
 _symmetry_equiv_pos_as_xyz
  1  'x, y, z'
loop_
 _atom_site_type_symbol
 _atom_site_label
 _atom_site_symmetry_multiplicity
 _atom_site_fract_x
 _atom_site_fract_y
 _atom_site_fract_z
 _atom_site_occupancy
  Sm  Sm0  1  0.500000  0.000000  0.476691  1
  Tm  Tm1  1  0.000000  0.500000  0.527554  1
  Tm  Tm2  1  0.500000  0.819639  0.206664  1
  Tm  Tm3  1  0.500000  0.180361  0.206664  1
  Tm  Tm4  1  0.000000  0.682450  0.795997  1
  Tm  Tm5  1  0.000000  0.317550  0.795997  1
  Nb  Nb6  1  0.500000  0.500000  0.155431  1
  Co  Co7  1  0.000000  0.000000  0.838846  1
  Co  Co8  1  0.500000  0.500000  0.701918  1
  Co  Co9  1  0.000000  0.000000  0.294224  1
  Co  Co10  1  0.000000  0.500000  0.984010  1
  Co  Co11  1  0.500000  0.000000  0.014201  1
  Co  Co12  1  0.500000  0.329649  0.988935  1
  Co  Co13  1  0.500000  0.670351  0.988935  1
  Co  Co14  1  0.000000  0.163892  0.003979  1
  Co  Co15  1  0.000000  0.836108  0.003979  1
  Co  Co16  1  0.500000  0.296565  0.433068  1
  Co  Co17  1  0.500000  0.703435  0.433068  1
  Co  Co18  1  0.000000  0.204567  0.570335  1
  Co  Co19  1  0.000000  0.795433  0.570335  1
  Co  Co20  1  0.500000  0.878687  0.708966  1
  Co  Co21  1  0.500000  0.121313  0.708966  1
  Co  Co22  1  0.000000  0.622936  0.294508  1
  Co  Co23  1  0.000000  0.377064  0.294508  1
  P  P24  1  0.500000  0.500000  0.880107  1
  P  P25  1  0.000000  0.000000  0.117006  1
  P  P26  1  0.500000  0.500000  0.357367  1
  P  P27  1  0.000000  0.000000  0.657174  1
  P  P28  1  0.500000  0.310857  0.617983  1
  P  P29  1  0.500000  0.689143  0.617983  1
  P  P30  1  0.000000  0.189969  0.384290  1
  P  P31  1  0.000000  0.810031  0.384290  1
  P  P32  1  0.500000  0.850627  0.889709  1
  P  P33  1  0.500000  0.149373  0.889709  1
  P  P34  1  0.000000  0.661467  0.103302  1
  P  P35  1  0.000000  0.338533  0.103302  1
