# generated using pymatgen
data_LaHoErP4Pd7
_symmetry_space_group_name_H-M   'P 1'
_cell_length_a   7.95838704
_cell_length_b   7.95838819
_cell_length_c   9.53027301
_cell_angle_alpha   55.98098063
_cell_angle_beta   55.98098246
_cell_angle_gamma   29.28129889
_symmetry_Int_Tables_number   1
_chemical_formula_structural   LaHoErP4Pd7
_chemical_formula_sum   'La1 Ho1 Er1 P4 Pd7'
_cell_volume   240.86244068
_cell_formula_units_Z   1
loop_
 _symmetry_equiv_pos_site_id
 _symmetry_equiv_pos_as_xyz
  1  'x, y, z'
loop_
 _atom_site_type_symbol
 _atom_site_label
 _atom_site_symmetry_multiplicity
 _atom_site_fract_x
 _atom_site_fract_y
 _atom_site_fract_z
 _atom_site_occupancy
  La  La0  1  0.499996  0.499996  0.500003  1
  Ho  Ho1  1  0.821248  0.821248  0.174940  1
  Er  Er2  1  0.178709  0.178709  0.825174  1
  P  P3  1  0.392652  0.392652  0.315129  1
  P  P4  1  0.607439  0.607439  0.684984  1
  P  P5  1  0.835448  0.835448  0.761047  1
  P  P6  1  0.164369  0.164369  0.239071  1
  Pd  Pd7  1  0.670399  0.670399  0.072168  1
  Pd  Pd8  1  0.009738  0.009738  0.210348  1
  Pd  Pd9  1  0.990363  0.990363  0.789521  1
  Pd  Pd10  1  0.500195  0.500195  0.999792  1
  Pd  Pd11  1  0.195770  0.195770  0.469242  1
  Pd  Pd12  1  0.804144  0.804144  0.531043  1
  Pd  Pd13  1  0.329529  0.329529  0.927537  1
