# generated using pymatgen
data_BaCe2Se5
_symmetry_space_group_name_H-M   'P 1'
_cell_length_a   7.95651000
_cell_length_b   8.90132225
_cell_length_c   12.46899804
_cell_angle_alpha   89.63989160
_cell_angle_beta   90.00000000
_cell_angle_gamma   90.00000000
_symmetry_Int_Tables_number   1
_chemical_formula_structural   BaCe2Se5
_chemical_formula_sum   'Ba4 Ce8 Se20'
_cell_volume   883.08013575
_cell_formula_units_Z   4
loop_
 _symmetry_equiv_pos_site_id
 _symmetry_equiv_pos_as_xyz
  1  'x, y, z'
loop_
 _atom_site_type_symbol
 _atom_site_label
 _atom_site_symmetry_multiplicity
 _atom_site_fract_x
 _atom_site_fract_y
 _atom_site_fract_z
 _atom_site_occupancy
  Ba  Ba0  1  0.052476  0.491483  0.330992  1
  Ba  Ba1  1  0.552476  0.508517  0.169008  1
  Ba  Ba2  1  0.947524  0.508517  0.669008  1
  Ba  Ba3  1  0.447524  0.491483  0.830992  1
  Ce  Ce4  1  0.021653  0.998331  0.319203  1
  Ce  Ce5  1  0.521653  0.001669  0.180797  1
  Ce  Ce6  1  0.978347  0.001669  0.680797  1
  Ce  Ce7  1  0.478347  0.998331  0.819203  1
  Ce  Ce8  1  0.069586  0.753732  0.009030  1
  Ce  Ce9  1  0.569586  0.246268  0.490970  1
  Ce  Ce10  1  0.930414  0.246268  0.990970  1
  Ce  Ce11  1  0.430414  0.753732  0.509030  1
  Se  Se12  1  0.662110  0.956215  0.400730  1
  Se  Se13  1  0.162110  0.043785  0.099270  1
  Se  Se14  1  0.337890  0.043785  0.599270  1
  Se  Se15  1  0.837890  0.956215  0.900730  1
  Se  Se16  1  0.452765  0.790858  0.002099  1
  Se  Se17  1  0.952765  0.209142  0.497901  1
  Se  Se18  1  0.547235  0.209142  0.997901  1
  Se  Se19  1  0.047235  0.790858  0.502099  1
  Se  Se20  1  0.835929  0.783033  0.187956  1
  Se  Se21  1  0.335929  0.216967  0.312044  1
  Se  Se22  1  0.164071  0.216967  0.812044  1
  Se  Se23  1  0.664071  0.783033  0.687956  1
  Se  Se24  1  0.309857  0.773785  0.284254  1
  Se  Se25  1  0.809857  0.226215  0.215746  1
  Se  Se26  1  0.690143  0.226215  0.715746  1
  Se  Se27  1  0.190143  0.773785  0.784254  1
  Se  Se28  1  0.176697  0.460122  0.074332  1
  Se  Se29  1  0.676697  0.539878  0.425668  1
  Se  Se30  1  0.823303  0.539878  0.925668  1
  Se  Se31  1  0.323303  0.460122  0.574332  1
