# generated using pymatgen
data_TbEr2Ti(Co4P3)2
_symmetry_space_group_name_H-M   'P 1'
_cell_length_a   3.69932700
_cell_length_b   10.60929900
_cell_length_c   12.30476600
_cell_angle_alpha   90.00000000
_cell_angle_beta   90.00000000
_cell_angle_gamma   90.00000000
_symmetry_Int_Tables_number   1
_chemical_formula_structural   TbEr2Ti(Co4P3)2
_chemical_formula_sum   'Tb2 Er4 Ti2 Co16 P12'
_cell_volume   482.92842724
_cell_formula_units_Z   2
loop_
 _symmetry_equiv_pos_site_id
 _symmetry_equiv_pos_as_xyz
  1  'x, y, z'
loop_
 _atom_site_type_symbol
 _atom_site_label
 _atom_site_symmetry_multiplicity
 _atom_site_fract_x
 _atom_site_fract_y
 _atom_site_fract_z
 _atom_site_occupancy
  Tb  Tb0  1  0.000000  0.500000  0.525698  1
  Tb  Tb1  1  0.500000  0.000000  0.474302  1
  Er  Er2  1  0.500000  0.820328  0.204017  1
  Er  Er3  1  0.500000  0.179672  0.204017  1
  Er  Er4  1  0.000000  0.679672  0.795983  1
  Er  Er5  1  0.000000  0.320328  0.795983  1
  Ti  Ti6  1  0.500000  0.500000  0.153275  1
  Ti  Ti7  1  0.000000  0.000000  0.846725  1
  Co  Co8  1  0.500000  0.500000  0.703984  1
  Co  Co9  1  0.000000  0.000000  0.296016  1
  Co  Co10  1  0.000000  0.500000  0.987255  1
  Co  Co11  1  0.500000  0.000000  0.012745  1
  Co  Co12  1  0.500000  0.332023  0.993858  1
  Co  Co13  1  0.500000  0.667977  0.993858  1
  Co  Co14  1  0.000000  0.167977  0.006142  1
  Co  Co15  1  0.000000  0.832023  0.006142  1
  Co  Co16  1  0.500000  0.295510  0.431624  1
  Co  Co17  1  0.500000  0.704490  0.431624  1
  Co  Co18  1  0.000000  0.204490  0.568376  1
  Co  Co19  1  0.000000  0.795510  0.568376  1
  Co  Co20  1  0.500000  0.878007  0.706399  1
  Co  Co21  1  0.500000  0.121993  0.706399  1
  Co  Co22  1  0.000000  0.621993  0.293601  1
  Co  Co23  1  0.000000  0.378007  0.293601  1
  P  P24  1  0.500000  0.500000  0.883354  1
  P  P25  1  0.000000  0.000000  0.116646  1
  P  P26  1  0.500000  0.500000  0.352874  1
  P  P27  1  0.000000  0.000000  0.647126  1
  P  P28  1  0.500000  0.310211  0.616613  1
  P  P29  1  0.500000  0.689789  0.616613  1
  P  P30  1  0.000000  0.189789  0.383387  1
  P  P31  1  0.000000  0.810211  0.383387  1
  P  P32  1  0.500000  0.842373  0.891835  1
  P  P33  1  0.500000  0.157627  0.891835  1
  P  P34  1  0.000000  0.657627  0.108165  1
  P  P35  1  0.000000  0.342373  0.108165  1
