# generated using pymatgen
data_Tb3YIr3PdO14
_symmetry_space_group_name_H-M   'P 1'
_cell_length_a   7.29547999
_cell_length_b   7.25059716
_cell_length_c   7.29548000
_cell_angle_alpha   59.79501682
_cell_angle_beta   59.99999995
_cell_angle_gamma   59.79501420
_symmetry_Int_Tables_number   1
_chemical_formula_structural   Tb3YIr3PdO14
_chemical_formula_sum   'Tb3 Y1 Ir3 Pd1 O14'
_cell_volume   272.02821841
_cell_formula_units_Z   1
loop_
 _symmetry_equiv_pos_site_id
 _symmetry_equiv_pos_as_xyz
  1  'x, y, z'
loop_
 _atom_site_type_symbol
 _atom_site_label
 _atom_site_symmetry_multiplicity
 _atom_site_fract_x
 _atom_site_fract_y
 _atom_site_fract_z
 _atom_site_occupancy
  Tb  Tb0  1  0.625000  0.125000  0.125000  1
  Tb  Tb1  1  0.125000  0.125000  0.625000  1
  Tb  Tb2  1  0.125000  0.125000  0.125000  1
  Y  Y3  1  0.125000  0.625000  0.125000  1
  Ir  Ir4  1  0.125000  0.625000  0.625000  1
  Ir  Ir5  1  0.625000  0.625000  0.125000  1
  Ir  Ir6  1  0.625000  0.625000  0.625000  1
  Pd  Pd7  1  0.625000  0.125000  0.625000  1
  O  O8  1  0.715589  0.704853  0.289779  1
  O  O9  1  0.280407  0.288028  0.715783  1
  O  O10  1  0.715783  0.288028  0.715783  1
  O  O11  1  0.289779  0.704853  0.289779  1
  O  O12  1  0.289779  0.704853  0.715589  1
  O  O13  1  0.715783  0.288028  0.280407  1
  O  O14  1  0.534411  0.545147  0.960221  1
  O  O15  1  0.969593  0.961972  0.534217  1
  O  O16  1  0.534217  0.961972  0.534217  1
  O  O17  1  0.960221  0.545147  0.960221  1
  O  O18  1  0.960221  0.545147  0.534411  1
  O  O19  1  0.534217  0.961972  0.969593  1
  O  O20  1  0.249567  0.251298  0.249567  1
  O  O21  1  0.000433  0.998702  0.000433  1
