# generated using pymatgen
data_Yb5Y(Si3Ru)8
_symmetry_space_group_name_H-M   'P 1'
_cell_length_a   10.15976287
_cell_length_b   10.15976261
_cell_length_c   8.15488121
_cell_angle_alpha   89.98967078
_cell_angle_beta   89.98967020
_cell_angle_gamma   132.65501239
_symmetry_Int_Tables_number   1
_chemical_formula_structural   Yb5Y(Si3Ru)8
_chemical_formula_sum   'Yb5 Y1 Si24 Ru8'
_cell_volume   619.06466694
_cell_formula_units_Z   1
loop_
 _symmetry_equiv_pos_site_id
 _symmetry_equiv_pos_as_xyz
  1  'x, y, z'
loop_
 _atom_site_type_symbol
 _atom_site_label
 _atom_site_symmetry_multiplicity
 _atom_site_fract_x
 _atom_site_fract_y
 _atom_site_fract_z
 _atom_site_occupancy
  Yb  Yb0  1  0.000000  0.000000  0.000000  1
  Yb  Yb1  1  0.002051  0.501938  0.249940  1
  Yb  Yb2  1  0.498062  0.997949  0.750060  1
  Yb  Yb3  1  0.997949  0.498062  0.750060  1
  Yb  Yb4  1  0.501938  0.002051  0.249940  1
  Y  Y5  1  0.500000  0.500000  0.500000  1
  Si  Si6  1  0.293826  0.706174  0.000000  1
  Si  Si7  1  0.793869  0.206131  0.500000  1
  Si  Si8  1  0.706174  0.293826  0.000000  1
  Si  Si9  1  0.206131  0.793869  0.500000  1
  Si  Si10  1  0.835179  0.835179  0.331376  1
  Si  Si11  1  0.164821  0.164821  0.668624  1
  Si  Si12  1  0.667708  0.667708  0.834332  1
  Si  Si13  1  0.332292  0.332292  0.165668  1
  Si  Si14  1  0.624573  0.390238  0.228335  1
  Si  Si15  1  0.609762  0.375427  0.771665  1
  Si  Si16  1  0.108916  0.875811  0.729923  1
  Si  Si17  1  0.124189  0.891084  0.270077  1
  Si  Si18  1  0.375427  0.609762  0.771665  1
  Si  Si19  1  0.390238  0.624573  0.228335  1
  Si  Si20  1  0.891084  0.124189  0.270077  1
  Si  Si21  1  0.875811  0.108916  0.729923  1
  Si  Si22  1  0.846871  0.613698  0.007246  1
  Si  Si23  1  0.386302  0.153129  0.992754  1
  Si  Si24  1  0.889680  0.654758  0.506600  1
  Si  Si25  1  0.345242  0.110320  0.493400  1
  Si  Si26  1  0.153129  0.386302  0.992754  1
  Si  Si27  1  0.613698  0.846871  0.007246  1
  Si  Si28  1  0.110320  0.345242  0.493400  1
  Si  Si29  1  0.654758  0.889680  0.506600  1
  Ru  Ru30  1  0.169283  0.830717  0.000000  1
  Ru  Ru31  1  0.668649  0.331351  0.500000  1
  Ru  Ru32  1  0.830717  0.169283  0.000000  1
  Ru  Ru33  1  0.331351  0.668649  0.500000  1
  Ru  Ru34  1  0.625050  0.625050  0.126811  1
  Ru  Ru35  1  0.374950  0.374950  0.873189  1
  Ru  Ru36  1  0.871887  0.871887  0.623774  1
  Ru  Ru37  1  0.128113  0.128113  0.376226  1
