# generated using pymatgen
data_Ho4Pd3RuO14
_symmetry_space_group_name_H-M   'P 1'
_cell_length_a   7.26048955
_cell_length_b   7.26048940
_cell_length_c   7.26049007
_cell_angle_alpha   59.54949796
_cell_angle_beta   59.54949610
_cell_angle_gamma   59.54949317
_symmetry_Int_Tables_number   1
_chemical_formula_structural   Ho4Pd3RuO14
_chemical_formula_sum   'Ho4 Pd3 Ru1 O14'
_cell_volume   267.86224137
_cell_formula_units_Z   1
loop_
 _symmetry_equiv_pos_site_id
 _symmetry_equiv_pos_as_xyz
  1  'x, y, z'
loop_
 _atom_site_type_symbol
 _atom_site_label
 _atom_site_symmetry_multiplicity
 _atom_site_fract_x
 _atom_site_fract_y
 _atom_site_fract_z
 _atom_site_occupancy
  Ho  Ho0  1  0.625000  0.625000  0.125000  1
  Ho  Ho1  1  0.625000  0.125000  0.625000  1
  Ho  Ho2  1  0.125000  0.625000  0.625000  1
  Ho  Ho3  1  0.625000  0.625000  0.625000  1
  Pd  Pd4  1  0.125000  0.125000  0.625000  1
  Pd  Pd5  1  0.125000  0.625000  0.125000  1
  Pd  Pd6  1  0.625000  0.125000  0.125000  1
  Ru  Ru7  1  0.125000  0.125000  0.125000  1
  O  O8  1  0.467489  0.034547  0.467489  1
  O  O9  1  0.215453  0.782511  0.782511  1
  O  O10  1  0.790673  0.212198  0.212198  1
  O  O11  1  0.212198  0.790673  0.212198  1
  O  O12  1  0.782511  0.782511  0.215453  1
  O  O13  1  0.212198  0.212198  0.790673  1
  O  O14  1  0.467489  0.467489  0.034547  1
  O  O15  1  0.034547  0.467489  0.467489  1
  O  O16  1  0.459327  0.037802  0.037802  1
  O  O17  1  0.037802  0.037802  0.459327  1
  O  O18  1  0.782511  0.215453  0.782511  1
  O  O19  1  0.037802  0.459327  0.037802  1
  O  O20  1  0.499830  0.499830  0.499830  1
  O  O21  1  0.750170  0.750170  0.750170  1
