# generated using pymatgen
data_Sm2TmMg3AgSn2
_symmetry_space_group_name_H-M   'P 1'
_cell_length_a   7.52072742
_cell_length_b   7.52072742
_cell_length_c   4.56252400
_cell_angle_alpha   90.00000000
_cell_angle_beta   90.00000000
_cell_angle_gamma   119.25622435
_symmetry_Int_Tables_number   1
_chemical_formula_structural   Sm2TmMg3AgSn2
_chemical_formula_sum   'Sm2 Tm1 Mg3 Ag1 Sn2'
_cell_volume   225.14477967
_cell_formula_units_Z   1
loop_
 _symmetry_equiv_pos_site_id
 _symmetry_equiv_pos_as_xyz
  1  'x, y, z'
loop_
 _atom_site_type_symbol
 _atom_site_label
 _atom_site_symmetry_multiplicity
 _atom_site_fract_x
 _atom_site_fract_y
 _atom_site_fract_z
 _atom_site_occupancy
  Sm  Sm0  1  0.582177  0.997715  0.000000  1
  Sm  Sm1  1  0.997715  0.582177  0.000000  1
  Tm  Tm2  1  0.414247  0.414247  0.000000  1
  Mg  Mg3  1  0.236786  0.000783  0.500000  1
  Mg  Mg4  1  0.000783  0.236786  0.500000  1
  Mg  Mg5  1  0.763215  0.763215  0.500000  1
  Ag  Ag6  1  0.007273  0.007273  0.000000  1
  Sn  Sn7  1  0.335160  0.662644  0.500000  1
  Sn  Sn8  1  0.662644  0.335160  0.500000  1
