# generated using pymatgen
data_Li12Gd11Lu(TeO6)8
_symmetry_space_group_name_H-M   'P 1'
_cell_length_a   10.83449529
_cell_length_b   10.81523081
_cell_length_c   10.83449501
_cell_angle_alpha   109.50918148
_cell_angle_beta   109.46747837
_cell_angle_gamma   109.50918254
_symmetry_Int_Tables_number   1
_chemical_formula_structural   Li12Gd11Lu(TeO6)8
_chemical_formula_sum   'Li12 Gd11 Lu1 Te8 O48'
_cell_volume   976.43587596
_cell_formula_units_Z   1
loop_
 _symmetry_equiv_pos_site_id
 _symmetry_equiv_pos_as_xyz
  1  'x, y, z'
loop_
 _atom_site_type_symbol
 _atom_site_label
 _atom_site_symmetry_multiplicity
 _atom_site_fract_x
 _atom_site_fract_y
 _atom_site_fract_z
 _atom_site_occupancy
  Li  Li0  1  0.749536  0.375048  0.125006  1
  Li  Li1  1  0.875037  0.749999  0.125038  1
  Li  Li2  1  0.125513  0.375049  0.250042  1
  Li  Li3  1  0.624721  0.874596  0.249713  1
  Li  Li4  1  0.249958  0.124952  0.374488  1
  Li  Li5  1  0.623888  0.250000  0.373888  1
  Li  Li6  1  0.749875  0.874597  0.624884  1
  Li  Li7  1  0.374963  0.749999  0.624964  1
  Li  Li8  1  0.374992  0.124950  0.750462  1
  Li  Li9  1  0.875116  0.625403  0.750123  1
  Li  Li10  1  0.250287  0.625403  0.875278  1
  Li  Li11  1  0.126113  0.250000  0.876112  1
  Gd  Gd12  1  0.250625  0.876349  0.125320  1
  Gd  Gd13  1  0.374681  0.623651  0.249375  1
  Gd  Gd14  1  0.874991  0.125042  0.250082  1
  Gd  Gd15  1  0.124999  0.749999  0.374999  1
  Gd  Gd16  1  0.748969  0.623652  0.374276  1
  Gd  Gd17  1  0.874999  0.250000  0.625000  1
  Gd  Gd18  1  0.249918  0.374959  0.625009  1
  Gd  Gd19  1  0.625042  0.374959  0.749949  1
  Gd  Gd20  1  0.125725  0.876349  0.751029  1
  Gd  Gd21  1  0.750049  0.125042  0.874959  1
  Gd  Gd22  1  0.625000  0.749999  0.875000  1
  Lu  Lu23  1  0.375000  0.250000  0.125001  1
  Te  Te24  1  0.002813  0.002584  0.001747  1
  Te  Te25  1  0.499770  0.002584  0.000837  1
  Te  Te26  1  0.000260  0.500121  0.000101  1
  Te  Te27  1  0.499163  0.497416  0.000229  1
  Te  Te28  1  0.999980  0.999878  0.500137  1
  Te  Te29  1  0.498252  0.497415  0.497186  1
  Te  Te30  1  0.499899  0.999878  0.499740  1
  Te  Te31  1  0.999862  0.500122  0.500020  1
  O  O32  1  0.197665  0.618682  0.025491  1
  O  O33  1  0.329536  0.401716  0.028159  1
  O  O34  1  0.882099  0.907044  0.078270  1
  O  O35  1  0.697887  0.172820  0.078674  1
  O  O36  1  0.617929  0.923255  0.094341  1
  O  O37  1  0.974933  0.172821  0.094146  1
  O  O38  1  0.025853  0.697796  0.119000  1
  O  O39  1  0.590782  0.417724  0.119068  1
  O  O40  1  0.201345  0.082277  0.173058  1
  O  O41  1  0.471842  0.098284  0.170464  1
  O  O42  1  0.119011  0.525500  0.197330  1
  O  O43  1  0.577806  0.670647  0.196980  1
  O  O44  1  0.474509  0.881318  0.302334  1
  O  O45  1  0.326942  0.417723  0.298656  1
  O  O46  1  0.921206  0.802205  0.328057  1
  O  O47  1  0.906488  0.525500  0.328171  1
  O  O48  1  0.572180  0.401716  0.373558  1
  O  O49  1  0.302670  0.974501  0.380989  1
  O  O50  1  0.828198  0.025199  0.406438  1
  O  O51  1  0.078313  0.381202  0.406483  1
  O  O52  1  0.093517  0.118797  0.421687  1
  O  O53  1  0.827787  0.302420  0.421455  1
  O  O54  1  0.592840  0.670646  0.473667  1
  O  O55  1  0.380999  0.802204  0.474147  1
  O  O56  1  0.405855  0.327180  0.525068  1
  O  O57  1  0.619035  0.197580  0.525366  1
  O  O58  1  0.171943  0.697796  0.578794  1
  O  O59  1  0.906808  0.881317  0.578983  1
  O  O60  1  0.921018  0.618683  0.593192  1
  O  O61  1  0.171829  0.974501  0.593512  1
  O  O62  1  0.421730  0.592956  0.617900  1
  O  O63  1  0.697000  0.025200  0.618760  1
  O  O64  1  0.078545  0.197579  0.672213  1
  O  O65  1  0.093561  0.474801  0.671802  1
  O  O66  1  0.525280  0.118798  0.697109  1
  O  O67  1  0.671086  0.576745  0.694674  1
  O  O68  1  0.881239  0.474801  0.802999  1
  O  O69  1  0.421327  0.327180  0.802113  1
  O  O70  1  0.524944  0.907043  0.828773  1
  O  O71  1  0.805326  0.923256  0.828914  1
  O  O72  1  0.974635  0.302421  0.880966  1
  O  O73  1  0.405659  0.576745  0.882071  1
  O  O74  1  0.380932  0.082277  0.909218  1
  O  O75  1  0.026334  0.829354  0.907160  1
  O  O76  1  0.303021  0.829354  0.922194  1
  O  O77  1  0.126443  0.098285  0.927821  1
  O  O78  1  0.802892  0.381203  0.974721  1
  O  O79  1  0.671227  0.592957  0.975057  1
