# generated using pymatgen
data_Yb2LuUN4
_symmetry_space_group_name_H-M   'P 1'
_cell_length_a   6.86276896
_cell_length_b   9.09668898
_cell_length_c   5.97094100
_cell_angle_alpha   29.17169127
_cell_angle_beta   54.92272715
_cell_angle_gamma   41.02485218
_symmetry_Int_Tables_number   1
_chemical_formula_structural   Yb2LuUN4
_chemical_formula_sum   'Yb2 Lu1 U1 N4'
_cell_volume   115.07087429
_cell_formula_units_Z   1
loop_
 _symmetry_equiv_pos_site_id
 _symmetry_equiv_pos_as_xyz
  1  'x, y, z'
loop_
 _atom_site_type_symbol
 _atom_site_label
 _atom_site_symmetry_multiplicity
 _atom_site_fract_x
 _atom_site_fract_y
 _atom_site_fract_z
 _atom_site_occupancy
  Yb  Yb0  1  0.750000  0.500000  0.000000  1
  Yb  Yb1  1  0.500000  0.000000  0.000000  1
  Lu  Lu2  1  0.250000  0.500000  0.000000  1
  U  U3  1  0.000000  0.000000  0.000000  1
  N  N4  1  0.488126  0.500000  0.523748  1
  N  N5  1  0.217650  0.000000  0.564700  1
  N  N6  1  0.011874  0.500000  0.476252  1
  N  N7  1  0.782350  0.000000  0.435300  1
