# generated using pymatgen
data_Np(S8Cl)3
_symmetry_space_group_name_H-M   'P 1'
_cell_length_a   15.66084207
_cell_length_b   15.66084185
_cell_length_c   15.66084076
_cell_angle_alpha   119.23566608
_cell_angle_beta   119.23566220
_cell_angle_gamma   119.23567054
_symmetry_Int_Tables_number   1
_chemical_formula_structural   Np(S8Cl)3
_chemical_formula_sum   'Np1 S24 Cl3'
_cell_volume   870.67186847
_cell_formula_units_Z   1
loop_
 _symmetry_equiv_pos_site_id
 _symmetry_equiv_pos_as_xyz
  1  'x, y, z'
loop_
 _atom_site_type_symbol
 _atom_site_label
 _atom_site_symmetry_multiplicity
 _atom_site_fract_x
 _atom_site_fract_y
 _atom_site_fract_z
 _atom_site_occupancy
  Np  Np0  1  0.581190  0.581190  0.581190  1
  S  S1  1  0.816483  0.533280  0.533280  1
  S  S2  1  0.533280  0.533280  0.816483  1
  S  S3  1  0.533280  0.816483  0.533280  1
  S  S4  1  0.217316  0.342867  0.605265  1
  S  S5  1  0.388045  0.977832  0.388045  1
  S  S6  1  0.388045  0.388045  0.977832  1
  S  S7  1  0.977832  0.388045  0.388045  1
  S  S8  1  0.114863  0.719106  0.239207  1
  S  S9  1  0.239207  0.114863  0.719106  1
  S  S10  1  0.719106  0.239207  0.114863  1
  S  S11  1  0.719106  0.114863  0.239207  1
  S  S12  1  0.239207  0.719106  0.114863  1
  S  S13  1  0.114863  0.239207  0.719106  1
  S  S14  1  0.370449  0.894973  0.547118  1
  S  S15  1  0.547118  0.370449  0.894973  1
  S  S16  1  0.894973  0.547118  0.370449  1
  S  S17  1  0.894973  0.370449  0.547118  1
  S  S18  1  0.547118  0.894973  0.370449  1
  S  S19  1  0.370449  0.547118  0.894973  1
  S  S20  1  0.217316  0.605265  0.342867  1
  S  S21  1  0.342867  0.217316  0.605265  1
  S  S22  1  0.605265  0.342867  0.217316  1
  S  S23  1  0.605265  0.217316  0.342867  1
  S  S24  1  0.342867  0.605265  0.217316  1
  Cl  Cl25  1  0.984940  0.109939  0.109939  1
  Cl  Cl26  1  0.109939  0.109939  0.984940  1
  Cl  Cl27  1  0.109939  0.984940  0.109939  1
