# generated using pymatgen
data_Lu15ThIn3AgRh4
_symmetry_space_group_name_H-M   'P 1'
_cell_length_a   9.45189778
_cell_length_b   9.45189955
_cell_length_c   9.45189975
_cell_angle_alpha   60.28527111
_cell_angle_beta   60.28527270
_cell_angle_gamma   60.28527191
_symmetry_Int_Tables_number   1
_chemical_formula_structural   Lu15ThIn3AgRh4
_chemical_formula_sum   'Lu15 Th1 In3 Ag1 Rh4'
_cell_volume   600.94822366
_cell_formula_units_Z   1
loop_
 _symmetry_equiv_pos_site_id
 _symmetry_equiv_pos_as_xyz
  1  'x, y, z'
loop_
 _atom_site_type_symbol
 _atom_site_label
 _atom_site_symmetry_multiplicity
 _atom_site_fract_x
 _atom_site_fract_y
 _atom_site_fract_z
 _atom_site_occupancy
  Lu  Lu0  1  0.603812  0.603812  0.191751  1
  Lu  Lu1  1  0.603812  0.191751  0.603812  1
  Lu  Lu2  1  0.191751  0.603812  0.603812  1
  Lu  Lu3  1  0.062193  0.438055  0.438055  1
  Lu  Lu4  1  0.439734  0.061028  0.061028  1
  Lu  Lu5  1  0.438055  0.062193  0.438055  1
  Lu  Lu6  1  0.061028  0.439734  0.061028  1
  Lu  Lu7  1  0.438055  0.438055  0.062193  1
  Lu  Lu8  1  0.061028  0.061028  0.439734  1
  Lu  Lu9  1  0.180608  0.817264  0.817264  1
  Lu  Lu10  1  0.815102  0.189036  0.189036  1
  Lu  Lu11  1  0.817264  0.180608  0.817264  1
  Lu  Lu12  1  0.189036  0.815102  0.189036  1
  Lu  Lu13  1  0.817264  0.817264  0.180608  1
  Lu  Lu14  1  0.189036  0.189036  0.815102  1
  Th  Th15  1  0.595028  0.595028  0.595028  1
  In  In16  1  0.833705  0.833705  0.499767  1
  In  In17  1  0.833705  0.499767  0.833705  1
  In  In18  1  0.499767  0.833705  0.833705  1
  Ag  Ag19  1  0.835042  0.835042  0.835042  1
  Rh  Rh20  1  0.394221  0.394221  0.394221  1
  Rh  Rh21  1  0.388985  0.388985  0.822782  1
  Rh  Rh22  1  0.388985  0.822782  0.388985  1
  Rh  Rh23  1  0.822782  0.388985  0.388985  1
