# generated using pymatgen
data_PrLu2Th7(Si3C)2
_symmetry_space_group_name_H-M   'P 1'
_cell_length_a   6.36939300
_cell_length_b   8.78743512
_cell_length_c   8.78747900
_cell_angle_alpha   120.00028754
_cell_angle_beta   89.99777499
_cell_angle_gamma   90.00238179
_symmetry_Int_Tables_number   1
_chemical_formula_structural   PrLu2Th7(Si3C)2
_chemical_formula_sum   'Pr1 Lu2 Th7 Si6 C2'
_cell_volume   425.94532031
_cell_formula_units_Z   1
loop_
 _symmetry_equiv_pos_site_id
 _symmetry_equiv_pos_as_xyz
  1  'x, y, z'
loop_
 _atom_site_type_symbol
 _atom_site_label
 _atom_site_symmetry_multiplicity
 _atom_site_fract_x
 _atom_site_fract_y
 _atom_site_fract_z
 _atom_site_occupancy
  Pr  Pr0  1  0.000007  0.333352  0.666694  1
  Lu  Lu1  1  0.499995  0.666691  0.333360  1
  Lu  Lu2  1  0.999994  0.666646  0.333311  1
  Th  Th3  1  0.500001  0.333317  0.666654  1
  Th  Th4  1  0.750054  0.233062  0.000044  1
  Th  Th5  1  0.750079  0.766980  0.766934  1
  Th  Th6  1  0.750091  0.999956  0.233006  1
  Th  Th7  1  0.249930  0.766981  0.000041  1
  Th  Th8  1  0.249940  0.233059  0.233009  1
  Th  Th9  1  0.249913  0.999960  0.766943  1
  Si  Si10  1  0.747223  0.604823  0.011872  1
  Si  Si11  1  0.747261  0.407053  0.395179  1
  Si  Si12  1  0.747292  0.988125  0.592948  1
  Si  Si13  1  0.252770  0.407051  0.011874  1
  Si  Si14  1  0.252743  0.604821  0.592949  1
  Si  Si15  1  0.252701  0.988124  0.395176  1
  C  C16  1  0.500004  0.999999  0.000001  1
  C  C17  1  0.000004  0.000002  0.000001  1
