# generated using pymatgen
data_CsCe(CN2)2
_symmetry_space_group_name_H-M   'P 1'
_cell_length_a   6.83861000
_cell_length_b   8.38348100
_cell_length_c   10.15217600
_cell_angle_alpha   90.00000000
_cell_angle_beta   90.00000000
_cell_angle_gamma   90.00000000
_symmetry_Int_Tables_number   1
_chemical_formula_structural   CsCe(CN2)2
_chemical_formula_sum   'Cs4 Ce4 C8 N16'
_cell_volume   582.03802660
_cell_formula_units_Z   4
loop_
 _symmetry_equiv_pos_site_id
 _symmetry_equiv_pos_as_xyz
  1  'x, y, z'
loop_
 _atom_site_type_symbol
 _atom_site_label
 _atom_site_symmetry_multiplicity
 _atom_site_fract_x
 _atom_site_fract_y
 _atom_site_fract_z
 _atom_site_occupancy
  Cs  Cs0  1  0.250000  0.617657  0.000000  1
  Cs  Cs1  1  0.750000  0.882343  0.500000  1
  Cs  Cs2  1  0.750000  0.382343  0.000000  1
  Cs  Cs3  1  0.250000  0.117657  0.500000  1
  Ce  Ce4  1  0.250000  0.114385  0.000000  1
  Ce  Ce5  1  0.750000  0.385615  0.500000  1
  Ce  Ce6  1  0.750000  0.885615  0.000000  1
  Ce  Ce7  1  0.250000  0.614385  0.500000  1
  C  C8  1  0.401162  0.367645  0.738475  1
  C  C9  1  0.901162  0.132355  0.761525  1
  C  C10  1  0.598838  0.132355  0.238475  1
  C  C11  1  0.098838  0.367645  0.261525  1
  C  C12  1  0.598838  0.632355  0.261525  1
  C  C13  1  0.098838  0.867645  0.238475  1
  C  C14  1  0.401162  0.867645  0.761525  1
  C  C15  1  0.901162  0.632355  0.738475  1
  N  N16  1  0.356245  0.317843  0.847346  1
  N  N17  1  0.856245  0.182157  0.652654  1
  N  N18  1  0.643755  0.182157  0.347346  1
  N  N19  1  0.143755  0.317843  0.152654  1
  N  N20  1  0.643755  0.682157  0.152654  1
  N  N21  1  0.143755  0.817843  0.347346  1
  N  N22  1  0.356245  0.817843  0.652654  1
  N  N23  1  0.856245  0.682157  0.847346  1
  N  N24  1  0.446024  0.418904  0.627569  1
  N  N25  1  0.946024  0.081096  0.872431  1
  N  N26  1  0.553976  0.081096  0.127569  1
  N  N27  1  0.053976  0.418904  0.372431  1
  N  N28  1  0.553976  0.581096  0.372431  1
  N  N29  1  0.053976  0.918904  0.127569  1
  N  N30  1  0.446024  0.918904  0.872431  1
  N  N31  1  0.946024  0.581096  0.627569  1
