# generated using pymatgen
data_HoEr3(NiPt)2
_symmetry_space_group_name_H-M   'P 1'
_cell_length_a   4.33418200
_cell_length_b   5.47488617
_cell_length_c   7.01053542
_cell_angle_alpha   90.19522890
_cell_angle_beta   90.00000000
_cell_angle_gamma   90.00000000
_symmetry_Int_Tables_number   1
_chemical_formula_structural   HoEr3(NiPt)2
_chemical_formula_sum   'Ho1 Er3 Ni2 Pt2'
_cell_volume   166.35310258
_cell_formula_units_Z   1
loop_
 _symmetry_equiv_pos_site_id
 _symmetry_equiv_pos_as_xyz
  1  'x, y, z'
loop_
 _atom_site_type_symbol
 _atom_site_label
 _atom_site_symmetry_multiplicity
 _atom_site_fract_x
 _atom_site_fract_y
 _atom_site_fract_z
 _atom_site_occupancy
  Ho  Ho0  1  0.500000  0.614209  0.819019  1
  Er  Er1  1  0.000000  0.117220  0.679318  1
  Er  Er2  1  0.000000  0.882908  0.179786  1
  Er  Er3  1  0.500000  0.385599  0.319036  1
  Ni  Ni4  1  0.000000  0.605707  0.540152  1
  Ni  Ni5  1  0.000000  0.394128  0.043350  1
  Pt  Pt6  1  0.500000  0.885912  0.459287  1
  Pt  Pt7  1  0.500000  0.114317  0.960050  1
