# generated using pymatgen
data_Li12Sm11Ho(WO6)8
_symmetry_space_group_name_H-M   'P 1'
_cell_length_a   10.83523388
_cell_length_b   10.82319964
_cell_length_c   10.83523402
_cell_angle_alpha   109.49735628
_cell_angle_beta   109.46400443
_cell_angle_gamma   109.49735948
_symmetry_Int_Tables_number   1
_chemical_formula_structural   Li12Sm11Ho(WO6)8
_chemical_formula_sum   'Li12 Sm11 Ho1 W8 O48'
_cell_volume   977.61665076
_cell_formula_units_Z   1
loop_
 _symmetry_equiv_pos_site_id
 _symmetry_equiv_pos_as_xyz
  1  'x, y, z'
loop_
 _atom_site_type_symbol
 _atom_site_label
 _atom_site_symmetry_multiplicity
 _atom_site_fract_x
 _atom_site_fract_y
 _atom_site_fract_z
 _atom_site_occupancy
  Li  Li0  1  0.749337  0.374872  0.124922  1
  Li  Li1  1  0.875060  0.750000  0.125060  1
  Li  Li2  1  0.125536  0.374873  0.249951  1
  Li  Li3  1  0.624879  0.874888  0.249953  1
  Li  Li4  1  0.250049  0.125127  0.374464  1
  Li  Li5  1  0.624098  0.250000  0.374097  1
  Li  Li6  1  0.374940  0.750000  0.624940  1
  Li  Li7  1  0.750009  0.874888  0.624936  1
  Li  Li8  1  0.375077  0.125127  0.750663  1
  Li  Li9  1  0.875065  0.625113  0.749991  1
  Li  Li10  1  0.125903  0.249999  0.875903  1
  Li  Li11  1  0.250047  0.625112  0.875121  1
  Sm  Sm12  1  0.250574  0.876139  0.125263  1
  Sm  Sm13  1  0.875117  0.125142  0.250212  1
  Sm  Sm14  1  0.374737  0.623862  0.249425  1
  Sm  Sm15  1  0.125000  0.750000  0.374999  1
  Sm  Sm16  1  0.749124  0.623861  0.374436  1
  Sm  Sm17  1  0.875000  0.250000  0.625000  1
  Sm  Sm18  1  0.249787  0.374858  0.624884  1
  Sm  Sm19  1  0.625072  0.374858  0.749976  1
  Sm  Sm20  1  0.125564  0.876139  0.750876  1
  Sm  Sm21  1  0.750024  0.125142  0.874928  1
  Sm  Sm22  1  0.625001  0.750000  0.875000  1
  Ho  Ho23  1  0.375000  0.250000  0.125000  1
  W  W24  1  0.001815  0.001715  0.001173  1
  W  W25  1  0.000230  0.500021  0.000096  1
  W  W26  1  0.499459  0.498285  0.000100  1
  W  W27  1  0.499900  0.001715  0.000541  1
  W  W28  1  0.499904  0.999979  0.499770  1
  W  W29  1  0.999791  0.500021  0.499925  1
  W  W30  1  0.000075  0.999979  0.500209  1
  W  W31  1  0.498827  0.498285  0.498185  1
  O  O32  1  0.328122  0.405363  0.027178  1
  O  O33  1  0.197985  0.616633  0.025117  1
  O  O34  1  0.698149  0.173229  0.081312  1
  O  O35  1  0.884434  0.908783  0.081294  1
  O  O36  1  0.615974  0.919960  0.092266  1
  O  O37  1  0.975081  0.173230  0.091917  1
  O  O38  1  0.589524  0.416275  0.116908  1
  O  O39  1  0.025304  0.698065  0.116829  1
  O  O40  1  0.200634  0.083726  0.173249  1
  O  O41  1  0.472823  0.094637  0.171878  1
  O  O42  1  0.116882  0.525032  0.197781  1
  O  O43  1  0.580727  0.672121  0.197476  1
  O  O44  1  0.326750  0.416275  0.299366  1
  O  O45  1  0.474884  0.883368  0.302015  1
  O  O46  1  0.908151  0.525032  0.327251  1
  O  O47  1  0.918765  0.801935  0.327239  1
  O  O48  1  0.577240  0.405362  0.378185  1
  O  O49  1  0.302219  0.974968  0.383119  1
  O  O50  1  0.827390  0.024957  0.408373  1
  O  O51  1  0.081016  0.383366  0.408262  1
  O  O52  1  0.827014  0.302099  0.418807  1
  O  O53  1  0.091738  0.116634  0.418985  1
  O  O54  1  0.591394  0.672121  0.474646  1
  O  O55  1  0.383170  0.801935  0.474696  1
  O  O56  1  0.616709  0.197901  0.524916  1
  O  O57  1  0.408082  0.326770  0.524919  1
  O  O58  1  0.172760  0.698065  0.581235  1
  O  O59  1  0.908484  0.883368  0.581352  1
  O  O60  1  0.918647  0.616632  0.591516  1
  O  O61  1  0.172749  0.974968  0.591850  1
  O  O62  1  0.697566  0.024957  0.616583  1
  O  O63  1  0.418707  0.591218  0.615567  1
  O  O64  1  0.081193  0.197901  0.672986  1
  O  O65  1  0.091626  0.475044  0.672611  1
  O  O66  1  0.524896  0.116633  0.697650  1
  O  O67  1  0.672306  0.580039  0.696013  1
  O  O68  1  0.418688  0.326770  0.801851  1
  O  O69  1  0.883418  0.475044  0.802434  1
  O  O70  1  0.803987  0.919960  0.827694  1
  O  O71  1  0.524348  0.908782  0.827488  1
  O  O72  1  0.975083  0.302099  0.883290  1
  O  O73  1  0.407734  0.580040  0.884027  1
  O  O74  1  0.383091  0.083725  0.910476  1
  O  O75  1  0.025355  0.827880  0.908607  1
  O  O76  1  0.121814  0.094637  0.922759  1
  O  O77  1  0.302524  0.827879  0.919273  1
  O  O78  1  0.802350  0.383366  0.975104  1
  O  O79  1  0.672513  0.591218  0.975652  1
