# generated using pymatgen
data_Tb12Zn9Ga3C4
_symmetry_space_group_name_H-M   'P 1'
_cell_length_a   9.19858760
_cell_length_b   9.19858842
_cell_length_c   9.23638159
_cell_angle_alpha   60.13527863
_cell_angle_beta   60.13527698
_cell_angle_gamma   60.00001094
_symmetry_Int_Tables_number   1
_chemical_formula_structural   Tb12Zn9Ga3C4
_chemical_formula_sum   'Tb12 Zn9 Ga3 C4'
_cell_volume   553.75062980
_cell_formula_units_Z   1
loop_
 _symmetry_equiv_pos_site_id
 _symmetry_equiv_pos_as_xyz
  1  'x, y, z'
loop_
 _atom_site_type_symbol
 _atom_site_label
 _atom_site_symmetry_multiplicity
 _atom_site_fract_x
 _atom_site_fract_y
 _atom_site_fract_z
 _atom_site_occupancy
  Tb  Tb0  1  0.446916  0.446916  0.052828  1
  Tb  Tb1  1  0.053340  0.446916  0.052828  1
  Tb  Tb2  1  0.446916  0.053340  0.052828  1
  Tb  Tb3  1  0.052607  0.052607  0.447290  1
  Tb  Tb4  1  0.447496  0.052607  0.447290  1
  Tb  Tb5  1  0.052607  0.447496  0.447290  1
  Tb  Tb6  1  0.803084  0.803084  0.197172  1
  Tb  Tb7  1  0.196660  0.803084  0.197172  1
  Tb  Tb8  1  0.803084  0.196660  0.197172  1
  Tb  Tb9  1  0.197393  0.197393  0.802710  1
  Tb  Tb10  1  0.802504  0.197393  0.802710  1
  Tb  Tb11  1  0.197393  0.802504  0.802710  1
  Zn  Zn12  1  0.827225  0.827225  0.518324  1
  Zn  Zn13  1  0.825592  0.519301  0.829516  1
  Zn  Zn14  1  0.519301  0.825592  0.829516  1
  Zn  Zn15  1  0.825592  0.825592  0.829516  1
  Zn  Zn16  1  0.422775  0.422775  0.731676  1
  Zn  Zn17  1  0.424408  0.730699  0.420484  1
  Zn  Zn18  1  0.730699  0.424408  0.420484  1
  Zn  Zn19  1  0.424408  0.424408  0.420484  1
  Zn  Zn20  1  0.625000  0.625000  0.125000  1
  Ga  Ga21  1  0.625000  0.125000  0.625000  1
  Ga  Ga22  1  0.125000  0.625000  0.625000  1
  Ga  Ga23  1  0.625000  0.625000  0.625000  1
  C  C24  1  0.125000  0.125000  0.625000  1
  C  C25  1  0.125000  0.625000  0.125000  1
  C  C26  1  0.625000  0.125000  0.125000  1
  C  C27  1  0.125000  0.125000  0.125000  1
