# generated using pymatgen
data_PmTiPF
_symmetry_space_group_name_H-M   'P 1'
_cell_length_a   3.83499600
_cell_length_b   3.83499600
_cell_length_c   9.16538500
_cell_angle_alpha   90.00027443
_cell_angle_beta   90.00027443
_cell_angle_gamma   89.99674303
_symmetry_Int_Tables_number   1
_chemical_formula_structural   PmTiPF
_chemical_formula_sum   'Pm2 Ti2 P2 F2'
_cell_volume   134.79709810
_cell_formula_units_Z   2
loop_
 _symmetry_equiv_pos_site_id
 _symmetry_equiv_pos_as_xyz
  1  'x, y, z'
loop_
 _atom_site_type_symbol
 _atom_site_label
 _atom_site_symmetry_multiplicity
 _atom_site_fract_x
 _atom_site_fract_y
 _atom_site_fract_z
 _atom_site_occupancy
  Pm  Pm0  1  0.250004  0.250004  0.174421  1
  Pm  Pm1  1  0.749999  0.749999  0.825616  1
  Ti  Ti2  1  0.749992  0.250008  0.499942  1
  Ti  Ti3  1  0.250008  0.749992  0.499942  1
  P  P4  1  0.750003  0.750003  0.312406  1
  P  P5  1  0.250000  0.250000  0.687669  1
  F  F6  1  0.750003  0.249999  0.000003  1
  F  F7  1  0.249999  0.750003  0.000003  1
