# generated using pymatgen
data_Er4Al3GaOsPd3
_symmetry_space_group_name_H-M   'P 1'
_cell_length_a   4.33272800
_cell_length_b   6.84128093
_cell_length_c   7.86718240
_cell_angle_alpha   90.10139490
_cell_angle_beta   90.00000000
_cell_angle_gamma   90.00000000
_symmetry_Int_Tables_number   1
_chemical_formula_structural   Er4Al3GaOsPd3
_chemical_formula_sum   'Er4 Al3 Ga1 Os1 Pd3'
_cell_volume   233.19400959
_cell_formula_units_Z   1
loop_
 _symmetry_equiv_pos_site_id
 _symmetry_equiv_pos_as_xyz
  1  'x, y, z'
loop_
 _atom_site_type_symbol
 _atom_site_label
 _atom_site_symmetry_multiplicity
 _atom_site_fract_x
 _atom_site_fract_y
 _atom_site_fract_z
 _atom_site_occupancy
  Er  Er0  1  0.250000  0.034245  0.321276  1
  Er  Er1  1  0.250000  0.534682  0.178749  1
  Er  Er2  1  0.750000  0.978972  0.681255  1
  Er  Er3  1  0.750000  0.465161  0.814877  1
  Al  Al4  1  0.250000  0.146083  0.937212  1
  Al  Al5  1  0.250000  0.636436  0.560550  1
  Al  Al6  1  0.750000  0.354312  0.442943  1
  Ga  Ga7  1  0.750000  0.852942  0.061088  1
  Os  Os8  1  0.250000  0.264566  0.623450  1
  Pd  Pd9  1  0.250000  0.770610  0.875464  1
  Pd  Pd10  1  0.750000  0.729361  0.380750  1
  Pd  Pd11  1  0.750000  0.232628  0.122388  1
