# generated using pymatgen
data_NaHoMn3Ni9As7
_symmetry_space_group_name_H-M   'P 1'
_cell_length_a   9.48034800
_cell_length_b   9.48034919
_cell_length_c   3.80689500
_cell_angle_alpha   90.00000000
_cell_angle_beta   90.00000000
_cell_angle_gamma   120.00000283
_symmetry_Int_Tables_number   1
_chemical_formula_structural   NaHoMn3Ni9As7
_chemical_formula_sum   'Na1 Ho1 Mn3 Ni9 As7'
_cell_volume   296.31260819
_cell_formula_units_Z   1
loop_
 _symmetry_equiv_pos_site_id
 _symmetry_equiv_pos_as_xyz
  1  'x, y, z'
loop_
 _atom_site_type_symbol
 _atom_site_label
 _atom_site_symmetry_multiplicity
 _atom_site_fract_x
 _atom_site_fract_y
 _atom_site_fract_z
 _atom_site_occupancy
  Na  Na0  1  0.666667  0.333333  0.500000  1
  Ho  Ho1  1  0.333333  0.666667  0.000000  1
  Mn  Mn2  1  0.220711  0.119835  0.500000  1
  Mn  Mn3  1  0.880165  0.100876  0.500000  1
  Mn  Mn4  1  0.899124  0.779289  0.500000  1
  Ni  Ni5  1  0.122825  0.281515  0.000000  1
  Ni  Ni6  1  0.718485  0.841310  0.000000  1
  Ni  Ni7  1  0.158690  0.877175  0.000000  1
  Ni  Ni8  1  0.429641  0.375185  0.000000  1
  Ni  Ni9  1  0.624815  0.054457  0.000000  1
  Ni  Ni10  1  0.945543  0.570359  0.000000  1
  Ni  Ni11  1  0.050339  0.429814  0.500000  1
  Ni  Ni12  1  0.570186  0.620524  0.500000  1
  Ni  Ni13  1  0.379476  0.949661  0.500000  1
  As  As14  1  0.294553  0.410486  0.500000  1
  As  As15  1  0.589514  0.884067  0.500000  1
  As  As16  1  0.115933  0.705447  0.500000  1
  As  As17  1  0.415733  0.119662  0.000000  1
  As  As18  1  0.880338  0.296072  0.000000  1
  As  As19  1  0.703928  0.584267  0.000000  1
  As  As20  1  0.000000  0.000000  0.000000  1
