# generated using pymatgen
data_Sr13Be2Si12O
_symmetry_space_group_name_H-M   'P 1'
_cell_length_a   11.32055051
_cell_length_b   11.32055059
_cell_length_c   16.93551910
_cell_angle_alpha   55.59689881
_cell_angle_beta   55.59689936
_cell_angle_gamma   24.50899419
_symmetry_Int_Tables_number   1
_chemical_formula_structural   Sr13Be2Si12O
_chemical_formula_sum   'Sr13 Be2 Si12 O1'
_cell_volume   734.59800205
_cell_formula_units_Z   1
loop_
 _symmetry_equiv_pos_site_id
 _symmetry_equiv_pos_as_xyz
  1  'x, y, z'
loop_
 _atom_site_type_symbol
 _atom_site_label
 _atom_site_symmetry_multiplicity
 _atom_site_fract_x
 _atom_site_fract_y
 _atom_site_fract_z
 _atom_site_occupancy
  Sr  Sr0  1  0.190774  0.190774  0.855595  1
  Sr  Sr1  1  0.997984  0.997984  0.351988  1
  Sr  Sr2  1  0.997259  0.997259  0.121525  1
  Sr  Sr3  1  0.187358  0.187358  0.616352  1
  Sr  Sr4  1  0.183607  0.183607  0.104934  1
  Sr  Sr5  1  0.153473  0.153473  0.384539  1
  Sr  Sr6  1  0.498445  0.498445  0.502216  1
  Sr  Sr7  1  0.844448  0.844448  0.620711  1
  Sr  Sr8  1  0.809562  0.809562  0.388869  1
  Sr  Sr9  1  0.817779  0.817779  0.892316  1
  Sr  Sr10  1  0.812992  0.812992  0.136621  1
  Sr  Sr11  1  0.002891  0.002891  0.880828  1
  Sr  Sr12  1  0.001977  0.001977  0.646832  1
  Be  Be13  1  0.437302  0.437302  0.809264  1
  Be  Be14  1  0.565157  0.565157  0.951161  1
  Si  Si15  1  0.430871  0.430871  0.290206  1
  Si  Si16  1  0.564856  0.564856  0.188479  1
  Si  Si17  1  0.562819  0.562819  0.714936  1
  Si  Si18  1  0.440685  0.440685  0.044371  1
  Si  Si19  1  0.630354  0.630354  0.017195  1
  Si  Si20  1  0.636047  0.636047  0.781457  1
  Si  Si21  1  0.360819  0.360819  0.221654  1
  Si  Si22  1  0.371915  0.371915  0.740706  1
  Si  Si23  1  0.368221  0.368221  0.460419  1
  Si  Si24  1  0.632153  0.632153  0.540073  1
  Si  Si25  1  0.629960  0.629960  0.261940  1
  Si  Si26  1  0.369241  0.369241  0.976018  1
  O  O27  1  0.001053  0.001053  0.498797  1
