# generated using pymatgen
data_Ho3B7Ru
_symmetry_space_group_name_H-M   'P 1'
_cell_length_a   8.02946239
_cell_length_b   8.02946176
_cell_length_c   9.31235200
_cell_angle_alpha   90.00000000
_cell_angle_beta   90.00000000
_cell_angle_gamma   154.75197300
_symmetry_Int_Tables_number   1
_chemical_formula_structural   Ho3B7Ru
_chemical_formula_sum   'Ho6 B14 Ru2'
_cell_volume   256.08821982
_cell_formula_units_Z   2
loop_
 _symmetry_equiv_pos_site_id
 _symmetry_equiv_pos_as_xyz
  1  'x, y, z'
loop_
 _atom_site_type_symbol
 _atom_site_label
 _atom_site_symmetry_multiplicity
 _atom_site_fract_x
 _atom_site_fract_y
 _atom_site_fract_z
 _atom_site_occupancy
  Ho  Ho0  1  0.255658  0.744342  0.250000  1
  Ho  Ho1  1  0.744342  0.255658  0.750000  1
  Ho  Ho2  1  0.605928  0.394072  0.060120  1
  Ho  Ho3  1  0.394072  0.605928  0.939880  1
  Ho  Ho4  1  0.394072  0.605928  0.560120  1
  Ho  Ho5  1  0.605928  0.394072  0.439880  1
  B  B6  1  0.979252  0.020748  0.096237  1
  B  B7  1  0.020748  0.979252  0.903763  1
  B  B8  1  0.020748  0.979252  0.596237  1
  B  B9  1  0.979252  0.020748  0.403763  1
  B  B10  1  0.772797  0.227203  0.033831  1
  B  B11  1  0.227203  0.772797  0.966169  1
  B  B12  1  0.227203  0.772797  0.533831  1
  B  B13  1  0.772797  0.227203  0.466169  1
  B  B14  1  0.867958  0.132042  0.150897  1
  B  B15  1  0.132042  0.867958  0.849103  1
  B  B16  1  0.132042  0.867958  0.650897  1
  B  B17  1  0.867958  0.132042  0.349103  1
  B  B18  1  0.043213  0.956787  0.250000  1
  B  B19  1  0.956787  0.043213  0.750000  1
  Ru  Ru20  1  0.445874  0.554126  0.250000  1
  Ru  Ru21  1  0.554126  0.445874  0.750000  1
