# generated using pymatgen
data_Nb12Al16Cu6IrPt
_symmetry_space_group_name_H-M   'P 1'
_cell_length_a   8.80720938
_cell_length_b   8.87738752
_cell_length_c   8.20409061
_cell_angle_alpha   89.97330997
_cell_angle_beta   89.98367365
_cell_angle_gamma   121.03710382
_symmetry_Int_Tables_number   1
_chemical_formula_structural   Nb12Al16Cu6IrPt
_chemical_formula_sum   'Nb12 Al16 Cu6 Ir1 Pt1'
_cell_volume   549.60452896
_cell_formula_units_Z   1
loop_
 _symmetry_equiv_pos_site_id
 _symmetry_equiv_pos_as_xyz
  1  'x, y, z'
loop_
 _atom_site_type_symbol
 _atom_site_label
 _atom_site_symmetry_multiplicity
 _atom_site_fract_x
 _atom_site_fract_y
 _atom_site_fract_z
 _atom_site_occupancy
  Nb  Nb0  1  0.328380  0.990611  0.067532  1
  Nb  Nb1  1  0.671620  0.009389  0.932468  1
  Nb  Nb2  1  0.996747  0.331381  0.070309  1
  Nb  Nb3  1  0.668813  0.008889  0.567197  1
  Nb  Nb4  1  0.996586  0.333127  0.430326  1
  Nb  Nb5  1  0.003253  0.668619  0.929691  1
  Nb  Nb6  1  0.331187  0.991111  0.432803  1
  Nb  Nb7  1  0.003414  0.666873  0.569674  1
  Nb  Nb8  1  0.668340  0.664402  0.067026  1
  Nb  Nb9  1  0.331660  0.335598  0.932974  1
  Nb  Nb10  1  0.334839  0.338340  0.567519  1
  Nb  Nb11  1  0.665161  0.661660  0.432481  1
  Al  Al12  1  0.344593  0.847993  0.750003  1
  Al  Al13  1  0.653285  0.504695  0.749993  1
  Al  Al14  1  0.655407  0.152007  0.249997  1
  Al  Al15  1  0.346715  0.495305  0.250007  1
  Al  Al16  1  0.844866  0.342493  0.750028  1
  Al  Al17  1  0.155134  0.657507  0.249972  1
  Al  Al18  1  0.340312  0.665386  0.505232  1
  Al  Al19  1  0.659688  0.334614  0.494768  1
  Al  Al20  1  0.659582  0.334588  0.005187  1
  Al  Al21  1  0.340418  0.665412  0.994813  1
  Al  Al22  1  0.180008  0.009721  0.751077  1
  Al  Al23  1  0.819992  0.990279  0.248923  1
  Al  Al24  1  0.009168  0.180810  0.750906  1
  Al  Al25  1  0.990832  0.819190  0.249094  1
  Al  Al26  1  0.823831  0.833641  0.751173  1
  Al  Al27  1  0.176169  0.166359  0.248827  1
  Cu  Cu28  1  0.168331  0.500667  0.749789  1
  Cu  Cu29  1  0.831669  0.499333  0.250211  1
  Cu  Cu30  1  0.505452  0.671962  0.750113  1
  Cu  Cu31  1  0.503401  0.171193  0.749877  1
  Cu  Cu32  1  0.494548  0.328038  0.249887  1
  Cu  Cu33  1  0.496599  0.828807  0.250123  1
  Ir  Ir34  1  0.000000  0.000000  0.000000  1
  Pt  Pt35  1  0.000000  0.000000  0.500000  1
