# generated using pymatgen
data_TiMn7Nb3Ga
_symmetry_space_group_name_H-M   'P 1'
_cell_length_a   4.80779100
_cell_length_b   4.80779063
_cell_length_c   8.00372900
_cell_angle_alpha   90.00000000
_cell_angle_beta   90.00000000
_cell_angle_gamma   119.99999569
_symmetry_Int_Tables_number   1
_chemical_formula_structural   TiMn7Nb3Ga
_chemical_formula_sum   'Ti1 Mn7 Nb3 Ga1'
_cell_volume   160.21905007
_cell_formula_units_Z   1
loop_
 _symmetry_equiv_pos_site_id
 _symmetry_equiv_pos_as_xyz
  1  'x, y, z'
loop_
 _atom_site_type_symbol
 _atom_site_label
 _atom_site_symmetry_multiplicity
 _atom_site_fract_x
 _atom_site_fract_y
 _atom_site_fract_z
 _atom_site_occupancy
  Ti  Ti0  1  0.666667  0.333333  0.440936  1
  Mn  Mn1  1  0.657039  0.828519  0.256012  1
  Mn  Mn2  1  0.171481  0.828519  0.256012  1
  Mn  Mn3  1  0.171481  0.342961  0.256012  1
  Mn  Mn4  1  0.346826  0.173414  0.744375  1
  Mn  Mn5  1  0.826586  0.173414  0.744375  1
  Mn  Mn6  1  0.826586  0.653174  0.744375  1
  Mn  Mn7  1  0.000000  0.000000  0.499918  1
  Nb  Nb8  1  0.666667  0.333333  0.075543  1
  Nb  Nb9  1  0.333333  0.666667  0.927489  1
  Nb  Nb10  1  0.333333  0.666667  0.555760  1
  Ga  Ga11  1  0.000000  0.000000  0.999194  1
