# generated using pymatgen
data_CaLa4Tb2CoI12
_symmetry_space_group_name_H-M   'P 1'
_cell_length_a   10.09900158
_cell_length_b   10.09342014
_cell_length_c   9.95800062
_cell_angle_alpha   107.27699858
_cell_angle_beta   106.71123583
_cell_angle_gamma   106.65137038
_symmetry_Int_Tables_number   1
_chemical_formula_structural   CaLa4Tb2CoI12
_chemical_formula_sum   'Ca1 La4 Tb2 Co1 I12'
_cell_volume   848.07738277
_cell_formula_units_Z   1
loop_
 _symmetry_equiv_pos_site_id
 _symmetry_equiv_pos_as_xyz
  1  'x, y, z'
loop_
 _atom_site_type_symbol
 _atom_site_label
 _atom_site_symmetry_multiplicity
 _atom_site_fract_x
 _atom_site_fract_y
 _atom_site_fract_z
 _atom_site_occupancy
  Ca  Ca0  1  0.500129  0.500669  0.501892  1
  La  La1  1  0.023022  0.092322  0.286775  1
  La  La2  1  0.096443  0.307530  0.023814  1
  La  La3  1  0.307667  0.024084  0.100731  1
  La  La4  1  0.975195  0.902325  0.711226  1
  Tb  Tb5  1  0.900031  0.705681  0.974014  1
  Tb  Tb6  1  0.705450  0.974578  0.901980  1
  Co  Co7  1  0.999052  0.998499  0.998471  1
  I  I8  1  0.161361  0.463486  0.388630  1
  I  I9  1  0.461301  0.383264  0.157979  1
  I  I10  1  0.385140  0.162873  0.467456  1
  I  I11  1  0.839601  0.536920  0.624764  1
  I  I12  1  0.550452  0.628088  0.850327  1
  I  I13  1  0.615730  0.843230  0.545608  1
  I  I14  1  0.678210  0.069830  0.217026  1
  I  I15  1  0.071696  0.223109  0.674144  1
  I  I16  1  0.211479  0.676401  0.068113  1
  I  I17  1  0.326785  0.926834  0.771120  1
  I  I18  1  0.924324  0.767112  0.310733  1
  I  I19  1  0.766935  0.313164  0.925196  1
