# generated using pymatgen
data_Na4ZrNpTe6
_symmetry_space_group_name_H-M   'P 1'
_cell_length_a   7.67375075
_cell_length_b   7.67374978
_cell_length_c   7.91511834
_cell_angle_alpha   99.42934410
_cell_angle_beta   99.42935190
_cell_angle_gamma   120.04920488
_symmetry_Int_Tables_number   1
_chemical_formula_structural   Na4ZrNpTe6
_chemical_formula_sum   'Na4 Zr1 Np1 Te6'
_cell_volume   381.14166054
_cell_formula_units_Z   1
loop_
 _symmetry_equiv_pos_site_id
 _symmetry_equiv_pos_as_xyz
  1  'x, y, z'
loop_
 _atom_site_type_symbol
 _atom_site_label
 _atom_site_symmetry_multiplicity
 _atom_site_fract_x
 _atom_site_fract_y
 _atom_site_fract_z
 _atom_site_occupancy
  Na  Na0  1  0.000023  0.999977  0.000000  1
  Na  Na1  1  0.842584  0.157416  0.500000  1
  Na  Na2  1  0.500463  0.499537  0.500000  1
  Na  Na3  1  0.156823  0.843177  0.500000  1
  Zr  Zr4  1  0.331023  0.668977  0.000000  1
  Np  Np5  1  0.667757  0.332243  0.000000  1
  Te  Te6  1  0.715522  0.725644  0.228099  1
  Te  Te7  1  0.430384  0.067296  0.230255  1
  Te  Te8  1  0.089704  0.441343  0.228998  1
  Te  Te9  1  0.932704  0.569616  0.769744  1
  Te  Te10  1  0.558657  0.910296  0.771001  1
  Te  Te11  1  0.274356  0.284478  0.771901  1
