# generated using pymatgen
data_Dy8CdCoHgRu
_symmetry_space_group_name_H-M   'P 1'
_cell_length_a   9.52099805
_cell_length_b   9.57843031
_cell_length_c   9.57803487
_cell_angle_alpha   59.97087785
_cell_angle_beta   59.83573219
_cell_angle_gamma   59.81276332
_symmetry_Int_Tables_number   1
_chemical_formula_structural   Dy8CdCoHgRu
_chemical_formula_sum   'Dy16 Cd2 Co2 Hg2 Ru2'
_cell_volume   615.86314204
_cell_formula_units_Z   2
loop_
 _symmetry_equiv_pos_site_id
 _symmetry_equiv_pos_as_xyz
  1  'x, y, z'
loop_
 _atom_site_type_symbol
 _atom_site_label
 _atom_site_symmetry_multiplicity
 _atom_site_fract_x
 _atom_site_fract_y
 _atom_site_fract_z
 _atom_site_occupancy
  Dy  Dy0  1  0.148855  0.538338  0.158204  1
  Dy  Dy1  1  0.693640  0.310819  0.686707  1
  Dy  Dy2  1  0.690350  0.311025  0.311427  1
  Dy  Dy3  1  0.937062  0.563004  0.565022  1
  Dy  Dy4  1  0.544998  0.153683  0.153170  1
  Dy  Dy5  1  0.148401  0.157977  0.540521  1
  Dy  Dy6  1  0.941756  0.935241  0.562477  1
  Dy  Dy7  1  0.312588  0.685262  0.311487  1
  Dy  Dy8  1  0.560567  0.940279  0.940334  1
  Dy  Dy9  1  0.561179  0.936905  0.561093  1
  Dy  Dy10  1  0.693136  0.685530  0.312074  1
  Dy  Dy11  1  0.561458  0.560684  0.937075  1
  Dy  Dy12  1  0.941446  0.561128  0.935606  1
  Dy  Dy13  1  0.313417  0.689137  0.689494  1
  Dy  Dy14  1  0.147722  0.155400  0.155326  1
  Dy  Dy15  1  0.311870  0.310413  0.686406  1
  Cd  Cd16  1  0.920722  0.919591  0.240734  1
  Cd  Cd17  1  0.239771  0.920350  0.920273  1
  Co  Co18  1  0.919762  0.358262  0.359034  1
  Co  Co19  1  0.359000  0.360116  0.360621  1
  Hg  Hg20  1  0.916876  0.253043  0.916076  1
  Hg  Hg21  1  0.918008  0.914622  0.916487  1
  Ru  Ru22  1  0.358810  0.359127  0.920300  1
  Ru  Ru23  1  0.358604  0.920065  0.360053  1
