# generated using pymatgen
data_Yb2Sn4PdRu
_symmetry_space_group_name_H-M   'P 1'
_cell_length_a   5.85744767
_cell_length_b   5.85744792
_cell_length_c   7.63847700
_cell_angle_alpha   90.00000000
_cell_angle_beta   90.00000000
_cell_angle_gamma   136.04652485
_symmetry_Int_Tables_number   1
_chemical_formula_structural   Yb2Sn4PdRu
_chemical_formula_sum   'Yb2 Sn4 Pd1 Ru1'
_cell_volume   181.89862780
_cell_formula_units_Z   1
loop_
 _symmetry_equiv_pos_site_id
 _symmetry_equiv_pos_as_xyz
  1  'x, y, z'
loop_
 _atom_site_type_symbol
 _atom_site_label
 _atom_site_symmetry_multiplicity
 _atom_site_fract_x
 _atom_site_fract_y
 _atom_site_fract_z
 _atom_site_occupancy
  Yb  Yb0  1  0.430529  0.569471  0.250000  1
  Yb  Yb1  1  0.569534  0.430466  0.750000  1
  Sn  Sn2  1  0.858736  0.141264  0.549230  1
  Sn  Sn3  1  0.141999  0.858001  0.456891  1
  Sn  Sn4  1  0.858736  0.141264  0.950769  1
  Sn  Sn5  1  0.141999  0.858001  0.043109  1
  Pd  Pd6  1  0.708002  0.291998  0.250000  1
  Ru  Ru7  1  0.290465  0.709535  0.750000  1
