# generated using pymatgen
data_Hf3ScNi11Pt
_symmetry_space_group_name_H-M   'P 1'
_cell_length_a   5.30375891
_cell_length_b   5.30435603
_cell_length_c   8.58384200
_cell_angle_alpha   90.00000000
_cell_angle_beta   90.00000000
_cell_angle_gamma   120.00373847
_symmetry_Int_Tables_number   1
_chemical_formula_structural   Hf3ScNi11Pt
_chemical_formula_sum   'Hf3 Sc1 Ni11 Pt1'
_cell_volume   209.12811642
_cell_formula_units_Z   1
loop_
 _symmetry_equiv_pos_site_id
 _symmetry_equiv_pos_as_xyz
  1  'x, y, z'
loop_
 _atom_site_type_symbol
 _atom_site_label
 _atom_site_symmetry_multiplicity
 _atom_site_fract_x
 _atom_site_fract_y
 _atom_site_fract_z
 _atom_site_occupancy
  Hf  Hf0  1  0.003776  0.001889  0.495569  1
  Hf  Hf1  1  0.333271  0.666636  0.250000  1
  Hf  Hf2  1  0.003776  0.001889  0.004431  1
  Sc  Sc3  1  0.664482  0.332240  0.750000  1
  Ni  Ni4  1  0.169433  0.346839  0.750000  1
  Ni  Ni5  1  0.000975  0.500488  0.002031  1
  Ni  Ni6  1  0.823793  0.644931  0.250000  1
  Ni  Ni7  1  0.359980  0.179991  0.250000  1
  Ni  Ni8  1  0.499495  0.496652  0.004780  1
  Ni  Ni9  1  0.823793  0.178863  0.250000  1
  Ni  Ni10  1  0.499495  0.496652  0.495220  1
  Ni  Ni11  1  0.499495  0.002842  0.495220  1
  Ni  Ni12  1  0.169433  0.822592  0.750000  1
  Ni  Ni13  1  0.499495  0.002842  0.004780  1
  Ni  Ni14  1  0.000975  0.500488  0.497969  1
  Pt  Pt15  1  0.648335  0.824167  0.750000  1
