# generated using pymatgen
data_YHo9Ag3Ru
_symmetry_space_group_name_H-M   'P 1'
_cell_length_a   9.46154101
_cell_length_b   9.46154142
_cell_length_c   9.60815800
_cell_angle_alpha   90.00000000
_cell_angle_beta   90.00000000
_cell_angle_gamma   120.00417501
_symmetry_Int_Tables_number   1
_chemical_formula_structural   YHo9Ag3Ru
_chemical_formula_sum   'Y2 Ho18 Ag6 Ru2'
_cell_volume   744.86276729
_cell_formula_units_Z   2
loop_
 _symmetry_equiv_pos_site_id
 _symmetry_equiv_pos_as_xyz
  1  'x, y, z'
loop_
 _atom_site_type_symbol
 _atom_site_label
 _atom_site_symmetry_multiplicity
 _atom_site_fract_x
 _atom_site_fract_y
 _atom_site_fract_z
 _atom_site_occupancy
  Y  Y0  1  0.458915  0.917596  0.750000  1
  Y  Y1  1  0.082404  0.541085  0.750000  1
  Ho  Ho2  1  0.000006  0.999994  0.499997  1
  Ho  Ho3  1  0.000006  0.999994  0.000003  1
  Ho  Ho4  1  0.208656  0.791344  0.440863  1
  Ho  Ho5  1  0.208862  0.417437  0.440980  1
  Ho  Ho6  1  0.582563  0.791138  0.440980  1
  Ho  Ho7  1  0.791346  0.208654  0.558431  1
  Ho  Ho8  1  0.791160  0.582711  0.558546  1
  Ho  Ho9  1  0.417289  0.208840  0.558546  1
  Ho  Ho10  1  0.791346  0.208654  0.941569  1
  Ho  Ho11  1  0.791160  0.582711  0.941454  1
  Ho  Ho12  1  0.417289  0.208840  0.941454  1
  Ho  Ho13  1  0.208656  0.791344  0.059137  1
  Ho  Ho14  1  0.208862  0.417437  0.059020  1
  Ho  Ho15  1  0.582563  0.791138  0.059020  1
  Ho  Ho16  1  0.541262  0.458738  0.250000  1
  Ho  Ho17  1  0.541259  0.082472  0.250000  1
  Ho  Ho18  1  0.917528  0.458741  0.250000  1
  Ho  Ho19  1  0.459036  0.540964  0.750000  1
  Ag  Ag20  1  0.883799  0.116201  0.250000  1
  Ag  Ag21  1  0.883800  0.767652  0.250000  1
  Ag  Ag22  1  0.232348  0.116200  0.250000  1
  Ag  Ag23  1  0.115665  0.884335  0.750000  1
  Ag  Ag24  1  0.116165  0.231797  0.750000  1
  Ag  Ag25  1  0.768203  0.883835  0.750000  1
  Ru  Ru26  1  0.333343  0.666657  0.250000  1
  Ru  Ru27  1  0.666510  0.333490  0.750000  1
