# generated using pymatgen
data_Nd5Sn2PbCl
_symmetry_space_group_name_H-M   'P 1'
_cell_length_a   9.48034200
_cell_length_b   9.49473637
_cell_length_c   6.79102500
_cell_angle_alpha   90.00000000
_cell_angle_beta   90.00000000
_cell_angle_gamma   119.94986256
_symmetry_Int_Tables_number   1
_chemical_formula_structural   Nd5Sn2PbCl
_chemical_formula_sum   'Nd10 Sn4 Pb2 Cl2'
_cell_volume   529.65377033
_cell_formula_units_Z   2
loop_
 _symmetry_equiv_pos_site_id
 _symmetry_equiv_pos_as_xyz
  1  'x, y, z'
loop_
 _atom_site_type_symbol
 _atom_site_label
 _atom_site_symmetry_multiplicity
 _atom_site_fract_x
 _atom_site_fract_y
 _atom_site_fract_z
 _atom_site_occupancy
  Nd  Nd0  1  0.257492  0.000000  0.250000  1
  Nd  Nd1  1  0.742508  0.000000  0.750000  1
  Nd  Nd2  1  0.002204  0.262133  0.250000  1
  Nd  Nd3  1  0.997796  0.737867  0.750000  1
  Nd  Nd4  1  0.740071  0.737867  0.250000  1
  Nd  Nd5  1  0.259929  0.262133  0.750000  1
  Nd  Nd6  1  0.331509  0.663020  0.000000  1
  Nd  Nd7  1  0.668491  0.336980  0.000000  1
  Nd  Nd8  1  0.668491  0.336980  0.500000  1
  Nd  Nd9  1  0.331509  0.663020  0.500000  1
  Sn  Sn10  1  0.000307  0.611461  0.250000  1
  Sn  Sn11  1  0.999693  0.388539  0.750000  1
  Sn  Sn12  1  0.388846  0.388539  0.250000  1
  Sn  Sn13  1  0.611154  0.611461  0.750000  1
  Pb  Pb14  1  0.611262  0.000000  0.250000  1
  Pb  Pb15  1  0.388738  0.000000  0.750000  1
  Cl  Cl16  1  0.000000  0.000000  0.000000  1
  Cl  Cl17  1  0.000000  0.000000  0.500000  1
