# generated using pymatgen
data_Be8AlRe3
_symmetry_space_group_name_H-M   'P 1'
_cell_length_a   4.38225800
_cell_length_b   4.38225871
_cell_length_c   7.14247300
_cell_angle_alpha   90.00000000
_cell_angle_beta   90.00000000
_cell_angle_gamma   120.00000971
_symmetry_Int_Tables_number   1
_chemical_formula_structural   Be8AlRe3
_chemical_formula_sum   'Be8 Al1 Re3'
_cell_volume   118.78870621
_cell_formula_units_Z   1
loop_
 _symmetry_equiv_pos_site_id
 _symmetry_equiv_pos_as_xyz
  1  'x, y, z'
loop_
 _atom_site_type_symbol
 _atom_site_label
 _atom_site_symmetry_multiplicity
 _atom_site_fract_x
 _atom_site_fract_y
 _atom_site_fract_z
 _atom_site_occupancy
  Be  Be0  1  0.000000  0.000000  0.999350  1
  Be  Be1  1  0.000000  0.000000  0.492394  1
  Be  Be2  1  0.828476  0.656952  0.247347  1
  Be  Be3  1  0.168657  0.831343  0.752496  1
  Be  Be4  1  0.662687  0.831343  0.752496  1
  Be  Be5  1  0.343048  0.171524  0.247347  1
  Be  Be6  1  0.828476  0.171524  0.247347  1
  Be  Be7  1  0.168657  0.337313  0.752496  1
  Al  Al8  1  0.333333  0.666667  0.065558  1
  Re  Re9  1  0.666667  0.333333  0.563277  1
  Re  Re10  1  0.666667  0.333333  0.933001  1
  Re  Re11  1  0.333333  0.666667  0.446893  1
