# generated using pymatgen
data_TmPu3(OsC2)2
_symmetry_space_group_name_H-M   'P 1'
_cell_length_a   5.13871200
_cell_length_b   6.35764513
_cell_length_c   9.75109670
_cell_angle_alpha   90.25210451
_cell_angle_beta   90.00000000
_cell_angle_gamma   90.00000000
_symmetry_Int_Tables_number   1
_chemical_formula_structural   TmPu3(OsC2)2
_chemical_formula_sum   'Tm2 Pu6 Os4 C8'
_cell_volume   318.56629172
_cell_formula_units_Z   2
loop_
 _symmetry_equiv_pos_site_id
 _symmetry_equiv_pos_as_xyz
  1  'x, y, z'
loop_
 _atom_site_type_symbol
 _atom_site_label
 _atom_site_symmetry_multiplicity
 _atom_site_fract_x
 _atom_site_fract_y
 _atom_site_fract_z
 _atom_site_occupancy
  Tm  Tm0  1  0.250000  0.684016  0.552564  1
  Tm  Tm1  1  0.750000  0.315984  0.447436  1
  Pu  Pu2  1  0.750000  0.808204  0.047797  1
  Pu  Pu3  1  0.250000  0.191796  0.952203  1
  Pu  Pu4  1  0.250000  0.526953  0.218784  1
  Pu  Pu5  1  0.750000  0.473047  0.781216  1
  Pu  Pu6  1  0.750000  0.970447  0.720845  1
  Pu  Pu7  1  0.250000  0.029553  0.279155  1
  Os  Os8  1  0.250000  0.721996  0.864353  1
  Os  Os9  1  0.750000  0.278004  0.135647  1
  Os  Os10  1  0.750000  0.778560  0.372346  1
  Os  Os11  1  0.250000  0.221440  0.627654  1
  C  C12  1  0.250000  0.455152  0.756895  1
  C  C13  1  0.750000  0.544848  0.243105  1
  C  C14  1  0.750000  0.036412  0.256308  1
  C  C15  1  0.250000  0.963588  0.743692  1
  C  C16  1  0.250000  0.830156  0.055866  1
  C  C17  1  0.750000  0.169844  0.944134  1
  C  C18  1  0.750000  0.670351  0.560270  1
  C  C19  1  0.250000  0.329649  0.439730  1
