# generated using pymatgen
data_Dy16Cd4OsRh3
_symmetry_space_group_name_H-M   'P 1'
_cell_length_a   9.59539043
_cell_length_b   9.59538975
_cell_length_c   9.64214755
_cell_angle_alpha   60.16028560
_cell_angle_beta   60.16028640
_cell_angle_gamma   60.00000263
_symmetry_Int_Tables_number   1
_chemical_formula_structural   Dy16Cd4OsRh3
_chemical_formula_sum   'Dy16 Cd4 Os1 Rh3'
_cell_volume   629.26270331
_cell_formula_units_Z   1
loop_
 _symmetry_equiv_pos_site_id
 _symmetry_equiv_pos_as_xyz
  1  'x, y, z'
loop_
 _atom_site_type_symbol
 _atom_site_label
 _atom_site_symmetry_multiplicity
 _atom_site_fract_x
 _atom_site_fract_y
 _atom_site_fract_z
 _atom_site_occupancy
  Dy  Dy0  1  0.562288  0.562288  0.935466  1
  Dy  Dy1  1  0.151004  0.548246  0.149746  1
  Dy  Dy2  1  0.689000  0.311239  0.310761  1
  Dy  Dy3  1  0.936188  0.564118  0.563506  1
  Dy  Dy4  1  0.939958  0.562288  0.935466  1
  Dy  Dy5  1  0.689000  0.689000  0.310761  1
  Dy  Dy6  1  0.562288  0.939958  0.935466  1
  Dy  Dy7  1  0.151004  0.151004  0.149746  1
  Dy  Dy8  1  0.311239  0.689000  0.310761  1
  Dy  Dy9  1  0.548246  0.151004  0.149746  1
  Dy  Dy10  1  0.311377  0.311377  0.690364  1
  Dy  Dy11  1  0.311377  0.686882  0.690364  1
  Dy  Dy12  1  0.150091  0.150091  0.549727  1
  Dy  Dy13  1  0.686882  0.311377  0.690364  1
  Dy  Dy14  1  0.936188  0.936188  0.563506  1
  Dy  Dy15  1  0.564118  0.936188  0.563506  1
  Cd  Cd16  1  0.919630  0.919630  0.919250  1
  Cd  Cd17  1  0.241490  0.919630  0.919250  1
  Cd  Cd18  1  0.919521  0.919521  0.241435  1
  Cd  Cd19  1  0.919630  0.241490  0.919250  1
  Os  Os20  1  0.357805  0.357805  0.926585  1
  Rh  Rh21  1  0.357749  0.357749  0.358324  1
  Rh  Rh22  1  0.926178  0.357749  0.358324  1
  Rh  Rh23  1  0.357749  0.926178  0.358324  1
