# generated using pymatgen
data_Pr5Zn7Pt12
_symmetry_space_group_name_H-M   'P 1'
_cell_length_a   5.59166364
_cell_length_b   5.59166202
_cell_length_c   16.96669508
_cell_angle_alpha   80.51534394
_cell_angle_beta   80.51534708
_cell_angle_gamma   59.99999770
_symmetry_Int_Tables_number   1
_chemical_formula_structural   Pr5Zn7Pt12
_chemical_formula_sum   'Pr5 Zn7 Pt12'
_cell_volume   451.02665924
_cell_formula_units_Z   1
loop_
 _symmetry_equiv_pos_site_id
 _symmetry_equiv_pos_as_xyz
  1  'x, y, z'
loop_
 _atom_site_type_symbol
 _atom_site_label
 _atom_site_symmetry_multiplicity
 _atom_site_fract_x
 _atom_site_fract_y
 _atom_site_fract_z
 _atom_site_occupancy
  Pr  Pr0  1  0.000000  0.000000  0.000000  1
  Pr  Pr1  1  0.924959  0.924959  0.225124  1
  Pr  Pr2  1  0.075041  0.075041  0.774876  1
  Pr  Pr3  1  0.848927  0.848927  0.453219  1
  Pr  Pr4  1  0.151073  0.151073  0.546781  1
  Zn  Zn5  1  0.500000  0.500000  0.500000  1
  Zn  Zn6  1  0.750049  0.750050  0.749853  1
  Zn  Zn7  1  0.249950  0.249950  0.250148  1
  Zn  Zn8  1  0.666593  0.666593  0.000222  1
  Zn  Zn9  1  0.333407  0.333407  0.999778  1
  Zn  Zn10  1  0.583482  0.583482  0.249556  1
  Zn  Zn11  1  0.416518  0.416518  0.750444  1
  Pt  Pt12  1  0.374093  0.374093  0.373892  1
  Pt  Pt13  1  0.877920  0.374093  0.373892  1
  Pt  Pt14  1  0.374093  0.877920  0.373892  1
  Pt  Pt15  1  0.625907  0.625907  0.626108  1
  Pt  Pt16  1  0.122080  0.625907  0.626108  1
  Pt  Pt17  1  0.625907  0.122080  0.626108  1
  Pt  Pt18  1  0.458538  0.458538  0.124375  1
  Pt  Pt19  1  0.958547  0.458538  0.124375  1
  Pt  Pt20  1  0.458538  0.958547  0.124375  1
  Pt  Pt21  1  0.541462  0.541462  0.875625  1
  Pt  Pt22  1  0.041453  0.541462  0.875625  1
  Pt  Pt23  1  0.541462  0.041453  0.875625  1
