# generated using pymatgen
data_YHo7(Si3Pt)4
_symmetry_space_group_name_H-M   'P 1'
_cell_length_a   8.18693600
_cell_length_b   8.18693502
_cell_length_c   7.88389100
_cell_angle_alpha   90.00000000
_cell_angle_beta   90.00000000
_cell_angle_gamma   119.99999588
_symmetry_Int_Tables_number   1
_chemical_formula_structural   YHo7(Si3Pt)4
_chemical_formula_sum   'Y1 Ho7 Si12 Pt4'
_cell_volume   457.62948655
_cell_formula_units_Z   1
loop_
 _symmetry_equiv_pos_site_id
 _symmetry_equiv_pos_as_xyz
  1  'x, y, z'
loop_
 _atom_site_type_symbol
 _atom_site_label
 _atom_site_symmetry_multiplicity
 _atom_site_fract_x
 _atom_site_fract_y
 _atom_site_fract_z
 _atom_site_occupancy
  Y  Y0  1  0.000000  0.000000  0.750000  1
  Ho  Ho1  1  0.511525  0.023052  0.250000  1
  Ho  Ho2  1  0.488445  0.976890  0.750000  1
  Ho  Ho3  1  0.976948  0.488475  0.250000  1
  Ho  Ho4  1  0.023110  0.511555  0.750000  1
  Ho  Ho5  1  0.511525  0.488475  0.250000  1
  Ho  Ho6  1  0.488445  0.511555  0.750000  1
  Ho  Ho7  1  0.000000  0.000000  0.250000  1
  Si  Si8  1  0.165385  0.330771  0.002722  1
  Si  Si9  1  0.834584  0.669169  0.998191  1
  Si  Si10  1  0.669229  0.834615  0.002722  1
  Si  Si11  1  0.834584  0.669169  0.501809  1
  Si  Si12  1  0.330831  0.165416  0.998191  1
  Si  Si13  1  0.165385  0.330771  0.497278  1
  Si  Si14  1  0.165385  0.834615  0.002722  1
  Si  Si15  1  0.330831  0.165416  0.501809  1
  Si  Si16  1  0.834584  0.165416  0.998191  1
  Si  Si17  1  0.669229  0.834615  0.497278  1
  Si  Si18  1  0.834584  0.165416  0.501809  1
  Si  Si19  1  0.165385  0.834615  0.497278  1
  Pt  Pt20  1  0.333333  0.666667  0.040677  1
  Pt  Pt21  1  0.666667  0.333333  0.959153  1
  Pt  Pt22  1  0.666667  0.333333  0.540847  1
  Pt  Pt23  1  0.333333  0.666667  0.459323  1
