# generated using pymatgen
data_La7Pr9Cd4(OsPd)2
_symmetry_space_group_name_H-M   'P 1'
_cell_length_a   10.06542105
_cell_length_b   10.08489583
_cell_length_c   10.27156511
_cell_angle_alpha   59.30871258
_cell_angle_beta   59.69170216
_cell_angle_gamma   59.82262611
_symmetry_Int_Tables_number   1
_chemical_formula_structural   La7Pr9Cd4(OsPd)2
_chemical_formula_sum   'La7 Pr9 Cd4 Os2 Pd2'
_cell_volume   730.66138976
_cell_formula_units_Z   1
loop_
 _symmetry_equiv_pos_site_id
 _symmetry_equiv_pos_as_xyz
  1  'x, y, z'
loop_
 _atom_site_type_symbol
 _atom_site_label
 _atom_site_symmetry_multiplicity
 _atom_site_fract_x
 _atom_site_fract_y
 _atom_site_fract_z
 _atom_site_occupancy
  La  La0  1  0.346500  0.345256  0.356747  1
  La  La1  1  0.346815  0.345981  0.950014  1
  La  La2  1  0.345485  0.956973  0.347095  1
  La  La3  1  0.959575  0.342862  0.350335  1
  La  La4  1  0.818811  0.189009  0.189138  1
  La  La5  1  0.186296  0.819930  0.801738  1
  La  La6  1  0.188656  0.818249  0.190822  1
  Pr  Pr7  1  0.812617  0.189714  0.803395  1
  Pr  Pr8  1  0.189786  0.191969  0.807632  1
  Pr  Pr9  1  0.802058  0.803410  0.195682  1
  Pr  Pr10  1  0.934783  0.560402  0.568148  1
  Pr  Pr11  1  0.558631  0.936678  0.937040  1
  Pr  Pr12  1  0.558731  0.936132  0.567202  1
  Pr  Pr13  1  0.936224  0.558317  0.939112  1
  Pr  Pr14  1  0.562929  0.563153  0.938082  1
  Pr  Pr15  1  0.937470  0.938956  0.561719  1
  Cd  Cd16  1  0.580546  0.578713  0.580546  1
  Cd  Cd17  1  0.580686  0.579928  0.259779  1
  Cd  Cd18  1  0.580518  0.257882  0.581811  1
  Cd  Cd19  1  0.257855  0.579644  0.581277  1
  Os  Os20  1  0.141210  0.142023  0.141359  1
  Os  Os21  1  0.148710  0.139253  0.573727  1
  Pd  Pd22  1  0.149519  0.576622  0.137308  1
  Pd  Pd23  1  0.575588  0.148942  0.140290  1
