# generated using pymatgen
data_NdLuMn6P7Ir6
_symmetry_space_group_name_H-M   'P 1'
_cell_length_a   9.43167534
_cell_length_b   9.42755352
_cell_length_c   3.85528800
_cell_angle_alpha   90.00000000
_cell_angle_beta   90.00000000
_cell_angle_gamma   120.01723669
_symmetry_Int_Tables_number   1
_chemical_formula_structural   NdLuMn6P7Ir6
_chemical_formula_sum   'Nd1 Lu1 Mn6 P7 Ir6'
_cell_volume   296.82457172
_cell_formula_units_Z   1
loop_
 _symmetry_equiv_pos_site_id
 _symmetry_equiv_pos_as_xyz
  1  'x, y, z'
loop_
 _atom_site_type_symbol
 _atom_site_label
 _atom_site_symmetry_multiplicity
 _atom_site_fract_x
 _atom_site_fract_y
 _atom_site_fract_z
 _atom_site_occupancy
  Nd  Nd0  1  0.666693  0.333422  0.000000  1
  Lu  Lu1  1  0.999914  0.999876  0.500000  1
  Mn  Mn2  1  0.492256  0.936799  0.000000  1
  Mn  Mn3  1  0.063417  0.555716  0.000000  1
  Mn  Mn4  1  0.444123  0.507539  0.000000  1
  Mn  Mn5  1  0.548482  0.764215  0.500000  1
  Mn  Mn6  1  0.235710  0.784175  0.500000  1
  Mn  Mn7  1  0.215817  0.451533  0.500000  1
  P  P8  1  0.450423  0.060173  0.500000  1
  P  P9  1  0.939924  0.390293  0.500000  1
  P  P10  1  0.609684  0.549644  0.500000  1
  P  P11  1  0.745504  0.967684  0.000000  1
  P  P12  1  0.032230  0.777655  0.000000  1
  P  P13  1  0.222295  0.254517  0.000000  1
  P  P14  1  0.333441  0.666803  0.000000  1
  Ir  Ir15  1  0.761003  0.734492  0.000000  1
  Ir  Ir16  1  0.265314  0.026442  0.000000  1
  Ir  Ir17  1  0.973479  0.239003  0.000000  1
  Ir  Ir18  1  0.722182  0.104941  0.500000  1
  Ir  Ir19  1  0.895200  0.617052  0.500000  1
  Ir  Ir20  1  0.382908  0.278028  0.500000  1
