# generated using pymatgen
data_Nd8Cd2TcAg
_symmetry_space_group_name_H-M   'P 1'
_cell_length_a   10.03540625
_cell_length_b   10.03540618
_cell_length_c   10.19914200
_cell_angle_alpha   59.45880007
_cell_angle_beta   59.45880029
_cell_angle_gamma   59.41258748
_symmetry_Int_Tables_number   1
_chemical_formula_structural   Nd8Cd2TcAg
_chemical_formula_sum   'Nd16 Cd4 Tc2 Ag2'
_cell_volume   717.10668536
_cell_formula_units_Z   2
loop_
 _symmetry_equiv_pos_site_id
 _symmetry_equiv_pos_as_xyz
  1  'x, y, z'
loop_
 _atom_site_type_symbol
 _atom_site_label
 _atom_site_symmetry_multiplicity
 _atom_site_fract_x
 _atom_site_fract_y
 _atom_site_fract_z
 _atom_site_occupancy
  Nd  Nd0  1  0.349041  0.349041  0.369320  1
  Nd  Nd1  1  0.349041  0.349041  0.932597  1
  Nd  Nd2  1  0.340790  0.954981  0.352115  1
  Nd  Nd3  1  0.954981  0.340790  0.352115  1
  Nd  Nd4  1  0.820633  0.188620  0.193027  1
  Nd  Nd5  1  0.188620  0.820633  0.797720  1
  Nd  Nd6  1  0.188620  0.820633  0.193027  1
  Nd  Nd7  1  0.820633  0.188620  0.797720  1
  Nd  Nd8  1  0.188662  0.188662  0.811338  1
  Nd  Nd9  1  0.803488  0.803488  0.196512  1
  Nd  Nd10  1  0.935725  0.555300  0.568205  1
  Nd  Nd11  1  0.555300  0.935725  0.940769  1
  Nd  Nd12  1  0.555300  0.935725  0.568205  1
  Nd  Nd13  1  0.935725  0.555300  0.940769  1
  Nd  Nd14  1  0.562255  0.562255  0.937745  1
  Nd  Nd15  1  0.937115  0.937115  0.562885  1
  Cd  Cd16  1  0.580429  0.580429  0.579024  1
  Cd  Cd17  1  0.580429  0.580429  0.260121  1
  Cd  Cd18  1  0.583639  0.255897  0.580232  1
  Cd  Cd19  1  0.255897  0.583639  0.580232  1
  Tc  Tc20  1  0.145195  0.145195  0.133149  1
  Tc  Tc21  1  0.145195  0.145195  0.576459  1
  Ag  Ag22  1  0.155643  0.567645  0.138355  1
  Ag  Ag23  1  0.567645  0.155643  0.138355  1
