# generated using pymatgen
data_CeDyLuCo2
_symmetry_space_group_name_H-M   'P 1'
_cell_length_a   5.89718442
_cell_length_b   5.89718327
_cell_length_c   5.89718429
_cell_angle_alpha   143.64218704
_cell_angle_beta   118.40088278
_cell_angle_gamma   73.68200488
_symmetry_Int_Tables_number   1
_chemical_formula_structural   CeDyLuCo2
_chemical_formula_sum   'Ce1 Dy1 Lu1 Co2'
_cell_volume   104.87762415
_cell_formula_units_Z   1
loop_
 _symmetry_equiv_pos_site_id
 _symmetry_equiv_pos_as_xyz
  1  'x, y, z'
loop_
 _atom_site_type_symbol
 _atom_site_label
 _atom_site_symmetry_multiplicity
 _atom_site_fract_x
 _atom_site_fract_y
 _atom_site_fract_z
 _atom_site_occupancy
  Ce  Ce0  1  0.999891  0.999891  0.000000  1
  Dy  Dy1  1  0.691234  0.191234  0.500000  1
  Lu  Lu2  1  0.311098  0.811098  0.500000  1
  Co  Co3  1  0.293363  0.498889  0.794474  1
  Co  Co4  1  0.704414  0.498889  0.205526  1
