# generated using pymatgen
data_Nd3Th(AlIr)4
_symmetry_space_group_name_H-M   'P 1'
_cell_length_a   7.04826418
_cell_length_b   4.32202000
_cell_length_c   8.11027931
_cell_angle_alpha   90.00000000
_cell_angle_beta   90.22357281
_cell_angle_gamma   90.00000000
_symmetry_Int_Tables_number   1
_chemical_formula_structural   Nd3Th(AlIr)4
_chemical_formula_sum   'Nd3 Th1 Al4 Ir4'
_cell_volume   247.05943873
_cell_formula_units_Z   1
loop_
 _symmetry_equiv_pos_site_id
 _symmetry_equiv_pos_as_xyz
  1  'x, y, z'
loop_
 _atom_site_type_symbol
 _atom_site_label
 _atom_site_symmetry_multiplicity
 _atom_site_fract_x
 _atom_site_fract_y
 _atom_site_fract_z
 _atom_site_occupancy
  Nd  Nd0  1  0.964579  0.250000  0.181797  1
  Nd  Nd1  1  0.465454  0.250000  0.314180  1
  Nd  Nd2  1  0.034760  0.750000  0.819191  1
  Th  Th3  1  0.533829  0.750000  0.679919  1
  Al  Al4  1  0.868521  0.250000  0.561319  1
  Al  Al5  1  0.359932  0.250000  0.940465  1
  Al  Al6  1  0.137109  0.750000  0.437014  1
  Al  Al7  1  0.635112  0.750000  0.062338  1
  Ir  Ir8  1  0.721755  0.250000  0.876026  1
  Ir  Ir9  1  0.236835  0.250000  0.619939  1
  Ir  Ir10  1  0.271424  0.750000  0.116739  1
  Ir  Ir11  1  0.770691  0.750000  0.391073  1
