# generated using pymatgen
data_Y4Al18RePdPt4
_symmetry_space_group_name_H-M   'P 1'
_cell_length_a   7.64673902
_cell_length_b   7.64674103
_cell_length_c   9.48994612
_cell_angle_alpha   90.15050833
_cell_angle_beta   90.15054352
_cell_angle_gamma   119.82777113
_symmetry_Int_Tables_number   1
_chemical_formula_structural   Y4Al18RePdPt4
_chemical_formula_sum   'Y4 Al18 Re1 Pd1 Pt4'
_cell_volume   481.38457054
_cell_formula_units_Z   1
loop_
 _symmetry_equiv_pos_site_id
 _symmetry_equiv_pos_as_xyz
  1  'x, y, z'
loop_
 _atom_site_type_symbol
 _atom_site_label
 _atom_site_symmetry_multiplicity
 _atom_site_fract_x
 _atom_site_fract_y
 _atom_site_fract_z
 _atom_site_occupancy
  Y  Y0  1  0.992784  0.666329  0.247742  1
  Y  Y1  1  0.002746  0.330439  0.751942  1
  Y  Y2  1  0.669561  0.997255  0.248058  1
  Y  Y3  1  0.333671  0.007215  0.752258  1
  Al  Al4  1  0.128266  0.129761  0.250141  1
  Al  Al5  1  0.870239  0.871734  0.749859  1
  Al  Al6  1  0.998289  0.333809  0.073808  1
  Al  Al7  1  0.995570  0.660129  0.925840  1
  Al  Al8  1  0.000029  0.668053  0.577818  1
  Al  Al9  1  0.331947  0.999971  0.422182  1
  Al  Al10  1  0.000524  0.334468  0.423681  1
  Al  Al11  1  0.665532  0.999476  0.576320  1
  Al  Al12  1  0.666191  0.001711  0.926191  1
  Al  Al13  1  0.339871  0.004430  0.074160  1
  Al  Al14  1  0.333476  0.334892  0.559939  1
  Al  Al15  1  0.665108  0.666524  0.440061  1
  Al  Al16  1  0.668120  0.661035  0.053347  1
  Al  Al17  1  0.338965  0.331880  0.946653  1
  Al  Al18  1  0.337388  0.545637  0.249549  1
  Al  Al19  1  0.661127  0.454495  0.753243  1
  Al  Al20  1  0.545505  0.338873  0.246757  1
  Al  Al21  1  0.454363  0.662612  0.750451  1
  Re  Re22  1  0.672930  0.327070  0.000000  1
  Pd  Pd23  1  0.999411  0.000589  0.500000  1
  Pt  Pt24  1  0.328534  0.671466  0.000000  1
  Pt  Pt25  1  0.327143  0.672858  0.500000  1
  Pt  Pt26  1  0.671653  0.328347  0.500000  1
  Pt  Pt27  1  0.001055  0.998945  0.000000  1
