# generated using pymatgen
data_DyY9(CoBi2)2
_symmetry_space_group_name_H-M   'P 1'
_cell_length_a   8.04848112
_cell_length_b   8.90831950
_cell_length_c   12.43566873
_cell_angle_alpha   89.96369579
_cell_angle_beta   89.98505042
_cell_angle_gamma   89.98696927
_symmetry_Int_Tables_number   1
_chemical_formula_structural   DyY9(CoBi2)2
_chemical_formula_sum   'Dy2 Y18 Co4 Bi8'
_cell_volume   891.61783269
_cell_formula_units_Z   2
loop_
 _symmetry_equiv_pos_site_id
 _symmetry_equiv_pos_as_xyz
  1  'x, y, z'
loop_
 _atom_site_type_symbol
 _atom_site_label
 _atom_site_symmetry_multiplicity
 _atom_site_fract_x
 _atom_site_fract_y
 _atom_site_fract_z
 _atom_site_occupancy
  Dy  Dy0  1  0.825542  0.465421  0.063289  1
  Dy  Dy1  1  0.174458  0.534579  0.936711  1
  Y  Y2  1  0.846386  0.749723  0.800592  1
  Y  Y3  1  0.153614  0.250277  0.199408  1
  Y  Y4  1  0.346352  0.250120  0.699324  1
  Y  Y5  1  0.653648  0.749880  0.300676  1
  Y  Y6  1  0.378427  0.749839  0.689565  1
  Y  Y7  1  0.621573  0.250161  0.310435  1
  Y  Y8  1  0.878304  0.250191  0.810369  1
  Y  Y9  1  0.121696  0.749809  0.189631  1
  Y  Y10  1  0.952975  0.749982  0.502378  1
  Y  Y11  1  0.047025  0.250018  0.497622  1
  Y  Y12  1  0.452971  0.250837  0.997586  1
  Y  Y13  1  0.547029  0.749163  0.002414  1
  Y  Y14  1  0.675813  0.034899  0.564117  1
  Y  Y15  1  0.324187  0.965101  0.435883  1
  Y  Y16  1  0.175886  0.964790  0.935892  1
  Y  Y17  1  0.324163  0.534907  0.435856  1
  Y  Y18  1  0.824114  0.035210  0.064108  1
  Y  Y19  1  0.675837  0.465093  0.564144  1
  Co  Co20  1  0.561274  0.749982  0.508016  1
  Co  Co21  1  0.438726  0.250018  0.491984  1
  Co  Co22  1  0.060951  0.251860  0.991941  1
  Co  Co23  1  0.939049  0.748140  0.008059  1
  Bi  Bi24  1  0.569120  0.492345  0.826026  1
  Bi  Bi25  1  0.430880  0.507655  0.173974  1
  Bi  Bi26  1  0.069023  0.507637  0.673758  1
  Bi  Bi27  1  0.431079  0.992404  0.173710  1
  Bi  Bi28  1  0.930977  0.492363  0.326242  1
  Bi  Bi29  1  0.568921  0.007596  0.826290  1
  Bi  Bi30  1  0.931136  0.007655  0.326217  1
  Bi  Bi31  1  0.068864  0.992345  0.673783  1
