# generated using pymatgen
data_Tb3Ho3(Zn3C)2
_symmetry_space_group_name_H-M   'P 1'
_cell_length_a   9.17186964
_cell_length_b   9.17187018
_cell_length_c   9.17186900
_cell_angle_alpha   60.00000065
_cell_angle_beta   59.99999869
_cell_angle_gamma   60.00000525
_symmetry_Int_Tables_number   1
_chemical_formula_structural   Tb3Ho3(Zn3C)2
_chemical_formula_sum   'Tb6 Ho6 Zn12 C4'
_cell_volume   545.58024013
_cell_formula_units_Z   2
loop_
 _symmetry_equiv_pos_site_id
 _symmetry_equiv_pos_as_xyz
  1  'x, y, z'
loop_
 _atom_site_type_symbol
 _atom_site_label
 _atom_site_symmetry_multiplicity
 _atom_site_fract_x
 _atom_site_fract_y
 _atom_site_fract_z
 _atom_site_occupancy
  Tb  Tb0  1  0.447518  0.447518  0.052482  1
  Tb  Tb1  1  0.052482  0.447518  0.052482  1
  Tb  Tb2  1  0.447518  0.052482  0.052482  1
  Tb  Tb3  1  0.052482  0.052482  0.447518  1
  Tb  Tb4  1  0.447518  0.052482  0.447518  1
  Tb  Tb5  1  0.052482  0.447518  0.447518  1
  Ho  Ho6  1  0.803473  0.803473  0.196527  1
  Ho  Ho7  1  0.196527  0.803473  0.196527  1
  Ho  Ho8  1  0.803473  0.196527  0.196527  1
  Ho  Ho9  1  0.196527  0.196527  0.803473  1
  Ho  Ho10  1  0.803473  0.196527  0.803473  1
  Ho  Ho11  1  0.196527  0.803473  0.803473  1
  Zn  Zn12  1  0.826626  0.826626  0.520122  1
  Zn  Zn13  1  0.826626  0.520122  0.826626  1
  Zn  Zn14  1  0.520122  0.826626  0.826626  1
  Zn  Zn15  1  0.826626  0.826626  0.826626  1
  Zn  Zn16  1  0.423877  0.423877  0.728370  1
  Zn  Zn17  1  0.423877  0.728370  0.423877  1
  Zn  Zn18  1  0.728370  0.423877  0.423877  1
  Zn  Zn19  1  0.423877  0.423877  0.423877  1
  Zn  Zn20  1  0.624950  0.624950  0.125149  1
  Zn  Zn21  1  0.624950  0.125149  0.624950  1
  Zn  Zn22  1  0.125149  0.624950  0.624950  1
  Zn  Zn23  1  0.624950  0.624950  0.624950  1
  C  C24  1  0.122916  0.122916  0.631251  1
  C  C25  1  0.122916  0.631251  0.122916  1
  C  C26  1  0.631251  0.122916  0.122916  1
  C  C27  1  0.122916  0.122916  0.122916  1
