# generated using pymatgen
data_Yb12Ga12Bi2Pd3(RhO16)3
_symmetry_space_group_name_H-M   'P 1'
_cell_length_a   10.72419818
_cell_length_b   10.68722380
_cell_length_c   10.68722400
_cell_angle_alpha   109.40103245
_cell_angle_beta   109.54131807
_cell_angle_gamma   109.54132457
_symmetry_Int_Tables_number   1
_chemical_formula_structural   Yb12Ga12Bi2Pd3(RhO16)3
_chemical_formula_sum   'Yb12 Ga12 Bi2 Pd3 Rh3 O48'
_cell_volume   942.09843580
_cell_formula_units_Z   1
loop_
 _symmetry_equiv_pos_site_id
 _symmetry_equiv_pos_as_xyz
  1  'x, y, z'
loop_
 _atom_site_type_symbol
 _atom_site_label
 _atom_site_symmetry_multiplicity
 _atom_site_fract_x
 _atom_site_fract_y
 _atom_site_fract_z
 _atom_site_occupancy
  Yb  Yb0  1  0.255980  0.373135  0.128564  1
  Yb  Yb1  1  0.382877  0.754726  0.125791  1
  Yb  Yb2  1  0.376082  0.124657  0.250258  1
  Yb  Yb3  1  0.867644  0.632396  0.250049  1
  Yb  Yb4  1  0.127328  0.243831  0.371191  1
  Yb  Yb5  1  0.745827  0.117429  0.373800  1
  Yb  Yb6  1  0.254173  0.882569  0.626200  1
  Yb  Yb7  1  0.872672  0.756169  0.628809  1
  Yb  Yb8  1  0.132354  0.367604  0.749951  1
  Yb  Yb9  1  0.623918  0.875343  0.749742  1
  Yb  Yb10  1  0.617123  0.245274  0.874207  1
  Yb  Yb11  1  0.744020  0.626865  0.871436  1
  Ga  Ga12  1  0.751153  0.874620  0.123625  1
  Ga  Ga13  1  0.871418  0.238816  0.119586  1
  Ga  Ga14  1  0.619367  0.373709  0.244162  1
  Ga  Ga15  1  0.129210  0.882541  0.255824  1
  Ga  Ga16  1  0.623001  0.749507  0.373125  1
  Ga  Ga17  1  0.260671  0.631016  0.381095  1
  Ga  Ga18  1  0.739329  0.368984  0.618905  1
  Ga  Ga19  1  0.376999  0.250493  0.626875  1
  Ga  Ga20  1  0.870790  0.117459  0.744177  1
  Ga  Ga21  1  0.380633  0.626291  0.755838  1
  Ga  Ga22  1  0.248848  0.125380  0.876375  1
  Ga  Ga23  1  0.128582  0.761185  0.880414  1
  Bi  Bi24  1  0.000000  0.499999  0.000000  1
  Bi  Bi25  1  0.000000  0.500000  0.500000  1
  Pd  Pd26  1  0.000000  0.000000  0.000000  1
  Pd  Pd27  1  0.500000  0.500000  0.000000  1
  Pd  Pd28  1  0.500000  0.000000  0.500000  1
  Rh  Rh29  1  0.499999  0.000000  0.000000  1
  Rh  Rh30  1  0.000000  0.000000  0.499999  1
  Rh  Rh31  1  0.499999  0.499999  0.499999  1
  O  O32  1  0.326284  0.912217  0.030883  1
  O  O33  1  0.208194  0.119464  0.029187  1
  O  O34  1  0.706507  0.679028  0.084502  1
  O  O35  1  0.871702  0.400599  0.088879  1
  O  O36  1  0.970011  0.686669  0.098744  1
  O  O37  1  0.621609  0.414091  0.091057  1
  O  O38  1  0.594896  0.915489  0.118832  1
  O  O39  1  0.030483  0.209015  0.121267  1
  O  O40  1  0.471309  0.592453  0.178551  1
  O  O41  1  0.218280  0.587469  0.184121  1
  O  O42  1  0.124888  0.032348  0.209137  1
  O  O43  1  0.588125  0.180515  0.205890  1
  O  O44  1  0.472198  0.379276  0.295107  1
  O  O45  1  0.319779  0.912135  0.290988  1
  O  O46  1  0.907843  0.025054  0.321096  1
  O  O47  1  0.911390  0.280656  0.316091  1
  O  O48  1  0.295338  0.472970  0.382563  1
  O  O49  1  0.586588  0.907650  0.378984  1
  O  O50  1  0.814188  0.531593  0.404126  1
  O  O51  1  0.085648  0.882876  0.409627  1
  O  O52  1  0.820772  0.797016  0.416507  1
  O  O53  1  0.097446  0.627569  0.409611  1
  O  O54  1  0.588979  0.174682  0.464803  1
  O  O55  1  0.383500  0.295913  0.475353  1
  O  O56  1  0.616500  0.704087  0.524647  1
  O  O57  1  0.411019  0.825317  0.535196  1
  O  O58  1  0.902554  0.372430  0.590389  1
  O  O59  1  0.179228  0.202984  0.583493  1
  O  O60  1  0.914352  0.117124  0.590373  1
  O  O61  1  0.185811  0.468406  0.595872  1
  O  O62  1  0.413412  0.092350  0.621015  1
  O  O63  1  0.704662  0.527030  0.617437  1
  O  O64  1  0.088609  0.719344  0.683909  1
  O  O65  1  0.092157  0.974946  0.678904  1
  O  O66  1  0.680221  0.087864  0.709012  1
  O  O67  1  0.527802  0.620724  0.704893  1
  O  O68  1  0.411875  0.819485  0.794110  1
  O  O69  1  0.875111  0.967651  0.790861  1
  O  O70  1  0.781720  0.412531  0.815879  1
  O  O71  1  0.528690  0.407545  0.821448  1
  O  O72  1  0.969516  0.790983  0.878732  1
  O  O73  1  0.405104  0.084511  0.881168  1
  O  O74  1  0.378390  0.585909  0.908943  1
  O  O75  1  0.029989  0.313331  0.901256  1
  O  O76  1  0.128298  0.599401  0.911121  1
  O  O77  1  0.293493  0.320972  0.915497  1
  O  O78  1  0.673716  0.087783  0.969117  1
  O  O79  1  0.791804  0.880535  0.970812  1
