# generated using pymatgen
data_Th5ScRh10
_symmetry_space_group_name_H-M   'P 1'
_cell_length_a   5.95748031
_cell_length_b   5.95748073
_cell_length_c   9.07907900
_cell_angle_alpha   90.00000000
_cell_angle_beta   90.00000000
_cell_angle_gamma   103.02950765
_symmetry_Int_Tables_number   1
_chemical_formula_structural   Th5ScRh10
_chemical_formula_sum   'Th5 Sc1 Rh10'
_cell_volume   313.93467855
_cell_formula_units_Z   1
loop_
 _symmetry_equiv_pos_site_id
 _symmetry_equiv_pos_as_xyz
  1  'x, y, z'
loop_
 _atom_site_type_symbol
 _atom_site_label
 _atom_site_symmetry_multiplicity
 _atom_site_fract_x
 _atom_site_fract_y
 _atom_site_fract_z
 _atom_site_occupancy
  Th  Th0  1  0.383342  0.383342  0.250000  1
  Th  Th1  1  0.798718  0.212053  0.505954  1
  Th  Th2  1  0.212053  0.798718  0.994046  1
  Th  Th3  1  0.212053  0.798718  0.505954  1
  Th  Th4  1  0.798718  0.212053  0.994046  1
  Sc  Sc5  1  0.597982  0.597982  0.750000  1
  Rh  Rh6  1  0.706699  0.706699  0.029439  1
  Rh  Rh7  1  0.706699  0.706699  0.470561  1
  Rh  Rh8  1  0.311922  0.311922  0.943372  1
  Rh  Rh9  1  0.311922  0.311922  0.556628  1
  Rh  Rh10  1  0.505207  0.026110  0.750000  1
  Rh  Rh11  1  0.499918  0.943572  0.250000  1
  Rh  Rh12  1  0.987010  0.987010  0.250000  1
  Rh  Rh13  1  0.998074  0.998074  0.750000  1
  Rh  Rh14  1  0.026110  0.505207  0.750000  1
  Rh  Rh15  1  0.943572  0.499918  0.250000  1
