# generated using pymatgen
data_Eu5Si2Pb
_symmetry_space_group_name_H-M   'P 1'
_cell_length_a   9.52867086
_cell_length_b   9.52867166
_cell_length_c   9.52867054
_cell_angle_alpha   130.34733501
_cell_angle_beta   130.34733206
_cell_angle_gamma   72.85210365
_symmetry_Int_Tables_number   1
_chemical_formula_structural   Eu5Si2Pb
_chemical_formula_sum   'Eu10 Si4 Pb2'
_cell_volume   490.88307901
_cell_formula_units_Z   2
loop_
 _symmetry_equiv_pos_site_id
 _symmetry_equiv_pos_as_xyz
  1  'x, y, z'
loop_
 _atom_site_type_symbol
 _atom_site_label
 _atom_site_symmetry_multiplicity
 _atom_site_fract_x
 _atom_site_fract_y
 _atom_site_fract_z
 _atom_site_occupancy
  Eu  Eu0  1  0.812026  0.312025  0.847802  1
  Eu  Eu1  1  0.464222  0.964222  0.152199  1
  Eu  Eu2  1  0.687975  0.535778  0.500000  1
  Eu  Eu3  1  0.035778  0.187975  0.500000  1
  Eu  Eu4  1  0.187975  0.687975  0.152199  1
  Eu  Eu5  1  0.535779  0.035778  0.847802  1
  Eu  Eu6  1  0.964222  0.812024  0.500000  1
  Eu  Eu7  1  0.312025  0.464222  0.500000  1
  Eu  Eu8  1  0.000000  0.000000  0.000000  1
  Eu  Eu9  1  0.500000  0.500000  0.000000  1
  Si  Si10  1  0.889299  0.389299  0.278599  1
  Si  Si11  1  0.110701  0.610700  0.721399  1
  Si  Si12  1  0.610701  0.889299  0.500000  1
  Si  Si13  1  0.389299  0.110701  0.500000  1
  Pb  Pb14  1  0.250000  0.250000  0.000000  1
  Pb  Pb15  1  0.750000  0.750000  0.000000  1
