# generated using pymatgen
data_NdY(PN3)2
_symmetry_space_group_name_H-M   'P 1'
_cell_length_a   7.27482820
_cell_length_b   7.27482865
_cell_length_c   4.86864013
_cell_angle_alpha   88.52235200
_cell_angle_beta   88.52235274
_cell_angle_gamma   102.41978336
_symmetry_Int_Tables_number   1
_chemical_formula_structural   NdY(PN3)2
_chemical_formula_sum   'Nd2 Y2 P4 N12'
_cell_volume   251.42057491
_cell_formula_units_Z   2
loop_
 _symmetry_equiv_pos_site_id
 _symmetry_equiv_pos_as_xyz
  1  'x, y, z'
loop_
 _atom_site_type_symbol
 _atom_site_label
 _atom_site_symmetry_multiplicity
 _atom_site_fract_x
 _atom_site_fract_y
 _atom_site_fract_z
 _atom_site_occupancy
  Nd  Nd0  1  0.097989  0.902011  0.250000  1
  Nd  Nd1  1  0.902011  0.097989  0.750000  1
  Y  Y2  1  0.295853  0.704147  0.750000  1
  Y  Y3  1  0.704147  0.295853  0.250000  1
  P  P4  1  0.376347  0.229675  0.810995  1
  P  P5  1  0.623653  0.770325  0.189005  1
  P  P6  1  0.770325  0.623653  0.689005  1
  P  P7  1  0.229675  0.376347  0.310995  1
  N  N8  1  0.974806  0.752463  0.735566  1
  N  N9  1  0.766423  0.396048  0.778388  1
  N  N10  1  0.752463  0.974806  0.235566  1
  N  N11  1  0.233577  0.603952  0.221612  1
  N  N12  1  0.025194  0.247537  0.264434  1
  N  N13  1  0.247537  0.025194  0.764434  1
  N  N14  1  0.603952  0.233577  0.721612  1
  N  N15  1  0.611043  0.712499  0.860799  1
  N  N16  1  0.388957  0.287501  0.139201  1
  N  N17  1  0.396048  0.766423  0.278388  1
  N  N18  1  0.712499  0.611043  0.360799  1
  N  N19  1  0.287501  0.388957  0.639201  1
