# generated using pymatgen
data_Y6Al24NiRu7
_symmetry_space_group_name_H-M   'P 1'
_cell_length_a   8.81429717
_cell_length_b   8.81429706
_cell_length_c   9.54037671
_cell_angle_alpha   89.73080652
_cell_angle_beta   90.26919637
_cell_angle_gamma   119.68719647
_symmetry_Int_Tables_number   1
_chemical_formula_structural   Y6Al24NiRu7
_chemical_formula_sum   'Y6 Al24 Ni1 Ru7'
_cell_volume   643.91035151
_cell_formula_units_Z   1
loop_
 _symmetry_equiv_pos_site_id
 _symmetry_equiv_pos_as_xyz
  1  'x, y, z'
loop_
 _atom_site_type_symbol
 _atom_site_label
 _atom_site_symmetry_multiplicity
 _atom_site_fract_x
 _atom_site_fract_y
 _atom_site_fract_z
 _atom_site_occupancy
  Y  Y0  1  0.190714  0.385143  0.249969  1
  Y  Y1  1  0.809286  0.614857  0.750031  1
  Y  Y2  1  0.614857  0.809286  0.249969  1
  Y  Y3  1  0.385143  0.190714  0.750031  1
  Y  Y4  1  0.194101  0.805899  0.248960  1
  Y  Y5  1  0.805899  0.194101  0.751040  1
  Al  Al6  1  0.334667  0.665333  0.017905  1
  Al  Al7  1  0.665333  0.334667  0.982095  1
  Al  Al8  1  0.666756  0.333244  0.513970  1
  Al  Al9  1  0.333244  0.666756  0.486030  1
  Al  Al10  1  0.163410  0.324352  0.578965  1
  Al  Al11  1  0.836590  0.675648  0.421035  1
  Al  Al12  1  0.675648  0.836590  0.578965  1
  Al  Al13  1  0.837873  0.674802  0.076637  1
  Al  Al14  1  0.324352  0.163410  0.421035  1
  Al  Al15  1  0.162127  0.325198  0.923363  1
  Al  Al16  1  0.162739  0.837261  0.577812  1
  Al  Al17  1  0.325198  0.162127  0.076637  1
  Al  Al18  1  0.837261  0.162739  0.422188  1
  Al  Al19  1  0.674802  0.837873  0.923363  1
  Al  Al20  1  0.836551  0.163449  0.076696  1
  Al  Al21  1  0.163449  0.836551  0.923304  1
  Al  Al22  1  0.560616  0.122707  0.248420  1
  Al  Al23  1  0.439384  0.877293  0.751580  1
  Al  Al24  1  0.877293  0.439384  0.248420  1
  Al  Al25  1  0.122707  0.560616  0.751580  1
  Al  Al26  1  0.559312  0.440688  0.245766  1
  Al  Al27  1  0.440688  0.559312  0.754234  1
  Al  Al28  1  0.999662  0.000338  0.249948  1
  Al  Al29  1  0.000338  0.999662  0.750052  1
  Ni  Ni30  1  0.500000  0.500000  0.000000  1
  Ru  Ru31  1  0.500000  0.000000  0.000000  1
  Ru  Ru32  1  0.000000  0.500000  0.000000  1
  Ru  Ru33  1  0.500000  0.000000  0.500000  1
  Ru  Ru34  1  0.000000  0.500000  0.500000  1
  Ru  Ru35  1  0.500000  0.500000  0.500000  1
  Ru  Ru36  1  0.000000  0.000000  0.000000  1
  Ru  Ru37  1  0.000000  0.000000  0.500000  1
