# generated using pymatgen
data_Ho10Lu2Co4CuSn
_symmetry_space_group_name_H-M   'P 1'
_cell_length_a   8.23859966
_cell_length_b   8.23115491
_cell_length_c   8.23859886
_cell_angle_alpha   111.17102240
_cell_angle_beta   110.50818113
_cell_angle_gamma   106.80368576
_symmetry_Int_Tables_number   1
_chemical_formula_structural   Ho10Lu2Co4CuSn
_chemical_formula_sum   'Ho10 Lu2 Co4 Cu1 Sn1'
_cell_volume   429.17043988
_cell_formula_units_Z   1
loop_
 _symmetry_equiv_pos_site_id
 _symmetry_equiv_pos_as_xyz
  1  'x, y, z'
loop_
 _atom_site_type_symbol
 _atom_site_label
 _atom_site_symmetry_multiplicity
 _atom_site_fract_x
 _atom_site_fract_y
 _atom_site_fract_z
 _atom_site_occupancy
  Ho  Ho0  1  0.315285  0.009384  0.694101  1
  Ho  Ho1  1  0.684715  0.990616  0.305899  1
  Ho  Ho2  1  0.186604  0.290706  0.474948  1
  Ho  Ho3  1  0.813396  0.709294  0.525052  1
  Ho  Ho4  1  0.184243  0.709294  0.895897  1
  Ho  Ho5  1  0.815757  0.290706  0.104103  1
  Ho  Ho6  1  0.417300  0.218434  0.200804  1
  Ho  Ho7  1  0.582700  0.781566  0.799196  1
  Ho  Ho8  1  0.017630  0.218434  0.801134  1
  Ho  Ho9  1  0.982370  0.781566  0.198866  1
  Lu  Lu10  1  0.315629  0.622602  0.306973  1
  Lu  Lu11  1  0.684371  0.377398  0.693027  1
  Co  Co12  1  0.113405  0.612740  0.499334  1
  Co  Co13  1  0.886595  0.387260  0.500666  1
  Co  Co14  1  0.376016  0.000000  0.376016  1
  Co  Co15  1  0.623984  0.000000  0.623984  1
  Cu  Cu16  1  0.000000  0.000000  0.000000  1
  Sn  Sn17  1  0.500000  0.500000  0.000000  1
