# generated using pymatgen
data_CaPrGa3Ru
_symmetry_space_group_name_H-M   'P 1'
_cell_length_a   5.63038400
_cell_length_b   5.63038437
_cell_length_c   8.80175800
_cell_angle_alpha   90.00000000
_cell_angle_beta   90.00000000
_cell_angle_gamma   119.99999785
_symmetry_Int_Tables_number   1
_chemical_formula_structural   CaPrGa3Ru
_chemical_formula_sum   'Ca2 Pr2 Ga6 Ru2'
_cell_volume   241.64405988
_cell_formula_units_Z   2
loop_
 _symmetry_equiv_pos_site_id
 _symmetry_equiv_pos_as_xyz
  1  'x, y, z'
loop_
 _atom_site_type_symbol
 _atom_site_label
 _atom_site_symmetry_multiplicity
 _atom_site_fract_x
 _atom_site_fract_y
 _atom_site_fract_z
 _atom_site_occupancy
  Ca  Ca0  1  0.333333  0.666666  0.552689  1
  Ca  Ca1  1  0.333333  0.666666  0.947312  1
  Pr  Pr2  1  0.666667  0.333334  0.049932  1
  Pr  Pr3  1  0.666667  0.333334  0.450068  1
  Ga  Ga4  1  0.160607  0.321214  0.250000  1
  Ga  Ga5  1  0.160606  0.839392  0.250000  1
  Ga  Ga6  1  0.678786  0.839392  0.250000  1
  Ga  Ga7  1  0.319358  0.159680  0.750000  1
  Ga  Ga8  1  0.840322  0.159680  0.750000  1
  Ga  Ga9  1  0.840321  0.680642  0.750000  1
  Ru  Ru10  1  0.000000  0.000000  0.997182  1
  Ru  Ru11  1  0.000000  0.000000  0.502818  1
