# generated using pymatgen
data_LaEr2Al7Cu2
_symmetry_space_group_name_H-M   'P 1'
_cell_length_a   9.17118136
_cell_length_b   9.17118231
_cell_length_c   9.17118049
_cell_angle_alpha   35.04788878
_cell_angle_beta   35.04789212
_cell_angle_gamma   35.04788628
_symmetry_Int_Tables_number   1
_chemical_formula_structural   LaEr2Al7Cu2
_chemical_formula_sum   'La1 Er2 Al7 Cu2'
_cell_volume   227.15553790
_cell_formula_units_Z   1
loop_
 _symmetry_equiv_pos_site_id
 _symmetry_equiv_pos_as_xyz
  1  'x, y, z'
loop_
 _atom_site_type_symbol
 _atom_site_label
 _atom_site_symmetry_multiplicity
 _atom_site_fract_x
 _atom_site_fract_y
 _atom_site_fract_z
 _atom_site_occupancy
  La  La0  1  0.000000  0.000000  0.000000  1
  Er  Er1  1  0.857419  0.857419  0.857419  1
  Er  Er2  1  0.142581  0.142581  0.142581  1
  Al  Al3  1  0.416218  0.416218  0.926552  1
  Al  Al4  1  0.926552  0.416218  0.416218  1
  Al  Al5  1  0.416218  0.926552  0.416218  1
  Al  Al6  1  0.500000  0.500000  0.500000  1
  Al  Al7  1  0.583782  0.073448  0.583782  1
  Al  Al8  1  0.073448  0.583782  0.583782  1
  Al  Al9  1  0.583782  0.583782  0.073448  1
  Cu  Cu10  1  0.664756  0.664756  0.664756  1
  Cu  Cu11  1  0.335244  0.335244  0.335244  1
