# generated using pymatgen
data_Rb20Si3SnP12
_symmetry_space_group_name_H-M   'P 1'
_cell_length_a   5.49274600
_cell_length_b   15.00981115
_cell_length_c   15.66322364
_cell_angle_alpha   90.13342677
_cell_angle_beta   90.00000000
_cell_angle_gamma   90.00000000
_symmetry_Int_Tables_number   1
_chemical_formula_structural   Rb20Si3SnP12
_chemical_formula_sum   'Rb20 Si3 Sn1 P12'
_cell_volume   1291.35222753
_cell_formula_units_Z   1
loop_
 _symmetry_equiv_pos_site_id
 _symmetry_equiv_pos_as_xyz
  1  'x, y, z'
loop_
 _atom_site_type_symbol
 _atom_site_label
 _atom_site_symmetry_multiplicity
 _atom_site_fract_x
 _atom_site_fract_y
 _atom_site_fract_z
 _atom_site_occupancy
  Rb  Rb0  1  0.250000  0.380391  0.011299  1
  Rb  Rb1  1  0.750000  0.619526  0.979377  1
  Rb  Rb2  1  0.250000  0.118167  0.515688  1
  Rb  Rb3  1  0.750000  0.880287  0.483737  1
  Rb  Rb4  1  0.750000  0.738982  0.235174  1
  Rb  Rb5  1  0.250000  0.269591  0.766366  1
  Rb  Rb6  1  0.750000  0.771115  0.733861  1
  Rb  Rb7  1  0.250000  0.225418  0.266362  1
  Rb  Rb8  1  0.750000  0.058900  0.696228  1
  Rb  Rb9  1  0.250000  0.944573  0.304051  1
  Rb  Rb10  1  0.750000  0.433099  0.192709  1
  Rb  Rb11  1  0.250000  0.558793  0.805189  1
  Rb  Rb12  1  0.750000  0.182881  0.914969  1
  Rb  Rb13  1  0.250000  0.818583  0.080660  1
  Rb  Rb14  1  0.750000  0.312730  0.417930  1
  Rb  Rb15  1  0.250000  0.684973  0.589585  1
  Rb  Rb16  1  0.750000  0.928597  0.931539  1
  Rb  Rb17  1  0.250000  0.072202  0.067141  1
  Rb  Rb18  1  0.750000  0.571411  0.439033  1
  Rb  Rb19  1  0.250000  0.426647  0.570711  1
  Si  Si20  1  0.750000  0.081075  0.218912  1
  Si  Si21  1  0.250000  0.919527  0.780460  1
  Si  Si22  1  0.750000  0.418225  0.720203  1
  Sn  Sn23  1  0.250000  0.582236  0.279159  1
  P  P24  1  0.750000  0.202744  0.138882  1
  P  P25  1  0.250000  0.797200  0.859701  1
  P  P26  1  0.750000  0.296040  0.640342  1
  P  P27  1  0.250000  0.718216  0.370513  1
  P  P28  1  0.750000  0.949364  0.155980  1
  P  P29  1  0.250000  0.051552  0.843174  1
  P  P30  1  0.750000  0.550968  0.659357  1
  P  P31  1  0.250000  0.436122  0.349215  1
  P  P32  1  0.750000  0.088810  0.361250  1
  P  P33  1  0.250000  0.911248  0.638456  1
  P  P34  1  0.750000  0.409804  0.862200  1
  P  P35  1  0.250000  0.590005  0.120588  1
