# generated using pymatgen
data_Y2Er(TmSn2)2
_symmetry_space_group_name_H-M   'P 1'
_cell_length_a   7.99557700
_cell_length_b   8.13608500
_cell_length_c   15.37287800
_cell_angle_alpha   90.00000000
_cell_angle_beta   90.00000000
_cell_angle_gamma   90.00000000
_symmetry_Int_Tables_number   1
_chemical_formula_structural   Y2Er(TmSn2)2
_chemical_formula_sum   'Y8 Er4 Tm8 Sn16'
_cell_volume   1000.04712991
_cell_formula_units_Z   4
loop_
 _symmetry_equiv_pos_site_id
 _symmetry_equiv_pos_as_xyz
  1  'x, y, z'
loop_
 _atom_site_type_symbol
 _atom_site_label
 _atom_site_symmetry_multiplicity
 _atom_site_fract_x
 _atom_site_fract_y
 _atom_site_fract_z
 _atom_site_occupancy
  Y  Y0  1  0.520774  0.319949  0.902632  1
  Y  Y1  1  0.020774  0.180051  0.597368  1
  Y  Y2  1  0.479226  0.680051  0.402632  1
  Y  Y3  1  0.979226  0.819949  0.097368  1
  Y  Y4  1  0.479185  0.680088  0.097338  1
  Y  Y5  1  0.979185  0.819912  0.402662  1
  Y  Y6  1  0.520815  0.319912  0.597338  1
  Y  Y7  1  0.020815  0.180088  0.902662  1
  Er  Er8  1  0.366687  0.837016  0.877216  1
  Er  Er9  1  0.866687  0.662984  0.622784  1
  Er  Er10  1  0.633313  0.162984  0.377216  1
  Er  Er11  1  0.133313  0.337016  0.122784  1
  Tm  Tm12  1  0.633456  0.163069  0.122797  1
  Tm  Tm13  1  0.133456  0.336931  0.377203  1
  Tm  Tm14  1  0.366544  0.836931  0.622797  1
  Tm  Tm15  1  0.866544  0.663069  0.877203  1
  Tm  Tm16  1  0.197901  0.503915  0.749911  1
  Tm  Tm17  1  0.697901  0.996085  0.750089  1
  Tm  Tm18  1  0.802099  0.496085  0.249911  1
  Tm  Tm19  1  0.302099  0.003915  0.250089  1
  Sn  Sn20  1  0.295391  0.037921  0.041823  1
  Sn  Sn21  1  0.795391  0.462079  0.458177  1
  Sn  Sn22  1  0.704609  0.962079  0.541823  1
  Sn  Sn23  1  0.204609  0.537921  0.958177  1
  Sn  Sn24  1  0.705874  0.962116  0.958521  1
  Sn  Sn25  1  0.205874  0.537884  0.541479  1
  Sn  Sn26  1  0.294126  0.037884  0.458521  1
  Sn  Sn27  1  0.794126  0.462116  0.041479  1
  Sn  Sn28  1  0.563874  0.620565  0.749973  1
  Sn  Sn29  1  0.063874  0.879435  0.750027  1
  Sn  Sn30  1  0.436126  0.379435  0.249973  1
  Sn  Sn31  1  0.936126  0.120565  0.250027  1
  Sn  Sn32  1  0.329942  0.147824  0.749889  1
  Sn  Sn33  1  0.829942  0.352176  0.750111  1
  Sn  Sn34  1  0.670058  0.852176  0.249889  1
  Sn  Sn35  1  0.170058  0.647824  0.250111  1
