# generated using pymatgen
data_Tb7DySc12Si15P
_symmetry_space_group_name_H-M   'P 1'
_cell_length_a   7.10685229
_cell_length_b   7.38574277
_cell_length_c   13.99867233
_cell_angle_alpha   89.98500808
_cell_angle_beta   89.98039011
_cell_angle_gamma   90.15129726
_symmetry_Int_Tables_number   1
_chemical_formula_structural   Tb7DySc12Si15P
_chemical_formula_sum   'Tb7 Dy1 Sc12 Si15 P1'
_cell_volume   734.77904244
_cell_formula_units_Z   1
loop_
 _symmetry_equiv_pos_site_id
 _symmetry_equiv_pos_as_xyz
  1  'x, y, z'
loop_
 _atom_site_type_symbol
 _atom_site_label
 _atom_site_symmetry_multiplicity
 _atom_site_fract_x
 _atom_site_fract_y
 _atom_site_fract_z
 _atom_site_occupancy
  Tb  Tb0  1  0.990721  0.827383  0.900441  1
  Tb  Tb1  1  0.489504  0.674697  0.903668  1
  Tb  Tb2  1  0.990681  0.827436  0.599607  1
  Tb  Tb3  1  0.511693  0.324859  0.096558  1
  Tb  Tb4  1  0.010641  0.174719  0.403158  1
  Tb  Tb5  1  0.511654  0.324946  0.403397  1
  Tb  Tb6  1  0.489562  0.674707  0.596383  1
  Dy  Dy7  1  0.010700  0.174929  0.097013  1
  Sc  Sc8  1  0.159793  0.501861  0.749983  1
  Sc  Sc9  1  0.838975  0.497644  0.249945  1
  Sc  Sc10  1  0.339413  0.002204  0.250006  1
  Sc  Sc11  1  0.662148  0.999304  0.749990  1
  Sc  Sc12  1  0.326779  0.172994  0.627347  1
  Sc  Sc13  1  0.668587  0.823739  0.375280  1
  Sc  Sc14  1  0.168393  0.676984  0.375201  1
  Sc  Sc15  1  0.668630  0.823878  0.124662  1
  Sc  Sc16  1  0.832539  0.322777  0.626514  1
  Sc  Sc17  1  0.326716  0.173011  0.872687  1
  Sc  Sc18  1  0.832693  0.322666  0.873510  1
  Sc  Sc19  1  0.168306  0.677024  0.124745  1
  Si  Si20  1  0.965404  0.882483  0.249906  1
  Si  Si21  1  0.466062  0.616956  0.250000  1
  Si  Si22  1  0.531605  0.381213  0.750007  1
  Si  Si23  1  0.296168  0.864799  0.749990  1
  Si  Si24  1  0.714293  0.125177  0.249824  1
  Si  Si25  1  0.214216  0.374573  0.249859  1
  Si  Si26  1  0.787088  0.626950  0.749982  1
  Si  Si27  1  0.156669  0.463562  0.540060  1
  Si  Si28  1  0.843023  0.536070  0.461415  1
  Si  Si29  1  0.341392  0.965012  0.460758  1
  Si  Si30  1  0.843242  0.535707  0.038681  1
  Si  Si31  1  0.658282  0.036739  0.540375  1
  Si  Si32  1  0.156488  0.463247  0.960060  1
  Si  Si33  1  0.658341  0.036771  0.959668  1
  Si  Si34  1  0.340927  0.965294  0.039322  1
  P  P35  1  0.028673  0.127684  0.750001  1
