# generated using pymatgen
data_NaY(CuO2)4
_symmetry_space_group_name_H-M   'P 1'
_cell_length_a   6.22882104
_cell_length_b   6.22881992
_cell_length_c   6.22881999
_cell_angle_alpha   125.07842862
_cell_angle_beta   125.07842116
_cell_angle_gamma   81.40817468
_symmetry_Int_Tables_number   1
_chemical_formula_structural   NaY(CuO2)4
_chemical_formula_sum   'Na1 Y1 Cu4 O8'
_cell_volume   155.83508145
_cell_formula_units_Z   1
loop_
 _symmetry_equiv_pos_site_id
 _symmetry_equiv_pos_as_xyz
  1  'x, y, z'
loop_
 _atom_site_type_symbol
 _atom_site_label
 _atom_site_symmetry_multiplicity
 _atom_site_fract_x
 _atom_site_fract_y
 _atom_site_fract_z
 _atom_site_occupancy
  Na  Na0  1  0.000000  0.000000  0.000000  1
  Y  Y1  1  0.750000  0.250000  0.500000  1
  Cu  Cu2  1  0.874823  0.634820  0.260878  1
  Cu  Cu3  1  0.373942  0.613944  0.739122  1
  Cu  Cu4  1  0.386056  0.125177  0.759997  1
  Cu  Cu5  1  0.365180  0.626058  0.240003  1
  O  O6  1  0.358298  0.973965  0.929427  1
  O  O7  1  0.044538  0.428871  0.070573  1
  O  O8  1  0.681568  0.835067  0.412216  1
  O  O9  1  0.422852  0.269352  0.587784  1
  O  O10  1  0.164933  0.577148  0.846501  1
  O  O11  1  0.730648  0.318432  0.153499  1
  O  O12  1  0.571129  0.641702  0.615667  1
  O  O13  1  0.026035  0.955462  0.384333  1
