# generated using pymatgen
data_Dy7HoRe3B24Rh
_symmetry_space_group_name_H-M   'P 1'
_cell_length_a   3.68377600
_cell_length_b   9.17238499
_cell_length_c   11.55292008
_cell_angle_alpha   90.17577789
_cell_angle_beta   90.00000000
_cell_angle_gamma   90.00000000
_symmetry_Int_Tables_number   1
_chemical_formula_structural   Dy7HoRe3B24Rh
_chemical_formula_sum   'Dy7 Ho1 Re3 B24 Rh1'
_cell_volume   390.35991432
_cell_formula_units_Z   1
loop_
 _symmetry_equiv_pos_site_id
 _symmetry_equiv_pos_as_xyz
  1  'x, y, z'
loop_
 _atom_site_type_symbol
 _atom_site_label
 _atom_site_symmetry_multiplicity
 _atom_site_fract_x
 _atom_site_fract_y
 _atom_site_fract_z
 _atom_site_occupancy
  Dy  Dy0  1  0.000000  0.318665  0.415541  1
  Dy  Dy1  1  0.000000  0.678006  0.591176  1
  Dy  Dy2  1  0.000000  0.827141  0.081337  1
  Dy  Dy3  1  0.000000  0.177252  0.912711  1
  Dy  Dy4  1  0.000000  0.943067  0.369913  1
  Dy  Dy5  1  0.000000  0.055910  0.628939  1
  Dy  Dy6  1  0.000000  0.441427  0.129044  1
  Ho  Ho7  1  0.000000  0.556768  0.871543  1
  Re  Re8  1  0.000000  0.362826  0.677770  1
  Re  Re9  1  0.000000  0.138311  0.179783  1
  Re  Re10  1  0.000000  0.861437  0.820985  1
  B  B11  1  0.500000  0.553939  0.433584  1
  B  B12  1  0.500000  0.446701  0.566832  1
  B  B13  1  0.500000  0.053510  0.066597  1
  B  B14  1  0.500000  0.946987  0.932552  1
  B  B15  1  0.500000  0.748691  0.420108  1
  B  B16  1  0.500000  0.251068  0.581110  1
  B  B17  1  0.500000  0.248993  0.081436  1
  B  B18  1  0.500000  0.751736  0.918744  1
  B  B19  1  0.500000  0.790756  0.265178  1
  B  B20  1  0.500000  0.208863  0.734007  1
  B  B21  1  0.500000  0.291415  0.235072  1
  B  B22  1  0.500000  0.708103  0.766049  1
  B  B23  1  0.500000  0.632022  0.184282  1
  B  B24  1  0.500000  0.369586  0.814102  1
  B  B25  1  0.500000  0.130878  0.314667  1
  B  B26  1  0.500000  0.868165  0.685709  1
  B  B27  1  0.500000  0.983368  0.211771  1
  B  B28  1  0.500000  0.016941  0.787134  1
  B  B29  1  0.500000  0.483513  0.288120  1
  B  B30  1  0.500000  0.518043  0.712581  1
  B  B31  1  0.500000  0.604211  0.029198  1
  B  B32  1  0.500000  0.397460  0.971797  1
  B  B33  1  0.500000  0.102332  0.470802  1
  B  B34  1  0.500000  0.894255  0.528454  1
  Rh  Rh35  1  0.000000  0.637653  0.321377  1
