# generated using pymatgen
data_TbY(Hg2O)2
_symmetry_space_group_name_H-M   'P 1'
_cell_length_a   5.58584504
_cell_length_b   5.60739643
_cell_length_c   11.05610504
_cell_angle_alpha   86.02172533
_cell_angle_beta   90.01398619
_cell_angle_gamma   89.99967813
_symmetry_Int_Tables_number   1
_chemical_formula_structural   TbY(Hg2O)2
_chemical_formula_sum   'Tb2 Y2 Hg8 O4'
_cell_volume   345.46540343
_cell_formula_units_Z   2
loop_
 _symmetry_equiv_pos_site_id
 _symmetry_equiv_pos_as_xyz
  1  'x, y, z'
loop_
 _atom_site_type_symbol
 _atom_site_label
 _atom_site_symmetry_multiplicity
 _atom_site_fract_x
 _atom_site_fract_y
 _atom_site_fract_z
 _atom_site_occupancy
  Tb  Tb0  1  0.574843  0.486183  0.098568  1
  Tb  Tb1  1  0.074848  0.987139  0.098804  1
  Y  Y2  1  0.574759  0.012854  0.900854  1
  Y  Y3  1  0.074767  0.513775  0.901050  1
  Hg  Hg4  1  0.575026  0.964389  0.277268  1
  Hg  Hg5  1  0.075379  0.965064  0.417435  1
  Hg  Hg6  1  0.575144  0.035100  0.583128  1
  Hg  Hg7  1  0.074817  0.035344  0.723241  1
  Hg  Hg8  1  0.075242  0.456245  0.276543  1
  Hg  Hg9  1  0.575570  0.475728  0.417397  1
  Hg  Hg10  1  0.075385  0.523948  0.582961  1
  Hg  Hg11  1  0.575068  0.544100  0.723940  1
  O  O12  1  0.824713  0.249988  0.999133  1
  O  O13  1  0.824891  0.750051  0.000294  1
  O  O14  1  0.324883  0.250007  0.999087  1
  O  O15  1  0.324706  0.750084  0.000300  1
