# generated using pymatgen
data_Zn11OsAu2
_symmetry_space_group_name_H-M   'P 1'
_cell_length_a   6.74887373
_cell_length_b   6.74887410
_cell_length_c   5.18814436
_cell_angle_alpha   80.65053258
_cell_angle_beta   80.65055462
_cell_angle_gamma   70.64773949
_symmetry_Int_Tables_number   1
_chemical_formula_structural   Zn11OsAu2
_chemical_formula_sum   'Zn11 Os1 Au2'
_cell_volume   218.49014443
_cell_formula_units_Z   1
loop_
 _symmetry_equiv_pos_site_id
 _symmetry_equiv_pos_as_xyz
  1  'x, y, z'
loop_
 _atom_site_type_symbol
 _atom_site_label
 _atom_site_symmetry_multiplicity
 _atom_site_fract_x
 _atom_site_fract_y
 _atom_site_fract_z
 _atom_site_occupancy
  Zn  Zn0  1  0.000000  0.000000  0.000000  1
  Zn  Zn1  1  0.774697  0.774697  0.385898  1
  Zn  Zn2  1  0.225303  0.225303  0.614102  1
  Zn  Zn3  1  0.221305  0.633877  0.310425  1
  Zn  Zn4  1  0.366123  0.778695  0.689575  1
  Zn  Zn5  1  0.778695  0.366123  0.689575  1
  Zn  Zn6  1  0.633877  0.221305  0.310425  1
  Zn  Zn7  1  0.005273  0.639745  0.796025  1
  Zn  Zn8  1  0.360255  0.994727  0.203975  1
  Zn  Zn9  1  0.994727  0.360255  0.203975  1
  Zn  Zn10  1  0.639745  0.005273  0.796025  1
  Os  Os11  1  0.000000  0.000000  0.500000  1
  Au  Au12  1  0.376180  0.376180  0.942070  1
  Au  Au13  1  0.623820  0.623820  0.057930  1
