# generated using pymatgen
data_Dy6Er2Ti9Si16Tc3
_symmetry_space_group_name_H-M   'P 1'
_cell_length_a   6.97886283
_cell_length_b   6.97767182
_cell_length_c   12.81162907
_cell_angle_alpha   90.08372195
_cell_angle_beta   89.92099014
_cell_angle_gamma   90.08022615
_symmetry_Int_Tables_number   1
_chemical_formula_structural   Dy6Er2Ti9Si16Tc3
_chemical_formula_sum   'Dy6 Er2 Ti9 Si16 Tc3'
_cell_volume   623.87596782
_cell_formula_units_Z   1
loop_
 _symmetry_equiv_pos_site_id
 _symmetry_equiv_pos_as_xyz
  1  'x, y, z'
loop_
 _atom_site_type_symbol
 _atom_site_label
 _atom_site_symmetry_multiplicity
 _atom_site_fract_x
 _atom_site_fract_y
 _atom_site_fract_z
 _atom_site_occupancy
  Dy  Dy0  1  0.340216  0.001470  0.467484  1
  Dy  Dy1  1  0.498185  0.841524  0.719434  1
  Dy  Dy2  1  0.500878  0.158831  0.217889  1
  Dy  Dy3  1  0.841582  0.498029  0.280548  1
  Dy  Dy4  1  0.158741  0.501121  0.781937  1
  Dy  Dy5  1  0.659442  0.999647  0.968584  1
  Er  Er6  1  0.001034  0.340502  0.532683  1
  Er  Er7  1  0.999993  0.659306  0.031418  1
  Ti  Ti8  1  0.674201  0.673707  0.500051  1
  Ti  Ti9  1  0.151855  0.006575  0.877840  1
  Ti  Ti10  1  0.494378  0.654057  0.124504  1
  Ti  Ti11  1  0.504616  0.347425  0.627639  1
  Ti  Ti12  1  0.653935  0.494905  0.875577  1
  Ti  Ti13  1  0.347542  0.504290  0.372349  1
  Ti  Ti14  1  0.847545  0.991001  0.376729  1
  Ti  Ti15  1  0.006255  0.152096  0.122250  1
  Ti  Ti16  1  0.991341  0.846816  0.623259  1
  Si  Si17  1  0.198542  0.129478  0.684001  1
  Si  Si18  1  0.370145  0.700539  0.933486  1
  Si  Si19  1  0.631614  0.297285  0.435096  1
  Si  Si20  1  0.701244  0.371710  0.066734  1
  Si  Si21  1  0.296704  0.629964  0.565187  1
  Si  Si22  1  0.800500  0.869763  0.183683  1
  Si  Si23  1  0.129038  0.199452  0.315899  1
  Si  Si24  1  0.870511  0.799719  0.816167  1
  Si  Si25  1  0.290591  0.951438  0.066907  1
  Si  Si26  1  0.547574  0.789610  0.315865  1
  Si  Si27  1  0.451737  0.211014  0.816810  1
  Si  Si28  1  0.790078  0.546768  0.683947  1
  Si  Si29  1  0.210306  0.452524  0.182900  1
  Si  Si30  1  0.708215  0.049846  0.567764  1
  Si  Si31  1  0.952206  0.292180  0.933284  1
  Si  Si32  1  0.049264  0.706532  0.432485  1
  Tc  Tc33  1  0.327786  0.328637  0.999956  1
  Tc  Tc34  1  0.173889  0.827745  0.248583  1
  Tc  Tc35  1  0.828318  0.174495  0.751068  1
