# generated using pymatgen
data_Pr2Nd4Ho7Er3(CdIr)4
_symmetry_space_group_name_H-M   'P 1'
_cell_length_a   9.72890440
_cell_length_b   9.73736123
_cell_length_c   9.72735347
_cell_angle_alpha   59.97649826
_cell_angle_beta   59.95291533
_cell_angle_gamma   59.96071110
_symmetry_Int_Tables_number   1
_chemical_formula_structural   Pr2Nd4Ho7Er3(CdIr)4
_chemical_formula_sum   'Pr2 Nd4 Ho7 Er3 Cd4 Ir4'
_cell_volume   651.06449896
_cell_formula_units_Z   1
loop_
 _symmetry_equiv_pos_site_id
 _symmetry_equiv_pos_as_xyz
  1  'x, y, z'
loop_
 _atom_site_type_symbol
 _atom_site_label
 _atom_site_symmetry_multiplicity
 _atom_site_fract_x
 _atom_site_fract_y
 _atom_site_fract_z
 _atom_site_occupancy
  Pr  Pr0  1  0.940752  0.559141  0.558773  1
  Pr  Pr1  1  0.558773  0.941334  0.940752  1
  Nd  Nd2  1  0.559067  0.940933  0.559067  1
  Nd  Nd3  1  0.941501  0.558499  0.941501  1
  Nd  Nd4  1  0.558437  0.558828  0.941042  1
  Nd  Nd5  1  0.941042  0.941693  0.558437  1
  Ho  Ho6  1  0.347873  0.346538  0.347860  1
  Ho  Ho7  1  0.348439  0.347013  0.957493  1
  Ho  Ho8  1  0.347860  0.957729  0.347873  1
  Ho  Ho9  1  0.957493  0.347056  0.348439  1
  Ho  Ho10  1  0.812736  0.187988  0.185844  1
  Ho  Ho11  1  0.185844  0.813432  0.812736  1
  Ho  Ho12  1  0.187190  0.812810  0.187190  1
  Er  Er13  1  0.812921  0.187079  0.812921  1
  Er  Er14  1  0.186370  0.188159  0.812415  1
  Er  Er15  1  0.812415  0.813055  0.186370  1
  Cd  Cd16  1  0.579021  0.579443  0.579136  1
  Cd  Cd17  1  0.579656  0.579399  0.261428  1
  Cd  Cd18  1  0.579136  0.262401  0.579021  1
  Cd  Cd19  1  0.261428  0.579517  0.579656  1
  Ir  Ir20  1  0.141717  0.140827  0.141584  1
  Ir  Ir21  1  0.141908  0.140832  0.576836  1
  Ir  Ir22  1  0.141584  0.575871  0.141717  1
  Ir  Ir23  1  0.576836  0.140422  0.141908  1
