# generated using pymatgen
data_Hf3Zr2Sc3(V3Si4)4
_symmetry_space_group_name_H-M   'P 1'
_cell_length_a   6.61763422
_cell_length_b   6.61875681
_cell_length_c   12.26346410
_cell_angle_alpha   90.01797394
_cell_angle_beta   90.03884414
_cell_angle_gamma   89.94178003
_symmetry_Int_Tables_number   1
_chemical_formula_structural   Hf3Zr2Sc3(V3Si4)4
_chemical_formula_sum   'Hf3 Zr2 Sc3 V12 Si16'
_cell_volume   537.14557366
_cell_formula_units_Z   1
loop_
 _symmetry_equiv_pos_site_id
 _symmetry_equiv_pos_as_xyz
  1  'x, y, z'
loop_
 _atom_site_type_symbol
 _atom_site_label
 _atom_site_symmetry_multiplicity
 _atom_site_fract_x
 _atom_site_fract_y
 _atom_site_fract_z
 _atom_site_occupancy
  Hf  Hf0  1  0.162132  0.496884  0.780065  1
  Hf  Hf1  1  0.502749  0.837666  0.719361  1
  Hf  Hf2  1  0.496698  0.162281  0.219626  1
  Zr  Zr3  1  0.003093  0.660963  0.030024  1
  Zr  Zr4  1  0.837244  0.502756  0.280847  1
  Sc  Sc5  1  0.998128  0.337931  0.529721  1
  Sc  Sc6  1  0.662429  0.001308  0.970260  1
  Sc  Sc7  1  0.338046  0.998317  0.470767  1
  V  V8  1  0.331390  0.333973  0.999631  1
  V  V9  1  0.167848  0.833126  0.249742  1
  V  V10  1  0.832860  0.167407  0.749921  1
  V  V11  1  0.666983  0.667305  0.500478  1
  V  V12  1  0.005229  0.159481  0.126339  1
  V  V13  1  0.342161  0.505369  0.375680  1
  V  V14  1  0.658002  0.494943  0.875444  1
  V  V15  1  0.505281  0.342615  0.624892  1
  V  V16  1  0.494580  0.659030  0.123581  1
  V  V17  1  0.995314  0.840806  0.627919  1
  V  V18  1  0.158955  0.004326  0.872750  1
  V  V19  1  0.840553  0.994688  0.372774  1
  Si  Si20  1  0.293136  0.961559  0.063548  1
  Si  Si21  1  0.537651  0.793831  0.315481  1
  Si  Si22  1  0.461428  0.206441  0.815178  1
  Si  Si23  1  0.793819  0.538329  0.684586  1
  Si  Si24  1  0.209641  0.459605  0.185939  1
  Si  Si25  1  0.708382  0.039488  0.563934  1
  Si  Si26  1  0.958795  0.289079  0.935105  1
  Si  Si27  1  0.040205  0.708781  0.436879  1
  Si  Si28  1  0.702649  0.371123  0.070444  1
  Si  Si29  1  0.128787  0.203342  0.321079  1
  Si  Si30  1  0.870718  0.795743  0.820968  1
  Si  Si31  1  0.204240  0.128737  0.678994  1
  Si  Si32  1  0.793760  0.873919  0.179281  1
  Si  Si33  1  0.296024  0.628381  0.570777  1
  Si  Si34  1  0.373823  0.705219  0.928147  1
  Si  Si35  1  0.627268  0.295247  0.429839  1
