# generated using pymatgen
data_Tm2GaB2Ru3Rh2
_symmetry_space_group_name_H-M   'P 1'
_cell_length_a   9.55181200
_cell_length_b   9.55181200
_cell_length_c   3.09125200
_cell_angle_alpha   90.00000000
_cell_angle_beta   90.00000000
_cell_angle_gamma   90.00000000
_symmetry_Int_Tables_number   1
_chemical_formula_structural   Tm2GaB2Ru3Rh2
_chemical_formula_sum   'Tm4 Ga2 B4 Ru6 Rh4'
_cell_volume   282.03690644
_cell_formula_units_Z   2
loop_
 _symmetry_equiv_pos_site_id
 _symmetry_equiv_pos_as_xyz
  1  'x, y, z'
loop_
 _atom_site_type_symbol
 _atom_site_label
 _atom_site_symmetry_multiplicity
 _atom_site_fract_x
 _atom_site_fract_y
 _atom_site_fract_z
 _atom_site_occupancy
  Tm  Tm0  1  0.826286  0.323442  0.000000  1
  Tm  Tm1  1  0.323442  0.173714  0.000000  1
  Tm  Tm2  1  0.676558  0.826286  0.000000  1
  Tm  Tm3  1  0.173714  0.676558  0.000000  1
  Ga  Ga4  1  0.000000  0.000000  0.000000  1
  Ga  Ga5  1  0.500000  0.500000  0.000000  1
  B  B6  1  0.626189  0.117648  0.000000  1
  B  B7  1  0.117648  0.373811  0.000000  1
  B  B8  1  0.882352  0.626189  0.000000  1
  B  B9  1  0.373811  0.882352  0.000000  1
  Ru  Ru10  1  0.069756  0.217605  0.500000  1
  Ru  Ru11  1  0.217605  0.930244  0.500000  1
  Ru  Ru12  1  0.782395  0.069756  0.500000  1
  Ru  Ru13  1  0.930244  0.782395  0.500000  1
  Ru  Ru14  1  0.500000  0.000000  0.500000  1
  Ru  Ru15  1  0.000000  0.500000  0.500000  1
  Rh  Rh16  1  0.430921  0.716390  0.500000  1
  Rh  Rh17  1  0.569079  0.283610  0.500000  1
  Rh  Rh18  1  0.716390  0.569079  0.500000  1
  Rh  Rh19  1  0.283610  0.430921  0.500000  1
