# generated using pymatgen
data_La5Ge5P7Ir19
_symmetry_space_group_name_H-M   'P 1'
_cell_length_a   13.05089081
_cell_length_b   12.93245623
_cell_length_c   4.06101500
_cell_angle_alpha   90.00000000
_cell_angle_beta   90.00000000
_cell_angle_gamma   119.38945354
_symmetry_Int_Tables_number   1
_chemical_formula_structural   La5Ge5P7Ir19
_chemical_formula_sum   'La5 Ge5 P7 Ir19'
_cell_volume   597.20791263
_cell_formula_units_Z   1
loop_
 _symmetry_equiv_pos_site_id
 _symmetry_equiv_pos_as_xyz
  1  'x, y, z'
loop_
 _atom_site_type_symbol
 _atom_site_label
 _atom_site_symmetry_multiplicity
 _atom_site_fract_x
 _atom_site_fract_y
 _atom_site_fract_z
 _atom_site_occupancy
  La  La0  1  0.000146  0.815056  0.500000  1
  La  La1  1  0.182408  0.187017  0.500000  1
  La  La2  1  0.818148  0.003687  0.500000  1
  La  La3  1  0.338932  0.669608  0.000000  1
  La  La4  1  0.662005  0.329645  0.000000  1
  Ge  Ge5  1  0.522747  0.678649  0.500000  1
  Ge  Ge6  1  0.317801  0.838614  0.500000  1
  Ge  Ge7  1  0.168191  0.486683  0.500000  1
  Ge  Ge8  1  0.477800  0.157114  0.500000  1
  Ge  Ge9  1  0.683059  0.518217  0.500000  1
  P  P10  1  0.000153  0.186260  0.000000  1
  P  P11  1  0.821975  0.818807  0.000000  1
  P  P12  1  0.178779  0.001570  0.000000  1
  P  P13  1  0.824431  0.307091  0.500000  1
  P  P14  1  0.003549  0.637930  0.000000  1
  P  P15  1  0.363880  0.363534  0.000000  1
  P  P16  1  0.635010  0.997579  0.000000  1
  Ir  Ir17  1  0.994788  0.286130  0.500000  1
  Ir  Ir18  1  0.731557  0.728238  0.500000  1
  Ir  Ir19  1  0.269080  0.000685  0.500000  1
  Ir  Ir20  1  0.634867  0.811668  0.000000  1
  Ir  Ir21  1  0.190286  0.822304  0.000000  1
  Ir  Ir22  1  0.177860  0.370821  0.000000  1
  Ir  Ir23  1  0.365917  0.178961  0.000000  1
  Ir  Ir24  1  0.814753  0.627621  0.000000  1
  Ir  Ir25  1  0.824063  0.206051  0.000000  1
  Ir  Ir26  1  0.519916  0.873718  0.500000  1
  Ir  Ir27  1  0.117740  0.643961  0.500000  1
  Ir  Ir28  1  0.355445  0.475434  0.500000  1
  Ir  Ir29  1  0.480839  0.353964  0.500000  1
  Ir  Ir30  1  0.871734  0.502648  0.500000  1
  Ir  Ir31  1  0.648333  0.122006  0.500000  1
  Ir  Ir32  1  0.998633  0.003405  0.000000  1
  Ir  Ir33  1  0.004626  0.459007  0.000000  1
  Ir  Ir34  1  0.541423  0.538637  0.000000  1
  Ir  Ir35  1  0.459125  0.997681  0.000000  1
