# generated using pymatgen
data_Y3Lu5Re3B24Ru
_symmetry_space_group_name_H-M   'P 1'
_cell_length_a   3.63596500
_cell_length_b   9.09277442
_cell_length_c   11.47541512
_cell_angle_alpha   90.09000503
_cell_angle_beta   90.00000000
_cell_angle_gamma   90.00000000
_symmetry_Int_Tables_number   1
_chemical_formula_structural   Y3Lu5Re3B24Ru
_chemical_formula_sum   'Y3 Lu5 Re3 B24 Ru1'
_cell_volume   379.38834083
_cell_formula_units_Z   1
loop_
 _symmetry_equiv_pos_site_id
 _symmetry_equiv_pos_as_xyz
  1  'x, y, z'
loop_
 _atom_site_type_symbol
 _atom_site_label
 _atom_site_symmetry_multiplicity
 _atom_site_fract_x
 _atom_site_fract_y
 _atom_site_fract_z
 _atom_site_occupancy
  Y  Y0  1  0.000000  0.321057  0.414237  1
  Y  Y1  1  0.000000  0.678008  0.587560  1
  Y  Y2  1  0.000000  0.823877  0.084306  1
  Lu  Lu3  1  0.000000  0.177146  0.913806  1
  Lu  Lu4  1  0.000000  0.942506  0.369753  1
  Lu  Lu5  1  0.000000  0.056063  0.629437  1
  Lu  Lu6  1  0.000000  0.443215  0.129631  1
  Lu  Lu7  1  0.000000  0.556299  0.871343  1
  Re  Re8  1  0.000000  0.360611  0.679974  1
  Re  Re9  1  0.000000  0.139247  0.179631  1
  Re  Re10  1  0.000000  0.861751  0.820329  1
  B  B11  1  0.500000  0.554268  0.432343  1
  B  B12  1  0.500000  0.446459  0.567347  1
  B  B13  1  0.500000  0.054160  0.066088  1
  B  B14  1  0.500000  0.947892  0.932669  1
  B  B15  1  0.500000  0.750309  0.418120  1
  B  B16  1  0.500000  0.248650  0.581862  1
  B  B17  1  0.500000  0.251018  0.080245  1
  B  B18  1  0.500000  0.749890  0.918548  1
  B  B19  1  0.500000  0.791906  0.265198  1
  B  B20  1  0.500000  0.206522  0.735477  1
  B  B21  1  0.500000  0.292864  0.234535  1
  B  B22  1  0.500000  0.707082  0.765916  1
  B  B23  1  0.500000  0.630419  0.184869  1
  B  B24  1  0.500000  0.369344  0.815854  1
  B  B25  1  0.500000  0.130170  0.315415  1
  B  B26  1  0.500000  0.870130  0.685070  1
  B  B27  1  0.500000  0.981987  0.212238  1
  B  B28  1  0.500000  0.019360  0.787650  1
  B  B29  1  0.500000  0.482990  0.287244  1
  B  B30  1  0.500000  0.518313  0.713175  1
  B  B31  1  0.500000  0.599473  0.028027  1
  B  B32  1  0.500000  0.399635  0.972582  1
  B  B33  1  0.500000  0.097950  0.472412  1
  B  B34  1  0.500000  0.900138  0.527247  1
  Ru  Ru35  1  0.000000  0.639295  0.319861  1
