# generated using pymatgen
data_CaEr5Pa2(ReB6)4
_symmetry_space_group_name_H-M   'P 1'
_cell_length_a   3.68873000
_cell_length_b   9.15196253
_cell_length_c   11.52487917
_cell_angle_alpha   90.37969196
_cell_angle_beta   90.00000000
_cell_angle_gamma   90.00000000
_symmetry_Int_Tables_number   1
_chemical_formula_structural   CaEr5Pa2(ReB6)4
_chemical_formula_sum   'Ca1 Er5 Pa2 Re4 B24'
_cell_volume   389.06122133
_cell_formula_units_Z   1
loop_
 _symmetry_equiv_pos_site_id
 _symmetry_equiv_pos_as_xyz
  1  'x, y, z'
loop_
 _atom_site_type_symbol
 _atom_site_label
 _atom_site_symmetry_multiplicity
 _atom_site_fract_x
 _atom_site_fract_y
 _atom_site_fract_z
 _atom_site_occupancy
  Ca  Ca0  1  0.000000  0.823553  0.085740  1
  Er  Er1  1  0.000000  0.174804  0.915258  1
  Er  Er2  1  0.000000  0.944029  0.371205  1
  Er  Er3  1  0.000000  0.055341  0.627466  1
  Er  Er4  1  0.000000  0.443697  0.127189  1
  Er  Er5  1  0.000000  0.557370  0.873201  1
  Pa  Pa6  1  0.000000  0.320837  0.412673  1
  Pa  Pa7  1  0.000000  0.679412  0.586903  1
  Re  Re8  1  0.000000  0.634353  0.325644  1
  Re  Re9  1  0.000000  0.364510  0.675693  1
  Re  Re10  1  0.000000  0.142634  0.182496  1
  Re  Re11  1  0.000000  0.859299  0.816740  1
  B  B12  1  0.500000  0.553208  0.433109  1
  B  B13  1  0.500000  0.446348  0.567541  1
  B  B14  1  0.500000  0.054292  0.067039  1
  B  B15  1  0.500000  0.947189  0.932306  1
  B  B16  1  0.500000  0.748692  0.419212  1
  B  B17  1  0.500000  0.250947  0.580941  1
  B  B18  1  0.500000  0.248642  0.080129  1
  B  B19  1  0.500000  0.751907  0.918800  1
  B  B20  1  0.500000  0.791192  0.266509  1
  B  B21  1  0.500000  0.208077  0.734334  1
  B  B22  1  0.500000  0.292677  0.233773  1
  B  B23  1  0.500000  0.708047  0.765808  1
  B  B24  1  0.500000  0.630749  0.186073  1
  B  B25  1  0.500000  0.368548  0.814955  1
  B  B26  1  0.500000  0.132531  0.313999  1
  B  B27  1  0.500000  0.868189  0.685550  1
  B  B28  1  0.500000  0.983356  0.212101  1
  B  B29  1  0.500000  0.017870  0.787704  1
  B  B30  1  0.500000  0.482535  0.287439  1
  B  B31  1  0.500000  0.517126  0.713271  1
  B  B32  1  0.500000  0.600650  0.028381  1
  B  B33  1  0.500000  0.397246  0.971111  1
  B  B34  1  0.500000  0.109898  0.469643  1
  B  B35  1  0.500000  0.890247  0.530064  1
