# generated using pymatgen
data_NaZnFeF6
_symmetry_space_group_name_H-M   'P 1'
_cell_length_a   9.05569400
_cell_length_b   9.05569445
_cell_length_c   4.99544400
_cell_angle_alpha   90.00000000
_cell_angle_beta   90.00000000
_cell_angle_gamma   120.00000565
_symmetry_Int_Tables_number   1
_chemical_formula_structural   NaZnFeF6
_chemical_formula_sum   'Na3 Zn3 Fe3 F18'
_cell_volume   354.77107288
_cell_formula_units_Z   3
loop_
 _symmetry_equiv_pos_site_id
 _symmetry_equiv_pos_as_xyz
  1  'x, y, z'
loop_
 _atom_site_type_symbol
 _atom_site_label
 _atom_site_symmetry_multiplicity
 _atom_site_fract_x
 _atom_site_fract_y
 _atom_site_fract_z
 _atom_site_occupancy
  Na  Na0  1  0.369638  0.000000  0.000000  1
  Na  Na1  1  0.000000  0.369638  0.000000  1
  Na  Na2  1  0.630362  0.630362  0.000000  1
  Zn  Zn3  1  0.699639  0.000000  0.500000  1
  Zn  Zn4  1  0.300361  0.300361  0.500000  1
  Zn  Zn5  1  0.000000  0.699639  0.500000  1
  Fe  Fe6  1  0.333333  0.666667  0.496267  1
  Fe  Fe7  1  0.666667  0.333333  0.503733  1
  Fe  Fe8  1  0.000000  0.000000  0.000000  1
  F  F9  1  0.770240  0.224676  0.291129  1
  F  F10  1  0.775324  0.545565  0.291129  1
  F  F11  1  0.454435  0.229760  0.291129  1
  F  F12  1  0.545565  0.775324  0.708871  1
  F  F13  1  0.229760  0.454435  0.708871  1
  F  F14  1  0.224676  0.770240  0.708871  1
  F  F15  1  0.403906  0.531784  0.281362  1
  F  F16  1  0.468216  0.872123  0.281362  1
  F  F17  1  0.127877  0.596094  0.281362  1
  F  F18  1  0.894608  0.098660  0.771629  1
  F  F19  1  0.901340  0.795948  0.771629  1
  F  F20  1  0.204052  0.105392  0.771629  1
  F  F21  1  0.795948  0.901340  0.228371  1
  F  F22  1  0.105392  0.204052  0.228371  1
  F  F23  1  0.098660  0.894608  0.228371  1
  F  F24  1  0.531784  0.403906  0.718638  1
  F  F25  1  0.596094  0.127877  0.718638  1
  F  F26  1  0.872123  0.468216  0.718638  1
