# generated using pymatgen
data_Y4Er3Ni16
_symmetry_space_group_name_H-M   'P 1'
_cell_length_a   8.72627838
_cell_length_b   8.71379168
_cell_length_c   8.71724482
_cell_angle_alpha   131.67702762
_cell_angle_beta   131.71269677
_cell_angle_gamma   70.74198363
_symmetry_Int_Tables_number   1
_chemical_formula_structural   Y4Er3Ni16
_chemical_formula_sum   'Y4 Er3 Ni16'
_cell_volume   361.95954143
_cell_formula_units_Z   1
loop_
 _symmetry_equiv_pos_site_id
 _symmetry_equiv_pos_as_xyz
  1  'x, y, z'
loop_
 _atom_site_type_symbol
 _atom_site_label
 _atom_site_symmetry_multiplicity
 _atom_site_fract_x
 _atom_site_fract_y
 _atom_site_fract_z
 _atom_site_occupancy
  Y  Y0  1  0.098255  0.097936  0.401868  1
  Y  Y1  1  0.696002  0.696405  0.598099  1
  Y  Y2  1  0.902129  0.303971  0.000407  1
  Y  Y3  1  0.749627  0.249520  0.499450  1
  Er  Er4  1  0.499969  0.500333  0.000035  1
  Er  Er5  1  0.303496  0.901710  0.999596  1
  Er  Er6  1  0.250151  0.750202  0.500551  1
  Ni  Ni7  1  0.432125  0.190967  0.998335  1
  Ni  Ni8  1  0.679319  0.931812  0.478229  1
  Ni  Ni9  1  0.934508  0.681879  0.482449  1
  Ni  Ni10  1  0.193171  0.433976  0.001634  1
  Ni  Ni11  1  0.318933  0.799734  0.250996  1
  Ni  Ni12  1  0.941174  0.666117  0.001479  1
  Ni  Ni13  1  0.808145  0.806809  0.240545  1
  Ni  Ni14  1  0.068785  0.549471  0.749458  1
  Ni  Ni15  1  0.061481  0.058354  0.726723  1
  Ni  Ni16  1  0.664462  0.939500  0.998497  1
  Ni  Ni17  1  0.565935  0.567926  0.759428  1
  Ni  Ni18  1  0.799353  0.319559  0.251586  1
  Ni  Ni19  1  0.547015  0.067098  0.747923  1
  Ni  Ni20  1  0.201353  0.454358  0.521644  1
  Ni  Ni21  1  0.333265  0.333166  0.273314  1
  Ni  Ni22  1  0.451347  0.199198  0.517754  1
