# generated using pymatgen
data_Sc3AlCu3SiGe
_symmetry_space_group_name_H-M   'P 1'
_cell_length_a   6.50923800
_cell_length_b   6.50923846
_cell_length_c   3.98392100
_cell_angle_alpha   90.00000000
_cell_angle_beta   90.00000000
_cell_angle_gamma   119.99999766
_symmetry_Int_Tables_number   1
_chemical_formula_structural   Sc3AlCu3SiGe
_chemical_formula_sum   'Sc3 Al1 Cu3 Si1 Ge1'
_cell_volume   146.18462328
_cell_formula_units_Z   1
loop_
 _symmetry_equiv_pos_site_id
 _symmetry_equiv_pos_as_xyz
  1  'x, y, z'
loop_
 _atom_site_type_symbol
 _atom_site_label
 _atom_site_symmetry_multiplicity
 _atom_site_fract_x
 _atom_site_fract_y
 _atom_site_fract_z
 _atom_site_occupancy
  Sc  Sc0  1  0.437129  0.439522  0.500000  1
  Sc  Sc1  1  0.560478  0.997607  0.500000  1
  Sc  Sc2  1  0.002393  0.562871  0.500000  1
  Al  Al3  1  0.000000  0.000000  0.500000  1
  Cu  Cu4  1  0.008459  0.247205  0.000000  1
  Cu  Cu5  1  0.238746  0.991541  0.000000  1
  Cu  Cu6  1  0.752795  0.761254  0.000000  1
  Si  Si7  1  0.333333  0.666667  0.000000  1
  Ge  Ge8  1  0.666667  0.333333  0.000000  1
