# generated using pymatgen
data_ScU(TlCl3)4
_symmetry_space_group_name_H-M   'P 1'
_cell_length_a   7.17047100
_cell_length_b   7.17047100
_cell_length_c   10.61710300
_cell_angle_alpha   90.00000000
_cell_angle_beta   90.00000000
_cell_angle_gamma   90.00000000
_symmetry_Int_Tables_number   1
_chemical_formula_structural   ScU(TlCl3)4
_chemical_formula_sum   'Sc1 U1 Tl4 Cl12'
_cell_volume   545.88529817
_cell_formula_units_Z   1
loop_
 _symmetry_equiv_pos_site_id
 _symmetry_equiv_pos_as_xyz
  1  'x, y, z'
loop_
 _atom_site_type_symbol
 _atom_site_label
 _atom_site_symmetry_multiplicity
 _atom_site_fract_x
 _atom_site_fract_y
 _atom_site_fract_z
 _atom_site_occupancy
  Sc  Sc0  1  0.000000  0.000000  0.000000  1
  U  U1  1  0.500000  0.500000  0.500000  1
  Tl  Tl2  1  0.500000  0.000000  0.797070  1
  Tl  Tl3  1  0.500000  0.000000  0.202930  1
  Tl  Tl4  1  0.000000  0.500000  0.202930  1
  Tl  Tl5  1  0.000000  0.500000  0.797070  1
  Cl  Cl6  1  0.763085  0.256201  0.000000  1
  Cl  Cl7  1  0.236915  0.743799  0.000000  1
  Cl  Cl8  1  0.500000  0.500000  0.259279  1
  Cl  Cl9  1  0.292980  0.216581  0.500000  1
  Cl  Cl10  1  0.256201  0.236915  0.000000  1
  Cl  Cl11  1  0.783419  0.292980  0.500000  1
  Cl  Cl12  1  0.000000  0.000000  0.233350  1
  Cl  Cl13  1  0.707020  0.783419  0.500000  1
  Cl  Cl14  1  0.216581  0.707020  0.500000  1
  Cl  Cl15  1  0.500000  0.500000  0.740721  1
  Cl  Cl16  1  0.743799  0.763085  0.000000  1
  Cl  Cl17  1  0.000000  0.000000  0.766650  1
