# generated using pymatgen
data_CaDy3As6Ir7
_symmetry_space_group_name_H-M   'P 1'
_cell_length_a   7.30676072
_cell_length_b   7.30676075
_cell_length_c   7.30676045
_cell_angle_alpha   109.50727296
_cell_angle_beta   109.50727610
_cell_angle_gamma   109.50729067
_symmetry_Int_Tables_number   1
_chemical_formula_structural   CaDy3As6Ir7
_chemical_formula_sum   'Ca1 Dy3 As6 Ir7'
_cell_volume   299.89662953
_cell_formula_units_Z   1
loop_
 _symmetry_equiv_pos_site_id
 _symmetry_equiv_pos_as_xyz
  1  'x, y, z'
loop_
 _atom_site_type_symbol
 _atom_site_label
 _atom_site_symmetry_multiplicity
 _atom_site_fract_x
 _atom_site_fract_y
 _atom_site_fract_z
 _atom_site_occupancy
  Ca  Ca0  1  0.500000  0.500000  0.500000  1
  Dy  Dy1  1  0.000000  0.000000  0.500000  1
  Dy  Dy2  1  0.500000  0.000000  0.000000  1
  Dy  Dy3  1  0.000000  0.500000  0.000000  1
  As  As4  1  0.678605  0.678605  0.996779  1
  As  As5  1  0.321395  0.321395  0.003221  1
  As  As6  1  0.996779  0.678605  0.678605  1
  As  As7  1  0.003221  0.321395  0.321395  1
  As  As8  1  0.678605  0.996779  0.678605  1
  As  As9  1  0.321395  0.003221  0.321395  1
  Ir  Ir10  1  0.000000  0.000000  0.000000  1
  Ir  Ir11  1  0.247719  0.500000  0.752281  1
  Ir  Ir12  1  0.752281  0.247719  0.500000  1
  Ir  Ir13  1  0.500000  0.247719  0.752281  1
  Ir  Ir14  1  0.500000  0.752281  0.247719  1
  Ir  Ir15  1  0.752281  0.500000  0.247719  1
  Ir  Ir16  1  0.247719  0.752281  0.500000  1
