# generated using pymatgen
data_Dy4LuSc5(Si5Ir2)4
_symmetry_space_group_name_H-M   'P 1'
_cell_length_a   12.49999800
_cell_length_b   12.49999800
_cell_length_c   4.17014500
_cell_angle_alpha   90.00000000
_cell_angle_beta   90.00000000
_cell_angle_gamma   90.00000000
_symmetry_Int_Tables_number   1
_chemical_formula_structural   Dy4LuSc5(Si5Ir2)4
_chemical_formula_sum   'Dy4 Lu1 Sc5 Si20 Ir8'
_cell_volume   651.58494774
_cell_formula_units_Z   1
loop_
 _symmetry_equiv_pos_site_id
 _symmetry_equiv_pos_as_xyz
  1  'x, y, z'
loop_
 _atom_site_type_symbol
 _atom_site_label
 _atom_site_symmetry_multiplicity
 _atom_site_fract_x
 _atom_site_fract_y
 _atom_site_fract_z
 _atom_site_occupancy
  Dy  Dy0  1  0.884015  0.384953  0.500000  1
  Dy  Dy1  1  0.115985  0.615047  0.500000  1
  Dy  Dy2  1  0.384953  0.115985  0.500000  1
  Dy  Dy3  1  0.615047  0.884015  0.500000  1
  Lu  Lu4  1  0.000000  0.000000  0.000000  1
  Sc  Sc5  1  0.500000  0.500000  0.000000  1
  Sc  Sc6  1  0.673044  0.174617  0.500000  1
  Sc  Sc7  1  0.326956  0.825383  0.500000  1
  Sc  Sc8  1  0.174617  0.326956  0.500000  1
  Sc  Sc9  1  0.825383  0.673044  0.500000  1
  Si  Si10  1  0.567061  0.068166  0.000000  1
  Si  Si11  1  0.432939  0.931834  0.000000  1
  Si  Si12  1  0.068166  0.432939  0.000000  1
  Si  Si13  1  0.931834  0.567061  0.000000  1
  Si  Si14  1  0.665702  0.699164  0.000000  1
  Si  Si15  1  0.334298  0.300836  0.000000  1
  Si  Si16  1  0.166150  0.800384  0.000000  1
  Si  Si17  1  0.833850  0.199616  0.000000  1
  Si  Si18  1  0.300836  0.665702  0.000000  1
  Si  Si19  1  0.699164  0.334298  0.000000  1
  Si  Si20  1  0.199616  0.166150  0.000000  1
  Si  Si21  1  0.800384  0.833850  0.000000  1
  Si  Si22  1  0.650654  0.507272  0.500000  1
  Si  Si23  1  0.349346  0.492728  0.500000  1
  Si  Si24  1  0.154672  0.993107  0.500000  1
  Si  Si25  1  0.845328  0.006893  0.500000  1
  Si  Si26  1  0.492728  0.650654  0.500000  1
  Si  Si27  1  0.507272  0.349346  0.500000  1
  Si  Si28  1  0.006893  0.154672  0.500000  1
  Si  Si29  1  0.993107  0.845328  0.500000  1
  Ir  Ir30  1  0.743650  0.520038  0.000000  1
  Ir  Ir31  1  0.256350  0.479962  0.000000  1
  Ir  Ir32  1  0.245813  0.979860  0.000000  1
  Ir  Ir33  1  0.754187  0.020140  0.000000  1
  Ir  Ir34  1  0.479962  0.743650  0.000000  1
  Ir  Ir35  1  0.520038  0.256350  0.000000  1
  Ir  Ir36  1  0.020140  0.245813  0.000000  1
  Ir  Ir37  1  0.979860  0.754187  0.000000  1
