# generated using pymatgen
data_Tb3YGa18Rh5Au
_symmetry_space_group_name_H-M   'P 1'
_cell_length_a   7.62666144
_cell_length_b   7.62666152
_cell_length_c   9.53785100
_cell_angle_alpha   89.98103917
_cell_angle_beta   89.98036979
_cell_angle_gamma   119.79446022
_symmetry_Int_Tables_number   1
_chemical_formula_structural   Tb3YGa18Rh5Au
_chemical_formula_sum   'Tb3 Y1 Ga18 Rh5 Au1'
_cell_volume   481.44399889
_cell_formula_units_Z   1
loop_
 _symmetry_equiv_pos_site_id
 _symmetry_equiv_pos_as_xyz
  1  'x, y, z'
loop_
 _atom_site_type_symbol
 _atom_site_label
 _atom_site_symmetry_multiplicity
 _atom_site_fract_x
 _atom_site_fract_y
 _atom_site_fract_z
 _atom_site_occupancy
  Tb  Tb0  1  0.993024  0.664273  0.250462  1
  Tb  Tb1  1  0.998797  0.329831  0.750012  1
  Tb  Tb2  1  0.670173  0.001206  0.249987  1
  Y  Y3  1  0.335727  0.006983  0.749535  1
  Ga  Ga4  1  0.329505  0.330708  0.562743  1
  Ga  Ga5  1  0.669290  0.670495  0.437259  1
  Ga  Ga6  1  0.667345  0.675174  0.070332  1
  Ga  Ga7  1  0.324828  0.332654  0.929665  1
  Ga  Ga8  1  0.340721  0.551014  0.251636  1
  Ga  Ga9  1  0.661313  0.462414  0.741933  1
  Ga  Ga10  1  0.537580  0.338690  0.258067  1
  Ga  Ga11  1  0.448978  0.659270  0.748364  1
  Ga  Ga12  1  0.011785  0.334437  0.083274  1
  Ga  Ga13  1  0.010561  0.675170  0.917458  1
  Ga  Ga14  1  0.003123  0.666641  0.578054  1
  Ga  Ga15  1  0.333362  0.996878  0.421947  1
  Ga  Ga16  1  0.999913  0.334024  0.421195  1
  Ga  Ga17  1  0.665972  0.000087  0.578806  1
  Ga  Ga18  1  0.665560  0.988214  0.916728  1
  Ga  Ga19  1  0.324834  0.989442  0.082540  1
  Ga  Ga20  1  0.124542  0.120959  0.251235  1
  Ga  Ga21  1  0.879042  0.875463  0.748765  1
  Rh  Rh22  1  0.000353  0.999647  0.999996  1
  Rh  Rh23  1  0.999962  0.000038  0.500003  1
  Rh  Rh24  1  0.330024  0.669972  0.999999  1
  Rh  Rh25  1  0.328796  0.671202  0.500001  1
  Rh  Rh26  1  0.672135  0.327868  0.500001  1
  Au  Au27  1  0.672753  0.327248  0.000001  1
