# generated using pymatgen
data_La2Sc3Sn3Hg
_symmetry_space_group_name_H-M   'P 1'
_cell_length_a   7.74572500
_cell_length_b   8.18850800
_cell_length_c   15.20942100
_cell_angle_alpha   90.00000000
_cell_angle_beta   90.00000000
_cell_angle_gamma   90.00000000
_symmetry_Int_Tables_number   1
_chemical_formula_structural   La2Sc3Sn3Hg
_chemical_formula_sum   'La8 Sc12 Sn12 Hg4'
_cell_volume   964.67168885
_cell_formula_units_Z   4
loop_
 _symmetry_equiv_pos_site_id
 _symmetry_equiv_pos_as_xyz
  1  'x, y, z'
loop_
 _atom_site_type_symbol
 _atom_site_label
 _atom_site_symmetry_multiplicity
 _atom_site_fract_x
 _atom_site_fract_y
 _atom_site_fract_z
 _atom_site_occupancy
  La  La0  1  0.995916  0.180085  0.091501  1
  La  La1  1  0.004084  0.819915  0.908499  1
  La  La2  1  0.504084  0.680085  0.908499  1
  La  La3  1  0.004084  0.819915  0.591501  1
  La  La4  1  0.495916  0.319915  0.091501  1
  La  La5  1  0.995916  0.180085  0.408499  1
  La  La6  1  0.495916  0.319915  0.408499  1
  La  La7  1  0.504084  0.680085  0.591501  1
  Sc  Sc8  1  0.172194  0.495812  0.750000  1
  Sc  Sc9  1  0.827806  0.504188  0.250000  1
  Sc  Sc10  1  0.327806  0.995812  0.250000  1
  Sc  Sc11  1  0.672194  0.004188  0.750000  1
  Sc  Sc12  1  0.334336  0.163199  0.628448  1
  Sc  Sc13  1  0.665664  0.836801  0.371552  1
  Sc  Sc14  1  0.165664  0.663199  0.371552  1
  Sc  Sc15  1  0.665664  0.836801  0.128448  1
  Sc  Sc16  1  0.834336  0.336801  0.628448  1
  Sc  Sc17  1  0.334336  0.163199  0.871552  1
  Sc  Sc18  1  0.834336  0.336801  0.871552  1
  Sc  Sc19  1  0.165664  0.663199  0.128448  1
  Sn  Sn20  1  0.302111  0.864224  0.750000  1
  Sn  Sn21  1  0.697889  0.135776  0.250000  1
  Sn  Sn22  1  0.197889  0.364224  0.250000  1
  Sn  Sn23  1  0.802111  0.635776  0.750000  1
  Sn  Sn24  1  0.175564  0.456241  0.544000  1
  Sn  Sn25  1  0.824436  0.543759  0.456000  1
  Sn  Sn26  1  0.324436  0.956241  0.456000  1
  Sn  Sn27  1  0.824436  0.543759  0.044000  1
  Sn  Sn28  1  0.675564  0.043759  0.544000  1
  Sn  Sn29  1  0.175564  0.456241  0.956000  1
  Sn  Sn30  1  0.675564  0.043759  0.956000  1
  Sn  Sn31  1  0.324436  0.956241  0.044000  1
  Hg  Hg32  1  0.029416  0.127088  0.750000  1
  Hg  Hg33  1  0.970584  0.872912  0.250000  1
  Hg  Hg34  1  0.470584  0.627088  0.250000  1
  Hg  Hg35  1  0.529416  0.372912  0.750000  1
