# generated using pymatgen
data_CeEr2Se3
_symmetry_space_group_name_H-M   'P 1'
_cell_length_a   4.04814700
_cell_length_b   4.04814663
_cell_length_c   10.23683400
_cell_angle_alpha   90.00000000
_cell_angle_beta   90.00000000
_cell_angle_gamma   119.99999486
_symmetry_Int_Tables_number   1
_chemical_formula_structural   CeEr2Se3
_chemical_formula_sum   'Ce1 Er2 Se3'
_cell_volume   145.28100129
_cell_formula_units_Z   1
loop_
 _symmetry_equiv_pos_site_id
 _symmetry_equiv_pos_as_xyz
  1  'x, y, z'
loop_
 _atom_site_type_symbol
 _atom_site_label
 _atom_site_symmetry_multiplicity
 _atom_site_fract_x
 _atom_site_fract_y
 _atom_site_fract_z
 _atom_site_occupancy
  Ce  Ce0  1  0.000000  0.000000  0.000000  1
  Er  Er1  1  0.333333  0.666667  0.666055  1
  Er  Er2  1  0.666667  0.333333  0.333945  1
  Se  Se3  1  0.333333  0.666667  0.179935  1
  Se  Se4  1  0.666667  0.333333  0.820065  1
  Se  Se5  1  0.000000  0.000000  0.500000  1
