# generated using pymatgen
data_Cs2Bi(SbTe2)5
_symmetry_space_group_name_H-M   'P 1'
_cell_length_a   4.36703600
_cell_length_b   13.13643700
_cell_length_c   24.37818300
_cell_angle_alpha   90.00000000
_cell_angle_beta   90.00000000
_cell_angle_gamma   90.00000000
_symmetry_Int_Tables_number   1
_chemical_formula_structural   Cs2Bi(SbTe2)5
_chemical_formula_sum   'Cs4 Bi2 Sb10 Te20'
_cell_volume   1398.51037406
_cell_formula_units_Z   2
loop_
 _symmetry_equiv_pos_site_id
 _symmetry_equiv_pos_as_xyz
  1  'x, y, z'
loop_
 _atom_site_type_symbol
 _atom_site_label
 _atom_site_symmetry_multiplicity
 _atom_site_fract_x
 _atom_site_fract_y
 _atom_site_fract_z
 _atom_site_occupancy
  Cs  Cs0  1  0.250000  0.990207  0.287438  1
  Cs  Cs1  1  0.750000  0.490544  0.211862  1
  Cs  Cs2  1  0.750000  0.009456  0.711862  1
  Cs  Cs3  1  0.250000  0.509793  0.787438  1
  Bi  Bi4  1  0.750000  0.363608  0.023244  1
  Bi  Bi5  1  0.750000  0.136392  0.523244  1
  Sb  Sb6  1  0.750000  0.807640  0.118150  1
  Sb  Sb7  1  0.250000  0.409750  0.570105  1
  Sb  Sb8  1  0.250000  0.192893  0.881938  1
  Sb  Sb9  1  0.750000  0.592710  0.430023  1
  Sb  Sb10  1  0.250000  0.090250  0.070105  1
  Sb  Sb11  1  0.250000  0.637282  0.976823  1
  Sb  Sb12  1  0.250000  0.307107  0.381938  1
  Sb  Sb13  1  0.250000  0.862718  0.476823  1
  Sb  Sb14  1  0.750000  0.907290  0.930023  1
  Sb  Sb15  1  0.750000  0.692360  0.618150  1
  Te  Te16  1  0.250000  0.748259  0.694740  1
  Te  Te17  1  0.750000  0.135762  0.980043  1
  Te  Te18  1  0.250000  0.302099  0.111386  1
  Te  Te19  1  0.750000  0.589969  0.062621  1
  Te  Te20  1  0.250000  0.083006  0.435253  1
  Te  Te21  1  0.750000  0.910031  0.562621  1
  Te  Te22  1  0.250000  0.416994  0.935253  1
  Te  Te23  1  0.250000  0.860930  0.019695  1
  Te  Te24  1  0.750000  0.364238  0.480043  1
  Te  Te25  1  0.750000  0.247916  0.805240  1
  Te  Te26  1  0.250000  0.527647  0.349183  1
  Te  Te27  1  0.250000  0.972353  0.849183  1
  Te  Te28  1  0.750000  0.805515  0.391147  1
  Te  Te29  1  0.750000  0.472243  0.651112  1
  Te  Te30  1  0.250000  0.197901  0.611386  1
  Te  Te31  1  0.250000  0.751741  0.194740  1
  Te  Te32  1  0.750000  0.027757  0.151112  1
  Te  Te33  1  0.750000  0.252084  0.305240  1
  Te  Te34  1  0.750000  0.694485  0.891147  1
  Te  Te35  1  0.250000  0.639070  0.519695  1
