# generated using pymatgen
data_La2Yb2SmRu2
_symmetry_space_group_name_H-M   'P 1'
_cell_length_a   8.85832764
_cell_length_b   8.85832765
_cell_length_c   7.41700664
_cell_angle_alpha   83.77217904
_cell_angle_beta   83.77217870
_cell_angle_gamma   43.66724299
_symmetry_Int_Tables_number   1
_chemical_formula_structural   La2Yb2SmRu2
_chemical_formula_sum   'La4 Yb4 Sm2 Ru4'
_cell_volume   399.10778176
_cell_formula_units_Z   2
loop_
 _symmetry_equiv_pos_site_id
 _symmetry_equiv_pos_as_xyz
  1  'x, y, z'
loop_
 _atom_site_type_symbol
 _atom_site_label
 _atom_site_symmetry_multiplicity
 _atom_site_fract_x
 _atom_site_fract_y
 _atom_site_fract_z
 _atom_site_occupancy
  La  La0  1  0.017315  0.794968  0.909423  1
  La  La1  1  0.205032  0.982685  0.590577  1
  La  La2  1  0.982685  0.205032  0.090577  1
  La  La3  1  0.794968  0.017315  0.409423  1
  Yb  Yb4  1  0.370005  0.203441  0.818083  1
  Yb  Yb5  1  0.796559  0.629995  0.681917  1
  Yb  Yb6  1  0.629995  0.796559  0.181917  1
  Yb  Yb7  1  0.203441  0.370005  0.318083  1
  Sm  Sm8  1  0.572928  0.427072  0.750000  1
  Sm  Sm9  1  0.427072  0.572928  0.250000  1
  Ru  Ru10  1  0.163827  0.627095  0.589411  1
  Ru  Ru11  1  0.372905  0.836173  0.910589  1
  Ru  Ru12  1  0.836173  0.372905  0.410589  1
  Ru  Ru13  1  0.627095  0.163827  0.089411  1
