# generated using pymatgen
data_La5(In2Ir)2
_symmetry_space_group_name_H-M   'P 1'
_cell_length_a   3.84169000
_cell_length_b   8.41801100
_cell_length_c   18.89578600
_cell_angle_alpha   90.00000000
_cell_angle_beta   90.00000000
_cell_angle_gamma   90.00000000
_symmetry_Int_Tables_number   1
_chemical_formula_structural   La5(In2Ir)2
_chemical_formula_sum   'La10 In8 Ir4'
_cell_volume   611.07816784
_cell_formula_units_Z   2
loop_
 _symmetry_equiv_pos_site_id
 _symmetry_equiv_pos_as_xyz
  1  'x, y, z'
loop_
 _atom_site_type_symbol
 _atom_site_label
 _atom_site_symmetry_multiplicity
 _atom_site_fract_x
 _atom_site_fract_y
 _atom_site_fract_z
 _atom_site_occupancy
  La  La0  1  0.000000  0.114885  0.409758  1
  La  La1  1  0.000000  0.885115  0.590242  1
  La  La2  1  0.000000  0.385115  0.909758  1
  La  La3  1  0.000000  0.614885  0.090242  1
  La  La4  1  0.000000  0.244887  0.221287  1
  La  La5  1  0.000000  0.755113  0.778713  1
  La  La6  1  0.000000  0.255113  0.721287  1
  La  La7  1  0.000000  0.744887  0.278713  1
  La  La8  1  0.000000  0.000000  0.000000  1
  La  La9  1  0.000000  0.500000  0.500000  1
  In  In10  1  0.500000  0.436404  0.350090  1
  In  In11  1  0.500000  0.563596  0.649910  1
  In  In12  1  0.500000  0.063596  0.850090  1
  In  In13  1  0.500000  0.936404  0.149910  1
  In  In14  1  0.500000  0.291247  0.069339  1
  In  In15  1  0.500000  0.708753  0.930661  1
  In  In16  1  0.500000  0.208753  0.569339  1
  In  In17  1  0.500000  0.791247  0.430661  1
  Ir  Ir18  1  0.500000  0.003438  0.303792  1
  Ir  Ir19  1  0.500000  0.996562  0.696208  1
  Ir  Ir20  1  0.500000  0.496562  0.803792  1
  Ir  Ir21  1  0.500000  0.503438  0.196208  1
