# generated using pymatgen
data_TaNb3FeCo(Si2Ir)2
_symmetry_space_group_name_H-M   'P 1'
_cell_length_a   3.73865200
_cell_length_b   6.37198315
_cell_length_c   7.22915200
_cell_angle_alpha   89.96550734
_cell_angle_beta   90.00000000
_cell_angle_gamma   90.00000000
_symmetry_Int_Tables_number   1
_chemical_formula_structural   TaNb3FeCo(Si2Ir)2
_chemical_formula_sum   'Ta1 Nb3 Fe1 Co1 Si4 Ir2'
_cell_volume   172.21736450
_cell_formula_units_Z   1
loop_
 _symmetry_equiv_pos_site_id
 _symmetry_equiv_pos_as_xyz
  1  'x, y, z'
loop_
 _atom_site_type_symbol
 _atom_site_label
 _atom_site_symmetry_multiplicity
 _atom_site_fract_x
 _atom_site_fract_y
 _atom_site_fract_z
 _atom_site_occupancy
  Ta  Ta0  1  0.750000  0.020570  0.680355  1
  Nb  Nb1  1  0.750000  0.524694  0.823901  1
  Nb  Nb2  1  0.250000  0.976043  0.325713  1
  Nb  Nb3  1  0.250000  0.477921  0.171690  1
  Fe  Fe4  1  0.250000  0.857428  0.934799  1
  Co  Co5  1  0.250000  0.353282  0.562934  1
  Si  Si6  1  0.250000  0.228739  0.867600  1
  Si  Si7  1  0.250000  0.726219  0.632196  1
  Si  Si8  1  0.750000  0.773311  0.113281  1
  Si  Si9  1  0.750000  0.271330  0.387070  1
  Ir  Ir10  1  0.750000  0.644458  0.438652  1
  Ir  Ir11  1  0.750000  0.146000  0.061810  1
