# generated using pymatgen
data_Ho3Sc7(SiHg)4
_symmetry_space_group_name_H-M   'P 1'
_cell_length_a   8.25715142
_cell_length_b   8.65307517
_cell_length_c   7.15768759
_cell_angle_alpha   90.08911104
_cell_angle_beta   89.85518067
_cell_angle_gamma   129.43964229
_symmetry_Int_Tables_number   1
_chemical_formula_structural   Ho3Sc7(SiHg)4
_chemical_formula_sum   'Ho3 Sc7 Si4 Hg4'
_cell_volume   394.96159129
_cell_formula_units_Z   1
loop_
 _symmetry_equiv_pos_site_id
 _symmetry_equiv_pos_as_xyz
  1  'x, y, z'
loop_
 _atom_site_type_symbol
 _atom_site_label
 _atom_site_symmetry_multiplicity
 _atom_site_fract_x
 _atom_site_fract_y
 _atom_site_fract_z
 _atom_site_occupancy
  Ho  Ho0  1  0.167794  0.434646  0.826196  1
  Ho  Ho1  1  0.669842  0.941255  0.676790  1
  Ho  Ho2  1  0.333170  0.062930  0.324313  1
  Sc  Sc3  1  0.047665  0.280729  0.324836  1
  Sc  Sc4  1  0.954306  0.713499  0.676703  1
  Sc  Sc5  1  0.459030  0.217347  0.823020  1
  Sc  Sc6  1  0.817391  0.567267  0.170777  1
  Sc  Sc7  1  0.547981  0.785117  0.175336  1
  Sc  Sc8  1  0.002015  0.997938  0.000242  1
  Sc  Sc9  1  0.503495  0.499422  0.498411  1
  Si  Si10  1  0.381132  0.377295  0.124024  1
  Si  Si11  1  0.622842  0.623652  0.875023  1
  Si  Si12  1  0.123272  0.121012  0.625480  1
  Si  Si13  1  0.878085  0.873521  0.374178  1
  Hg  Hg14  1  0.746081  0.193262  0.036087  1
  Hg  Hg15  1  0.239957  0.805768  0.984529  1
  Hg  Hg16  1  0.758987  0.323541  0.509281  1
  Hg  Hg17  1  0.246954  0.681800  0.474775  1
