# generated using pymatgen
data_Al4Cd4Ga2SO16
_symmetry_space_group_name_H-M   'P 1'
_cell_length_a   8.07932738
_cell_length_b   8.07890039
_cell_length_c   8.07859809
_cell_angle_alpha   109.79301448
_cell_angle_beta   109.13413703
_cell_angle_gamma   109.46334604
_symmetry_Int_Tables_number   1
_chemical_formula_structural   Al4Cd4Ga2SO16
_chemical_formula_sum   'Al4 Cd4 Ga2 S1 O16'
_cell_volume   406.02698265
_cell_formula_units_Z   1
loop_
 _symmetry_equiv_pos_site_id
 _symmetry_equiv_pos_as_xyz
  1  'x, y, z'
loop_
 _atom_site_type_symbol
 _atom_site_label
 _atom_site_symmetry_multiplicity
 _atom_site_fract_x
 _atom_site_fract_y
 _atom_site_fract_z
 _atom_site_occupancy
  Al  Al0  1  0.751810  0.495263  0.244059  1
  Al  Al1  1  0.751017  0.252631  0.499045  1
  Al  Al2  1  0.493963  0.251647  0.746462  1
  Al  Al3  1  0.249173  0.504851  0.755303  1
  Cd  Cd4  1  0.421950  0.010062  0.011366  1
  Cd  Cd5  1  0.998761  0.010947  0.417529  1
  Cd  Cd6  1  0.986706  0.404381  0.982526  1
  Cd  Cd7  1  0.592700  0.575046  0.588580  1
  Ga  Ga8  1  0.505421  0.747228  0.253908  1
  Ga  Ga9  1  0.248462  0.748267  0.501396  1
  S  S10  1  0.999643  0.999793  0.999770  1
  O  O11  1  0.587029  0.004232  0.287848  1
  O  O12  1  0.292243  0.723620  0.730197  1
  O  O13  1  0.576175  0.285928  0.994004  1
  O  O14  1  0.277261  0.004903  0.572738  1
  O  O15  1  0.000987  0.295764  0.586021  1
  O  O16  1  0.729582  0.715364  0.295219  1
  O  O17  1  0.702417  0.293416  0.704117  1
  O  O18  1  0.996272  0.562765  0.271386  1
  O  O19  1  0.278392  0.572847  0.000011  1
  O  O20  1  0.434430  0.700471  0.436871  1
  O  O21  1  0.708664  0.416258  0.412162  1
  O  O22  1  0.417583  0.424941  0.710355  1
  O  O23  1  0.914755  0.042456  0.137801  1
  O  O24  1  0.956948  0.093066  0.871223  1
  O  O25  1  0.905489  0.776522  0.864294  1
  O  O26  1  0.222165  0.087333  0.125806  1
