# generated using pymatgen
data_Ho3Tm9In20
_symmetry_space_group_name_H-M   'P 1'
_cell_length_a   6.46180982
_cell_length_b   10.37686788
_cell_length_c   12.19202641
_cell_angle_alpha   90.09503005
_cell_angle_beta   89.94400310
_cell_angle_gamma   90.00269604
_symmetry_Int_Tables_number   1
_chemical_formula_structural   Ho3Tm9In20
_chemical_formula_sum   'Ho3 Tm9 In20'
_cell_volume   817.51465953
_cell_formula_units_Z   1
loop_
 _symmetry_equiv_pos_site_id
 _symmetry_equiv_pos_as_xyz
  1  'x, y, z'
loop_
 _atom_site_type_symbol
 _atom_site_label
 _atom_site_symmetry_multiplicity
 _atom_site_fract_x
 _atom_site_fract_y
 _atom_site_fract_z
 _atom_site_occupancy
  Ho  Ho0  1  0.390430  0.993462  0.358597  1
  Ho  Ho1  1  0.890504  0.007006  0.141187  1
  Ho  Ho2  1  0.609293  0.493173  0.641410  1
  Tm  Tm3  1  0.349563  0.750726  0.054724  1
  Tm  Tm4  1  0.150384  0.749265  0.554917  1
  Tm  Tm5  1  0.651402  0.250813  0.944940  1
  Tm  Tm6  1  0.849930  0.248914  0.445160  1
  Tm  Tm7  1  0.891636  0.493175  0.140127  1
  Tm  Tm8  1  0.608497  0.006752  0.641247  1
  Tm  Tm9  1  0.108843  0.993006  0.858750  1
  Tm  Tm10  1  0.391236  0.506788  0.359047  1
  Tm  Tm11  1  0.108759  0.506981  0.859579  1
  In  In12  1  0.615604  0.750269  0.505487  1
  In  In13  1  0.884957  0.749458  0.005231  1
  In  In14  1  0.384368  0.250760  0.494784  1
  In  In15  1  0.116272  0.250379  0.993355  1
  In  In16  1  0.649645  0.748683  0.245017  1
  In  In17  1  0.850620  0.750437  0.745533  1
  In  In18  1  0.349673  0.249551  0.755391  1
  In  In19  1  0.149555  0.251453  0.254515  1
  In  In20  1  0.127891  0.748735  0.284125  1
  In  In21  1  0.370647  0.749853  0.784494  1
  In  In22  1  0.872086  0.248998  0.715784  1
  In  In23  1  0.627798  0.251411  0.216001  1
  In  In24  1  0.875905  0.542601  0.399930  1
  In  In25  1  0.624458  0.957015  0.899829  1
  In  In26  1  0.124498  0.042814  0.600127  1
  In  In27  1  0.375913  0.457250  0.099837  1
  In  In28  1  0.123182  0.456660  0.599978  1
  In  In29  1  0.376126  0.043990  0.098272  1
  In  In30  1  0.876180  0.956058  0.401558  1
  In  In31  1  0.624143  0.543565  0.901065  1
