# generated using pymatgen
data_Ba4AgH12Ir
_symmetry_space_group_name_H-M   'P 1'
_cell_length_a   8.05735512
_cell_length_b   8.05735556
_cell_length_c   5.96865890
_cell_angle_alpha   90.02863769
_cell_angle_beta   90.02863376
_cell_angle_gamma   136.47368504
_symmetry_Int_Tables_number   1
_chemical_formula_structural   Ba4AgH12Ir
_chemical_formula_sum   'Ba4 Ag1 H12 Ir1'
_cell_volume   266.86013300
_cell_formula_units_Z   1
loop_
 _symmetry_equiv_pos_site_id
 _symmetry_equiv_pos_as_xyz
  1  'x, y, z'
loop_
 _atom_site_type_symbol
 _atom_site_label
 _atom_site_symmetry_multiplicity
 _atom_site_fract_x
 _atom_site_fract_y
 _atom_site_fract_z
 _atom_site_occupancy
  Ba  Ba0  1  0.355045  0.644955  0.000000  1
  Ba  Ba1  1  0.855829  0.144171  0.500000  1
  Ba  Ba2  1  0.644955  0.355045  0.000000  1
  Ba  Ba3  1  0.144171  0.855829  0.500000  1
  Ag  Ag4  1  0.000000  0.000000  0.000000  1
  H  H5  1  0.000190  0.499345  0.250779  1
  H  H6  1  0.500655  0.999810  0.749221  1
  H  H7  1  0.999810  0.500655  0.749221  1
  H  H8  1  0.499345  0.000190  0.250779  1
  H  H9  1  0.115815  0.884185  0.000000  1
  H  H10  1  0.613239  0.386761  0.500000  1
  H  H11  1  0.884185  0.115815  0.000000  1
  H  H12  1  0.386761  0.613239  0.500000  1
  H  H13  1  0.701636  0.701636  0.298979  1
  H  H14  1  0.298364  0.298364  0.701021  1
  H  H15  1  0.699896  0.699896  0.703398  1
  H  H16  1  0.300104  0.300104  0.296602  1
  Ir  Ir17  1  0.500000  0.500000  0.500000  1
