# generated using pymatgen
data_Li4CaTb3Pt4
_symmetry_space_group_name_H-M   'P 1'
_cell_length_a   4.05920500
_cell_length_b   7.11993936
_cell_length_c   8.41913400
_cell_angle_alpha   89.27096580
_cell_angle_beta   90.00000000
_cell_angle_gamma   90.00000000
_symmetry_Int_Tables_number   1
_chemical_formula_structural   Li4CaTb3Pt4
_chemical_formula_sum   'Li4 Ca1 Tb3 Pt4'
_cell_volume   243.30416523
_cell_formula_units_Z   1
loop_
 _symmetry_equiv_pos_site_id
 _symmetry_equiv_pos_as_xyz
  1  'x, y, z'
loop_
 _atom_site_type_symbol
 _atom_site_label
 _atom_site_symmetry_multiplicity
 _atom_site_fract_x
 _atom_site_fract_y
 _atom_site_fract_z
 _atom_site_occupancy
  Li  Li0  1  0.250000  0.132966  0.058863  1
  Li  Li1  1  0.250000  0.620943  0.443566  1
  Li  Li2  1  0.750000  0.877162  0.942740  1
  Li  Li3  1  0.750000  0.364638  0.555520  1
  Ca  Ca4  1  0.250000  0.040134  0.682742  1
  Tb  Tb5  1  0.250000  0.544977  0.820794  1
  Tb  Tb6  1  0.750000  0.955659  0.321093  1
  Tb  Tb7  1  0.750000  0.461896  0.180487  1
  Pt  Pt8  1  0.250000  0.248573  0.364801  1
  Pt  Pt9  1  0.250000  0.754309  0.123921  1
  Pt  Pt10  1  0.750000  0.735525  0.619893  1
  Pt  Pt11  1  0.750000  0.263220  0.885581  1
