# generated using pymatgen
data_Nd3ThAl3GaRh4
_symmetry_space_group_name_H-M   'P 1'
_cell_length_a   4.30974300
_cell_length_b   7.04769962
_cell_length_c   8.12305932
_cell_angle_alpha   90.28999286
_cell_angle_beta   90.00000000
_cell_angle_gamma   90.00000000
_symmetry_Int_Tables_number   1
_chemical_formula_structural   Nd3ThAl3GaRh4
_chemical_formula_sum   'Nd3 Th1 Al3 Ga1 Rh4'
_cell_volume   246.72480872
_cell_formula_units_Z   1
loop_
 _symmetry_equiv_pos_site_id
 _symmetry_equiv_pos_as_xyz
  1  'x, y, z'
loop_
 _atom_site_type_symbol
 _atom_site_label
 _atom_site_symmetry_multiplicity
 _atom_site_fract_x
 _atom_site_fract_y
 _atom_site_fract_z
 _atom_site_occupancy
  Nd  Nd0  1  0.750000  0.461583  0.813320  1
  Nd  Nd1  1  0.750000  0.957667  0.679131  1
  Nd  Nd2  1  0.250000  0.036886  0.321332  1
  Th  Th3  1  0.250000  0.540337  0.179662  1
  Al  Al4  1  0.750000  0.361958  0.439795  1
  Al  Al5  1  0.750000  0.875306  0.061326  1
  Al  Al6  1  0.250000  0.133285  0.937475  1
  Ga  Ga7  1  0.250000  0.635379  0.563805  1
  Rh  Rh8  1  0.250000  0.764818  0.895639  1
  Rh  Rh9  1  0.750000  0.244739  0.121417  1
  Rh  Rh10  1  0.750000  0.724633  0.368609  1
  Rh  Rh11  1  0.250000  0.263408  0.618488  1
