# generated using pymatgen
data_Th3ZnSi4Rh3
_symmetry_space_group_name_H-M   'P 1'
_cell_length_a   4.11503722
_cell_length_b   4.15421013
_cell_length_c   12.74811822
_cell_angle_alpha   80.62274760
_cell_angle_beta   80.71197122
_cell_angle_gamma   90.00000443
_symmetry_Int_Tables_number   1
_chemical_formula_structural   Th3ZnSi4Rh3
_chemical_formula_sum   'Th3 Zn1 Si4 Rh3'
_cell_volume   212.11712908
_cell_formula_units_Z   1
loop_
 _symmetry_equiv_pos_site_id
 _symmetry_equiv_pos_as_xyz
  1  'x, y, z'
loop_
 _atom_site_type_symbol
 _atom_site_label
 _atom_site_symmetry_multiplicity
 _atom_site_fract_x
 _atom_site_fract_y
 _atom_site_fract_z
 _atom_site_occupancy
  Th  Th0  1  0.998584  0.998584  0.002832  1
  Th  Th1  1  0.854553  0.354553  0.290896  1
  Th  Th2  1  0.148104  0.648104  0.703790  1
  Zn  Zn3  1  0.597412  0.097412  0.805176  1
  Si  Si4  1  0.697691  0.197691  0.604621  1
  Si  Si5  1  0.303354  0.803354  0.393289  1
  Si  Si6  1  0.451780  0.451780  0.096440  1
  Si  Si7  1  0.548587  0.548587  0.902826  1
  Rh  Rh8  1  0.401264  0.901264  0.197471  1
  Rh  Rh9  1  0.249170  0.249170  0.501662  1
  Rh  Rh10  1  0.749502  0.749502  0.500995  1
