# generated using pymatgen
data_Sc2FeNi(BRu2)2
_symmetry_space_group_name_H-M   'P 1'
_cell_length_a   9.13589700
_cell_length_b   9.13589700
_cell_length_c   3.06681500
_cell_angle_alpha   90.00000000
_cell_angle_beta   90.00000000
_cell_angle_gamma   90.00000000
_symmetry_Int_Tables_number   1
_chemical_formula_structural   Sc2FeNi(BRu2)2
_chemical_formula_sum   'Sc4 Fe2 Ni2 B4 Ru8'
_cell_volume   255.97053017
_cell_formula_units_Z   2
loop_
 _symmetry_equiv_pos_site_id
 _symmetry_equiv_pos_as_xyz
  1  'x, y, z'
loop_
 _atom_site_type_symbol
 _atom_site_label
 _atom_site_symmetry_multiplicity
 _atom_site_fract_x
 _atom_site_fract_y
 _atom_site_fract_z
 _atom_site_occupancy
  Sc  Sc0  1  0.678479  0.178479  0.000000  1
  Sc  Sc1  1  0.321521  0.821521  0.000000  1
  Sc  Sc2  1  0.178479  0.321521  0.000000  1
  Sc  Sc3  1  0.821521  0.678479  0.000000  1
  Fe  Fe4  1  0.500000  0.500000  0.000000  1
  Fe  Fe5  1  0.000000  0.000000  0.000000  1
  Ni  Ni6  1  0.500000  0.000000  0.500000  1
  Ni  Ni7  1  0.000000  0.500000  0.500000  1
  B  B8  1  0.117790  0.617790  0.000000  1
  B  B9  1  0.882210  0.382210  0.000000  1
  B  B10  1  0.617790  0.882210  0.000000  1
  B  B11  1  0.382210  0.117790  0.000000  1
  Ru  Ru12  1  0.564008  0.720419  0.500000  1
  Ru  Ru13  1  0.435992  0.279581  0.500000  1
  Ru  Ru14  1  0.064008  0.779581  0.500000  1
  Ru  Ru15  1  0.935992  0.220419  0.500000  1
  Ru  Ru16  1  0.279581  0.564008  0.500000  1
  Ru  Ru17  1  0.720419  0.435992  0.500000  1
  Ru  Ru18  1  0.220419  0.064008  0.500000  1
  Ru  Ru19  1  0.779581  0.935992  0.500000  1
