# generated using pymatgen
data_Tb3Lu2(In2Ir)2
_symmetry_space_group_name_H-M   'P 1'
_cell_length_a   3.65747700
_cell_length_b   7.98622600
_cell_length_c   18.13183500
_cell_angle_alpha   90.00000000
_cell_angle_beta   90.00000000
_cell_angle_gamma   90.00000000
_symmetry_Int_Tables_number   1
_chemical_formula_structural   Tb3Lu2(In2Ir)2
_chemical_formula_sum   'Tb6 Lu4 In8 Ir4'
_cell_volume   529.62070866
_cell_formula_units_Z   2
loop_
 _symmetry_equiv_pos_site_id
 _symmetry_equiv_pos_as_xyz
  1  'x, y, z'
loop_
 _atom_site_type_symbol
 _atom_site_label
 _atom_site_symmetry_multiplicity
 _atom_site_fract_x
 _atom_site_fract_y
 _atom_site_fract_z
 _atom_site_occupancy
  Tb  Tb0  1  0.000000  0.243787  0.220311  1
  Tb  Tb1  1  0.000000  0.756213  0.779689  1
  Tb  Tb2  1  0.000000  0.256213  0.720311  1
  Tb  Tb3  1  0.000000  0.743787  0.279689  1
  Tb  Tb4  1  0.000000  0.000000  0.000000  1
  Tb  Tb5  1  0.000000  0.500000  0.500000  1
  Lu  Lu6  1  0.000000  0.115176  0.411043  1
  Lu  Lu7  1  0.000000  0.884824  0.588957  1
  Lu  Lu8  1  0.000000  0.384824  0.911043  1
  Lu  Lu9  1  0.000000  0.615176  0.088957  1
  In  In10  1  0.500000  0.421340  0.350026  1
  In  In11  1  0.500000  0.578660  0.649974  1
  In  In12  1  0.500000  0.078660  0.850026  1
  In  In13  1  0.500000  0.921340  0.149974  1
  In  In14  1  0.500000  0.298411  0.065306  1
  In  In15  1  0.500000  0.701589  0.934694  1
  In  In16  1  0.500000  0.201589  0.565306  1
  In  In17  1  0.500000  0.798411  0.434694  1
  Ir  Ir18  1  0.500000  0.024704  0.306139  1
  Ir  Ir19  1  0.500000  0.975296  0.693861  1
  Ir  Ir20  1  0.500000  0.475296  0.806139  1
  Ir  Ir21  1  0.500000  0.524704  0.193861  1
