# generated using pymatgen
data_TbEr5(BePd5)2
_symmetry_space_group_name_H-M   'P 1'
_cell_length_a   8.11334148
_cell_length_b   8.11334285
_cell_length_c   8.11334300
_cell_angle_alpha   127.65913742
_cell_angle_beta   124.87803887
_cell_angle_gamma   79.46745857
_symmetry_Int_Tables_number   1
_chemical_formula_structural   TbEr5(BePd5)2
_chemical_formula_sum   'Tb1 Er5 Be2 Pd10'
_cell_volume   335.25249182
_cell_formula_units_Z   1
loop_
 _symmetry_equiv_pos_site_id
 _symmetry_equiv_pos_as_xyz
  1  'x, y, z'
loop_
 _atom_site_type_symbol
 _atom_site_label
 _atom_site_symmetry_multiplicity
 _atom_site_fract_x
 _atom_site_fract_y
 _atom_site_fract_z
 _atom_site_occupancy
  Tb  Tb0  1  0.596671  0.750000  0.846671  1
  Er  Er1  1  0.828637  0.053117  0.775519  1
  Er  Er2  1  0.222402  0.446883  0.775519  1
  Er  Er3  1  0.172404  0.946316  0.226089  1
  Er  Er4  1  0.406526  0.250000  0.156526  1
  Er  Er5  1  0.779774  0.553684  0.226089  1
  Be  Be6  1  0.202258  0.750000  0.452258  1
  Be  Be7  1  0.789409  0.250000  0.539409  1
  Pd  Pd8  1  0.831304  0.595233  0.643898  1
  Pd  Pd9  1  0.548665  0.312594  0.643898  1
  Pd  Pd10  1  0.448524  0.093665  0.765459  1
  Pd  Pd11  1  0.831304  0.187406  0.236070  1
  Pd  Pd12  1  0.171793  0.406335  0.354859  1
  Pd  Pd13  1  0.448524  0.683066  0.354859  1
  Pd  Pd14  1  0.548665  0.904767  0.236070  1
  Pd  Pd15  1  0.171793  0.816934  0.765459  1
  Pd  Pd16  1  0.000673  0.005424  0.506096  1
  Pd  Pd17  1  0.000673  0.494576  0.995250  1
