# generated using pymatgen
data_Tb(PaGa2)5
_symmetry_space_group_name_H-M   'P 1'
_cell_length_a   6.05775517
_cell_length_b   6.05775753
_cell_length_c   9.45912100
_cell_angle_alpha   90.00000000
_cell_angle_beta   90.00000000
_cell_angle_gamma   102.60330105
_symmetry_Int_Tables_number   1
_chemical_formula_structural   Tb(PaGa2)5
_chemical_formula_sum   'Tb1 Pa5 Ga10'
_cell_volume   338.75176578
_cell_formula_units_Z   1
loop_
 _symmetry_equiv_pos_site_id
 _symmetry_equiv_pos_as_xyz
  1  'x, y, z'
loop_
 _atom_site_type_symbol
 _atom_site_label
 _atom_site_symmetry_multiplicity
 _atom_site_fract_x
 _atom_site_fract_y
 _atom_site_fract_z
 _atom_site_occupancy
  Tb  Tb0  1  0.358086  0.358086  0.750000  1
  Pa  Pa1  1  0.794361  0.205913  0.002016  1
  Pa  Pa2  1  0.205913  0.794361  0.002016  1
  Pa  Pa3  1  0.205913  0.794361  0.497984  1
  Pa  Pa4  1  0.794361  0.205913  0.497984  1
  Pa  Pa5  1  0.640694  0.640694  0.250000  1
  Ga  Ga6  1  0.082487  0.486798  0.250000  1
  Ga  Ga7  1  0.920252  0.510550  0.750000  1
  Ga  Ga8  1  0.486798  0.082487  0.250000  1
  Ga  Ga9  1  0.510550  0.920252  0.750000  1
  Ga  Ga10  1  0.028505  0.028505  0.250000  1
  Ga  Ga11  1  0.970464  0.970464  0.750000  1
  Ga  Ga12  1  0.308646  0.308646  0.053173  1
  Ga  Ga13  1  0.692161  0.692161  0.944828  1
  Ga  Ga14  1  0.692161  0.692161  0.555172  1
  Ga  Ga15  1  0.308646  0.308646  0.446827  1
