# generated using pymatgen
data_Pu2VCoB8
_symmetry_space_group_name_H-M   'P 1'
_cell_length_a   3.42362200
_cell_length_b   5.95449457
_cell_length_c   11.52193701
_cell_angle_alpha   90.08107365
_cell_angle_beta   90.00000000
_cell_angle_gamma   90.00000000
_symmetry_Int_Tables_number   1
_chemical_formula_structural   Pu2VCoB8
_chemical_formula_sum   'Pu4 V2 Co2 B16'
_cell_volume   234.88526548
_cell_formula_units_Z   2
loop_
 _symmetry_equiv_pos_site_id
 _symmetry_equiv_pos_as_xyz
  1  'x, y, z'
loop_
 _atom_site_type_symbol
 _atom_site_label
 _atom_site_symmetry_multiplicity
 _atom_site_fract_x
 _atom_site_fract_y
 _atom_site_fract_z
 _atom_site_occupancy
  Pu  Pu0  1  0.000000  0.124920  0.152871  1
  Pu  Pu1  1  0.000000  0.875080  0.847129  1
  Pu  Pu2  1  0.000000  0.626389  0.352581  1
  Pu  Pu3  1  0.000000  0.373611  0.647419  1
  V  V4  1  0.000000  0.627315  0.086511  1
  V  V5  1  0.000000  0.372685  0.913489  1
  Co  Co6  1  0.000000  0.132988  0.412929  1
  Co  Co7  1  0.000000  0.867012  0.587071  1
  B  B8  1  0.500000  0.473178  0.193784  1
  B  B9  1  0.500000  0.526822  0.806216  1
  B  B10  1  0.500000  0.977680  0.310805  1
  B  B11  1  0.500000  0.022320  0.689195  1
  B  B12  1  0.500000  0.281253  0.316872  1
  B  B13  1  0.500000  0.718747  0.683128  1
  B  B14  1  0.500000  0.785558  0.188535  1
  B  B15  1  0.500000  0.214442  0.811465  1
  B  B16  1  0.500000  0.361309  0.467027  1
  B  B17  1  0.500000  0.638691  0.532973  1
  B  B18  1  0.500000  0.865789  0.033251  1
  B  B19  1  0.500000  0.134211  0.966749  1
  B  B20  1  0.500000  0.384774  0.046521  1
  B  B21  1  0.500000  0.615226  0.953479  1
  B  B22  1  0.500000  0.887212  0.453935  1
  B  B23  1  0.500000  0.112788  0.546065  1
