# generated using pymatgen
data_Hf6Al16Pt(RhAu)3
_symmetry_space_group_name_H-M   'P 1'
_cell_length_a   8.78325092
_cell_length_b   8.80924889
_cell_length_c   8.78996796
_cell_angle_alpha   59.87714512
_cell_angle_beta   59.96208587
_cell_angle_gamma   59.95252373
_symmetry_Int_Tables_number   1
_chemical_formula_structural   Hf6Al16Pt(RhAu)3
_chemical_formula_sum   'Hf6 Al16 Pt1 Rh3 Au3'
_cell_volume   480.15510992
_cell_formula_units_Z   1
loop_
 _symmetry_equiv_pos_site_id
 _symmetry_equiv_pos_as_xyz
  1  'x, y, z'
loop_
 _atom_site_type_symbol
 _atom_site_label
 _atom_site_symmetry_multiplicity
 _atom_site_fract_x
 _atom_site_fract_y
 _atom_site_fract_z
 _atom_site_occupancy
  Hf  Hf0  1  0.683833  0.315878  0.316153  1
  Hf  Hf1  1  0.316167  0.684127  0.683820  1
  Hf  Hf2  1  0.319282  0.680716  0.319280  1
  Hf  Hf3  1  0.319963  0.319703  0.680018  1
  Hf  Hf4  1  0.680695  0.319307  0.680687  1
  Hf  Hf5  1  0.680044  0.680311  0.319948  1
  Al  Al6  1  0.329680  0.334412  0.340010  1
  Al  Al7  1  0.338211  0.326472  0.997835  1
  Al  Al8  1  0.997847  0.337487  0.338209  1
  Al  Al9  1  0.340024  0.995890  0.329675  1
  Al  Al10  1  0.670285  0.665615  0.659981  1
  Al  Al11  1  0.661781  0.673548  0.002147  1
  Al  Al12  1  0.659991  0.004112  0.670284  1
  Al  Al13  1  0.002154  0.662535  0.661780  1
  Al  Al14  1  0.129311  0.110771  0.112982  1
  Al  Al15  1  0.121301  0.124282  0.644608  1
  Al  Al16  1  0.644597  0.109805  0.121302  1
  Al  Al17  1  0.112979  0.646929  0.129325  1
  Al  Al18  1  0.870708  0.889227  0.887022  1
  Al  Al19  1  0.878702  0.875689  0.355421  1
  Al  Al20  1  0.887018  0.353036  0.870721  1
  Al  Al21  1  0.355410  0.890188  0.878701  1
  Pt  Pt22  1  0.499991  0.000008  0.499996  1
  Rh  Rh23  1  0.000019  0.999947  0.000090  1
  Rh  Rh24  1  0.500013  0.000037  0.999956  1
  Rh  Rh25  1  0.999981  0.499955  0.500067  1
  Au  Au26  1  0.000007  0.500007  0.999982  1
  Au  Au27  1  0.000002  0.000005  0.500004  1
  Au  Au28  1  0.500002  0.499998  0.999993  1
