# generated using pymatgen
data_AlV20(SiSe10)4
_symmetry_space_group_name_H-M   'P 1'
_cell_length_a   12.45314264
_cell_length_b   12.45314340
_cell_length_c   12.45314300
_cell_angle_alpha   99.61795101
_cell_angle_beta   99.61795160
_cell_angle_gamma   131.74716379
_symmetry_Int_Tables_number   1
_chemical_formula_structural   AlV20(SiSe10)4
_chemical_formula_sum   'Al1 V20 Si4 Se40'
_cell_volume   1315.01464509
_cell_formula_units_Z   1
loop_
 _symmetry_equiv_pos_site_id
 _symmetry_equiv_pos_as_xyz
  1  'x, y, z'
loop_
 _atom_site_type_symbol
 _atom_site_label
 _atom_site_symmetry_multiplicity
 _atom_site_fract_x
 _atom_site_fract_y
 _atom_site_fract_z
 _atom_site_occupancy
  Al  Al0  1  0.000000  0.000000  0.000000  1
  V  V1  1  0.961191  0.883518  0.641562  1
  V  V2  1  0.360716  0.083852  0.241049  1
  V  V3  1  0.561434  0.683796  0.040514  1
  V  V4  1  0.160122  0.482005  0.441714  1
  V  V5  1  0.758813  0.280851  0.839174  1
  V  V6  1  0.880335  0.639284  0.723136  1
  V  V7  1  0.281591  0.839878  0.321882  1
  V  V8  1  0.479080  0.438566  0.122361  1
  V  V9  1  0.080359  0.241186  0.522036  1
  V  V10  1  0.680372  0.038809  0.922327  1
  V  V11  1  0.719149  0.558323  0.477964  1
  V  V12  1  0.116482  0.758045  0.077673  1
  V  V13  1  0.316204  0.356717  0.877639  1
  V  V14  1  0.916148  0.157198  0.276864  1
  V  V15  1  0.517995  0.959709  0.678118  1
  V  V16  1  0.040291  0.718409  0.558286  1
  V  V17  1  0.441677  0.919641  0.160826  1
  V  V18  1  0.643283  0.520920  0.959486  1
  V  V19  1  0.241955  0.319628  0.358438  1
  V  V20  1  0.842802  0.119665  0.758951  1
  Si  Si21  1  0.199592  0.599955  0.799509  1
  Si  Si22  1  0.400045  0.199554  0.599638  1
  Si  Si23  1  0.599917  0.800408  0.400362  1
  Si  Si24  1  0.800446  0.400083  0.200491  1
  Se  Se25  1  0.820905  0.461725  0.549579  1
  Se  Se26  1  0.217634  0.660738  0.145644  1
  Se  Se27  1  0.422449  0.262972  0.947073  1
  Se  Se28  1  0.020181  0.062342  0.348713  1
  Se  Se29  1  0.618393  0.861147  0.745314  1
  Se  Se30  1  0.928012  0.782366  0.443105  1
  Se  Se31  1  0.328532  0.979819  0.042161  1
  Se  Se32  1  0.524624  0.577551  0.840522  1
  Se  Se33  1  0.126920  0.381607  0.242754  1
  Se  Se34  1  0.728674  0.179095  0.640821  1
  Se  Se35  1  0.138853  0.884167  0.757246  1
  Se  Se36  1  0.538275  0.087853  0.359179  1
  Se  Se37  1  0.737028  0.684102  0.159478  1
  Se  Se38  1  0.339262  0.484906  0.556895  1
  Se  Se39  1  0.937658  0.286371  0.957839  1
  Se  Se40  1  0.713629  0.671468  0.651287  1
  Se  Se41  1  0.115833  0.873080  0.254686  1
  Se  Se42  1  0.315898  0.475376  0.052927  1
  Se  Se43  1  0.912147  0.271326  0.450421  1
  Se  Se44  1  0.515094  0.071988  0.854356  1
  Se  Se45  1  0.718793  0.158120  0.146595  1
  Se  Se46  1  0.917047  0.751395  0.944860  1
  Se  Se47  1  0.119899  0.358964  0.745226  1
  Se  Se48  1  0.319117  0.957294  0.546180  1
  Se  Se49  1  0.520274  0.559247  0.347059  1
  Se  Se50  1  0.625327  0.880101  0.239065  1
  Se  Se51  1  0.826784  0.479726  0.038973  1
  Se  Se52  1  0.027813  0.082953  0.834348  1
  Se  Se53  1  0.227062  0.680883  0.638177  1
  Se  Se54  1  0.427802  0.281207  0.439327  1
  Se  Se55  1  0.440753  0.787811  0.961027  1
  Se  Se56  1  0.641036  0.386262  0.760935  1
  Se  Se57  1  0.841880  0.988475  0.560673  1
  Se  Se58  1  0.042706  0.588886  0.361823  1
  Se  Se59  1  0.248605  0.193464  0.165652  1
  Se  Se60  1  0.806536  0.972187  0.055140  1
  Se  Se61  1  0.011525  0.572198  0.853405  1
  Se  Se62  1  0.212189  0.173216  0.652941  1
  Se  Se63  1  0.411114  0.772938  0.453820  1
  Se  Se64  1  0.613738  0.374673  0.254774  1
