# generated using pymatgen
data_Nd6P13(IrRh9)2
_symmetry_space_group_name_H-M   'P 1'
_cell_length_a   13.46452991
_cell_length_b   13.46028665
_cell_length_c   3.98725901
_cell_angle_alpha   89.99705223
_cell_angle_beta   89.99677923
_cell_angle_gamma   120.07134210
_symmetry_Int_Tables_number   1
_chemical_formula_structural   Nd6P13(IrRh9)2
_chemical_formula_sum   'Nd6 P13 Ir2 Rh18'
_cell_volume   625.37126407
_cell_formula_units_Z   1
loop_
 _symmetry_equiv_pos_site_id
 _symmetry_equiv_pos_as_xyz
  1  'x, y, z'
loop_
 _atom_site_type_symbol
 _atom_site_label
 _atom_site_symmetry_multiplicity
 _atom_site_fract_x
 _atom_site_fract_y
 _atom_site_fract_z
 _atom_site_occupancy
  Nd  Nd0  1  0.530272  0.717282  0.247180  1
  Nd  Nd1  1  0.282714  0.813193  0.247504  1
  Nd  Nd2  1  0.187229  0.470156  0.247289  1
  Nd  Nd3  1  0.469783  0.282717  0.752915  1
  Nd  Nd4  1  0.717129  0.187133  0.752899  1
  Nd  Nd5  1  0.812781  0.530347  0.752863  1
  P  P6  1  0.522528  0.136089  0.250833  1
  P  P7  1  0.863153  0.385633  0.250932  1
  P  P8  1  0.613522  0.477314  0.250874  1
  P  P9  1  0.948256  0.718504  0.255390  1
  P  P10  1  0.281724  0.229800  0.255531  1
  P  P11  1  0.770407  0.052058  0.255331  1
  P  P12  1  0.385960  0.523236  0.748884  1
  P  P13  1  0.476792  0.862613  0.749075  1
  P  P14  1  0.137709  0.614556  0.749007  1
  P  P15  1  0.718593  0.770532  0.744943  1
  P  P16  1  0.229209  0.947942  0.744839  1
  P  P17  1  0.052118  0.281588  0.745040  1
  P  P18  1  0.000154  0.999411  0.000126  1
  Ir  Ir19  1  0.333346  0.666497  0.750582  1
  Ir  Ir20  1  0.922734  0.248745  0.255727  1
  Rh  Rh21  1  0.751009  0.673913  0.255712  1
  Rh  Rh22  1  0.326083  0.076948  0.255735  1
  Rh  Rh23  1  0.439333  0.024714  0.751897  1
  Rh  Rh24  1  0.975646  0.414731  0.752001  1
  Rh  Rh25  1  0.585375  0.560663  0.752000  1
  Rh  Rh26  1  0.666634  0.333451  0.249126  1
  Rh  Rh27  1  0.092456  0.184365  0.245225  1
  Rh  Rh28  1  0.815030  0.908193  0.245582  1
  Rh  Rh29  1  0.092136  0.907120  0.246001  1
  Rh  Rh30  1  0.024223  0.584959  0.248181  1
  Rh  Rh31  1  0.414803  0.439531  0.248026  1
  Rh  Rh32  1  0.560791  0.975737  0.248010  1
  Rh  Rh33  1  0.673679  0.922798  0.743936  1
  Rh  Rh34  1  0.076992  0.750633  0.743909  1
  Rh  Rh35  1  0.249001  0.326207  0.743779  1
  Rh  Rh36  1  0.907063  0.814957  0.754012  1
  Rh  Rh37  1  0.185354  0.092216  0.754367  1
  Rh  Rh38  1  0.908279  0.093515  0.754738  1
