# generated using pymatgen
data_CeHo(Si7Ir3)2
_symmetry_space_group_name_H-M   'P 1'
_cell_length_a   8.08236289
_cell_length_b   8.08236288
_cell_length_c   8.08236328
_cell_angle_alpha   56.55416875
_cell_angle_beta   56.55417219
_cell_angle_gamma   56.55416179
_symmetry_Int_Tables_number   1
_chemical_formula_structural   CeHo(Si7Ir3)2
_chemical_formula_sum   'Ce1 Ho1 Si14 Ir6'
_cell_volume   343.60926444
_cell_formula_units_Z   1
loop_
 _symmetry_equiv_pos_site_id
 _symmetry_equiv_pos_as_xyz
  1  'x, y, z'
loop_
 _atom_site_type_symbol
 _atom_site_label
 _atom_site_symmetry_multiplicity
 _atom_site_fract_x
 _atom_site_fract_y
 _atom_site_fract_z
 _atom_site_occupancy
  Ce  Ce0  1  0.000000  0.000000  0.000000  1
  Ho  Ho1  1  0.500000  0.500000  0.500000  1
  Si  Si2  1  0.850152  0.064177  0.672300  1
  Si  Si3  1  0.672300  0.850152  0.064177  1
  Si  Si4  1  0.064177  0.672300  0.850152  1
  Si  Si5  1  0.648828  0.827379  0.435794  1
  Si  Si6  1  0.249891  0.249891  0.249891  1
  Si  Si7  1  0.750109  0.750109  0.750109  1
  Si  Si8  1  0.172621  0.564206  0.351172  1
  Si  Si9  1  0.564206  0.351172  0.172621  1
  Si  Si10  1  0.351172  0.172621  0.564206  1
  Si  Si11  1  0.935823  0.327700  0.149848  1
  Si  Si12  1  0.327700  0.149848  0.935823  1
  Si  Si13  1  0.149848  0.935823  0.327700  1
  Si  Si14  1  0.827379  0.435794  0.648828  1
  Si  Si15  1  0.435794  0.648828  0.827379  1
  Ir  Ir16  1  0.748820  0.070601  0.431470  1
  Ir  Ir17  1  0.431470  0.748820  0.070601  1
  Ir  Ir18  1  0.070601  0.431470  0.748820  1
  Ir  Ir19  1  0.251180  0.929399  0.568530  1
  Ir  Ir20  1  0.568530  0.251180  0.929399  1
  Ir  Ir21  1  0.929399  0.568530  0.251180  1
