# generated using pymatgen
data_Nd6Cr2Fe3Co13P12
_symmetry_space_group_name_H-M   'P 1'
_cell_length_a   3.76088200
_cell_length_b   10.72628206
_cell_length_c   12.34270607
_cell_angle_alpha   89.98773925
_cell_angle_beta   90.00000000
_cell_angle_gamma   90.00000000
_symmetry_Int_Tables_number   1
_chemical_formula_structural   Nd6Cr2Fe3Co13P12
_chemical_formula_sum   'Nd6 Cr2 Fe3 Co13 P12'
_cell_volume   497.90822142
_cell_formula_units_Z   1
loop_
 _symmetry_equiv_pos_site_id
 _symmetry_equiv_pos_as_xyz
  1  'x, y, z'
loop_
 _atom_site_type_symbol
 _atom_site_label
 _atom_site_symmetry_multiplicity
 _atom_site_fract_x
 _atom_site_fract_y
 _atom_site_fract_z
 _atom_site_occupancy
  Nd  Nd0  1  0.000000  0.499942  0.523072  1
  Nd  Nd1  1  0.500000  0.000348  0.476683  1
  Nd  Nd2  1  0.500000  0.819664  0.204005  1
  Nd  Nd3  1  0.500000  0.180687  0.203902  1
  Nd  Nd4  1  0.000000  0.679794  0.796396  1
  Nd  Nd5  1  0.000000  0.319050  0.796711  1
  Cr  Cr6  1  0.500000  0.501301  0.150685  1
  Cr  Cr7  1  0.000000  0.999309  0.848025  1
  Fe  Fe8  1  0.000000  0.502182  0.990054  1
  Fe  Fe9  1  0.500000  0.998973  0.010158  1
  Fe  Fe10  1  0.500000  0.331644  0.997058  1
  Co  Co11  1  0.500000  0.500156  0.702157  1
  Co  Co12  1  0.000000  0.000365  0.297838  1
  Co  Co13  1  0.500000  0.669308  0.995370  1
  Co  Co14  1  0.000000  0.165588  0.004186  1
  Co  Co15  1  0.000000  0.831829  0.004615  1
  Co  Co16  1  0.500000  0.296648  0.430375  1
  Co  Co17  1  0.500000  0.703901  0.430405  1
  Co  Co18  1  0.000000  0.203642  0.569797  1
  Co  Co19  1  0.000000  0.796465  0.569882  1
  Co  Co20  1  0.500000  0.881286  0.709439  1
  Co  Co21  1  0.500000  0.118226  0.709432  1
  Co  Co22  1  0.000000  0.618725  0.290530  1
  Co  Co23  1  0.000000  0.381716  0.289725  1
  P  P24  1  0.500000  0.498507  0.889983  1
  P  P25  1  0.000000  0.999574  0.111504  1
  P  P26  1  0.500000  0.499780  0.341157  1
  P  P27  1  0.000000  0.000156  0.658438  1
  P  P28  1  0.500000  0.306342  0.615114  1
  P  P29  1  0.500000  0.693602  0.614896  1
  P  P30  1  0.000000  0.194390  0.385285  1
  P  P31  1  0.000000  0.806450  0.385442  1
  P  P32  1  0.500000  0.848059  0.895411  1
  P  P33  1  0.500000  0.152700  0.897025  1
  P  P34  1  0.000000  0.652586  0.104276  1
  P  P35  1  0.000000  0.347106  0.100969  1
