# generated using pymatgen
data_Nd4HgPd
_symmetry_space_group_name_H-M   'P 1'
_cell_length_a   9.99356151
_cell_length_b   9.99356106
_cell_length_c   9.99356100
_cell_angle_alpha   59.99999688
_cell_angle_beta   59.99999838
_cell_angle_gamma   59.99999551
_symmetry_Int_Tables_number   1
_chemical_formula_structural   Nd4HgPd
_chemical_formula_sum   'Nd16 Hg4 Pd4'
_cell_volume   705.74173324
_cell_formula_units_Z   4
loop_
 _symmetry_equiv_pos_site_id
 _symmetry_equiv_pos_as_xyz
  1  'x, y, z'
loop_
 _atom_site_type_symbol
 _atom_site_label
 _atom_site_symmetry_multiplicity
 _atom_site_fract_x
 _atom_site_fract_y
 _atom_site_fract_z
 _atom_site_occupancy
  Nd  Nd0  1  0.353247  0.353247  0.353247  1
  Nd  Nd1  1  0.353247  0.353247  0.940260  1
  Nd  Nd2  1  0.353247  0.940260  0.353247  1
  Nd  Nd3  1  0.940260  0.353247  0.353247  1
  Nd  Nd4  1  0.807711  0.192289  0.192289  1
  Nd  Nd5  1  0.192289  0.807711  0.807711  1
  Nd  Nd6  1  0.192289  0.807711  0.192289  1
  Nd  Nd7  1  0.807711  0.192289  0.807711  1
  Nd  Nd8  1  0.192289  0.192289  0.807711  1
  Nd  Nd9  1  0.807711  0.807711  0.192289  1
  Nd  Nd10  1  0.935455  0.564545  0.564545  1
  Nd  Nd11  1  0.564545  0.935455  0.935455  1
  Nd  Nd12  1  0.564545  0.935455  0.564545  1
  Nd  Nd13  1  0.935455  0.564545  0.935455  1
  Nd  Nd14  1  0.564545  0.564545  0.935455  1
  Nd  Nd15  1  0.935455  0.935455  0.564545  1
  Hg  Hg16  1  0.584355  0.584355  0.584355  1
  Hg  Hg17  1  0.584355  0.584355  0.246937  1
  Hg  Hg18  1  0.584355  0.246937  0.584355  1
  Hg  Hg19  1  0.246937  0.584355  0.584355  1
  Pd  Pd20  1  0.143962  0.143962  0.143962  1
  Pd  Pd21  1  0.143962  0.143962  0.568112  1
  Pd  Pd22  1  0.143962  0.568112  0.143962  1
  Pd  Pd23  1  0.568112  0.143962  0.143962  1
