# generated using pymatgen
data_Ho2ErSn3Rh2Au
_symmetry_space_group_name_H-M   'P 1'
_cell_length_a   7.67839111
_cell_length_b   7.68218430
_cell_length_c   3.80290100
_cell_angle_alpha   90.00000000
_cell_angle_beta   90.00000000
_cell_angle_gamma   120.00283456
_symmetry_Int_Tables_number   1
_chemical_formula_structural   Ho2ErSn3Rh2Au
_chemical_formula_sum   'Ho2 Er1 Sn3 Rh2 Au1'
_cell_volume   194.26215281
_cell_formula_units_Z   1
loop_
 _symmetry_equiv_pos_site_id
 _symmetry_equiv_pos_as_xyz
  1  'x, y, z'
loop_
 _atom_site_type_symbol
 _atom_site_label
 _atom_site_symmetry_multiplicity
 _atom_site_fract_x
 _atom_site_fract_y
 _atom_site_fract_z
 _atom_site_occupancy
  Ho  Ho0  1  0.393008  0.408991  0.000000  1
  Ho  Ho1  1  0.016161  0.607214  0.000000  1
  Er  Er2  1  0.590929  0.983535  0.000000  1
  Sn  Sn3  1  0.738968  0.741827  0.500000  1
  Sn  Sn4  1  0.002685  0.260931  0.500000  1
  Sn  Sn5  1  0.258441  0.997231  0.500000  1
  Rh  Rh6  1  0.999715  0.000056  0.000000  1
  Rh  Rh7  1  0.333529  0.667126  0.500000  1
  Au  Au8  1  0.666562  0.333088  0.500000  1
