# generated using pymatgen
data_ErHf5(Be2Ir5)2
_symmetry_space_group_name_H-M   'P 1'
_cell_length_a   9.54081395
_cell_length_b   9.54081395
_cell_length_c   3.31876000
_cell_angle_alpha   90.00000000
_cell_angle_beta   90.00000000
_cell_angle_gamma   89.83454097
_symmetry_Int_Tables_number   1
_chemical_formula_structural   ErHf5(Be2Ir5)2
_chemical_formula_sum   'Er1 Hf5 Be4 Ir10'
_cell_volume   302.09594077
_cell_formula_units_Z   1
loop_
 _symmetry_equiv_pos_site_id
 _symmetry_equiv_pos_as_xyz
  1  'x, y, z'
loop_
 _atom_site_type_symbol
 _atom_site_label
 _atom_site_symmetry_multiplicity
 _atom_site_fract_x
 _atom_site_fract_y
 _atom_site_fract_z
 _atom_site_occupancy
  Er  Er0  1  0.175282  0.675282  0.000000  1
  Hf  Hf1  1  0.324755  0.174525  0.000000  1
  Hf  Hf2  1  0.824797  0.324797  0.000000  1
  Hf  Hf3  1  0.499504  0.499847  0.000000  1
  Hf  Hf4  1  0.674525  0.824755  0.000000  1
  Hf  Hf5  1  0.999847  0.999504  0.000000  1
  Be  Be6  1  0.382931  0.882931  0.000000  1
  Be  Be7  1  0.117879  0.378086  0.000000  1
  Be  Be8  1  0.878086  0.617879  0.000000  1
  Be  Be9  1  0.620094  0.120094  0.000000  1
  Ir  Ir10  1  0.220801  0.937290  0.500000  1
  Ir  Ir11  1  0.921132  0.783657  0.500000  1
  Ir  Ir12  1  0.437290  0.720801  0.500000  1
  Ir  Ir13  1  0.573369  0.284301  0.500000  1
  Ir  Ir14  1  0.714639  0.570551  0.500000  1
  Ir  Ir15  1  0.283657  0.421132  0.500000  1
  Ir  Ir16  1  0.070551  0.214639  0.500000  1
  Ir  Ir17  1  0.993824  0.493824  0.500000  1
  Ir  Ir18  1  0.502737  0.002737  0.500000  1
  Ir  Ir19  1  0.784301  0.073369  0.500000  1
