# generated using pymatgen
data_Tb5Dy11MgNi4Hg3
_symmetry_space_group_name_H-M   'P 1'
_cell_length_a   9.51743242
_cell_length_b   9.55253080
_cell_length_c   9.55253150
_cell_angle_alpha   60.15587484
_cell_angle_beta   60.23082109
_cell_angle_gamma   60.23081433
_symmetry_Int_Tables_number   1
_chemical_formula_structural   Tb5Dy11MgNi4Hg3
_chemical_formula_sum   'Tb5 Dy11 Mg1 Ni4 Hg3'
_cell_volume   616.96520074
_cell_formula_units_Z   1
loop_
 _symmetry_equiv_pos_site_id
 _symmetry_equiv_pos_as_xyz
  1  'x, y, z'
loop_
 _atom_site_type_symbol
 _atom_site_label
 _atom_site_symmetry_multiplicity
 _atom_site_fract_x
 _atom_site_fract_y
 _atom_site_fract_z
 _atom_site_occupancy
  Tb  Tb0  1  0.345892  0.346409  0.346409  1
  Tb  Tb1  1  0.350665  0.349240  0.952201  1
  Tb  Tb2  1  0.350665  0.952201  0.349240  1
  Tb  Tb3  1  0.946175  0.352012  0.352012  1
  Tb  Tb4  1  0.809877  0.191166  0.191166  1
  Dy  Dy5  1  0.184407  0.813652  0.813652  1
  Dy  Dy6  1  0.186282  0.813127  0.189800  1
  Dy  Dy7  1  0.808895  0.190396  0.810147  1
  Dy  Dy8  1  0.186282  0.189800  0.813127  1
  Dy  Dy9  1  0.808895  0.810147  0.190396  1
  Dy  Dy10  1  0.935166  0.565405  0.565405  1
  Dy  Dy11  1  0.560181  0.937287  0.937287  1
  Dy  Dy12  1  0.561851  0.937675  0.564806  1
  Dy  Dy13  1  0.935509  0.563293  0.936747  1
  Dy  Dy14  1  0.561851  0.564806  0.937675  1
  Dy  Dy15  1  0.935509  0.936747  0.563293  1
  Mg  Mg16  1  0.284840  0.570680  0.570680  1
  Ni  Ni17  1  0.142043  0.144064  0.144064  1
  Ni  Ni18  1  0.140510  0.141603  0.573647  1
  Ni  Ni19  1  0.140510  0.573647  0.141603  1
  Ni  Ni20  1  0.573105  0.141803  0.141803  1
  Hg  Hg21  1  0.583299  0.585788  0.585788  1
  Hg  Hg22  1  0.583795  0.586490  0.242562  1
  Hg  Hg23  1  0.583795  0.242562  0.586490  1
