# generated using pymatgen
data_YEr2RuBr3
_symmetry_space_group_name_H-M   'P 1'
_cell_length_a   4.07497600
_cell_length_b   8.55294150
_cell_length_c   11.84468400
_cell_angle_alpha   92.97841760
_cell_angle_beta   90.00000000
_cell_angle_gamma   90.00000000
_symmetry_Int_Tables_number   1
_chemical_formula_structural   YEr2RuBr3
_chemical_formula_sum   'Y2 Er4 Ru2 Br6'
_cell_volume   412.26549218
_cell_formula_units_Z   2
loop_
 _symmetry_equiv_pos_site_id
 _symmetry_equiv_pos_as_xyz
  1  'x, y, z'
loop_
 _atom_site_type_symbol
 _atom_site_label
 _atom_site_symmetry_multiplicity
 _atom_site_fract_x
 _atom_site_fract_y
 _atom_site_fract_z
 _atom_site_occupancy
  Y  Y0  1  0.750000  0.275654  0.606550  1
  Y  Y1  1  0.250000  0.724346  0.393450  1
  Er  Er2  1  0.750000  0.865943  0.634849  1
  Er  Er3  1  0.250000  0.134057  0.365151  1
  Er  Er4  1  0.750000  0.893779  0.174119  1
  Er  Er5  1  0.250000  0.106221  0.825881  1
  Ru  Ru6  1  0.750000  0.942462  0.403759  1
  Ru  Ru7  1  0.250000  0.057538  0.596241  1
  Br  Br8  1  0.750000  0.426609  0.368809  1
  Br  Br9  1  0.250000  0.573391  0.631191  1
  Br  Br10  1  0.750000  0.876465  0.896561  1
  Br  Br11  1  0.250000  0.123535  0.103439  1
  Br  Br12  1  0.750000  0.341531  0.863775  1
  Br  Br13  1  0.250000  0.658469  0.136225  1
