# generated using pymatgen
data_LiNd6P12Rh17
_symmetry_space_group_name_H-M   'P 1'
_cell_length_a   3.98372100
_cell_length_b   11.31819300
_cell_length_c   12.92847500
_cell_angle_alpha   90.00000000
_cell_angle_beta   90.00000000
_cell_angle_gamma   90.00000000
_symmetry_Int_Tables_number   1
_chemical_formula_structural   LiNd6P12Rh17
_chemical_formula_sum   'Li1 Nd6 P12 Rh17'
_cell_volume   582.92584415
_cell_formula_units_Z   1
loop_
 _symmetry_equiv_pos_site_id
 _symmetry_equiv_pos_as_xyz
  1  'x, y, z'
loop_
 _atom_site_type_symbol
 _atom_site_label
 _atom_site_symmetry_multiplicity
 _atom_site_fract_x
 _atom_site_fract_y
 _atom_site_fract_z
 _atom_site_occupancy
  Li  Li0  1  0.500000  0.500000  0.154188  1
  Nd  Nd1  1  0.000000  0.500000  0.515509  1
  Nd  Nd2  1  0.500000  0.000000  0.479974  1
  Nd  Nd3  1  0.500000  0.816710  0.205127  1
  Nd  Nd4  1  0.500000  0.183290  0.205127  1
  Nd  Nd5  1  0.000000  0.682414  0.795503  1
  Nd  Nd6  1  0.000000  0.317586  0.795503  1
  P  P7  1  0.500000  0.500000  0.884357  1
  P  P8  1  0.000000  0.000000  0.116913  1
  P  P9  1  0.500000  0.500000  0.341726  1
  P  P10  1  0.000000  0.000000  0.652135  1
  P  P11  1  0.500000  0.312604  0.617526  1
  P  P12  1  0.500000  0.687396  0.617526  1
  P  P13  1  0.000000  0.189132  0.383847  1
  P  P14  1  0.000000  0.810868  0.383847  1
  P  P15  1  0.500000  0.846748  0.893213  1
  P  P16  1  0.500000  0.153252  0.893213  1
  P  P17  1  0.000000  0.657097  0.106317  1
  P  P18  1  0.000000  0.342903  0.106317  1
  Rh  Rh19  1  0.000000  0.000000  0.830382  1
  Rh  Rh20  1  0.500000  0.500000  0.703802  1
  Rh  Rh21  1  0.000000  0.000000  0.296783  1
  Rh  Rh22  1  0.000000  0.500000  0.986444  1
  Rh  Rh23  1  0.500000  0.000000  0.015576  1
  Rh  Rh24  1  0.500000  0.332146  0.996300  1
  Rh  Rh25  1  0.500000  0.667854  0.996300  1
  Rh  Rh26  1  0.000000  0.164992  0.003856  1
  Rh  Rh27  1  0.000000  0.835008  0.003856  1
  Rh  Rh28  1  0.500000  0.287965  0.433468  1
  Rh  Rh29  1  0.500000  0.712035  0.433468  1
  Rh  Rh30  1  0.000000  0.204040  0.572754  1
  Rh  Rh31  1  0.000000  0.795960  0.572754  1
  Rh  Rh32  1  0.500000  0.876051  0.711887  1
  Rh  Rh33  1  0.500000  0.123949  0.711887  1
  Rh  Rh34  1  0.000000  0.625129  0.291307  1
  Rh  Rh35  1  0.000000  0.374871  0.291307  1
