# generated using pymatgen
data_CsScFeF6
_symmetry_space_group_name_H-M   'P 1'
_cell_length_a   7.71399348
_cell_length_b   7.71399407
_cell_length_c   7.71399339
_cell_angle_alpha   121.83586809
_cell_angle_beta   118.99359762
_cell_angle_gamma   89.30099825
_symmetry_Int_Tables_number   1
_chemical_formula_structural   CsScFeF6
_chemical_formula_sum   'Cs2 Sc2 Fe2 F12'
_cell_volume   322.26824080
_cell_formula_units_Z   2
loop_
 _symmetry_equiv_pos_site_id
 _symmetry_equiv_pos_as_xyz
  1  'x, y, z'
loop_
 _atom_site_type_symbol
 _atom_site_label
 _atom_site_symmetry_multiplicity
 _atom_site_fract_x
 _atom_site_fract_y
 _atom_site_fract_z
 _atom_site_occupancy
  Cs  Cs0  1  0.366220  0.616220  0.750000  1
  Cs  Cs1  1  0.633780  0.383780  0.250000  1
  Sc  Sc2  1  0.000000  0.000000  0.000000  1
  Sc  Sc3  1  0.500000  0.000000  0.500000  1
  Fe  Fe4  1  0.000000  0.000000  0.500000  1
  Fe  Fe5  1  0.000000  0.500000  0.000000  1
  F  F6  1  0.308838  0.058838  0.250000  1
  F  F7  1  0.929820  0.679820  0.250000  1
  F  F8  1  0.326992  0.683760  0.256649  1
  F  F9  1  0.927111  0.070343  0.243351  1
  F  F10  1  0.326992  0.070343  0.643232  1
  F  F11  1  0.927111  0.683760  0.856768  1
  F  F12  1  0.691162  0.941162  0.750000  1
  F  F13  1  0.070180  0.320180  0.750000  1
  F  F14  1  0.673008  0.316240  0.743351  1
  F  F15  1  0.072889  0.929657  0.756649  1
  F  F16  1  0.673008  0.929657  0.356768  1
  F  F17  1  0.072889  0.316240  0.143232  1
