# generated using pymatgen
data_Mg2V3Co9P7
_symmetry_space_group_name_H-M   'P 1'
_cell_length_a   3.55176400
_cell_length_b   8.99940531
_cell_length_c   8.99940700
_cell_angle_alpha   119.99999517
_cell_angle_beta   90.00000000
_cell_angle_gamma   90.00000000
_symmetry_Int_Tables_number   1
_chemical_formula_structural   Mg2V3Co9P7
_chemical_formula_sum   'Mg2 V3 Co9 P7'
_cell_volume   249.11648021
_cell_formula_units_Z   1
loop_
 _symmetry_equiv_pos_site_id
 _symmetry_equiv_pos_as_xyz
  1  'x, y, z'
loop_
 _atom_site_type_symbol
 _atom_site_label
 _atom_site_symmetry_multiplicity
 _atom_site_fract_x
 _atom_site_fract_y
 _atom_site_fract_z
 _atom_site_occupancy
  Mg  Mg0  1  0.000000  0.666667  0.333333  1
  Mg  Mg1  1  0.500000  0.333333  0.666667  1
  V  V2  1  0.500000  0.781017  0.901888  1
  V  V3  1  0.500000  0.120871  0.218983  1
  V  V4  1  0.500000  0.098112  0.879129  1
  Co  Co5  1  0.000000  0.565073  0.936878  1
  Co  Co6  1  0.000000  0.371805  0.434927  1
  Co  Co7  1  0.000000  0.063122  0.628195  1
  Co  Co8  1  0.000000  0.879929  0.159027  1
  Co  Co9  1  0.000000  0.279098  0.120071  1
  Co  Co10  1  0.000000  0.840973  0.720902  1
  Co  Co11  1  0.500000  0.947509  0.386484  1
  Co  Co12  1  0.500000  0.438974  0.052491  1
  Co  Co13  1  0.500000  0.613516  0.561026  1
  P  P14  1  0.000000  0.000000  0.000000  1
  P  P15  1  0.500000  0.709536  0.122956  1
  P  P16  1  0.500000  0.413420  0.290464  1
  P  P17  1  0.500000  0.877044  0.586580  1
  P  P18  1  0.000000  0.583731  0.701664  1
  P  P19  1  0.000000  0.117933  0.416269  1
  P  P20  1  0.000000  0.298336  0.882067  1
