# generated using pymatgen
data_CuB4Ir4Pt3
_symmetry_space_group_name_H-M   'P 1'
_cell_length_a   6.75996909
_cell_length_b   6.08741213
_cell_length_c   5.53224264
_cell_angle_alpha   70.54507774
_cell_angle_beta   58.99135060
_cell_angle_gamma   50.51942399
_symmetry_Int_Tables_number   1
_chemical_formula_structural   CuB4Ir4Pt3
_chemical_formula_sum   'Cu1 B4 Ir4 Pt3'
_cell_volume   150.59728086
_cell_formula_units_Z   1
loop_
 _symmetry_equiv_pos_site_id
 _symmetry_equiv_pos_as_xyz
  1  'x, y, z'
loop_
 _atom_site_type_symbol
 _atom_site_label
 _atom_site_symmetry_multiplicity
 _atom_site_fract_x
 _atom_site_fract_y
 _atom_site_fract_z
 _atom_site_occupancy
  Cu  Cu0  1  0.880326  0.386518  0.782124  1
  B  B1  1  0.052007  0.987311  0.558432  1
  B  B2  1  0.686577  0.856568  0.202986  1
  B  B3  1  0.392247  0.567707  0.989343  1
  B  B4  1  0.261217  0.199163  0.857189  1
  Ir  Ir5  1  0.099602  0.635975  0.866493  1
  Ir  Ir6  1  0.390500  0.847519  0.150909  1
  Ir  Ir7  1  0.618898  0.152859  0.846930  1
  Ir  Ir8  1  0.390067  0.872696  0.639299  1
  Pt  Pt9  1  0.947516  0.773694  0.394391  1
  Pt  Pt10  1  0.465169  0.301291  0.368587  1
  Pt  Pt11  1  0.866272  0.368299  0.292918  1
