# generated using pymatgen
data_RbLa(CO3)2
_symmetry_space_group_name_H-M   'P 1'
_cell_length_a   6.73619952
_cell_length_b   6.73619968
_cell_length_c   7.42336134
_cell_angle_alpha   75.65146828
_cell_angle_beta   75.65147403
_cell_angle_gamma   95.91192030
_symmetry_Int_Tables_number   1
_chemical_formula_structural   RbLa(CO3)2
_chemical_formula_sum   'Rb2 La2 C4 O12'
_cell_volume   311.26959064
_cell_formula_units_Z   2
loop_
 _symmetry_equiv_pos_site_id
 _symmetry_equiv_pos_as_xyz
  1  'x, y, z'
loop_
 _atom_site_type_symbol
 _atom_site_label
 _atom_site_symmetry_multiplicity
 _atom_site_fract_x
 _atom_site_fract_y
 _atom_site_fract_z
 _atom_site_occupancy
  Rb  Rb0  1  0.620571  0.379429  0.750000  1
  Rb  Rb1  1  0.379429  0.620571  0.250000  1
  La  La2  1  0.101716  0.898284  0.750000  1
  La  La3  1  0.898284  0.101716  0.250000  1
  C  C4  1  0.648066  0.889741  0.756815  1
  C  C5  1  0.351934  0.110259  0.243185  1
  C  C6  1  0.110259  0.351934  0.743185  1
  C  C7  1  0.889741  0.648066  0.256815  1
  O  O8  1  0.453809  0.895882  0.779038  1
  O  O9  1  0.546191  0.104118  0.220962  1
  O  O10  1  0.104118  0.546191  0.720962  1
  O  O11  1  0.895882  0.453809  0.279038  1
  O  O12  1  0.712654  0.756436  0.877889  1
  O  O13  1  0.287346  0.243564  0.122111  1
  O  O14  1  0.243564  0.287346  0.622111  1
  O  O15  1  0.756436  0.712654  0.377889  1
  O  O16  1  0.791222  0.024137  0.610848  1
  O  O17  1  0.208778  0.975863  0.389152  1
  O  O18  1  0.975863  0.208778  0.889152  1
  O  O19  1  0.024137  0.791222  0.110848  1
