# generated using pymatgen
data_K2VHO4
_symmetry_space_group_name_H-M   'P 1'
_cell_length_a   8.07805400
_cell_length_b   6.18450918
_cell_length_c   6.24607919
_cell_angle_alpha   62.22663128
_cell_angle_beta   90.00000000
_cell_angle_gamma   90.00000000
_symmetry_Int_Tables_number   1
_chemical_formula_structural   K2VHO4
_chemical_formula_sum   'K4 V2 H2 O8'
_cell_volume   276.09811469
_cell_formula_units_Z   2
loop_
 _symmetry_equiv_pos_site_id
 _symmetry_equiv_pos_as_xyz
  1  'x, y, z'
loop_
 _atom_site_type_symbol
 _atom_site_label
 _atom_site_symmetry_multiplicity
 _atom_site_fract_x
 _atom_site_fract_y
 _atom_site_fract_z
 _atom_site_occupancy
  K  K0  1  0.250463  0.732331  0.643662  1
  K  K1  1  0.750463  0.267669  0.356338  1
  K  K2  1  0.001044  0.008254  0.000828  1
  K  K3  1  0.501044  0.991746  0.999172  1
  V  V4  1  0.241903  0.386310  0.317661  1
  V  V5  1  0.741903  0.613690  0.682339  1
  H  H6  1  0.479408  0.459576  0.037373  1
  H  H7  1  0.979408  0.540424  0.962627  1
  O  O8  1  0.429241  0.316952  0.187059  1
  O  O9  1  0.929241  0.683048  0.812941  1
  O  O10  1  0.566930  0.675171  0.808088  1
  O  O11  1  0.066930  0.324829  0.191912  1
  O  O12  1  0.246366  0.690252  0.239844  1
  O  O13  1  0.746366  0.309748  0.760156  1
  O  O14  1  0.245847  0.209643  0.624673  1
  O  O15  1  0.745847  0.790357  0.375327  1
