# generated using pymatgen
data_YHo9(Zn2Bi)2
_symmetry_space_group_name_H-M   'P 1'
_cell_length_a   8.58097772
_cell_length_b   8.58091405
_cell_length_c   8.58344708
_cell_angle_alpha   123.36809473
_cell_angle_beta   123.36731276
_cell_angle_gamma   84.21636073
_symmetry_Int_Tables_number   1
_chemical_formula_structural   YHo9(Zn2Bi)2
_chemical_formula_sum   'Y1 Ho9 Zn4 Bi2'
_cell_volume   421.98625587
_cell_formula_units_Z   1
loop_
 _symmetry_equiv_pos_site_id
 _symmetry_equiv_pos_as_xyz
  1  'x, y, z'
loop_
 _atom_site_type_symbol
 _atom_site_label
 _atom_site_symmetry_multiplicity
 _atom_site_fract_x
 _atom_site_fract_y
 _atom_site_fract_z
 _atom_site_occupancy
  Y  Y0  1  0.010045  0.510030  0.805958  1
  Ho  Ho1  1  0.999986  0.000409  0.000333  1
  Ho  Ho2  1  0.500406  0.499980  0.000331  1
  Ho  Ho3  1  0.705127  0.205135  0.194043  1
  Ho  Ho4  1  0.510723  0.705637  0.499973  1
  Ho  Ho5  1  0.205633  0.010718  0.499958  1
  Ho  Ho6  1  0.989779  0.489772  0.196898  1
  Ho  Ho7  1  0.294190  0.794195  0.804321  1
  Ho  Ho8  1  0.489155  0.293591  0.499698  1
  Ho  Ho9  1  0.793580  0.989147  0.499677  1
  Zn  Zn10  1  0.639758  0.139763  0.779121  1
  Zn  Zn11  1  0.361256  0.861256  0.221402  1
  Zn  Zn12  1  0.140054  0.360066  0.499160  1
  Zn  Zn13  1  0.860064  0.640055  0.499160  1
  Bi  Bi14  1  0.749895  0.750350  0.999985  1
  Bi  Bi15  1  0.250348  0.249895  0.999981  1
