# generated using pymatgen
data_La3NiI3
_symmetry_space_group_name_H-M   'P 1'
_cell_length_a   10.88727133
_cell_length_b   10.88727090
_cell_length_c   10.88727100
_cell_angle_alpha   109.47121897
_cell_angle_beta   109.47121817
_cell_angle_gamma   109.47121864
_symmetry_Int_Tables_number   1
_chemical_formula_structural   La3NiI3
_chemical_formula_sum   'La12 Ni4 I12'
_cell_volume   993.42537920
_cell_formula_units_Z   4
loop_
 _symmetry_equiv_pos_site_id
 _symmetry_equiv_pos_as_xyz
  1  'x, y, z'
loop_
 _atom_site_type_symbol
 _atom_site_label
 _atom_site_symmetry_multiplicity
 _atom_site_fract_x
 _atom_site_fract_y
 _atom_site_fract_z
 _atom_site_occupancy
  La  La0  1  0.456774  0.478387  0.228387  1
  La  La1  1  0.750000  0.228387  0.271613  1
  La  La2  1  0.750000  0.021613  0.478387  1
  La  La3  1  0.228387  0.456774  0.478387  1
  La  La4  1  0.271613  0.750000  0.228387  1
  La  La5  1  0.043226  0.271613  0.021613  1
  La  La6  1  0.021613  0.043226  0.271613  1
  La  La7  1  0.478387  0.750000  0.021613  1
  La  La8  1  0.478387  0.228387  0.456774  1
  La  La9  1  0.021613  0.478387  0.750000  1
  La  La10  1  0.271613  0.021613  0.043226  1
  La  La11  1  0.228387  0.271613  0.750000  1
  Ni  Ni12  1  0.250000  0.250000  0.250000  1
  Ni  Ni13  1  0.500000  0.000000  0.250000  1
  Ni  Ni14  1  0.000000  0.250000  0.500000  1
  Ni  Ni15  1  0.250000  0.500000  0.000000  1
  I  I16  1  0.250000  0.760101  0.739899  1
  I  I17  1  0.520202  0.510101  0.760101  1
  I  I18  1  0.979798  0.739899  0.989899  1
  I  I19  1  0.739899  0.250000  0.760101  1
  I  I20  1  0.989899  0.979798  0.739899  1
  I  I21  1  0.250000  0.989899  0.510101  1
  I  I22  1  0.760101  0.520202  0.510101  1
  I  I23  1  0.510101  0.250000  0.989899  1
  I  I24  1  0.760101  0.739899  0.250000  1
  I  I25  1  0.739899  0.989899  0.979798  1
  I  I26  1  0.989899  0.510101  0.250000  1
  I  I27  1  0.510101  0.760101  0.520202  1
