# generated using pymatgen
data_Tb9Th(TcSb2)2
_symmetry_space_group_name_H-M   'P 1'
_cell_length_a   7.99138800
_cell_length_b   8.91858932
_cell_length_c   12.29569898
_cell_angle_alpha   89.70449184
_cell_angle_beta   90.00000000
_cell_angle_gamma   90.00000000
_symmetry_Int_Tables_number   1
_chemical_formula_structural   Tb9Th(TcSb2)2
_chemical_formula_sum   'Tb18 Th2 Tc4 Sb8'
_cell_volume   876.32626668
_cell_formula_units_Z   2
loop_
 _symmetry_equiv_pos_site_id
 _symmetry_equiv_pos_as_xyz
  1  'x, y, z'
loop_
 _atom_site_type_symbol
 _atom_site_label
 _atom_site_symmetry_multiplicity
 _atom_site_fract_x
 _atom_site_fract_y
 _atom_site_fract_z
 _atom_site_occupancy
  Tb  Tb0  1  0.164800  0.747795  0.214713  1
  Tb  Tb1  1  0.664800  0.252205  0.285287  1
  Tb  Tb2  1  0.837530  0.249508  0.788104  1
  Tb  Tb3  1  0.337530  0.750492  0.711896  1
  Tb  Tb4  1  0.454096  0.751804  0.997384  1
  Tb  Tb5  1  0.954096  0.248196  0.502616  1
  Tb  Tb6  1  0.544271  0.251597  0.001753  1
  Tb  Tb7  1  0.044271  0.748403  0.498247  1
  Tb  Tb8  1  0.630649  0.751869  0.298506  1
  Tb  Tb9  1  0.130649  0.248131  0.201494  1
  Tb  Tb10  1  0.371304  0.253628  0.700525  1
  Tb  Tb11  1  0.871304  0.746372  0.799475  1
  Tb  Tb12  1  0.174538  0.461972  0.937430  1
  Tb  Tb13  1  0.674538  0.538028  0.562570  1
  Tb  Tb14  1  0.183794  0.041981  0.932135  1
  Tb  Tb15  1  0.683794  0.958019  0.567865  1
  Tb  Tb16  1  0.821544  0.540786  0.065827  1
  Tb  Tb17  1  0.321544  0.459214  0.434173  1
  Th  Th18  1  0.827901  0.961801  0.060935  1
  Th  Th19  1  0.327901  0.038199  0.439065  1
  Tc  Tc20  1  0.412894  0.764797  0.479690  1
  Tc  Tc21  1  0.912894  0.235203  0.020310  1
  Tc  Tc22  1  0.579428  0.244497  0.514378  1
  Tc  Tc23  1  0.079428  0.755503  0.985622  1
  Sb  Sb24  1  0.926862  0.990604  0.329727  1
  Sb  Sb25  1  0.426862  0.009396  0.170273  1
  Sb  Sb26  1  0.070158  0.491953  0.671994  1
  Sb  Sb27  1  0.570158  0.508047  0.828006  1
  Sb  Sb28  1  0.071160  0.007513  0.673175  1
  Sb  Sb29  1  0.571160  0.992487  0.826825  1
  Sb  Sb30  1  0.929071  0.506466  0.329406  1
  Sb  Sb31  1  0.429071  0.493534  0.170594  1
