# generated using pymatgen
data_NdTh2(SnRh)3
_symmetry_space_group_name_H-M   'P 1'
_cell_length_a   7.57060200
_cell_length_b   7.61619023
_cell_length_c   4.09837200
_cell_angle_alpha   90.00000000
_cell_angle_beta   90.00000000
_cell_angle_gamma   119.80219137
_symmetry_Int_Tables_number   1
_chemical_formula_structural   NdTh2(SnRh)3
_chemical_formula_sum   'Nd1 Th2 Sn3 Rh3'
_cell_volume   205.05596969
_cell_formula_units_Z   1
loop_
 _symmetry_equiv_pos_site_id
 _symmetry_equiv_pos_as_xyz
  1  'x, y, z'
loop_
 _atom_site_type_symbol
 _atom_site_label
 _atom_site_symmetry_multiplicity
 _atom_site_fract_x
 _atom_site_fract_y
 _atom_site_fract_z
 _atom_site_occupancy
  Nd  Nd0  1  0.589347  0.000000  0.000000  1
  Th  Th1  1  0.999921  0.586485  0.000000  1
  Th  Th2  1  0.413436  0.413515  0.000000  1
  Sn  Sn3  1  0.748998  0.755734  0.500000  1
  Sn  Sn4  1  0.993264  0.244266  0.500000  1
  Sn  Sn5  1  0.257489  0.000000  0.500000  1
  Rh  Rh6  1  0.008935  0.000000  0.000000  1
  Rh  Rh7  1  0.668898  0.349187  0.500000  1
  Rh  Rh8  1  0.319711  0.650813  0.500000  1
