# generated using pymatgen
data_Th3InSnGeRh3
_symmetry_space_group_name_H-M   'P 1'
_cell_length_a   7.50435987
_cell_length_b   7.51643667
_cell_length_c   4.08233300
_cell_angle_alpha   90.00000000
_cell_angle_beta   90.00000000
_cell_angle_gamma   119.89826116
_symmetry_Int_Tables_number   1
_chemical_formula_structural   Th3InSnGeRh3
_chemical_formula_sum   'Th3 In1 Sn1 Ge1 Rh3'
_cell_volume   199.62229109
_cell_formula_units_Z   1
loop_
 _symmetry_equiv_pos_site_id
 _symmetry_equiv_pos_as_xyz
  1  'x, y, z'
loop_
 _atom_site_type_symbol
 _atom_site_label
 _atom_site_symmetry_multiplicity
 _atom_site_fract_x
 _atom_site_fract_y
 _atom_site_fract_z
 _atom_site_occupancy
  Th  Th0  1  0.412723  0.405618  0.500000  1
  Th  Th1  1  0.571502  0.998848  0.500000  1
  Th  Th2  1  0.006266  0.595847  0.500000  1
  In  In3  1  0.751661  0.755104  0.000000  1
  Sn  Sn4  1  0.994240  0.243287  0.000000  1
  Ge  Ge5  1  0.248173  0.996725  0.000000  1
  Rh  Rh6  1  0.657630  0.324915  0.000000  1
  Rh  Rh7  1  0.327408  0.672316  0.000000  1
  Rh  Rh8  1  0.030398  0.007340  0.500000  1
