# generated using pymatgen
data_EuDy(GaAg)2
_symmetry_space_group_name_H-M   'P 1'
_cell_length_a   4.64145100
_cell_length_b   4.64145170
_cell_length_c   7.38531200
_cell_angle_alpha   90.00000000
_cell_angle_beta   90.00000000
_cell_angle_gamma   120.00000211
_symmetry_Int_Tables_number   1
_chemical_formula_structural   EuDy(GaAg)2
_chemical_formula_sum   'Eu1 Dy1 Ga2 Ag2'
_cell_volume   137.78662910
_cell_formula_units_Z   1
loop_
 _symmetry_equiv_pos_site_id
 _symmetry_equiv_pos_as_xyz
  1  'x, y, z'
loop_
 _atom_site_type_symbol
 _atom_site_label
 _atom_site_symmetry_multiplicity
 _atom_site_fract_x
 _atom_site_fract_y
 _atom_site_fract_z
 _atom_site_occupancy
  Eu  Eu0  1  0.333334  0.666668  0.000000  1
  Dy  Dy1  1  0.333334  0.666668  0.500000  1
  Ga  Ga2  1  0.666666  0.333333  0.298442  1
  Ga  Ga3  1  0.666666  0.333333  0.701558  1
  Ag  Ag4  1  0.000000  0.000000  0.270254  1
  Ag  Ag5  1  0.000000  0.000000  0.729746  1
