# generated using pymatgen
data_Tm12Tc3Au2
_symmetry_space_group_name_H-M   'P 1'
_cell_length_a   8.19689057
_cell_length_b   8.19689096
_cell_length_c   8.19689087
_cell_angle_alpha   110.28832740
_cell_angle_beta   110.28833842
_cell_angle_gamma   107.84907411
_symmetry_Int_Tables_number   1
_chemical_formula_structural   Tm12Tc3Au2
_chemical_formula_sum   'Tm12 Tc3 Au2'
_cell_volume   423.70666548
_cell_formula_units_Z   1
loop_
 _symmetry_equiv_pos_site_id
 _symmetry_equiv_pos_as_xyz
  1  'x, y, z'
loop_
 _atom_site_type_symbol
 _atom_site_label
 _atom_site_symmetry_multiplicity
 _atom_site_fract_x
 _atom_site_fract_y
 _atom_site_fract_z
 _atom_site_occupancy
  Tm  Tm0  1  0.319160  0.319160  0.638322  1
  Tm  Tm1  1  0.680840  0.680840  0.361678  1
  Tm  Tm2  1  0.680840  0.319160  0.000000  1
  Tm  Tm3  1  0.319160  0.680840  0.000000  1
  Tm  Tm4  1  0.183380  0.434552  0.251172  1
  Tm  Tm5  1  0.816620  0.565448  0.748828  1
  Tm  Tm6  1  0.183380  0.932206  0.748828  1
  Tm  Tm7  1  0.932206  0.183380  0.748828  1
  Tm  Tm8  1  0.816620  0.067794  0.251172  1
  Tm  Tm9  1  0.067794  0.816620  0.251172  1
  Tm  Tm10  1  0.434552  0.183380  0.251172  1
  Tm  Tm11  1  0.565448  0.816620  0.748828  1
  Tc  Tc12  1  0.336985  0.336985  0.000000  1
  Tc  Tc13  1  0.663015  0.663015  0.000000  1
  Tc  Tc14  1  0.000000  0.000000  0.000000  1
  Au  Au15  1  0.000000  0.500000  0.500000  1
  Au  Au16  1  0.500000  0.000000  0.500000  1
