# generated using pymatgen
data_CsV4Br11
_symmetry_space_group_name_H-M   'P 1'
_cell_length_a   7.69512500
_cell_length_b   7.16127800
_cell_length_c   18.51426600
_cell_angle_alpha   90.00000000
_cell_angle_beta   90.00000000
_cell_angle_gamma   90.00000000
_symmetry_Int_Tables_number   1
_chemical_formula_structural   CsV4Br11
_chemical_formula_sum   'Cs2 V8 Br22'
_cell_volume   1020.26434879
_cell_formula_units_Z   2
loop_
 _symmetry_equiv_pos_site_id
 _symmetry_equiv_pos_as_xyz
  1  'x, y, z'
loop_
 _atom_site_type_symbol
 _atom_site_label
 _atom_site_symmetry_multiplicity
 _atom_site_fract_x
 _atom_site_fract_y
 _atom_site_fract_z
 _atom_site_occupancy
  Cs  Cs0  1  0.500000  0.490590  0.750000  1
  Cs  Cs1  1  0.500000  0.509410  0.250000  1
  V  V2  1  0.000000  0.851856  0.332046  1
  V  V3  1  0.743622  0.000000  0.000000  1
  V  V4  1  0.256378  0.000000  0.000000  1
  V  V5  1  0.000000  0.851856  0.167954  1
  V  V6  1  0.000000  0.148144  0.667954  1
  V  V7  1  0.256378  0.000000  0.500000  1
  V  V8  1  0.743622  0.000000  0.500000  1
  V  V9  1  0.000000  0.148144  0.832046  1
  Br  Br10  1  0.500000  0.157963  0.072120  1
  Br  Br11  1  0.236980  0.715648  0.085814  1
  Br  Br12  1  0.769204  0.000675  0.250000  1
  Br  Br13  1  0.000000  0.858708  0.920504  1
  Br  Br14  1  0.000000  0.141292  0.079496  1
  Br  Br15  1  0.500000  0.842037  0.927880  1
  Br  Br16  1  0.769204  0.999325  0.750000  1
  Br  Br17  1  0.000000  0.858708  0.579496  1
  Br  Br18  1  0.763020  0.715648  0.085814  1
  Br  Br19  1  0.000000  0.561872  0.250000  1
  Br  Br20  1  0.000000  0.141292  0.420504  1
  Br  Br21  1  0.000000  0.438128  0.750000  1
  Br  Br22  1  0.230796  0.999325  0.750000  1
  Br  Br23  1  0.763020  0.715648  0.414186  1
  Br  Br24  1  0.763020  0.284352  0.585814  1
  Br  Br25  1  0.236980  0.284352  0.914186  1
  Br  Br26  1  0.763020  0.284352  0.914186  1
  Br  Br27  1  0.236980  0.715648  0.414186  1
  Br  Br28  1  0.500000  0.157963  0.427880  1
  Br  Br29  1  0.236980  0.284352  0.585814  1
  Br  Br30  1  0.230796  0.000675  0.250000  1
  Br  Br31  1  0.500000  0.842037  0.572120  1
