# generated using pymatgen
data_Ca5Pr15Sn9Bi7
_symmetry_space_group_name_H-M   'P 1'
_cell_length_a   8.41306717
_cell_length_b   8.46024652
_cell_length_c   16.29358803
_cell_angle_alpha   90.01258542
_cell_angle_beta   89.78115429
_cell_angle_gamma   90.19313481
_symmetry_Int_Tables_number   1
_chemical_formula_structural   Ca5Pr15Sn9Bi7
_chemical_formula_sum   'Ca5 Pr15 Sn9 Bi7'
_cell_volume   1159.70748675
_cell_formula_units_Z   1
loop_
 _symmetry_equiv_pos_site_id
 _symmetry_equiv_pos_as_xyz
  1  'x, y, z'
loop_
 _atom_site_type_symbol
 _atom_site_label
 _atom_site_symmetry_multiplicity
 _atom_site_fract_x
 _atom_site_fract_y
 _atom_site_fract_z
 _atom_site_occupancy
  Ca  Ca0  1  0.379961  0.841499  0.878290  1
  Ca  Ca1  1  0.214532  0.503168  0.752629  1
  Ca  Ca2  1  0.711473  0.997456  0.752911  1
  Ca  Ca3  1  0.787790  0.498553  0.246616  1
  Ca  Ca4  1  0.287720  0.999952  0.247037  1
  Pr  Pr5  1  0.884310  0.664708  0.621933  1
  Pr  Pr6  1  0.616191  0.162662  0.378548  1
  Pr  Pr7  1  0.114610  0.338741  0.119343  1
  Pr  Pr8  1  0.619921  0.166535  0.120547  1
  Pr  Pr9  1  0.115680  0.335850  0.378485  1
  Pr  Pr10  1  0.382177  0.837159  0.622223  1
  Pr  Pr11  1  0.881490  0.660585  0.880441  1
  Pr  Pr12  1  0.537328  0.324052  0.894943  1
  Pr  Pr13  1  0.036590  0.178408  0.609044  1
  Pr  Pr14  1  0.464421  0.677300  0.392458  1
  Pr  Pr15  1  0.964357  0.818257  0.106680  1
  Pr  Pr16  1  0.471898  0.676141  0.102616  1
  Pr  Pr17  1  0.962947  0.820750  0.391451  1
  Pr  Pr18  1  0.536039  0.320905  0.608674  1
  Pr  Pr19  1  0.030991  0.182031  0.894416  1
  Sn  Sn20  1  0.778131  0.468198  0.041135  1
  Sn  Sn21  1  0.582969  0.617061  0.750924  1
  Sn  Sn22  1  0.081274  0.884015  0.750909  1
  Sn  Sn23  1  0.417505  0.383042  0.249792  1
  Sn  Sn24  1  0.917887  0.116537  0.249711  1
  Sn  Sn25  1  0.333435  0.141459  0.751253  1
  Sn  Sn26  1  0.835274  0.359404  0.750002  1
  Sn  Sn27  1  0.665161  0.860304  0.249529  1
  Sn  Sn28  1  0.166362  0.639126  0.249695  1
  Bi  Bi29  1  0.277348  0.027801  0.041895  1
  Bi  Bi30  1  0.775551  0.472406  0.457757  1
  Bi  Bi31  1  0.724033  0.972380  0.542469  1
  Bi  Bi32  1  0.224615  0.532642  0.956968  1
  Bi  Bi33  1  0.720136  0.968040  0.958698  1
  Bi  Bi34  1  0.224967  0.526666  0.542688  1
  Bi  Bi35  1  0.274928  0.026209  0.457290  1
