# generated using pymatgen
data_Y15Tm17B8(C8I19)2
_symmetry_space_group_name_H-M   'P 1'
_cell_length_a   12.51182491
_cell_length_b   14.39807753
_cell_length_c   19.68696556
_cell_angle_alpha   104.70378338
_cell_angle_beta   89.55601674
_cell_angle_gamma   112.77137450
_symmetry_Int_Tables_number   1
_chemical_formula_structural   Y15Tm17B8(C8I19)2
_chemical_formula_sum   'Y15 Tm17 B8 C16 I38'
_cell_volume   3146.68672928
_cell_formula_units_Z   1
loop_
 _symmetry_equiv_pos_site_id
 _symmetry_equiv_pos_as_xyz
  1  'x, y, z'
loop_
 _atom_site_type_symbol
 _atom_site_label
 _atom_site_symmetry_multiplicity
 _atom_site_fract_x
 _atom_site_fract_y
 _atom_site_fract_z
 _atom_site_occupancy
  Y  Y0  1  0.360954  0.498086  0.908719  1
  Y  Y1  1  0.138721  0.270370  0.457408  1
  Y  Y2  1  0.702521  0.660649  0.277555  1
  Y  Y3  1  0.404633  0.263007  0.542422  1
  Y  Y4  1  0.364990  0.497251  0.407020  1
  Y  Y5  1  0.364309  0.497359  0.092987  1
  Y  Y6  1  0.635104  0.502945  0.908000  1
  Y  Y7  1  0.428840  0.653386  0.778943  1
  Y  Y8  1  0.359776  0.495217  0.591483  1
  Y  Y9  1  0.675472  0.285222  0.958894  1
  Y  Y10  1  0.596043  0.736992  0.456684  1
  Y  Y11  1  0.634710  0.503402  0.592081  1
  Y  Y12  1  0.556598  0.347587  0.721113  1
  Y  Y13  1  0.298397  0.338942  0.722455  1
  Y  Y14  1  0.603200  0.737379  0.627415  1
  Tm  Tm15  1  0.318148  0.341257  0.220618  1
  Tm  Tm16  1  0.569110  0.348255  0.221391  1
  Tm  Tm17  1  0.682756  0.658306  0.779531  1
  Tm  Tm18  1  0.399176  0.267228  0.042810  1
  Tm  Tm19  1  0.321767  0.710933  0.543826  1
  Tm  Tm20  1  0.858576  0.726402  0.541418  1
  Tm  Tm21  1  0.636420  0.504754  0.408332  1
  Tm  Tm22  1  0.447246  0.651277  0.278584  1
  Tm  Tm23  1  0.400055  0.267235  0.373965  1
  Tm  Tm24  1  0.140084  0.276718  0.955904  1
  Tm  Tm25  1  0.326925  0.715146  0.042146  1
  Tm  Tm26  1  0.405962  0.266054  0.875290  1
  Tm  Tm27  1  0.859643  0.721976  0.044186  1
  Tm  Tm28  1  0.678075  0.290479  0.455240  1
  Tm  Tm29  1  0.601545  0.732638  0.957875  1
  Tm  Tm30  1  0.594283  0.734146  0.125560  1
  Tm  Tm31  1  0.634896  0.502249  0.091666  1
  B  B32  1  0.508950  0.501186  0.205020  1
  B  B33  1  0.470701  0.430486  0.486247  1
  B  B34  1  0.492450  0.498613  0.795354  1
  B  B35  1  0.470391  0.430603  0.987791  1
  B  B36  1  0.528781  0.569776  0.013681  1
  B  B37  1  0.492720  0.500444  0.705796  1
  B  B38  1  0.508701  0.499216  0.294043  1
  B  B39  1  0.529111  0.570398  0.512386  1
  C  C40  1  0.666982  0.635787  0.524116  1
  C  C41  1  0.461246  0.390653  0.314850  1
  C  C42  1  0.449396  0.390993  0.817141  1
  C  C43  1  0.445618  0.631842  0.025543  1
  C  C44  1  0.554529  0.369068  0.473907  1
  C  C45  1  0.540521  0.609048  0.685118  1
  C  C46  1  0.333219  0.361852  0.975691  1
  C  C47  1  0.450283  0.394306  0.644327  1
  C  C48  1  0.555016  0.369843  0.976339  1
  C  C49  1  0.666392  0.637150  0.025582  1
  C  C50  1  0.550847  0.608956  0.183547  1
  C  C51  1  0.461854  0.394284  0.144307  1
  C  C52  1  0.445972  0.632521  0.524422  1
  C  C53  1  0.333202  0.363003  0.473670  1
  C  C54  1  0.549975  0.605479  0.355050  1
  C  C55  1  0.540145  0.605736  0.856222  1
  I  I56  1  0.453218  0.086176  0.948628  1
  I  I57  1  0.619486  0.868867  0.834791  1
  I  I58  1  0.500493  0.905691  0.639650  1
  I  I59  1  0.108328  0.352295  0.826101  1
  I  I60  1  0.617936  0.205482  0.582618  1
  I  I61  1  0.866092  0.193904  0.436778  1
  I  I62  1  0.843995  0.909347  0.143103  1
  I  I63  1  0.875825  0.507789  0.950064  1
  I  I64  1  0.863923  0.809021  0.702239  1
  I  I65  1  0.385035  0.133679  0.165486  1
  I  I66  1  0.139494  0.188506  0.295829  1
  I  I67  1  0.768512  0.366979  0.324696  1
  I  I68  1  0.865634  0.805608  0.917048  1
  I  I69  1  0.750329  0.339773  0.116323  1
  I  I70  1  0.543321  0.912343  0.051321  1
  I  I71  1  0.105000  0.325049  0.615406  1
  I  I72  1  0.892486  0.674001  0.386110  1
  I  I73  1  0.821980  0.921785  0.540229  1
  I  I74  1  0.134804  0.809159  0.057816  1
  I  I75  1  0.806666  0.512634  0.749584  1
  I  I76  1  0.867186  0.189314  0.943225  1
  I  I77  1  0.126556  0.493356  0.450934  1
  I  I78  1  0.247542  0.662822  0.887207  1
  I  I79  1  0.129896  0.804737  0.562081  1
  I  I80  1  0.623431  0.209641  0.797856  1
  I  I81  1  0.198628  0.490460  0.250838  1
  I  I82  1  0.179266  0.075461  0.460129  1
  I  I83  1  0.496298  0.096674  0.359818  1
  I  I84  1  0.381741  0.792495  0.414972  1
  I  I85  1  0.155927  0.090450  0.856651  1
  I  I86  1  0.873810  0.508082  0.548829  1
  I  I87  1  0.683209  0.869401  0.328748  1
  I  I88  1  0.134721  0.194440  0.083672  1
  I  I89  1  0.125929  0.494384  0.049398  1
  I  I90  1  0.227532  0.635242  0.674639  1
  I  I91  1  0.375931  0.786227  0.201826  1
  I  I92  1  0.315454  0.129534  0.670753  1
  I  I93  1  0.888452  0.645105  0.172937  1
