# generated using pymatgen
data_K3RbBa4Y4(Si2O7)4
_symmetry_space_group_name_H-M   'P 1'
_cell_length_a   5.78733300
_cell_length_b   9.88554093
_cell_length_c   14.40485700
_cell_angle_alpha   63.00460321
_cell_angle_beta   90.00000000
_cell_angle_gamma   90.00000000
_symmetry_Int_Tables_number   1
_chemical_formula_structural   K3RbBa4Y4(Si2O7)4
_chemical_formula_sum   'K3 Rb1 Ba4 Y4 Si8 O28'
_cell_volume   734.32197091
_cell_formula_units_Z   1
loop_
 _symmetry_equiv_pos_site_id
 _symmetry_equiv_pos_as_xyz
  1  'x, y, z'
loop_
 _atom_site_type_symbol
 _atom_site_label
 _atom_site_symmetry_multiplicity
 _atom_site_fract_x
 _atom_site_fract_y
 _atom_site_fract_z
 _atom_site_occupancy
  K  K0  1  0.263177  0.994300  0.136902  1
  K  K1  1  0.736914  0.005713  0.862528  1
  K  K2  1  0.237061  0.994397  0.637390  1
  Rb  Rb3  1  0.764432  0.008520  0.357484  1
  Ba  Ba4  1  0.269081  0.534229  0.328809  1
  Ba  Ba5  1  0.231545  0.534223  0.828855  1
  Ba  Ba6  1  0.731471  0.465865  0.671180  1
  Ba  Ba7  1  0.768551  0.466325  0.171064  1
  Y  Y8  1  0.240602  0.739566  0.020758  1
  Y  Y9  1  0.759427  0.260396  0.978772  1
  Y  Y10  1  0.259343  0.739617  0.521154  1
  Y  Y11  1  0.740433  0.260509  0.479583  1
  Si  Si12  1  0.228501  0.326682  0.621598  1
  Si  Si13  1  0.745053  0.829103  0.646529  1
  Si  Si14  1  0.255100  0.172557  0.354505  1
  Si  Si15  1  0.754730  0.828181  0.145503  1
  Si  Si16  1  0.770989  0.671343  0.378905  1
  Si  Si17  1  0.728557  0.673117  0.878874  1
  Si  Si18  1  0.245088  0.171070  0.853961  1
  Si  Si19  1  0.271915  0.326525  0.121484  1
  O  O20  1  0.999332  0.257618  0.849714  1
  O  O21  1  0.243246  0.480798  0.637884  1
  O  O22  1  0.465213  0.700105  0.908237  1
  O  O23  1  0.759070  0.008604  0.065157  1
  O  O24  1  0.743339  0.519148  0.862488  1
  O  O25  1  0.535012  0.299892  0.091504  1
  O  O26  1  0.497945  0.261748  0.349947  1
  O  O27  1  0.796588  0.821055  0.764180  1
  O  O28  1  0.578997  0.675348  0.460342  1
  O  O29  1  0.260749  0.992428  0.436031  1
  O  O30  1  0.701502  0.817553  0.263472  1
  O  O31  1  0.499569  0.742563  0.650211  1
  O  O32  1  0.295985  0.178260  0.736516  1
  O  O33  1  0.080212  0.321612  0.040269  1
  O  O34  1  0.461421  0.263604  0.873166  1
  O  O35  1  0.961185  0.737152  0.626547  1
  O  O36  1  0.033869  0.699373  0.408516  1
  O  O37  1  0.965229  0.299986  0.592014  1
  O  O38  1  0.919549  0.677291  0.960517  1
  O  O39  1  0.539146  0.736199  0.125458  1
  O  O40  1  0.207030  0.178722  0.236955  1
  O  O41  1  0.037886  0.264755  0.373164  1
  O  O42  1  0.000896  0.742234  0.149772  1
  O  O43  1  0.419760  0.322459  0.540103  1
  O  O44  1  0.256595  0.480861  0.137344  1
  O  O45  1  0.757724  0.517679  0.362515  1
  O  O46  1  0.740197  0.009600  0.566782  1
  O  O47  1  0.240786  0.991117  0.935359  1
