# generated using pymatgen
data_Dy13Tm7Bi12
_symmetry_space_group_name_H-M   'P 1'
_cell_length_a   8.25145879
_cell_length_b   9.46168303
_cell_length_c   12.03978012
_cell_angle_alpha   89.99754944
_cell_angle_beta   90.04945320
_cell_angle_gamma   89.99194195
_symmetry_Int_Tables_number   1
_chemical_formula_structural   Dy13Tm7Bi12
_chemical_formula_sum   'Dy13 Tm7 Bi12'
_cell_volume   939.97763159
_cell_formula_units_Z   1
loop_
 _symmetry_equiv_pos_site_id
 _symmetry_equiv_pos_as_xyz
  1  'x, y, z'
loop_
 _atom_site_type_symbol
 _atom_site_label
 _atom_site_symmetry_multiplicity
 _atom_site_fract_x
 _atom_site_fract_y
 _atom_site_fract_z
 _atom_site_occupancy
  Dy  Dy0  1  0.352497  0.750381  0.215628  1
  Dy  Dy1  1  0.851818  0.750293  0.283963  1
  Dy  Dy2  1  0.647937  0.250062  0.784113  1
  Dy  Dy3  1  0.148040  0.250169  0.715814  1
  Dy  Dy4  1  0.192368  0.564120  0.441539  1
  Dy  Dy5  1  0.476190  0.249909  0.488398  1
  Dy  Dy6  1  0.975976  0.250106  0.011542  1
  Dy  Dy7  1  0.524655  0.750292  0.511755  1
  Dy  Dy8  1  0.024076  0.750019  0.988342  1
  Dy  Dy9  1  0.312341  0.249989  0.218539  1
  Dy  Dy10  1  0.812538  0.249984  0.281477  1
  Dy  Dy11  1  0.687613  0.750035  0.781523  1
  Dy  Dy12  1  0.187635  0.750246  0.718740  1
  Tm  Tm13  1  0.692523  0.565181  0.058406  1
  Tm  Tm14  1  0.192374  0.935236  0.441510  1
  Tm  Tm15  1  0.307411  0.065150  0.941595  1
  Tm  Tm16  1  0.807595  0.434779  0.558430  1
  Tm  Tm17  1  0.307495  0.434766  0.941526  1
  Tm  Tm18  1  0.807302  0.065062  0.558483  1
  Tm  Tm19  1  0.692557  0.934803  0.058415  1
  Bi  Bi20  1  0.407388  0.750007  0.956914  1
  Bi  Bi21  1  0.906854  0.750575  0.543309  1
  Bi  Bi22  1  0.592672  0.249999  0.043047  1
  Bi  Bi23  1  0.092177  0.248298  0.457152  1
  Bi  Bi24  1  0.565316  0.995528  0.325252  1
  Bi  Bi25  1  0.065108  0.504645  0.174465  1
  Bi  Bi26  1  0.434690  0.495487  0.674890  1
  Bi  Bi27  1  0.934661  0.004632  0.825366  1
  Bi  Bi28  1  0.434801  0.004647  0.674716  1
  Bi  Bi29  1  0.934542  0.495458  0.825423  1
  Bi  Bi30  1  0.565613  0.504632  0.325159  1
  Bi  Bi31  1  0.065236  0.995511  0.174571  1
