# generated using pymatgen
data_Be8Al2TcAu
_symmetry_space_group_name_H-M   'P 1'
_cell_length_a   4.44489700
_cell_length_b   4.44489923
_cell_length_c   7.15333000
_cell_angle_alpha   90.00000000
_cell_angle_beta   90.00000000
_cell_angle_gamma   119.99999088
_symmetry_Int_Tables_number   1
_chemical_formula_structural   Be8Al2TcAu
_chemical_formula_sum   'Be8 Al2 Tc1 Au1'
_cell_volume   122.39468330
_cell_formula_units_Z   1
loop_
 _symmetry_equiv_pos_site_id
 _symmetry_equiv_pos_as_xyz
  1  'x, y, z'
loop_
 _atom_site_type_symbol
 _atom_site_label
 _atom_site_symmetry_multiplicity
 _atom_site_fract_x
 _atom_site_fract_y
 _atom_site_fract_z
 _atom_site_occupancy
  Be  Be0  1  0.000000  0.000000  0.999800  1
  Be  Be1  1  0.000000  0.000000  0.493518  1
  Be  Be2  1  0.831534  0.663070  0.242707  1
  Be  Be3  1  0.163246  0.836754  0.755065  1
  Be  Be4  1  0.673507  0.836754  0.755065  1
  Be  Be5  1  0.336930  0.168466  0.242707  1
  Be  Be6  1  0.831534  0.168466  0.242707  1
  Be  Be7  1  0.163246  0.326493  0.755065  1
  Al  Al8  1  0.333333  0.666667  0.046137  1
  Al  Al9  1  0.666667  0.333333  0.582593  1
  Tc  Tc10  1  0.666667  0.333333  0.944591  1
  Au  Au11  1  0.333333  0.666667  0.440045  1
