# generated using pymatgen
data_Y16Al4Ir3Ru
_symmetry_space_group_name_H-M   'P 1'
_cell_length_a   9.57638692
_cell_length_b   9.57638573
_cell_length_c   9.57024502
_cell_angle_alpha   59.97876384
_cell_angle_beta   59.97876485
_cell_angle_gamma   60.00000202
_symmetry_Int_Tables_number   1
_chemical_formula_structural   Y16Al4Ir3Ru
_chemical_formula_sum   'Y16 Al4 Ir3 Ru1'
_cell_volume   620.40016978
_cell_formula_units_Z   1
loop_
 _symmetry_equiv_pos_site_id
 _symmetry_equiv_pos_as_xyz
  1  'x, y, z'
loop_
 _atom_site_type_symbol
 _atom_site_label
 _atom_site_symmetry_multiplicity
 _atom_site_fract_x
 _atom_site_fract_y
 _atom_site_fract_z
 _atom_site_occupancy
  Y  Y0  1  0.807486  0.193817  0.804881  1
  Y  Y1  1  0.938740  0.560509  0.562013  1
  Y  Y2  1  0.560509  0.938740  0.562013  1
  Y  Y3  1  0.805873  0.194529  0.193725  1
  Y  Y4  1  0.194529  0.805873  0.193725  1
  Y  Y5  1  0.351729  0.943552  0.352990  1
  Y  Y6  1  0.938740  0.938740  0.562013  1
  Y  Y7  1  0.561517  0.938435  0.938532  1
  Y  Y8  1  0.193817  0.807486  0.804881  1
  Y  Y9  1  0.352875  0.352875  0.941374  1
  Y  Y10  1  0.561517  0.561517  0.938532  1
  Y  Y11  1  0.351729  0.351729  0.352990  1
  Y  Y12  1  0.193817  0.193817  0.804881  1
  Y  Y13  1  0.805873  0.805873  0.193725  1
  Y  Y14  1  0.938435  0.561517  0.938532  1
  Y  Y15  1  0.943552  0.351729  0.352990  1
  Al  Al16  1  0.578687  0.578687  0.578491  1
  Al  Al17  1  0.578687  0.264135  0.578491  1
  Al  Al18  1  0.578261  0.578261  0.265220  1
  Al  Al19  1  0.264135  0.578687  0.578491  1
  Ir  Ir20  1  0.574595  0.141884  0.141638  1
  Ir  Ir21  1  0.141884  0.574595  0.141638  1
  Ir  Ir22  1  0.141884  0.141884  0.141638  1
  Ru  Ru23  1  0.141135  0.141135  0.576593  1
