# generated using pymatgen
data_NdBe2NiIr2
_symmetry_space_group_name_H-M   'P 1'
_cell_length_a   5.27406500
_cell_length_b   5.54165860
_cell_length_c   3.44869800
_cell_angle_alpha   90.00000000
_cell_angle_beta   90.00000000
_cell_angle_gamma   121.69306757
_symmetry_Int_Tables_number   1
_chemical_formula_structural   NdBe2NiIr2
_chemical_formula_sum   'Nd1 Be2 Ni1 Ir2'
_cell_volume   85.76419421
_cell_formula_units_Z   1
loop_
 _symmetry_equiv_pos_site_id
 _symmetry_equiv_pos_as_xyz
  1  'x, y, z'
loop_
 _atom_site_type_symbol
 _atom_site_label
 _atom_site_symmetry_multiplicity
 _atom_site_fract_x
 _atom_site_fract_y
 _atom_site_fract_z
 _atom_site_occupancy
  Nd  Nd0  1  0.000000  0.000000  0.000000  1
  Be  Be1  1  0.674156  0.337077  0.000000  1
  Be  Be2  1  0.325844  0.662923  0.000000  1
  Ni  Ni3  1  0.000000  0.500000  0.500000  1
  Ir  Ir4  1  0.500000  0.000000  0.500000  1
  Ir  Ir5  1  0.500000  0.500000  0.500000  1
