# generated using pymatgen
data_Ti17Cr(Si8W)2
_symmetry_space_group_name_H-M   'P 1'
_cell_length_a   6.64444234
_cell_length_b   6.64546905
_cell_length_c   12.15785922
_cell_angle_alpha   90.24374406
_cell_angle_beta   90.26967935
_cell_angle_gamma   89.98987455
_symmetry_Int_Tables_number   1
_chemical_formula_structural   Ti17Cr(Si8W)2
_chemical_formula_sum   'Ti17 Cr1 Si16 W2'
_cell_volume   536.82476295
_cell_formula_units_Z   1
loop_
 _symmetry_equiv_pos_site_id
 _symmetry_equiv_pos_as_xyz
  1  'x, y, z'
loop_
 _atom_site_type_symbol
 _atom_site_label
 _atom_site_symmetry_multiplicity
 _atom_site_fract_x
 _atom_site_fract_y
 _atom_site_fract_z
 _atom_site_occupancy
  Ti  Ti0  1  0.347835  0.493068  0.869657  1
  Ti  Ti1  1  0.652955  0.504173  0.372569  1
  Ti  Ti2  1  0.494844  0.349411  0.129145  1
  Ti  Ti3  1  0.501687  0.648996  0.627845  1
  Ti  Ti4  1  0.005217  0.849564  0.121304  1
  Ti  Ti5  1  0.151133  0.996878  0.377254  1
  Ti  Ti6  1  0.850152  0.003098  0.879487  1
  Ti  Ti7  1  0.004169  0.342721  0.221432  1
  Ti  Ti8  1  0.156030  0.506181  0.470958  1
  Ti  Ti9  1  0.841203  0.495549  0.969622  1
  Ti  Ti10  1  0.503250  0.158821  0.529501  1
  Ti  Ti11  1  0.497611  0.842341  0.028616  1
  Ti  Ti12  1  0.999249  0.658461  0.720347  1
  Ti  Ti13  1  0.346330  0.002510  0.778627  1
  Ti  Ti14  1  0.660181  0.998157  0.280835  1
  Ti  Ti15  1  0.668170  0.326944  0.749245  1
  Ti  Ti16  1  0.832363  0.830622  0.500929  1
  Cr  Cr17  1  0.989548  0.150478  0.622883  1
  Si  Si18  1  0.041378  0.298225  0.810203  1
  Si  Si19  1  0.197974  0.542769  0.062531  1
  Si  Si20  1  0.803613  0.452575  0.565777  1
  Si  Si21  1  0.543791  0.198643  0.935628  1
  Si  Si22  1  0.455783  0.801984  0.437718  1
  Si  Si23  1  0.956762  0.699306  0.314439  1
  Si  Si24  1  0.303027  0.043146  0.186481  1
  Si  Si25  1  0.703594  0.956815  0.685429  1
  Si  Si26  1  0.285884  0.355216  0.670007  1
  Si  Si27  1  0.142521  0.793533  0.921388  1
  Si  Si28  1  0.861316  0.205294  0.427142  1
  Si  Si29  1  0.794020  0.141504  0.077925  1
  Si  Si30  1  0.203076  0.870016  0.578650  1
  Si  Si31  1  0.705928  0.641481  0.172645  1
  Si  Si32  1  0.359599  0.295586  0.328775  1
  Si  Si33  1  0.640528  0.705682  0.825712  1
  W  W34  1  0.170655  0.169421  0.999523  1
  W  W35  1  0.328624  0.670830  0.249768  1
