# generated using pymatgen
data_LaHo7(IrO6)4
_symmetry_space_group_name_H-M   'P 1'
_cell_length_a   5.31049368
_cell_length_b   9.18850833
_cell_length_c   9.91116486
_cell_angle_alpha   90.55758091
_cell_angle_beta   89.94803603
_cell_angle_gamma   89.68423885
_symmetry_Int_Tables_number   1
_chemical_formula_structural   LaHo7(IrO6)4
_chemical_formula_sum   'La1 Ho7 Ir4 O24'
_cell_volume   483.58993040
_cell_formula_units_Z   1
loop_
 _symmetry_equiv_pos_site_id
 _symmetry_equiv_pos_as_xyz
  1  'x, y, z'
loop_
 _atom_site_type_symbol
 _atom_site_label
 _atom_site_symmetry_multiplicity
 _atom_site_fract_x
 _atom_site_fract_y
 _atom_site_fract_z
 _atom_site_occupancy
  La  La0  1  0.966035  0.778318  0.862749  1
  Ho  Ho1  1  0.517569  0.099910  0.965915  1
  Ho  Ho2  1  0.020202  0.395257  0.037335  1
  Ho  Ho3  1  0.477189  0.601228  0.534520  1
  Ho  Ho4  1  0.983166  0.902702  0.461883  1
  Ho  Ho5  1  0.542661  0.221843  0.368969  1
  Ho  Ho6  1  0.043237  0.282519  0.627520  1
  Ho  Ho7  1  0.461957  0.716694  0.134225  1
  Ir  Ir8  1  0.461055  0.001096  0.641844  1
  Ir  Ir9  1  0.958134  0.504969  0.353749  1
  Ir  Ir10  1  0.539382  0.489484  0.854494  1
  Ir  Ir11  1  0.043140  0.004995  0.148834  1
  O  O12  1  0.325655  0.137205  0.182986  1
  O  O13  1  0.829499  0.364561  0.817682  1
  O  O14  1  0.668598  0.632778  0.319774  1
  O  O15  1  0.177074  0.870985  0.668935  1
  O  O16  1  0.737654  0.118691  0.566029  1
  O  O17  1  0.237303  0.388053  0.432461  1
  O  O18  1  0.269384  0.605939  0.940980  1
  O  O19  1  0.764183  0.885490  0.075093  1
  O  O20  1  0.663588  0.639494  0.736897  1
  O  O21  1  0.187506  0.857642  0.264234  1
  O  O22  1  0.308277  0.143848  0.761437  1
  O  O23  1  0.816342  0.356326  0.237412  1
  O  O24  1  0.658315  0.951674  0.795246  1
  O  O25  1  0.164957  0.553860  0.203569  1
  O  O26  1  0.328132  0.444393  0.702847  1
  O  O27  1  0.836457  0.058707  0.298942  1
  O  O28  1  0.255369  0.093098  0.497024  1
  O  O29  1  0.752725  0.413399  0.499113  1
  O  O30  1  0.742982  0.579095  0.002623  1
  O  O31  1  0.259194  0.911575  0.007287  1
  O  O32  1  0.082420  0.658933  0.472943  1
  O  O33  1  0.592878  0.844284  0.525991  1
  O  O34  1  0.914495  0.154172  0.026421  1
  O  O35  1  0.413287  0.336783  0.972035  1
