# generated using pymatgen
data_Ba4TlIn(ReN4)2
_symmetry_space_group_name_H-M   'P 1'
_cell_length_a   6.03965600
_cell_length_b   7.21124122
_cell_length_c   8.83891238
_cell_angle_alpha   58.37177795
_cell_angle_beta   90.00000000
_cell_angle_gamma   90.00000000
_symmetry_Int_Tables_number   1
_chemical_formula_structural   Ba4TlIn(ReN4)2
_chemical_formula_sum   'Ba4 Tl1 In1 Re2 N8'
_cell_volume   327.78551644
_cell_formula_units_Z   1
loop_
 _symmetry_equiv_pos_site_id
 _symmetry_equiv_pos_as_xyz
  1  'x, y, z'
loop_
 _atom_site_type_symbol
 _atom_site_label
 _atom_site_symmetry_multiplicity
 _atom_site_fract_x
 _atom_site_fract_y
 _atom_site_fract_z
 _atom_site_occupancy
  Ba  Ba0  1  0.250000  0.223493  0.092006  1
  Ba  Ba1  1  0.750000  0.773188  0.909394  1
  Ba  Ba2  1  0.750000  0.729476  0.368939  1
  Ba  Ba3  1  0.250000  0.286662  0.629621  1
  Tl  Tl4  1  0.250000  0.800232  0.623964  1
  In  In5  1  0.750000  0.224996  0.382597  1
  Re  Re6  1  0.250000  0.672524  0.178433  1
  Re  Re7  1  0.750000  0.320462  0.819596  1
  N  N8  1  0.500753  0.484359  0.785412  1
  N  N9  1  0.998393  0.504550  0.225404  1
  N  N10  1  0.501607  0.504550  0.225404  1
  N  N11  1  0.999247  0.484359  0.785412  1
  N  N12  1  0.750000  0.234132  0.654726  1
  N  N13  1  0.250000  0.777510  0.328423  1
  N  N14  1  0.750000  0.083280  0.041764  1
  N  N15  1  0.250000  0.896226  0.948907  1
