# generated using pymatgen
data_Hf16Tc3Ni4Pt
_symmetry_space_group_name_H-M   'P 1'
_cell_length_a   8.64344881
_cell_length_b   8.64344876
_cell_length_c   8.64344951
_cell_angle_alpha   60.09960635
_cell_angle_beta   60.09960859
_cell_angle_gamma   60.09960358
_symmetry_Int_Tables_number   1
_chemical_formula_structural   Hf16Tc3Ni4Pt
_chemical_formula_sum   'Hf16 Tc3 Ni4 Pt1'
_cell_volume   457.64137480
_cell_formula_units_Z   1
loop_
 _symmetry_equiv_pos_site_id
 _symmetry_equiv_pos_as_xyz
  1  'x, y, z'
loop_
 _atom_site_type_symbol
 _atom_site_label
 _atom_site_symmetry_multiplicity
 _atom_site_fract_x
 _atom_site_fract_y
 _atom_site_fract_z
 _atom_site_occupancy
  Hf  Hf0  1  0.683354  0.105202  0.105202  1
  Hf  Hf1  1  0.105202  0.683354  0.105202  1
  Hf  Hf2  1  0.105202  0.105202  0.683354  1
  Hf  Hf3  1  0.103836  0.103836  0.103836  1
  Hf  Hf4  1  0.315993  0.315993  0.691405  1
  Hf  Hf5  1  0.685466  0.685466  0.315434  1
  Hf  Hf6  1  0.315993  0.691405  0.315993  1
  Hf  Hf7  1  0.685466  0.315434  0.685466  1
  Hf  Hf8  1  0.691405  0.315993  0.315993  1
  Hf  Hf9  1  0.315434  0.685466  0.685466  1
  Hf  Hf10  1  0.951708  0.951708  0.548007  1
  Hf  Hf11  1  0.550085  0.550085  0.947669  1
  Hf  Hf12  1  0.951708  0.548007  0.951708  1
  Hf  Hf13  1  0.550085  0.947669  0.550085  1
  Hf  Hf14  1  0.548007  0.951708  0.951708  1
  Hf  Hf15  1  0.947669  0.550085  0.550085  1
  Tc  Tc16  1  0.995585  0.333140  0.333140  1
  Tc  Tc17  1  0.333140  0.995585  0.333140  1
  Tc  Tc18  1  0.333140  0.333140  0.995585  1
  Ni  Ni19  1  0.322590  0.891190  0.891190  1
  Ni  Ni20  1  0.891190  0.322590  0.891190  1
  Ni  Ni21  1  0.891190  0.891190  0.322590  1
  Ni  Ni22  1  0.893234  0.893234  0.893234  1
  Pt  Pt23  1  0.333317  0.333317  0.333317  1
