# generated using pymatgen
data_Y6Al(P3Rh5)4
_symmetry_space_group_name_H-M   'P 1'
_cell_length_a   13.46309600
_cell_length_b   13.46309450
_cell_length_c   3.89452600
_cell_angle_alpha   90.00000000
_cell_angle_beta   90.00000000
_cell_angle_gamma   119.99999876
_symmetry_Int_Tables_number   1
_chemical_formula_structural   Y6Al(P3Rh5)4
_chemical_formula_sum   'Y6 Al1 P12 Rh20'
_cell_volume   611.32911742
_cell_formula_units_Z   1
loop_
 _symmetry_equiv_pos_site_id
 _symmetry_equiv_pos_as_xyz
  1  'x, y, z'
loop_
 _atom_site_type_symbol
 _atom_site_label
 _atom_site_symmetry_multiplicity
 _atom_site_fract_x
 _atom_site_fract_y
 _atom_site_fract_z
 _atom_site_occupancy
  Y  Y0  1  0.531129  0.716961  0.249313  1
  Y  Y1  1  0.283039  0.814168  0.249313  1
  Y  Y2  1  0.185832  0.468871  0.249313  1
  Y  Y3  1  0.468871  0.283039  0.750687  1
  Y  Y4  1  0.716961  0.185832  0.750687  1
  Y  Y5  1  0.814168  0.531129  0.750687  1
  Al  Al6  1  0.000000  0.000000  0.000000  1
  P  P7  1  0.526592  0.138622  0.250373  1
  P  P8  1  0.861378  0.387970  0.250373  1
  P  P9  1  0.612030  0.473408  0.250373  1
  P  P10  1  0.949263  0.719350  0.250119  1
  P  P11  1  0.280650  0.229915  0.250119  1
  P  P12  1  0.770085  0.050737  0.250119  1
  P  P13  1  0.387970  0.526592  0.749627  1
  P  P14  1  0.473408  0.861378  0.749627  1
  P  P15  1  0.138622  0.612030  0.749627  1
  P  P16  1  0.719350  0.770085  0.749881  1
  P  P17  1  0.229915  0.949263  0.749881  1
  P  P18  1  0.050737  0.280650  0.749881  1
  Rh  Rh19  1  0.333333  0.666667  0.752297  1
  Rh  Rh20  1  0.918796  0.250966  0.250799  1
  Rh  Rh21  1  0.749034  0.667831  0.250799  1
  Rh  Rh22  1  0.332169  0.081204  0.250799  1
  Rh  Rh23  1  0.442510  0.026563  0.750416  1
  Rh  Rh24  1  0.973437  0.415948  0.750416  1
  Rh  Rh25  1  0.584052  0.557490  0.750416  1
  Rh  Rh26  1  0.666667  0.333333  0.247703  1
  Rh  Rh27  1  0.094627  0.199525  0.249811  1
  Rh  Rh28  1  0.800475  0.895102  0.249811  1
  Rh  Rh29  1  0.104898  0.905373  0.249811  1
  Rh  Rh30  1  0.026563  0.584052  0.249584  1
  Rh  Rh31  1  0.415948  0.442510  0.249584  1
  Rh  Rh32  1  0.557490  0.973437  0.249584  1
  Rh  Rh33  1  0.667831  0.918796  0.749201  1
  Rh  Rh34  1  0.081204  0.749034  0.749201  1
  Rh  Rh35  1  0.250966  0.332169  0.749201  1
  Rh  Rh36  1  0.905373  0.800475  0.750189  1
  Rh  Rh37  1  0.199525  0.104898  0.750189  1
  Rh  Rh38  1  0.895102  0.094627  0.750189  1
