# generated using pymatgen
data_Li2Dy2Si3
_symmetry_space_group_name_H-M   'P 1'
_cell_length_a   9.27165055
_cell_length_b   9.27164964
_cell_length_c   6.68157700
_cell_angle_alpha   90.00000000
_cell_angle_beta   90.00000000
_cell_angle_gamma   153.50542955
_symmetry_Int_Tables_number   1
_chemical_formula_structural   Li2Dy2Si3
_chemical_formula_sum   'Li4 Dy4 Si6'
_cell_volume   256.23469073
_cell_formula_units_Z   2
loop_
 _symmetry_equiv_pos_site_id
 _symmetry_equiv_pos_as_xyz
  1  'x, y, z'
loop_
 _atom_site_type_symbol
 _atom_site_label
 _atom_site_symmetry_multiplicity
 _atom_site_fract_x
 _atom_site_fract_y
 _atom_site_fract_z
 _atom_site_occupancy
  Li  Li0  1  0.809922  0.190078  0.558898  1
  Li  Li1  1  0.190078  0.809922  0.441102  1
  Li  Li2  1  0.190078  0.809922  0.058898  1
  Li  Li3  1  0.809922  0.190078  0.941102  1
  Dy  Dy4  1  0.552046  0.447954  0.250000  1
  Dy  Dy5  1  0.447954  0.552046  0.750000  1
  Dy  Dy6  1  0.344598  0.655402  0.250000  1
  Dy  Dy7  1  0.655402  0.344598  0.750000  1
  Si  Si8  1  0.940574  0.059426  0.072348  1
  Si  Si9  1  0.059426  0.940574  0.927652  1
  Si  Si10  1  0.059426  0.940574  0.572348  1
  Si  Si11  1  0.940574  0.059426  0.427652  1
  Si  Si12  1  0.719698  0.280302  0.250000  1
  Si  Si13  1  0.280302  0.719698  0.750000  1
