# generated using pymatgen
data_TbTmMo2O7
_symmetry_space_group_name_H-M   'P 1'
_cell_length_a   7.35964000
_cell_length_b   7.35964100
_cell_length_c   7.31605400
_cell_angle_alpha   60.19571998
_cell_angle_beta   60.19571550
_cell_angle_gamma   59.72731655
_symmetry_Int_Tables_number   1
_chemical_formula_structural   TbTmMo2O7
_chemical_formula_sum   'Tb2 Tm2 Mo4 O14'
_cell_volume   280.44347009
_cell_formula_units_Z   2
loop_
 _symmetry_equiv_pos_site_id
 _symmetry_equiv_pos_as_xyz
  1  'x, y, z'
loop_
 _atom_site_type_symbol
 _atom_site_label
 _atom_site_symmetry_multiplicity
 _atom_site_fract_x
 _atom_site_fract_y
 _atom_site_fract_z
 _atom_site_occupancy
  Tb  Tb0  1  0.625000  0.125000  0.125000  1
  Tb  Tb1  1  0.125000  0.625000  0.125000  1
  Tm  Tm2  1  0.125000  0.125000  0.125000  1
  Tm  Tm3  1  0.125000  0.125000  0.625000  1
  Mo  Mo4  1  0.625000  0.625000  0.625000  1
  Mo  Mo5  1  0.125000  0.625000  0.625000  1
  Mo  Mo6  1  0.625000  0.625000  0.125000  1
  Mo  Mo7  1  0.625000  0.125000  0.625000  1
  O  O8  1  0.003906  0.003906  0.996094  1
  O  O9  1  0.246094  0.246094  0.253906  1
  O  O10  1  0.278893  0.278893  0.721107  1
  O  O11  1  0.529572  0.529572  0.970428  1
  O  O12  1  0.714753  0.286961  0.711157  1
  O  O13  1  0.714753  0.286961  0.287129  1
  O  O14  1  0.286961  0.714753  0.711157  1
  O  O15  1  0.286961  0.714753  0.287129  1
  O  O16  1  0.720428  0.720428  0.279572  1
  O  O17  1  0.963039  0.535247  0.538843  1
  O  O18  1  0.535247  0.963039  0.962871  1
  O  O19  1  0.971107  0.971107  0.528893  1
  O  O20  1  0.963039  0.535247  0.962871  1
  O  O21  1  0.535247  0.963039  0.538843  1
