# generated using pymatgen
data_Nd19LuSi15As
_symmetry_space_group_name_H-M   'P 1'
_cell_length_a   7.88576080
_cell_length_b   7.89107335
_cell_length_c   15.32673200
_cell_angle_alpha   89.92164831
_cell_angle_beta   89.86222717
_cell_angle_gamma   90.11862764
_symmetry_Int_Tables_number   1
_chemical_formula_structural   Nd19LuSi15As
_chemical_formula_sum   'Nd19 Lu1 Si15 As1'
_cell_volume   953.73264322
_cell_formula_units_Z   1
loop_
 _symmetry_equiv_pos_site_id
 _symmetry_equiv_pos_as_xyz
  1  'x, y, z'
loop_
 _atom_site_type_symbol
 _atom_site_label
 _atom_site_symmetry_multiplicity
 _atom_site_fract_x
 _atom_site_fract_y
 _atom_site_fract_z
 _atom_site_occupancy
  Nd  Nd0  1  0.190203  0.808064  0.249227  1
  Nd  Nd1  1  0.803696  0.191086  0.751807  1
  Nd  Nd2  1  0.689929  0.690204  0.498259  1
  Nd  Nd3  1  0.381571  0.008707  0.443361  1
  Nd  Nd4  1  0.489821  0.878621  0.696547  1
  Nd  Nd5  1  0.510022  0.120862  0.193932  1
  Nd  Nd6  1  0.879332  0.487773  0.302928  1
  Nd  Nd7  1  0.121715  0.511211  0.806371  1
  Nd  Nd8  1  0.622387  0.987727  0.946845  1
  Nd  Nd9  1  0.006303  0.380258  0.553412  1
  Nd  Nd10  1  0.988884  0.618883  0.054039  1
  Nd  Nd11  1  0.129053  0.983057  0.877639  1
  Nd  Nd12  1  0.520003  0.627169  0.125730  1
  Nd  Nd13  1  0.478058  0.372925  0.629240  1
  Nd  Nd14  1  0.628665  0.521218  0.874276  1
  Nd  Nd15  1  0.372472  0.477953  0.372622  1
  Nd  Nd16  1  0.874501  0.020368  0.377073  1
  Nd  Nd17  1  0.980365  0.126383  0.122162  1
  Nd  Nd18  1  0.019253  0.873161  0.623233  1
  Lu  Lu19  1  0.313231  0.311208  0.999268  1
  Si  Si20  1  0.328409  0.690470  0.954494  1
  Si  Si21  1  0.667972  0.306806  0.454456  1
  Si  Si22  1  0.690998  0.329426  0.046024  1
  Si  Si23  1  0.306260  0.669126  0.547320  1
  Si  Si24  1  0.807031  0.829940  0.203517  1
  Si  Si25  1  0.169671  0.193461  0.293824  1
  Si  Si26  1  0.833284  0.807324  0.796132  1
  Si  Si27  1  0.288470  0.924781  0.059424  1
  Si  Si28  1  0.578193  0.785469  0.309143  1
  Si  Si29  1  0.428078  0.214777  0.820054  1
  Si  Si30  1  0.787119  0.578957  0.689431  1
  Si  Si31  1  0.214919  0.418647  0.185071  1
  Si  Si32  1  0.708691  0.077285  0.561073  1
  Si  Si33  1  0.927626  0.289929  0.940660  1
  Si  Si34  1  0.079258  0.712530  0.439717  1
  As  As35  1  0.184560  0.174234  0.701690  1
