# generated using pymatgen
data_Er3Lu5Ti10(NbSi8)2
_symmetry_space_group_name_H-M   'P 1'
_cell_length_a   6.99843714
_cell_length_b   6.99701297
_cell_length_c   12.86416002
_cell_angle_alpha   90.01306868
_cell_angle_beta   90.11375356
_cell_angle_gamma   89.97013168
_symmetry_Int_Tables_number   1
_chemical_formula_structural   Er3Lu5Ti10(NbSi8)2
_chemical_formula_sum   'Er3 Lu5 Ti10 Nb2 Si16'
_cell_volume   629.93284386
_cell_formula_units_Z   1
loop_
 _symmetry_equiv_pos_site_id
 _symmetry_equiv_pos_as_xyz
  1  'x, y, z'
loop_
 _atom_site_type_symbol
 _atom_site_label
 _atom_site_symmetry_multiplicity
 _atom_site_fract_x
 _atom_site_fract_y
 _atom_site_fract_z
 _atom_site_occupancy
  Er  Er0  1  0.658628  0.997983  0.966794  1
  Er  Er1  1  0.002714  0.340660  0.532999  1
  Er  Er2  1  0.998228  0.658104  0.033500  1
  Lu  Lu3  1  0.341817  0.001482  0.466575  1
  Lu  Lu4  1  0.498260  0.840915  0.716889  1
  Lu  Lu5  1  0.500748  0.158128  0.216985  1
  Lu  Lu6  1  0.841404  0.498802  0.283153  1
  Lu  Lu7  1  0.158749  0.501481  0.783055  1
  Ti  Ti8  1  0.827056  0.173132  0.749712  1
  Ti  Ti9  1  0.672696  0.673459  0.500061  1
  Ti  Ti10  1  0.152215  0.007383  0.875353  1
  Ti  Ti11  1  0.491885  0.651252  0.125366  1
  Ti  Ti12  1  0.506864  0.349484  0.625299  1
  Ti  Ti13  1  0.650552  0.492313  0.874774  1
  Ti  Ti14  1  0.348722  0.507882  0.374472  1
  Ti  Ti15  1  0.848866  0.993041  0.375155  1
  Ti  Ti16  1  0.007634  0.152054  0.125138  1
  Ti  Ti17  1  0.993160  0.849030  0.624400  1
  Nb  Nb18  1  0.326965  0.327045  0.999972  1
  Nb  Nb19  1  0.173146  0.827158  0.250234  1
  Si  Si20  1  0.203650  0.131221  0.683176  1
  Si  Si21  1  0.368170  0.703525  0.932332  1
  Si  Si22  1  0.631507  0.296645  0.432821  1
  Si  Si23  1  0.703591  0.368051  0.067255  1
  Si  Si24  1  0.297885  0.632968  0.567144  1
  Si  Si25  1  0.795409  0.868809  0.184094  1
  Si  Si26  1  0.132049  0.203864  0.317377  1
  Si  Si27  1  0.868454  0.796441  0.815825  1
  Si  Si28  1  0.293183  0.953318  0.064057  1
  Si  Si29  1  0.547602  0.792794  0.315186  1
  Si  Si30  1  0.453771  0.206838  0.813126  1
  Si  Si31  1  0.792388  0.546897  0.685322  1
  Si  Si32  1  0.206856  0.452385  0.186775  1
  Si  Si33  1  0.706531  0.045924  0.564776  1
  Si  Si34  1  0.952654  0.292195  0.934646  1
  Si  Si35  1  0.045994  0.707337  0.436199  1
