# generated using pymatgen
data_YbY2PaPt4
_symmetry_space_group_name_H-M   'P 1'
_cell_length_a   4.46753900
_cell_length_b   5.68756588
_cell_length_c   7.11089519
_cell_angle_alpha   87.79813750
_cell_angle_beta   90.00000000
_cell_angle_gamma   90.00000000
_symmetry_Int_Tables_number   1
_chemical_formula_structural   YbY2PaPt4
_chemical_formula_sum   'Yb1 Y2 Pa1 Pt4'
_cell_volume   180.55033476
_cell_formula_units_Z   1
loop_
 _symmetry_equiv_pos_site_id
 _symmetry_equiv_pos_as_xyz
  1  'x, y, z'
loop_
 _atom_site_type_symbol
 _atom_site_label
 _atom_site_symmetry_multiplicity
 _atom_site_fract_x
 _atom_site_fract_y
 _atom_site_fract_z
 _atom_site_occupancy
  Yb  Yb0  1  0.250000  0.357017  0.683929  1
  Y  Y1  1  0.750000  0.642931  0.321628  1
  Y  Y2  1  0.750000  0.858659  0.816803  1
  Pa  Pa3  1  0.250000  0.141895  0.182894  1
  Pt  Pt4  1  0.750000  0.152504  0.436496  1
  Pt  Pt5  1  0.250000  0.852288  0.536059  1
  Pt  Pt6  1  0.250000  0.665055  0.050536  1
  Pt  Pt7  1  0.750000  0.329649  0.971655  1
