# generated using pymatgen
data_Sr4Al5SiAu12
_symmetry_space_group_name_H-M   'P 1'
_cell_length_a   8.84001042
_cell_length_b   8.79671080
_cell_length_c   8.79671107
_cell_angle_alpha   58.27882263
_cell_angle_beta   58.11739995
_cell_angle_gamma   58.11740572
_symmetry_Int_Tables_number   1
_chemical_formula_structural   Sr4Al5SiAu12
_chemical_formula_sum   'Sr4 Al5 Si1 Au12'
_cell_volume   463.42734612
_cell_formula_units_Z   1
loop_
 _symmetry_equiv_pos_site_id
 _symmetry_equiv_pos_as_xyz
  1  'x, y, z'
loop_
 _atom_site_type_symbol
 _atom_site_label
 _atom_site_symmetry_multiplicity
 _atom_site_fract_x
 _atom_site_fract_y
 _atom_site_fract_z
 _atom_site_occupancy
  Sr  Sr0  1  0.411520  0.409410  0.409652  1
  Sr  Sr1  1  0.911738  0.910675  0.911064  1
  Sr  Sr2  1  0.588262  0.588936  0.589325  1
  Sr  Sr3  1  0.088480  0.090348  0.090590  1
  Al  Al4  1  0.058837  0.251144  0.438281  1
  Al  Al5  1  0.441163  0.061719  0.248856  1
  Al  Al6  1  0.250000  0.438103  0.061897  1
  Al  Al7  1  0.936297  0.747456  0.566885  1
  Al  Al8  1  0.563703  0.933115  0.752544  1
  Si  Si9  1  0.750000  0.569187  0.930813  1
  Au  Au10  1  0.972108  0.365824  0.704500  1
  Au  Au11  1  0.702902  0.970741  0.368668  1
  Au  Au12  1  0.358542  0.706898  0.972783  1
  Au  Au13  1  0.202230  0.868127  0.470474  1
  Au  Au14  1  0.473627  0.199393  0.869135  1
  Au  Au15  1  0.868346  0.470444  0.195959  1
  Au  Au16  1  0.026373  0.630865  0.300607  1
  Au  Au17  1  0.297770  0.029526  0.631873  1
  Au  Au18  1  0.631654  0.304041  0.029556  1
  Au  Au19  1  0.797098  0.131332  0.529259  1
  Au  Au20  1  0.527892  0.795500  0.134176  1
  Au  Au21  1  0.141458  0.527217  0.793102  1
