# generated using pymatgen
data_Er20Ir2Os3Pt7
_symmetry_space_group_name_H-M   'P 1'
_cell_length_a   10.90346706
_cell_length_b   10.90086715
_cell_length_c   6.36672051
_cell_angle_alpha   89.96629548
_cell_angle_beta   89.96906827
_cell_angle_gamma   90.26281019
_symmetry_Int_Tables_number   1
_chemical_formula_structural   Er20Ir2Os3Pt7
_chemical_formula_sum   'Er20 Ir2 Os3 Pt7'
_cell_volume   756.72266255
_cell_formula_units_Z   1
loop_
 _symmetry_equiv_pos_site_id
 _symmetry_equiv_pos_as_xyz
  1  'x, y, z'
loop_
 _atom_site_type_symbol
 _atom_site_label
 _atom_site_symmetry_multiplicity
 _atom_site_fract_x
 _atom_site_fract_y
 _atom_site_fract_z
 _atom_site_occupancy
  Er  Er0  1  0.297737  0.084732  0.372247  1
  Er  Er1  1  0.297314  0.911512  0.872219  1
  Er  Er2  1  0.702480  0.084956  0.872297  1
  Er  Er3  1  0.702546  0.914722  0.371936  1
  Er  Er4  1  0.582303  0.795820  0.871294  1
  Er  Er5  1  0.585647  0.203327  0.372877  1
  Er  Er6  1  0.412939  0.795008  0.375834  1
  Er  Er7  1  0.414856  0.201934  0.872663  1
  Er  Er8  1  0.206327  0.416928  0.631085  1
  Er  Er9  1  0.206124  0.587905  0.121965  1
  Er  Er10  1  0.795638  0.413679  0.124782  1
  Er  Er11  1  0.796014  0.586135  0.629288  1
  Er  Er12  1  0.914428  0.703208  0.125631  1
  Er  Er13  1  0.913947  0.295608  0.629694  1
  Er  Er14  1  0.089802  0.704494  0.629898  1
  Er  Er15  1  0.086100  0.296511  0.126067  1
  Er  Er16  1  0.999994  0.999952  0.499633  1
  Er  Er17  1  0.000013  0.999975  0.998923  1
  Er  Er18  1  0.497909  0.501465  0.998043  1
  Er  Er19  1  0.498513  0.501999  0.500257  1
  Ir  Ir20  1  0.346766  0.652139  0.749719  1
  Ir  Ir21  1  0.999826  0.499740  0.376762  1
  Os  Os22  1  0.500208  0.000090  0.127145  1
  Os  Os23  1  0.500159  0.000133  0.626101  1
  Os  Os24  1  0.999765  0.499820  0.874555  1
  Pt  Pt25  1  0.847684  0.153764  0.249906  1
  Pt  Pt26  1  0.846803  0.846270  0.750243  1
  Pt  Pt27  1  0.152819  0.154112  0.749534  1
  Pt  Pt28  1  0.151936  0.846640  0.249766  1
  Pt  Pt29  1  0.653400  0.347515  0.749850  1
  Pt  Pt30  1  0.654490  0.653141  0.249885  1
  Pt  Pt31  1  0.345514  0.346770  0.249904  1
