# generated using pymatgen
data_Pr2Nd2Y2CoBr10
_symmetry_space_group_name_H-M   'P 1'
_cell_length_a   7.51633924
_cell_length_b   9.44355844
_cell_length_c   9.55156861
_cell_angle_alpha   108.72866293
_cell_angle_beta   95.47656639
_cell_angle_gamma   104.84038461
_symmetry_Int_Tables_number   1
_chemical_formula_structural   Pr2Nd2Y2CoBr10
_chemical_formula_sum   'Pr2 Nd2 Y2 Co1 Br10'
_cell_volume   608.86059316
_cell_formula_units_Z   1
loop_
 _symmetry_equiv_pos_site_id
 _symmetry_equiv_pos_as_xyz
  1  'x, y, z'
loop_
 _atom_site_type_symbol
 _atom_site_label
 _atom_site_symmetry_multiplicity
 _atom_site_fract_x
 _atom_site_fract_y
 _atom_site_fract_z
 _atom_site_occupancy
  Pr  Pr0  1  0.469196  0.787073  0.592363  1
  Pr  Pr1  1  0.530804  0.212927  0.407637  1
  Nd  Nd2  1  0.370670  0.453317  0.747236  1
  Nd  Nd3  1  0.629330  0.546683  0.252764  1
  Y  Y4  1  0.851365  0.626456  0.671259  1
  Y  Y5  1  0.148635  0.373544  0.328741  1
  Co  Co6  1  0.500000  0.500000  0.500000  1
  Br  Br7  1  0.413369  0.133760  0.673524  1
  Br  Br8  1  0.586631  0.866240  0.326476  1
  Br  Br9  1  0.048231  0.673348  0.419811  1
  Br  Br10  1  0.951769  0.326652  0.580189  1
  Br  Br11  1  0.259340  0.747689  0.842711  1
  Br  Br12  1  0.740660  0.252311  0.157289  1
  Br  Br13  1  0.249211  0.416738  0.055087  1
  Br  Br14  1  0.750789  0.583262  0.944913  1
  Br  Br15  1  0.855929  0.939410  0.767353  1
  Br  Br16  1  0.144071  0.060590  0.232647  1
