# generated using pymatgen
data_Ba8Ga3Si12Au
_symmetry_space_group_name_H-M   'P 1'
_cell_length_a   12.61532480
_cell_length_b   11.03177353
_cell_length_c   8.51028056
_cell_angle_alpha   79.29528147
_cell_angle_beta   59.18806964
_cell_angle_gamma   41.91664301
_symmetry_Int_Tables_number   1
_chemical_formula_structural   Ba8Ga3Si12Au
_chemical_formula_sum   'Ba8 Ga3 Si12 Au1'
_cell_volume   638.91546165
_cell_formula_units_Z   1
loop_
 _symmetry_equiv_pos_site_id
 _symmetry_equiv_pos_as_xyz
  1  'x, y, z'
loop_
 _atom_site_type_symbol
 _atom_site_label
 _atom_site_symmetry_multiplicity
 _atom_site_fract_x
 _atom_site_fract_y
 _atom_site_fract_z
 _atom_site_occupancy
  Ba  Ba0  1  0.126485  0.123547  0.373395  1
  Ba  Ba1  1  0.876259  0.874716  0.124855  1
  Ba  Ba2  1  0.124636  0.124193  0.876599  1
  Ba  Ba3  1  0.373210  0.376717  0.126597  1
  Ba  Ba4  1  0.623007  0.624480  0.376014  1
  Ba  Ba5  1  0.376134  0.376469  0.622810  1
  Ba  Ba6  1  0.624464  0.627183  0.875460  1
  Ba  Ba7  1  0.875238  0.873366  0.624623  1
  Ga  Ga8  1  0.082934  0.417318  0.081776  1
  Ga  Ga9  1  0.166358  0.833535  0.168004  1
  Ga  Ga10  1  0.416995  0.083599  0.417793  1
  Si  Si11  1  0.335997  0.659406  0.823638  1
  Si  Si12  1  0.174240  0.831152  0.662058  1
  Si  Si13  1  0.824271  0.180359  0.334900  1
  Si  Si14  1  0.661772  0.333075  0.174892  1
  Si  Si15  1  0.918651  0.589841  0.419240  1
  Si  Si16  1  0.073704  0.418774  0.588381  1
  Si  Si17  1  0.418350  0.073438  0.919603  1
  Si  Si18  1  0.914189  0.585605  0.915331  1
  Si  Si19  1  0.664449  0.335342  0.664573  1
  Si  Si20  1  0.340230  0.659619  0.339147  1
  Si  Si21  1  0.585763  0.913758  0.584888  1
  Si  Si22  1  0.589504  0.917532  0.072670  1
  Au  Au23  1  0.833160  0.166976  0.832756  1
