# generated using pymatgen
data_Dy3Y5(As3Rh4)4
_symmetry_space_group_name_H-M   'P 1'
_cell_length_a   13.46052300
_cell_length_b   13.46052337
_cell_length_c   4.05682800
_cell_angle_alpha   90.00000000
_cell_angle_beta   90.00000000
_cell_angle_gamma   120.00000156
_symmetry_Int_Tables_number   1
_chemical_formula_structural   Dy3Y5(As3Rh4)4
_chemical_formula_sum   'Dy3 Y5 As12 Rh16'
_cell_volume   636.56257318
_cell_formula_units_Z   1
loop_
 _symmetry_equiv_pos_site_id
 _symmetry_equiv_pos_as_xyz
  1  'x, y, z'
loop_
 _atom_site_type_symbol
 _atom_site_label
 _atom_site_symmetry_multiplicity
 _atom_site_fract_x
 _atom_site_fract_y
 _atom_site_fract_z
 _atom_site_occupancy
  Dy  Dy0  1  0.558706  0.558706  0.000000  1
  Dy  Dy1  1  0.441294  0.000000  0.000000  1
  Dy  Dy2  1  0.000000  0.441294  0.000000  1
  Y  Y3  1  0.188438  0.188438  0.500000  1
  Y  Y4  1  0.811562  0.000000  0.500000  1
  Y  Y5  1  0.000000  0.811562  0.500000  1
  Y  Y6  1  0.333333  0.666667  0.000000  1
  Y  Y7  1  0.666667  0.333333  0.000000  1
  As  As8  1  0.824173  0.824173  0.000000  1
  As  As9  1  0.175827  0.000000  0.000000  1
  As  As10  1  0.000000  0.175827  0.000000  1
  As  As11  1  0.174829  0.486872  0.500000  1
  As  As12  1  0.513128  0.687956  0.500000  1
  As  As13  1  0.312044  0.825171  0.500000  1
  As  As14  1  0.687956  0.513128  0.500000  1
  As  As15  1  0.825171  0.312044  0.500000  1
  As  As16  1  0.486872  0.174829  0.500000  1
  As  As17  1  0.349776  0.349776  0.000000  1
  As  As18  1  0.650224  0.000000  0.000000  1
  As  As19  1  0.000000  0.650224  0.000000  1
  Rh  Rh20  1  0.723093  0.723093  0.500000  1
  Rh  Rh21  1  0.276907  0.000000  0.500000  1
  Rh  Rh22  1  0.000000  0.276907  0.500000  1
  Rh  Rh23  1  0.177185  0.374004  0.000000  1
  Rh  Rh24  1  0.625996  0.803181  0.000000  1
  Rh  Rh25  1  0.196819  0.822815  0.000000  1
  Rh  Rh26  1  0.803181  0.625996  0.000000  1
  Rh  Rh27  1  0.822815  0.196819  0.000000  1
  Rh  Rh28  1  0.374004  0.177185  0.000000  1
  Rh  Rh29  1  0.353787  0.480079  0.500000  1
  Rh  Rh30  1  0.519921  0.873709  0.500000  1
  Rh  Rh31  1  0.126291  0.646213  0.500000  1
  Rh  Rh32  1  0.873709  0.519921  0.500000  1
  Rh  Rh33  1  0.646213  0.126291  0.500000  1
  Rh  Rh34  1  0.480079  0.353787  0.500000  1
  Rh  Rh35  1  0.000000  0.000000  0.000000  1
