# generated using pymatgen
data_Nb2(Re8Mo)3
_symmetry_space_group_name_H-M   'P 1'
_cell_length_a   8.38065877
_cell_length_b   8.38442484
_cell_length_c   8.38434908
_cell_angle_alpha   109.47296577
_cell_angle_beta   109.46553952
_cell_angle_gamma   109.46613338
_symmetry_Int_Tables_number   1
_chemical_formula_structural   Nb2(Re8Mo)3
_chemical_formula_sum   'Nb2 Re24 Mo3'
_cell_volume   453.57305442
_cell_formula_units_Z   1
loop_
 _symmetry_equiv_pos_site_id
 _symmetry_equiv_pos_as_xyz
  1  'x, y, z'
loop_
 _atom_site_type_symbol
 _atom_site_label
 _atom_site_symmetry_multiplicity
 _atom_site_fract_x
 _atom_site_fract_y
 _atom_site_fract_z
 _atom_site_occupancy
  Nb  Nb0  1  0.003890  0.999983  0.999979  1
  Nb  Nb1  1  0.637465  0.000001  0.999997  1
  Re  Re2  1  0.377327  0.194579  0.000009  1
  Re  Re3  1  0.194488  0.376388  0.000013  1
  Re  Re4  1  0.684946  0.401644  0.999975  1
  Re  Re5  1  0.399065  0.682348  0.000031  1
  Re  Re6  1  0.806611  0.805744  0.183233  1
  Re  Re7  1  0.377321  0.000004  0.194576  1
  Re  Re8  1  0.000887  0.377505  0.194247  1
  Re  Re9  1  0.598003  0.598728  0.283418  1
  Re  Re10  1  0.716701  0.317650  0.317658  1
  Re  Re11  1  0.314572  0.716570  0.315255  1
  Re  Re12  1  0.194497  0.000015  0.376395  1
  Re  Re13  1  0.000887  0.194250  0.377506  1
  Re  Re14  1  0.684948  0.999978  0.401645  1
  Re  Re15  1  0.999298  0.684720  0.401301  1
  Re  Re16  1  0.597992  0.283417  0.598725  1
  Re  Re17  1  0.283266  0.598340  0.598334  1
  Re  Re18  1  0.818059  0.623597  0.623595  1
  Re  Re19  1  0.623381  0.816773  0.622517  1
  Re  Re20  1  0.399063  0.000033  0.682355  1
  Re  Re21  1  0.999308  0.401296  0.684714  1
  Re  Re22  1  0.314569  0.315265  0.716572  1
  Re  Re23  1  0.806593  0.183221  0.805737  1
  Re  Re24  1  0.182746  0.805422  0.805424  1
  Re  Re25  1  0.623383  0.622512  0.816772  1
  Mo  Mo26  1  0.000097  0.639579  0.000006  1
  Mo  Mo27  1  0.360541  0.360423  0.360428  1
  Mo  Mo28  1  0.000095  0.000013  0.639587  1
