# generated using pymatgen
data_Pu8MgSc(SiB4)4
_symmetry_space_group_name_H-M   'P 1'
_cell_length_a   7.16822200
_cell_length_b   7.16822200
_cell_length_c   7.94701600
_cell_angle_alpha   90.00000000
_cell_angle_beta   90.00000000
_cell_angle_gamma   90.00000000
_symmetry_Int_Tables_number   1
_chemical_formula_structural   Pu8MgSc(SiB4)4
_chemical_formula_sum   'Pu8 Mg1 Sc1 Si4 B16'
_cell_volume   408.34475471
_cell_formula_units_Z   1
loop_
 _symmetry_equiv_pos_site_id
 _symmetry_equiv_pos_as_xyz
  1  'x, y, z'
loop_
 _atom_site_type_symbol
 _atom_site_label
 _atom_site_symmetry_multiplicity
 _atom_site_fract_x
 _atom_site_fract_y
 _atom_site_fract_z
 _atom_site_occupancy
  Pu  Pu0  1  0.681684  0.184368  0.233127  1
  Pu  Pu1  1  0.318316  0.815632  0.766873  1
  Pu  Pu2  1  0.318316  0.815632  0.233127  1
  Pu  Pu3  1  0.815632  0.681684  0.233127  1
  Pu  Pu4  1  0.815632  0.681684  0.766873  1
  Pu  Pu5  1  0.681684  0.184368  0.766873  1
  Pu  Pu6  1  0.184368  0.318316  0.766873  1
  Pu  Pu7  1  0.184368  0.318316  0.233127  1
  Mg  Mg8  1  0.500000  0.500000  0.500000  1
  Sc  Sc9  1  0.000000  0.000000  0.500000  1
  Si  Si10  1  0.113074  0.620192  0.500000  1
  Si  Si11  1  0.886926  0.379808  0.500000  1
  Si  Si12  1  0.379808  0.113074  0.500000  1
  Si  Si13  1  0.620192  0.886926  0.500000  1
  B  B14  1  0.173583  0.040647  0.000000  1
  B  B15  1  0.826417  0.959353  0.000000  1
  B  B16  1  0.959353  0.173583  0.000000  1
  B  B17  1  0.326028  0.540907  0.000000  1
  B  B18  1  0.040647  0.826417  0.000000  1
  B  B19  1  0.673972  0.459093  0.000000  1
  B  B20  1  0.540907  0.673972  0.000000  1
  B  B21  1  0.459093  0.326028  0.000000  1
  B  B22  1  0.089477  0.589852  0.000000  1
  B  B23  1  0.910523  0.410148  0.000000  1
  B  B24  1  0.410148  0.089477  0.000000  1
  B  B25  1  0.589852  0.910523  0.000000  1
  B  B26  1  0.000000  0.000000  0.164917  1
  B  B27  1  0.000000  0.000000  0.835083  1
  B  B28  1  0.500000  0.500000  0.837523  1
  B  B29  1  0.500000  0.500000  0.162477  1
