# generated using pymatgen
data_Tb2Dy8Sn5Bi
_symmetry_space_group_name_H-M   'P 1'
_cell_length_a   9.01707736
_cell_length_b   9.01432094
_cell_length_c   6.52166400
_cell_angle_alpha   90.00000000
_cell_angle_beta   90.00000000
_cell_angle_gamma   119.97785896
_symmetry_Int_Tables_number   1
_chemical_formula_structural   Tb2Dy8Sn5Bi
_chemical_formula_sum   'Tb2 Dy8 Sn5 Bi1'
_cell_volume   459.18185152
_cell_formula_units_Z   1
loop_
 _symmetry_equiv_pos_site_id
 _symmetry_equiv_pos_as_xyz
  1  'x, y, z'
loop_
 _atom_site_type_symbol
 _atom_site_label
 _atom_site_symmetry_multiplicity
 _atom_site_fract_x
 _atom_site_fract_y
 _atom_site_fract_z
 _atom_site_occupancy
  Tb  Tb0  1  0.994851  0.757582  0.750000  1
  Tb  Tb1  1  0.764478  0.000059  0.750000  1
  Dy  Dy2  1  0.000414  0.239271  0.250000  1
  Dy  Dy3  1  0.761003  0.760655  0.250000  1
  Dy  Dy4  1  0.237327  0.242603  0.750000  1
  Dy  Dy5  1  0.237905  0.000055  0.250000  1
  Dy  Dy6  1  0.332575  0.662743  0.498249  1
  Dy  Dy7  1  0.669782  0.337208  0.001748  1
  Dy  Dy8  1  0.669782  0.337208  0.498252  1
  Dy  Dy9  1  0.332575  0.662743  0.001751  1
  Sn  Sn10  1  0.395225  0.393956  0.250000  1
  Sn  Sn11  1  0.001292  0.606058  0.250000  1
  Sn  Sn12  1  0.999824  0.395663  0.750000  1
  Sn  Sn13  1  0.603635  0.604023  0.750000  1
  Sn  Sn14  1  0.605411  0.999999  0.250000  1
  Bi  Bi15  1  0.393923  0.000174  0.750000  1
