# generated using pymatgen
data_Cs11RbSc8Si16(O2F)20
_symmetry_space_group_name_H-M   'P 1'
_cell_length_a   8.39522000
_cell_length_b   9.75730700
_cell_length_c   18.72150600
_cell_angle_alpha   90.00000000
_cell_angle_beta   90.00000000
_cell_angle_gamma   90.00000000
_symmetry_Int_Tables_number   1
_chemical_formula_structural   Cs11RbSc8Si16(O2F)20
_chemical_formula_sum   'Cs11 Rb1 Sc8 Si16 O40 F20'
_cell_volume   1533.56727529
_cell_formula_units_Z   1
loop_
 _symmetry_equiv_pos_site_id
 _symmetry_equiv_pos_as_xyz
  1  'x, y, z'
loop_
 _atom_site_type_symbol
 _atom_site_label
 _atom_site_symmetry_multiplicity
 _atom_site_fract_x
 _atom_site_fract_y
 _atom_site_fract_z
 _atom_site_occupancy
  Cs  Cs0  1  0.250000  0.002958  0.512279  1
  Cs  Cs1  1  0.250000  0.503237  0.988074  1
  Cs  Cs2  1  0.750000  0.997205  0.487502  1
  Cs  Cs3  1  0.750000  0.496605  0.013438  1
  Cs  Cs4  1  0.250000  0.140032  0.127137  1
  Cs  Cs5  1  0.250000  0.639723  0.372506  1
  Cs  Cs6  1  0.750000  0.860214  0.873022  1
  Cs  Cs7  1  0.750000  0.360280  0.627045  1
  Cs  Cs8  1  0.250000  0.358113  0.624789  1
  Cs  Cs9  1  0.250000  0.858509  0.875263  1
  Cs  Cs10  1  0.750000  0.641879  0.374949  1
  Rb  Rb11  1  0.750000  0.136776  0.122281  1
  Sc  Sc12  1  0.000101  0.311976  0.444264  1
  Sc  Sc13  1  0.500212  0.813011  0.055549  1
  Sc  Sc14  1  0.500366  0.688127  0.555343  1
  Sc  Sc15  1  0.998599  0.188032  0.945289  1
  Sc  Sc16  1  0.999634  0.688127  0.555343  1
  Sc  Sc17  1  0.501401  0.188032  0.945289  1
  Sc  Sc18  1  0.499899  0.311976  0.444264  1
  Sc  Sc19  1  0.999788  0.813011  0.055549  1
  Si  Si20  1  0.436309  0.071616  0.318966  1
  Si  Si21  1  0.063754  0.572583  0.180626  1
  Si  Si22  1  0.936471  0.928548  0.680906  1
  Si  Si23  1  0.563447  0.428615  0.819675  1
  Si  Si24  1  0.563529  0.928548  0.680906  1
  Si  Si25  1  0.936553  0.428615  0.819675  1
  Si  Si26  1  0.063691  0.071616  0.318966  1
  Si  Si27  1  0.436246  0.572583  0.180626  1
  Si  Si28  1  0.062389  0.161980  0.774910  1
  Si  Si29  1  0.437557  0.661891  0.725621  1
  Si  Si30  1  0.563748  0.839469  0.225289  1
  Si  Si31  1  0.936581  0.336828  0.273195  1
  Si  Si32  1  0.936252  0.839469  0.225289  1
  Si  Si33  1  0.563419  0.336828  0.273195  1
  Si  Si34  1  0.437611  0.161980  0.774910  1
  Si  Si35  1  0.062443  0.661891  0.725621  1
  O  O36  1  0.250000  0.021710  0.314982  1
  O  O37  1  0.250000  0.522850  0.185004  1
  O  O38  1  0.750000  0.977928  0.685078  1
  O  O39  1  0.750000  0.477663  0.815367  1
  O  O40  1  0.250000  0.209160  0.774106  1
  O  O41  1  0.250000  0.709218  0.726397  1
  O  O42  1  0.750000  0.788795  0.227229  1
  O  O43  1  0.750000  0.287053  0.270114  1
  O  O44  1  0.012953  0.125981  0.396492  1
  O  O45  1  0.486699  0.626929  0.103019  1
  O  O46  1  0.512716  0.874161  0.603396  1
  O  O47  1  0.987057  0.374175  0.897335  1
  O  O48  1  0.987284  0.874161  0.603396  1
  O  O49  1  0.512943  0.374175  0.897335  1
  O  O50  1  0.487047  0.125981  0.396492  1
  O  O51  1  0.013301  0.626929  0.103019  1
  O  O52  1  0.010475  0.089754  0.848463  1
  O  O53  1  0.489505  0.589372  0.652216  1
  O  O54  1  0.517102  0.914239  0.151673  1
  O  O55  1  0.985769  0.409080  0.347107  1
  O  O56  1  0.982898  0.914239  0.151673  1
  O  O57  1  0.514231  0.409080  0.347107  1
  O  O58  1  0.489525  0.089754  0.848463  1
  O  O59  1  0.010495  0.589372  0.652216  1
  O  O60  1  0.039596  0.063966  0.704513  1
  O  O61  1  0.460259  0.563976  0.796129  1
  O  O62  1  0.540017  0.936261  0.295982  1
  O  O63  1  0.960574  0.437192  0.203838  1
  O  O64  1  0.959983  0.936261  0.295982  1
  O  O65  1  0.539426  0.437192  0.203838  1
  O  O66  1  0.460404  0.063966  0.704513  1
  O  O67  1  0.039741  0.563976  0.796129  1
  O  O68  1  0.038044  0.193858  0.258165  1
  O  O69  1  0.461294  0.696817  0.240249  1
  O  O70  1  0.536955  0.805778  0.741368  1
  O  O71  1  0.963140  0.305944  0.759158  1
  O  O72  1  0.963045  0.805778  0.741368  1
  O  O73  1  0.536860  0.305944  0.759158  1
  O  O74  1  0.461956  0.193858  0.258165  1
  O  O75  1  0.038706  0.696817  0.240249  1
  F  F76  1  0.000094  0.999394  0.999574  1
  F  F77  1  0.499895  0.500118  0.499800  1
  F  F78  1  0.499906  0.999394  0.999574  1
  F  F79  1  0.000105  0.500118  0.499800  1
  F  F80  1  0.250000  0.329211  0.450669  1
  F  F81  1  0.250000  0.829942  0.050065  1
  F  F82  1  0.750000  0.671301  0.548935  1
  F  F83  1  0.750000  0.169734  0.951159  1
  F  F84  1  0.250000  0.186389  0.954931  1
  F  F85  1  0.250000  0.683704  0.547038  1
  F  F86  1  0.750000  0.815956  0.046387  1
  F  F87  1  0.750000  0.316070  0.453095  1
  F  F88  1  0.998206  0.218509  0.540607  1
  F  F89  1  0.501216  0.718802  0.959467  1
  F  F90  1  0.497983  0.781566  0.459161  1
  F  F91  1  0.991666  0.275345  0.043232  1
  F  F92  1  0.002017  0.781566  0.459161  1
  F  F93  1  0.508334  0.275345  0.043232  1
  F  F94  1  0.501794  0.218509  0.540607  1
  F  F95  1  0.998784  0.718802  0.959467  1
