# generated using pymatgen
data_Yb3Y5TePd24
_symmetry_space_group_name_H-M   'P 1'
_cell_length_a   8.39404514
_cell_length_b   8.39847217
_cell_length_c   8.39852300
_cell_angle_alpha   89.99570203
_cell_angle_beta   90.01057311
_cell_angle_gamma   90.01052740
_symmetry_Int_Tables_number   1
_chemical_formula_structural   Yb3Y5TePd24
_chemical_formula_sum   'Yb3 Y5 Te1 Pd24'
_cell_volume   592.07195166
_cell_formula_units_Z   1
loop_
 _symmetry_equiv_pos_site_id
 _symmetry_equiv_pos_as_xyz
  1  'x, y, z'
loop_
 _atom_site_type_symbol
 _atom_site_label
 _atom_site_symmetry_multiplicity
 _atom_site_fract_x
 _atom_site_fract_y
 _atom_site_fract_z
 _atom_site_occupancy
  Yb  Yb0  1  0.253407  0.254620  0.746457  1
  Yb  Yb1  1  0.253412  0.746487  0.254638  1
  Yb  Yb2  1  0.254536  0.253420  0.253450  1
  Y  Y3  1  0.745211  0.744092  0.254452  1
  Y  Y4  1  0.745212  0.254450  0.744095  1
  Y  Y5  1  0.255674  0.743980  0.743990  1
  Y  Y6  1  0.743907  0.745310  0.745311  1
  Y  Y7  1  0.743659  0.255888  0.255887  1
  Te  Te8  1  0.002503  0.000700  0.000702  1
  Pd  Pd9  1  0.001218  0.999922  0.306800  1
  Pd  Pd10  1  0.735315  0.998638  0.500168  1
  Pd  Pd11  1  0.735353  0.500176  0.998626  1
  Pd  Pd12  1  0.500385  0.001137  0.734914  1
  Pd  Pd13  1  0.998520  0.735118  0.499877  1
  Pd  Pd14  1  0.499908  0.998457  0.265289  1
  Pd  Pd15  1  0.001081  0.265347  0.500626  1
  Pd  Pd16  1  0.500378  0.734922  0.001149  1
  Pd  Pd17  1  0.254629  0.498681  0.498663  1
  Pd  Pd18  1  0.500207  0.498902  0.744785  1
  Pd  Pd19  1  0.498280  0.500976  0.254752  1
  Pd  Pd20  1  0.498286  0.254739  0.500969  1
  Pd  Pd21  1  0.500217  0.744800  0.498900  1
  Pd  Pd22  1  0.744232  0.500599  0.500597  1
  Pd  Pd23  1  0.307351  0.000703  0.000706  1
  Pd  Pd24  1  0.000369  0.000616  0.693986  1
  Pd  Pd25  1  0.001070  0.500628  0.265333  1
  Pd  Pd26  1  0.001215  0.306793  0.999942  1
  Pd  Pd27  1  0.000379  0.693993  0.000629  1
  Pd  Pd28  1  0.694461  0.999854  0.999845  1
  Pd  Pd29  1  0.265596  0.499708  0.001166  1
  Pd  Pd30  1  0.265607  0.001171  0.499685  1
  Pd  Pd31  1  0.998496  0.499880  0.735150  1
  Pd  Pd32  1  0.499925  0.265297  0.998463  1
