# generated using pymatgen
data_TmScB6Ir
_symmetry_space_group_name_H-M   'P 1'
_cell_length_a   3.52994600
_cell_length_b   8.98481500
_cell_length_c   11.33609500
_cell_angle_alpha   90.00000000
_cell_angle_beta   90.00000000
_cell_angle_gamma   90.00000000
_symmetry_Int_Tables_number   1
_chemical_formula_structural   TmScB6Ir
_chemical_formula_sum   'Tm4 Sc4 B24 Ir4'
_cell_volume   359.53458884
_cell_formula_units_Z   4
loop_
 _symmetry_equiv_pos_site_id
 _symmetry_equiv_pos_as_xyz
  1  'x, y, z'
loop_
 _atom_site_type_symbol
 _atom_site_label
 _atom_site_symmetry_multiplicity
 _atom_site_fract_x
 _atom_site_fract_y
 _atom_site_fract_z
 _atom_site_occupancy
  Tm  Tm0  1  0.500000  0.319635  0.413874  1
  Tm  Tm1  1  0.500000  0.680365  0.586126  1
  Tm  Tm2  1  0.500000  0.180365  0.913874  1
  Tm  Tm3  1  0.500000  0.819635  0.086126  1
  Sc  Sc4  1  0.500000  0.445085  0.124194  1
  Sc  Sc5  1  0.500000  0.554915  0.875806  1
  Sc  Sc6  1  0.500000  0.054915  0.624194  1
  Sc  Sc7  1  0.500000  0.945085  0.375806  1
  B  B8  1  0.000000  0.101068  0.472507  1
  B  B9  1  0.000000  0.898932  0.527493  1
  B  B10  1  0.000000  0.398932  0.972507  1
  B  B11  1  0.000000  0.601068  0.027493  1
  B  B12  1  0.000000  0.130299  0.318534  1
  B  B13  1  0.000000  0.869701  0.681466  1
  B  B14  1  0.000000  0.369701  0.818534  1
  B  B15  1  0.000000  0.630299  0.181466  1
  B  B16  1  0.000000  0.054385  0.064931  1
  B  B17  1  0.000000  0.945615  0.935069  1
  B  B18  1  0.000000  0.445615  0.564931  1
  B  B19  1  0.000000  0.554385  0.435069  1
  B  B20  1  0.000000  0.481078  0.285538  1
  B  B21  1  0.000000  0.518922  0.714462  1
  B  B22  1  0.000000  0.018922  0.785538  1
  B  B23  1  0.000000  0.981078  0.214462  1
  B  B24  1  0.000000  0.253747  0.079336  1
  B  B25  1  0.000000  0.746253  0.920664  1
  B  B26  1  0.000000  0.246253  0.579336  1
  B  B27  1  0.000000  0.753747  0.420664  1
  B  B28  1  0.000000  0.295974  0.235753  1
  B  B29  1  0.000000  0.704026  0.764247  1
  B  B30  1  0.000000  0.204026  0.735753  1
  B  B31  1  0.000000  0.795974  0.264247  1
  Ir  Ir32  1  0.500000  0.141188  0.180910  1
  Ir  Ir33  1  0.500000  0.858812  0.819090  1
  Ir  Ir34  1  0.500000  0.358812  0.680910  1
  Ir  Ir35  1  0.500000  0.641188  0.319090  1
