# generated using pymatgen
data_Nd2Ti3Co9P7
_symmetry_space_group_name_H-M   'P 1'
_cell_length_a   3.65899400
_cell_length_b   9.20517304
_cell_length_c   9.20517400
_cell_angle_alpha   119.99999626
_cell_angle_beta   90.00000000
_cell_angle_gamma   90.00000000
_symmetry_Int_Tables_number   1
_chemical_formula_structural   Nd2Ti3Co9P7
_chemical_formula_sum   'Nd2 Ti3 Co9 P7'
_cell_volume   268.50742792
_cell_formula_units_Z   1
loop_
 _symmetry_equiv_pos_site_id
 _symmetry_equiv_pos_as_xyz
  1  'x, y, z'
loop_
 _atom_site_type_symbol
 _atom_site_label
 _atom_site_symmetry_multiplicity
 _atom_site_fract_x
 _atom_site_fract_y
 _atom_site_fract_z
 _atom_site_occupancy
  Nd  Nd0  1  0.000000  0.666667  0.333333  1
  Nd  Nd1  1  0.500000  0.333333  0.666667  1
  Ti  Ti2  1  0.500000  0.778793  0.892036  1
  Ti  Ti3  1  0.500000  0.113243  0.221207  1
  Ti  Ti4  1  0.500000  0.107964  0.886757  1
  Co  Co5  1  0.000000  0.573384  0.941643  1
  Co  Co6  1  0.000000  0.368259  0.426616  1
  Co  Co7  1  0.000000  0.058357  0.631741  1
  Co  Co8  1  0.000000  0.880678  0.158543  1
  Co  Co9  1  0.000000  0.277866  0.119322  1
  Co  Co10  1  0.000000  0.841457  0.722134  1
  Co  Co11  1  0.500000  0.950452  0.387537  1
  Co  Co12  1  0.500000  0.437085  0.049548  1
  Co  Co13  1  0.500000  0.612463  0.562915  1
  P  P14  1  0.000000  0.000000  0.000000  1
  P  P15  1  0.500000  0.711057  0.118139  1
  P  P16  1  0.500000  0.407081  0.288943  1
  P  P17  1  0.500000  0.881861  0.592919  1
  P  P18  1  0.000000  0.586200  0.691461  1
  P  P19  1  0.000000  0.105261  0.413800  1
  P  P20  1  0.000000  0.308539  0.894739  1
