# generated using pymatgen
data_Dy16Ho3TmIr12
_symmetry_space_group_name_H-M   'P 1'
_cell_length_a   10.88396900
_cell_length_b   10.88396900
_cell_length_c   6.36521500
_cell_angle_alpha   90.00000000
_cell_angle_beta   90.00000000
_cell_angle_gamma   90.00000000
_symmetry_Int_Tables_number   1
_chemical_formula_structural   Dy16Ho3TmIr12
_chemical_formula_sum   'Dy16 Ho3 Tm1 Ir12'
_cell_volume   754.02834136
_cell_formula_units_Z   1
loop_
 _symmetry_equiv_pos_site_id
 _symmetry_equiv_pos_as_xyz
  1  'x, y, z'
loop_
 _atom_site_type_symbol
 _atom_site_label
 _atom_site_symmetry_multiplicity
 _atom_site_fract_x
 _atom_site_fract_y
 _atom_site_fract_z
 _atom_site_occupancy
  Dy  Dy0  1  0.290860  0.087884  0.378087  1
  Dy  Dy1  1  0.290987  0.912081  0.877999  1
  Dy  Dy2  1  0.709013  0.087919  0.877999  1
  Dy  Dy3  1  0.709140  0.912116  0.378087  1
  Dy  Dy4  1  0.587927  0.791055  0.878040  1
  Dy  Dy5  1  0.587965  0.208940  0.378014  1
  Dy  Dy6  1  0.412035  0.791060  0.378014  1
  Dy  Dy7  1  0.412073  0.208945  0.878040  1
  Dy  Dy8  1  0.208940  0.412035  0.621986  1
  Dy  Dy9  1  0.208945  0.587927  0.121960  1
  Dy  Dy10  1  0.791055  0.412073  0.121960  1
  Dy  Dy11  1  0.791060  0.587965  0.621986  1
  Dy  Dy12  1  0.912081  0.709013  0.122001  1
  Dy  Dy13  1  0.912116  0.290860  0.621913  1
  Dy  Dy14  1  0.087884  0.709140  0.621913  1
  Dy  Dy15  1  0.087919  0.290987  0.122001  1
  Ho  Ho16  1  0.000000  0.000000  0.000000  1
  Ho  Ho17  1  0.500000  0.500000  0.000000  1
  Ho  Ho18  1  0.500000  0.500000  0.500000  1
  Tm  Tm19  1  0.000000  0.000000  0.500000  1
  Ir  Ir20  1  0.847258  0.152750  0.250389  1
  Ir  Ir21  1  0.847250  0.847258  0.749611  1
  Ir  Ir22  1  0.152750  0.152742  0.749611  1
  Ir  Ir23  1  0.152742  0.847250  0.250389  1
  Ir  Ir24  1  0.653003  0.346993  0.750005  1
  Ir  Ir25  1  0.653007  0.653003  0.249995  1
  Ir  Ir26  1  0.346993  0.346997  0.249995  1
  Ir  Ir27  1  0.346997  0.653007  0.750005  1
  Ir  Ir28  1  0.500000  0.000000  0.122139  1
  Ir  Ir29  1  0.500000  0.000000  0.622141  1
  Ir  Ir30  1  0.000000  0.500000  0.877861  1
  Ir  Ir31  1  0.000000  0.500000  0.377859  1
