# generated using pymatgen
data_Tb8Ti8Nb4Si15Sn
_symmetry_space_group_name_H-M   'P 1'
_cell_length_a   7.13230276
_cell_length_b   7.09329916
_cell_length_c   13.08164199
_cell_angle_alpha   89.96776122
_cell_angle_beta   89.84649318
_cell_angle_gamma   89.96224110
_symmetry_Int_Tables_number   1
_chemical_formula_structural   Tb8Ti8Nb4Si15Sn
_chemical_formula_sum   'Tb8 Ti8 Nb4 Si15 Sn1'
_cell_volume   661.81801654
_cell_formula_units_Z   1
loop_
 _symmetry_equiv_pos_site_id
 _symmetry_equiv_pos_as_xyz
  1  'x, y, z'
loop_
 _atom_site_type_symbol
 _atom_site_label
 _atom_site_symmetry_multiplicity
 _atom_site_fract_x
 _atom_site_fract_y
 _atom_site_fract_z
 _atom_site_occupancy
  Tb  Tb0  1  0.342916  0.999472  0.462037  1
  Tb  Tb1  1  0.505445  0.835155  0.718391  1
  Tb  Tb2  1  0.501860  0.159982  0.216875  1
  Tb  Tb3  1  0.840690  0.497705  0.282139  1
  Tb  Tb4  1  0.159691  0.508738  0.785731  1
  Tb  Tb5  1  0.661139  0.996696  0.968858  1
  Tb  Tb6  1  0.993354  0.347209  0.527631  1
  Tb  Tb7  1  0.999023  0.659712  0.033971  1
  Ti  Ti8  1  0.153775  0.009381  0.882816  1
  Ti  Ti9  1  0.490777  0.652179  0.126449  1
  Ti  Ti10  1  0.515779  0.351817  0.625938  1
  Ti  Ti11  1  0.654908  0.492033  0.875774  1
  Ti  Ti12  1  0.346295  0.509840  0.373405  1
  Ti  Ti13  1  0.845670  0.990700  0.375573  1
  Ti  Ti14  1  0.010652  0.153116  0.123708  1
  Ti  Ti15  1  0.978778  0.834242  0.619112  1
  Nb  Nb16  1  0.325985  0.326339  0.001219  1
  Nb  Nb17  1  0.174188  0.826052  0.249663  1
  Nb  Nb18  1  0.817001  0.175975  0.751742  1
  Nb  Nb19  1  0.673526  0.673411  0.499644  1
  Si  Si20  1  0.372398  0.702816  0.936650  1
  Si  Si21  1  0.626365  0.297349  0.433462  1
  Si  Si22  1  0.703076  0.371490  0.065730  1
  Si  Si23  1  0.296509  0.628658  0.564811  1
  Si  Si24  1  0.798129  0.871979  0.185021  1
  Si  Si25  1  0.128053  0.202453  0.314258  1
  Si  Si26  1  0.872399  0.800535  0.815475  1
  Si  Si27  1  0.293101  0.952491  0.065923  1
  Si  Si28  1  0.548952  0.789760  0.312749  1
  Si  Si29  1  0.458971  0.209617  0.819248  1
  Si  Si30  1  0.794340  0.544367  0.687433  1
  Si  Si31  1  0.208646  0.452927  0.186095  1
  Si  Si32  1  0.706246  0.048552  0.563758  1
  Si  Si33  1  0.952900  0.292144  0.935952  1
  Si  Si34  1  0.047961  0.709912  0.433597  1
  Sn  Sn35  1  0.200502  0.125195  0.679160  1
