# generated using pymatgen
data_Zr6Be10Al5Pd8
_symmetry_space_group_name_H-M   'P 1'
_cell_length_a   8.34409077
_cell_length_b   8.34409127
_cell_length_c   8.35108400
_cell_angle_alpha   59.97228173
_cell_angle_beta   59.97227975
_cell_angle_gamma   60.05544821
_symmetry_Int_Tables_number   1
_chemical_formula_structural   Zr6Be10Al5Pd8
_chemical_formula_sum   'Zr6 Be10 Al5 Pd8'
_cell_volume   411.13584395
_cell_formula_units_Z   1
loop_
 _symmetry_equiv_pos_site_id
 _symmetry_equiv_pos_as_xyz
  1  'x, y, z'
loop_
 _atom_site_type_symbol
 _atom_site_label
 _atom_site_symmetry_multiplicity
 _atom_site_fract_x
 _atom_site_fract_y
 _atom_site_fract_z
 _atom_site_occupancy
  Zr  Zr0  1  0.699123  0.300877  0.300877  1
  Zr  Zr1  1  0.300877  0.699123  0.699123  1
  Zr  Zr2  1  0.300877  0.699123  0.300877  1
  Zr  Zr3  1  0.699123  0.300877  0.699123  1
  Zr  Zr4  1  0.300685  0.300685  0.699315  1
  Zr  Zr5  1  0.699315  0.699315  0.300685  1
  Be  Be6  1  0.332319  0.332319  0.314587  1
  Be  Be7  1  0.667681  0.667681  0.685413  1
  Be  Be8  1  0.332319  0.332319  0.020774  1
  Be  Be9  1  0.314587  0.020774  0.332319  1
  Be  Be10  1  0.667681  0.667681  0.979226  1
  Be  Be11  1  0.685413  0.979226  0.667681  1
  Be  Be12  1  0.020774  0.314587  0.332319  1
  Be  Be13  1  0.979226  0.685413  0.667681  1
  Be  Be14  1  0.000000  0.000000  0.500000  1
  Be  Be15  1  0.500000  0.500000  0.000000  1
  Al  Al16  1  0.500000  0.000000  0.000000  1
  Al  Al17  1  0.000000  0.500000  0.500000  1
  Al  Al18  1  0.000000  0.500000  0.000000  1
  Al  Al19  1  0.500000  0.000000  0.500000  1
  Al  Al20  1  0.000000  0.000000  0.000000  1
  Pd  Pd21  1  0.123563  0.123563  0.133313  1
  Pd  Pd22  1  0.876437  0.876437  0.866687  1
  Pd  Pd23  1  0.123563  0.123563  0.619562  1
  Pd  Pd24  1  0.133313  0.619562  0.123563  1
  Pd  Pd25  1  0.876437  0.876437  0.380438  1
  Pd  Pd26  1  0.866687  0.380438  0.876437  1
  Pd  Pd27  1  0.619562  0.133313  0.123563  1
  Pd  Pd28  1  0.380438  0.866687  0.876437  1
