# generated using pymatgen
data_Li3DyHo2InGe2
_symmetry_space_group_name_H-M   'P 1'
_cell_length_a   7.24144203
_cell_length_b   7.23474342
_cell_length_c   4.25332300
_cell_angle_alpha   90.00000000
_cell_angle_beta   90.00000000
_cell_angle_gamma   119.96938910
_symmetry_Int_Tables_number   1
_chemical_formula_structural   Li3DyHo2InGe2
_chemical_formula_sum   'Li3 Dy1 Ho2 In1 Ge2'
_cell_volume   193.03722520
_cell_formula_units_Z   1
loop_
 _symmetry_equiv_pos_site_id
 _symmetry_equiv_pos_as_xyz
  1  'x, y, z'
loop_
 _atom_site_type_symbol
 _atom_site_label
 _atom_site_symmetry_multiplicity
 _atom_site_fract_x
 _atom_site_fract_y
 _atom_site_fract_z
 _atom_site_occupancy
  Li  Li0  1  0.251435  0.000042  0.500000  1
  Li  Li1  1  0.748565  0.748607  0.500000  1
  Li  Li2  1  0.000000  0.251309  0.500000  1
  Dy  Dy3  1  0.000000  0.557010  0.000000  1
  Ho  Ho4  1  0.556981  0.999975  0.000000  1
  Ho  Ho5  1  0.443019  0.442994  0.000000  1
  In  In6  1  0.000000  0.000197  0.000000  1
  Ge  Ge7  1  0.333712  0.666790  0.500000  1
  Ge  Ge8  1  0.666288  0.333077  0.500000  1
