# generated using pymatgen
data_DyInSiS4
_symmetry_space_group_name_H-M   'P 1'
_cell_length_a   6.34131400
_cell_length_b   6.70092200
_cell_length_c   17.77129600
_cell_angle_alpha   90.00000000
_cell_angle_beta   90.00000000
_cell_angle_gamma   90.00000000
_symmetry_Int_Tables_number   1
_chemical_formula_structural   DyInSiS4
_chemical_formula_sum   'Dy4 In4 Si4 S16'
_cell_volume   755.14946971
_cell_formula_units_Z   4
loop_
 _symmetry_equiv_pos_site_id
 _symmetry_equiv_pos_as_xyz
  1  'x, y, z'
loop_
 _atom_site_type_symbol
 _atom_site_label
 _atom_site_symmetry_multiplicity
 _atom_site_fract_x
 _atom_site_fract_y
 _atom_site_fract_z
 _atom_site_occupancy
  Dy  Dy0  1  0.703456  0.983676  0.273287  1
  Dy  Dy1  1  0.796544  0.016326  0.773287  1
  Dy  Dy2  1  0.203457  0.516324  0.726713  1
  Dy  Dy3  1  0.296543  0.483676  0.226713  1
  In  In4  1  0.540642  0.022735  0.559117  1
  In  In5  1  0.959358  0.977265  0.059117  1
  In  In6  1  0.040641  0.477265  0.440883  1
  In  In7  1  0.459359  0.522735  0.940883  1
  Si  Si8  1  0.205226  0.019165  0.332590  1
  Si  Si9  1  0.294771  0.980834  0.832590  1
  Si  Si10  1  0.705226  0.480834  0.667410  1
  Si  Si11  1  0.794772  0.519165  0.167410  1
  S  S12  1  0.425753  0.253963  0.353958  1
  S  S13  1  0.074247  0.746036  0.853959  1
  S  S14  1  0.925754  0.246037  0.646042  1
  S  S15  1  0.574246  0.753965  0.146042  1
  S  S16  1  0.393916  0.920190  0.719203  1
  S  S17  1  0.106083  0.079812  0.219203  1
  S  S18  1  0.893915  0.579811  0.280798  1
  S  S19  1  0.606083  0.420190  0.780797  1
  S  S20  1  0.938535  0.025983  0.403481  1
  S  S21  1  0.561466  0.974017  0.903482  1
  S  S22  1  0.438535  0.474015  0.596519  1
  S  S23  1  0.061466  0.525983  0.096518  1
  S  S24  1  0.390287  0.753493  0.343248  1
  S  S25  1  0.109713  0.246507  0.843248  1
  S  S26  1  0.890288  0.746507  0.656752  1
  S  S27  1  0.609712  0.253493  0.156753  1
