# generated using pymatgen
data_Sc5P12Ru18Rh
_symmetry_space_group_name_H-M   'P 1'
_cell_length_a   12.42074100
_cell_length_b   12.42074141
_cell_length_c   3.93484100
_cell_angle_alpha   90.00000000
_cell_angle_beta   90.00000000
_cell_angle_gamma   119.99999625
_symmetry_Int_Tables_number   1
_chemical_formula_structural   Sc5P12Ru18Rh
_chemical_formula_sum   'Sc5 P12 Ru18 Rh1'
_cell_volume   525.71801825
_cell_formula_units_Z   1
loop_
 _symmetry_equiv_pos_site_id
 _symmetry_equiv_pos_as_xyz
  1  'x, y, z'
loop_
 _atom_site_type_symbol
 _atom_site_label
 _atom_site_symmetry_multiplicity
 _atom_site_fract_x
 _atom_site_fract_y
 _atom_site_fract_z
 _atom_site_occupancy
  Sc  Sc0  1  0.333333  0.666667  0.000000  1
  Sc  Sc1  1  0.666667  0.333333  0.000000  1
  Sc  Sc2  1  0.813364  0.000000  0.500000  1
  Sc  Sc3  1  0.000000  0.813364  0.500000  1
  Sc  Sc4  1  0.186636  0.186636  0.500000  1
  P  P5  1  0.181753  0.000000  0.000000  1
  P  P6  1  0.000000  0.181753  0.000000  1
  P  P7  1  0.818247  0.818247  0.000000  1
  P  P8  1  0.171163  0.478405  0.500000  1
  P  P9  1  0.521595  0.692759  0.500000  1
  P  P10  1  0.307241  0.828837  0.500000  1
  P  P11  1  0.692759  0.521595  0.500000  1
  P  P12  1  0.828837  0.307241  0.500000  1
  P  P13  1  0.478405  0.171163  0.500000  1
  P  P14  1  0.628331  0.000000  0.000000  1
  P  P15  1  0.000000  0.628331  0.000000  1
  P  P16  1  0.371669  0.371669  0.000000  1
  Ru  Ru17  1  0.444294  0.000000  0.000000  1
  Ru  Ru18  1  0.000000  0.444294  0.000000  1
  Ru  Ru19  1  0.555706  0.555706  0.000000  1
  Ru  Ru20  1  0.365092  0.492841  0.500000  1
  Ru  Ru21  1  0.507159  0.872251  0.500000  1
  Ru  Ru22  1  0.127749  0.634908  0.500000  1
  Ru  Ru23  1  0.872251  0.507159  0.500000  1
  Ru  Ru24  1  0.634908  0.127749  0.500000  1
  Ru  Ru25  1  0.492841  0.365092  0.500000  1
  Ru  Ru26  1  0.185257  0.374822  0.000000  1
  Ru  Ru27  1  0.625178  0.810435  0.000000  1
  Ru  Ru28  1  0.189565  0.814743  0.000000  1
  Ru  Ru29  1  0.810435  0.625178  0.000000  1
  Ru  Ru30  1  0.814743  0.189565  0.000000  1
  Ru  Ru31  1  0.374822  0.185257  0.000000  1
  Ru  Ru32  1  0.278749  0.000000  0.500000  1
  Ru  Ru33  1  0.000000  0.278749  0.500000  1
  Ru  Ru34  1  0.721251  0.721251  0.500000  1
  Rh  Rh35  1  0.000000  0.000000  0.000000  1
