# generated using pymatgen
data_PaTcH3
_symmetry_space_group_name_H-M   'P 1'
_cell_length_a   6.08420167
_cell_length_b   6.08420107
_cell_length_c   4.68204800
_cell_angle_alpha   90.00000000
_cell_angle_beta   90.00000000
_cell_angle_gamma   143.52059936
_symmetry_Int_Tables_number   1
_chemical_formula_structural   PaTcH3
_chemical_formula_sum   'Pa2 Tc2 H6'
_cell_volume   103.04324506
_cell_formula_units_Z   2
loop_
 _symmetry_equiv_pos_site_id
 _symmetry_equiv_pos_as_xyz
  1  'x, y, z'
loop_
 _atom_site_type_symbol
 _atom_site_label
 _atom_site_symmetry_multiplicity
 _atom_site_fract_x
 _atom_site_fract_y
 _atom_site_fract_z
 _atom_site_occupancy
  Pa  Pa0  1  0.629833  0.370167  0.250000  1
  Pa  Pa1  1  0.370167  0.629833  0.750000  1
  Tc  Tc2  1  0.086834  0.913166  0.750000  1
  Tc  Tc3  1  0.913166  0.086834  0.250000  1
  H  H4  1  0.579049  0.420951  0.750000  1
  H  H5  1  0.196669  0.803331  0.482216  1
  H  H6  1  0.196669  0.803331  0.017784  1
  H  H7  1  0.803331  0.196669  0.982216  1
  H  H8  1  0.803331  0.196669  0.517784  1
  H  H9  1  0.420951  0.579049  0.250000  1
