# generated using pymatgen
data_Y6HgTe2
_symmetry_space_group_name_H-M   'P 1'
_cell_length_a   4.11775700
_cell_length_b   11.64578200
_cell_length_c   22.07089600
_cell_angle_alpha   90.00000000
_cell_angle_beta   90.00000000
_cell_angle_gamma   90.00000000
_symmetry_Int_Tables_number   1
_chemical_formula_structural   Y6HgTe2
_chemical_formula_sum   'Y24 Hg4 Te8'
_cell_volume   1058.39878998
_cell_formula_units_Z   4
loop_
 _symmetry_equiv_pos_site_id
 _symmetry_equiv_pos_as_xyz
  1  'x, y, z'
loop_
 _atom_site_type_symbol
 _atom_site_label
 _atom_site_symmetry_multiplicity
 _atom_site_fract_x
 _atom_site_fract_y
 _atom_site_fract_z
 _atom_site_occupancy
  Y  Y0  1  0.750000  0.662059  0.890415  1
  Y  Y1  1  0.250000  0.120689  0.968630  1
  Y  Y2  1  0.750000  0.837941  0.390415  1
  Y  Y3  1  0.750000  0.388155  0.985023  1
  Y  Y4  1  0.250000  0.461736  0.659062  1
  Y  Y5  1  0.750000  0.111845  0.485023  1
  Y  Y6  1  0.250000  0.757711  0.266783  1
  Y  Y7  1  0.250000  0.337941  0.109585  1
  Y  Y8  1  0.750000  0.879311  0.031370  1
  Y  Y9  1  0.750000  0.538264  0.340938  1
  Y  Y10  1  0.250000  0.079087  0.352581  1
  Y  Y11  1  0.750000  0.620689  0.531370  1
  Y  Y12  1  0.250000  0.162059  0.609585  1
  Y  Y13  1  0.250000  0.038264  0.159062  1
  Y  Y14  1  0.750000  0.579087  0.147419  1
  Y  Y15  1  0.250000  0.420913  0.852581  1
  Y  Y16  1  0.250000  0.379311  0.468630  1
  Y  Y17  1  0.250000  0.742289  0.766783  1
  Y  Y18  1  0.750000  0.257711  0.233217  1
  Y  Y19  1  0.750000  0.242289  0.733217  1
  Y  Y20  1  0.250000  0.611845  0.014977  1
  Y  Y21  1  0.750000  0.920913  0.647419  1
  Y  Y22  1  0.750000  0.961736  0.840938  1
  Y  Y23  1  0.250000  0.888155  0.514977  1
  Hg  Hg24  1  0.750000  0.145960  0.073489  1
  Hg  Hg25  1  0.250000  0.854040  0.926511  1
  Hg  Hg26  1  0.250000  0.645960  0.426511  1
  Hg  Hg27  1  0.750000  0.354040  0.573489  1
  Te  Te28  1  0.250000  0.029238  0.738875  1
  Te  Te29  1  0.250000  0.779605  0.126986  1
  Te  Te30  1  0.250000  0.470762  0.238875  1
  Te  Te31  1  0.750000  0.970762  0.261125  1
  Te  Te32  1  0.750000  0.529238  0.761125  1
  Te  Te33  1  0.750000  0.279605  0.373014  1
  Te  Te34  1  0.250000  0.720395  0.626986  1
  Te  Te35  1  0.750000  0.220395  0.873014  1
