# generated using pymatgen
data_Tb2Y2Re5Os3
_symmetry_space_group_name_H-M   'P 1'
_cell_length_a   5.36787896
_cell_length_b   5.28280117
_cell_length_c   9.06552719
_cell_angle_alpha   89.99999828
_cell_angle_beta   90.02045050
_cell_angle_gamma   119.47707667
_symmetry_Int_Tables_number   1
_chemical_formula_structural   Tb2Y2Re5Os3
_chemical_formula_sum   'Tb2 Y2 Re5 Os3'
_cell_volume   223.79740413
_cell_formula_units_Z   1
loop_
 _symmetry_equiv_pos_site_id
 _symmetry_equiv_pos_as_xyz
  1  'x, y, z'
loop_
 _atom_site_type_symbol
 _atom_site_label
 _atom_site_symmetry_multiplicity
 _atom_site_fract_x
 _atom_site_fract_y
 _atom_site_fract_z
 _atom_site_occupancy
  Tb  Tb0  1  0.333605  0.666803  0.437401  1
  Tb  Tb1  1  0.669289  0.334644  0.564060  1
  Y  Y2  1  0.669490  0.334745  0.935638  1
  Y  Y3  1  0.333293  0.666647  0.063009  1
  Re  Re4  1  0.830401  0.169312  0.249619  1
  Re  Re5  1  0.830401  0.661089  0.249619  1
  Re  Re6  1  0.343726  0.171862  0.249606  1
  Re  Re7  1  0.162353  0.829796  0.750322  1
  Re  Re8  1  0.162353  0.332556  0.750322  1
  Os  Os9  1  0.010198  0.005099  0.500297  1
  Os  Os10  1  0.009984  0.004992  0.999640  1
  Os  Os11  1  0.644907  0.822454  0.750468  1
