# generated using pymatgen
data_LiY4NiRu2
_symmetry_space_group_name_H-M   'P 1'
_cell_length_a   4.83230084
_cell_length_b   6.92199903
_cell_length_c   14.62337254
_cell_angle_alpha   90.00991184
_cell_angle_beta   90.06696872
_cell_angle_gamma   89.99422352
_symmetry_Int_Tables_number   1
_chemical_formula_structural   LiY4NiRu2
_chemical_formula_sum   'Li3 Y12 Ni3 Ru6'
_cell_volume   489.13950149
_cell_formula_units_Z   3
loop_
 _symmetry_equiv_pos_site_id
 _symmetry_equiv_pos_as_xyz
  1  'x, y, z'
loop_
 _atom_site_type_symbol
 _atom_site_label
 _atom_site_symmetry_multiplicity
 _atom_site_fract_x
 _atom_site_fract_y
 _atom_site_fract_z
 _atom_site_occupancy
  Li  Li0  1  0.000006  0.000001  0.995950  1
  Li  Li1  1  0.499658  0.500001  0.166700  1
  Li  Li2  1  0.999647  0.000000  0.337412  1
  Y  Y3  1  0.500032  0.254730  0.994454  1
  Y  Y4  1  0.500038  0.745271  0.994457  1
  Y  Y5  1  0.999783  0.250309  0.166674  1
  Y  Y6  1  0.999774  0.749692  0.166671  1
  Y  Y7  1  0.499772  0.254720  0.338877  1
  Y  Y8  1  0.499778  0.745281  0.338879  1
  Y  Y9  1  0.999983  0.254194  0.505048  1
  Y  Y10  1  0.999981  0.745807  0.505047  1
  Y  Y11  1  0.500198  0.248915  0.666639  1
  Y  Y12  1  0.500198  0.751086  0.666639  1
  Y  Y13  1  0.000217  0.254197  0.828271  1
  Y  Y14  1  0.000214  0.745804  0.828269  1
  Ni  Ni15  1  0.499981  0.499995  0.503818  1
  Ni  Ni16  1  0.000356  0.000000  0.666649  1
  Ni  Ni17  1  0.500416  0.500001  0.829460  1
  Ru  Ru18  1  0.999998  0.500000  0.001205  1
  Ru  Ru19  1  0.499698  0.000004  0.166668  1
  Ru  Ru20  1  0.999748  0.500001  0.332260  1
  Ru  Ru21  1  0.499985  0.000001  0.498936  1
  Ru  Ru22  1  0.000265  0.499992  0.666672  1
  Ru  Ru23  1  0.500278  0.000001  0.834345  1
