# generated using pymatgen
data_CsNiSb12Os2Rh
_symmetry_space_group_name_H-M   'P 1'
_cell_length_a   8.18758184
_cell_length_b   8.21008266
_cell_length_c   8.17865483
_cell_angle_alpha   109.50775455
_cell_angle_beta   109.40904185
_cell_angle_gamma   109.58321668
_symmetry_Int_Tables_number   1
_chemical_formula_structural   CsNiSb12Os2Rh
_chemical_formula_sum   'Cs1 Ni1 Sb12 Os2 Rh1'
_cell_volume   422.76471040
_cell_formula_units_Z   1
loop_
 _symmetry_equiv_pos_site_id
 _symmetry_equiv_pos_as_xyz
  1  'x, y, z'
loop_
 _atom_site_type_symbol
 _atom_site_label
 _atom_site_symmetry_multiplicity
 _atom_site_fract_x
 _atom_site_fract_y
 _atom_site_fract_z
 _atom_site_occupancy
  Cs  Cs0  1  0.000000  0.000000  0.000000  1
  Ni  Ni1  1  0.000000  0.500000  0.000000  1
  Sb  Sb2  1  0.344838  0.184628  0.843035  1
  Sb  Sb3  1  0.655162  0.815372  0.156965  1
  Sb  Sb4  1  0.658090  0.498859  0.842607  1
  Sb  Sb5  1  0.341910  0.501141  0.157393  1
  Sb  Sb6  1  0.186414  0.838962  0.341912  1
  Sb  Sb7  1  0.813586  0.161038  0.658088  1
  Sb  Sb8  1  0.500691  0.841071  0.658500  1
  Sb  Sb9  1  0.499309  0.158929  0.341500  1
  Sb  Sb10  1  0.842871  0.343717  0.184799  1
  Sb  Sb11  1  0.157129  0.656283  0.815201  1
  Sb  Sb12  1  0.841168  0.656019  0.498474  1
  Sb  Sb13  1  0.158832  0.343981  0.501526  1
  Os  Os14  1  0.500000  0.000000  0.000000  1
  Os  Os15  1  0.500000  0.500000  0.500000  1
  Rh  Rh16  1  0.000000  0.000000  0.500000  1
