# generated using pymatgen
data_Pm3Si5
_symmetry_space_group_name_H-M   'P 1'
_cell_length_a   6.85955533
_cell_length_b   6.85737029
_cell_length_c   5.79117285
_cell_angle_alpha   53.66679372
_cell_angle_beta   53.68807030
_cell_angle_gamma   60.03531341
_symmetry_Int_Tables_number   1
_chemical_formula_structural   Pm3Si5
_chemical_formula_sum   'Pm3 Si5'
_cell_volume   172.13595455
_cell_formula_units_Z   1
loop_
 _symmetry_equiv_pos_site_id
 _symmetry_equiv_pos_as_xyz
  1  'x, y, z'
loop_
 _atom_site_type_symbol
 _atom_site_label
 _atom_site_symmetry_multiplicity
 _atom_site_fract_x
 _atom_site_fract_y
 _atom_site_fract_z
 _atom_site_occupancy
  Pm  Pm0  1  0.974787  0.844563  0.820692  1
  Pm  Pm1  1  0.646364  0.515571  0.820636  1
  Pm  Pm2  1  0.301495  0.188071  0.821196  1
  Si  Si3  1  0.802227  0.346126  0.334932  1
  Si  Si4  1  0.145797  0.688356  0.305529  1
  Si  Si5  1  0.776483  0.016262  0.321222  1
  Si  Si6  1  0.172254  0.318076  0.320647  1
  Si  Si7  1  0.473281  0.714416  0.322090  1
