# generated using pymatgen
data_Tm9Lu(SnSb)3
_symmetry_space_group_name_H-M   'P 1'
_cell_length_a   8.85781800
_cell_length_b   8.85781901
_cell_length_c   6.30356000
_cell_angle_alpha   90.00000000
_cell_angle_beta   90.00000000
_cell_angle_gamma   120.00000369
_symmetry_Int_Tables_number   1
_chemical_formula_structural   Tm9Lu(SnSb)3
_chemical_formula_sum   'Tm9 Lu1 Sn3 Sb3'
_cell_volume   428.32168409
_cell_formula_units_Z   1
loop_
 _symmetry_equiv_pos_site_id
 _symmetry_equiv_pos_as_xyz
  1  'x, y, z'
loop_
 _atom_site_type_symbol
 _atom_site_label
 _atom_site_symmetry_multiplicity
 _atom_site_fract_x
 _atom_site_fract_y
 _atom_site_fract_z
 _atom_site_occupancy
  Tm  Tm0  1  0.666667  0.333333  0.001250  1
  Tm  Tm1  1  0.333333  0.666667  0.001034  1
  Tm  Tm2  1  0.333333  0.666667  0.499079  1
  Tm  Tm3  1  0.760087  0.760128  0.749940  1
  Tm  Tm4  1  0.239872  0.999959  0.749940  1
  Tm  Tm5  1  0.000041  0.239913  0.749940  1
  Tm  Tm6  1  0.239457  0.239447  0.250056  1
  Tm  Tm7  1  0.760553  0.000010  0.250056  1
  Tm  Tm8  1  0.999990  0.760543  0.250056  1
  Lu  Lu9  1  0.666667  0.333333  0.498510  1
  Sn  Sn10  1  0.606387  0.605976  0.250318  1
  Sn  Sn11  1  0.394024  0.000410  0.250318  1
  Sn  Sn12  1  0.999590  0.393613  0.250318  1
  Sb  Sb13  1  0.393169  0.392845  0.749728  1
  Sb  Sb14  1  0.607155  0.000325  0.749728  1
  Sb  Sb15  1  0.999675  0.606831  0.749728  1
