# generated using pymatgen
data_Li2Cr(NiP)3
_symmetry_space_group_name_H-M   'P 1'
_cell_length_a   6.01294300
_cell_length_b   5.83099208
_cell_length_c   3.53548500
_cell_angle_alpha   90.00000000
_cell_angle_beta   90.00000000
_cell_angle_gamma   121.03771141
_symmetry_Int_Tables_number   1
_chemical_formula_structural   Li2Cr(NiP)3
_chemical_formula_sum   'Li2 Cr1 Ni3 P3'
_cell_volume   106.21167310
_cell_formula_units_Z   1
loop_
 _symmetry_equiv_pos_site_id
 _symmetry_equiv_pos_as_xyz
  1  'x, y, z'
loop_
 _atom_site_type_symbol
 _atom_site_label
 _atom_site_symmetry_multiplicity
 _atom_site_fract_x
 _atom_site_fract_y
 _atom_site_fract_z
 _atom_site_occupancy
  Li  Li0  1  0.996288  0.415282  0.500000  1
  Li  Li1  1  0.581007  0.584718  0.500000  1
  Cr  Cr2  1  0.408896  0.000000  0.500000  1
  Ni  Ni3  1  0.995202  0.742967  0.000000  1
  Ni  Ni4  1  0.252235  0.257033  0.000000  1
  Ni  Ni5  1  0.761226  0.000000  0.000000  1
  P  P6  1  0.336727  0.683774  0.000000  1
  P  P7  1  0.652954  0.316226  0.000000  1
  P  P8  1  0.015465  0.000000  0.500000  1
