# generated using pymatgen
data_Ho3BiMoRh3O14
_symmetry_space_group_name_H-M   'P 1'
_cell_length_a   7.31988404
_cell_length_b   7.31988408
_cell_length_c   7.31988441
_cell_angle_alpha   58.84102455
_cell_angle_beta   58.84102890
_cell_angle_gamma   58.84102540
_symmetry_Int_Tables_number   1
_chemical_formula_structural   Ho3BiMoRh3O14
_chemical_formula_sum   'Ho3 Bi1 Mo1 Rh3 O14'
_cell_volume   269.99201826
_cell_formula_units_Z   1
loop_
 _symmetry_equiv_pos_site_id
 _symmetry_equiv_pos_as_xyz
  1  'x, y, z'
loop_
 _atom_site_type_symbol
 _atom_site_label
 _atom_site_symmetry_multiplicity
 _atom_site_fract_x
 _atom_site_fract_y
 _atom_site_fract_z
 _atom_site_occupancy
  Ho  Ho0  1  0.125000  0.625000  0.125000  1
  Ho  Ho1  1  0.625000  0.125000  0.125000  1
  Ho  Ho2  1  0.125000  0.125000  0.625000  1
  Bi  Bi3  1  0.125000  0.125000  0.125000  1
  Mo  Mo4  1  0.625000  0.625000  0.625000  1
  Rh  Rh5  1  0.625000  0.625000  0.125000  1
  Rh  Rh6  1  0.125000  0.625000  0.625000  1
  Rh  Rh7  1  0.625000  0.125000  0.625000  1
  O  O8  1  0.252373  0.252373  0.252373  1
  O  O9  1  0.285352  0.706728  0.285352  1
  O  O10  1  0.964648  0.964648  0.543272  1
  O  O11  1  0.539398  0.959064  0.539398  1
  O  O12  1  0.710602  0.710602  0.290936  1
  O  O13  1  0.959064  0.539398  0.539398  1
  O  O14  1  0.710602  0.290936  0.710602  1
  O  O15  1  0.285352  0.285352  0.706728  1
  O  O16  1  0.706728  0.285352  0.285352  1
  O  O17  1  0.290936  0.710602  0.710602  1
  O  O18  1  0.964648  0.543272  0.964648  1
  O  O19  1  0.539398  0.539398  0.959064  1
  O  O20  1  0.997627  0.997627  0.997627  1
  O  O21  1  0.543272  0.964648  0.964648  1
