# generated using pymatgen
data_NdDyMn3Ni9P7
_symmetry_space_group_name_H-M   'P 1'
_cell_length_a   9.13360500
_cell_length_b   9.13360492
_cell_length_c   3.69850800
_cell_angle_alpha   90.00000000
_cell_angle_beta   90.00000000
_cell_angle_gamma   120.00001115
_symmetry_Int_Tables_number   1
_chemical_formula_structural   NdDyMn3Ni9P7
_chemical_formula_sum   'Nd1 Dy1 Mn3 Ni9 P7'
_cell_volume   267.20316198
_cell_formula_units_Z   1
loop_
 _symmetry_equiv_pos_site_id
 _symmetry_equiv_pos_as_xyz
  1  'x, y, z'
loop_
 _atom_site_type_symbol
 _atom_site_label
 _atom_site_symmetry_multiplicity
 _atom_site_fract_x
 _atom_site_fract_y
 _atom_site_fract_z
 _atom_site_occupancy
  Nd  Nd0  1  0.333333  0.666667  0.500000  1
  Dy  Dy1  1  0.666667  0.333333  0.000000  1
  Mn  Mn2  1  0.120796  0.902012  0.500000  1
  Mn  Mn3  1  0.097988  0.218784  0.500000  1
  Mn  Mn4  1  0.781216  0.879204  0.500000  1
  Ni  Ni5  1  0.373516  0.941596  0.000000  1
  Ni  Ni6  1  0.058404  0.431921  0.000000  1
  Ni  Ni7  1  0.568079  0.626484  0.000000  1
  Ni  Ni8  1  0.874730  0.723546  0.000000  1
  Ni  Ni9  1  0.276454  0.151184  0.000000  1
  Ni  Ni10  1  0.848816  0.125270  0.000000  1
  Ni  Ni11  1  0.944631  0.565801  0.500000  1
  Ni  Ni12  1  0.434199  0.378830  0.500000  1
  Ni  Ni13  1  0.621170  0.055369  0.500000  1
  P  P14  1  0.108437  0.705548  0.000000  1
  P  P15  1  0.294452  0.402889  0.000000  1
  P  P16  1  0.597111  0.891563  0.000000  1
  P  P17  1  0.704912  0.594370  0.500000  1
  P  P18  1  0.405630  0.110543  0.500000  1
  P  P19  1  0.889457  0.295088  0.500000  1
  P  P20  1  0.000000  0.000000  0.000000  1
