# generated using pymatgen
data_Dy7HoRe2(RuC4)2
_symmetry_space_group_name_H-M   'P 1'
_cell_length_a   5.10805500
_cell_length_b   6.53222039
_cell_length_c   9.82895658
_cell_angle_alpha   89.96055003
_cell_angle_beta   90.00000000
_cell_angle_gamma   90.00000000
_symmetry_Int_Tables_number   1
_chemical_formula_structural   Dy7HoRe2(RuC4)2
_chemical_formula_sum   'Dy7 Ho1 Re2 Ru2 C8'
_cell_volume   327.96213673
_cell_formula_units_Z   1
loop_
 _symmetry_equiv_pos_site_id
 _symmetry_equiv_pos_as_xyz
  1  'x, y, z'
loop_
 _atom_site_type_symbol
 _atom_site_label
 _atom_site_symmetry_multiplicity
 _atom_site_fract_x
 _atom_site_fract_y
 _atom_site_fract_z
 _atom_site_occupancy
  Dy  Dy0  1  0.250000  0.467225  0.784861  1
  Dy  Dy1  1  0.750000  0.032890  0.284241  1
  Dy  Dy2  1  0.250000  0.969811  0.715192  1
  Dy  Dy3  1  0.750000  0.530139  0.214853  1
  Dy  Dy4  1  0.250000  0.824689  0.054714  1
  Dy  Dy5  1  0.750000  0.675474  0.554985  1
  Dy  Dy6  1  0.250000  0.319099  0.443086  1
  Ho  Ho7  1  0.750000  0.179730  0.942508  1
  Re  Re8  1  0.250000  0.779549  0.365029  1
  Re  Re9  1  0.750000  0.720454  0.865272  1
  Ru  Ru10  1  0.250000  0.278942  0.133845  1
  Ru  Ru11  1  0.750000  0.221230  0.634493  1
  C  C12  1  0.250000  0.175795  0.949226  1
  C  C13  1  0.750000  0.823501  0.050983  1
  C  C14  1  0.250000  0.677489  0.551093  1
  C  C15  1  0.750000  0.324004  0.449604  1
  C  C16  1  0.250000  0.044490  0.259790  1
  C  C17  1  0.750000  0.455179  0.760520  1
  C  C18  1  0.250000  0.546207  0.242675  1
  C  C19  1  0.750000  0.954103  0.743031  1
