# generated using pymatgen
data_Er8Tm4TlCo4Os
_symmetry_space_group_name_H-M   'P 1'
_cell_length_a   8.20080384
_cell_length_b   8.20080349
_cell_length_c   8.20080400
_cell_angle_alpha   111.52797758
_cell_angle_beta   110.81284378
_cell_angle_gamma   106.12464391
_symmetry_Int_Tables_number   1
_chemical_formula_structural   Er8Tm4TlCo4Os
_chemical_formula_sum   'Er8 Tm4 Tl1 Co4 Os1'
_cell_volume   423.47236900
_cell_formula_units_Z   1
loop_
 _symmetry_equiv_pos_site_id
 _symmetry_equiv_pos_as_xyz
  1  'x, y, z'
loop_
 _atom_site_type_symbol
 _atom_site_label
 _atom_site_symmetry_multiplicity
 _atom_site_fract_x
 _atom_site_fract_y
 _atom_site_fract_z
 _atom_site_occupancy
  Er  Er0  1  0.417552  0.223074  0.194505  1
  Er  Er1  1  0.582448  0.776926  0.805495  1
  Er  Er2  1  0.028568  0.223074  0.805523  1
  Er  Er3  1  0.971432  0.776926  0.194477  1
  Er  Er4  1  0.181863  0.278175  0.460030  1
  Er  Er5  1  0.818137  0.721825  0.539970  1
  Er  Er6  1  0.181855  0.721825  0.903688  1
  Er  Er7  1  0.818145  0.278175  0.096312  1
  Tm  Tm8  1  0.314875  0.621195  0.306320  1
  Tm  Tm9  1  0.685125  0.378805  0.693680  1
  Tm  Tm10  1  0.314889  0.008582  0.693694  1
  Tm  Tm11  1  0.685111  0.991418  0.306306  1
  Tl  Tl12  1  0.500000  0.500000  0.000000  1
  Co  Co13  1  0.375204  0.000000  0.375204  1
  Co  Co14  1  0.624796  0.000000  0.624796  1
  Co  Co15  1  0.112033  0.612027  0.499994  1
  Co  Co16  1  0.887967  0.387973  0.500006  1
  Os  Os17  1  0.000000  0.000000  0.000000  1
