# generated using pymatgen
data_Pa3Fe(PO4)6
_symmetry_space_group_name_H-M   'P 1'
_cell_length_a   9.40227743
_cell_length_b   9.40227730
_cell_length_c   9.40227850
_cell_angle_alpha   58.34885788
_cell_angle_beta   58.34885972
_cell_angle_gamma   58.34886140
_symmetry_Int_Tables_number   1
_chemical_formula_structural   Pa3Fe(PO4)6
_chemical_formula_sum   'Pa3 Fe1 P6 O24'
_cell_volume   565.52027382
_cell_formula_units_Z   1
loop_
 _symmetry_equiv_pos_site_id
 _symmetry_equiv_pos_as_xyz
  1  'x, y, z'
loop_
 _atom_site_type_symbol
 _atom_site_label
 _atom_site_symmetry_multiplicity
 _atom_site_fract_x
 _atom_site_fract_y
 _atom_site_fract_z
 _atom_site_occupancy
  Pa  Pa0  1  0.141154  0.141154  0.141154  1
  Pa  Pa1  1  0.356343  0.356343  0.356343  1
  Pa  Pa2  1  0.639885  0.639885  0.639885  1
  Fe  Fe3  1  0.855995  0.855995  0.855995  1
  P  P4  1  0.031676  0.483134  0.746638  1
  P  P5  1  0.483134  0.746638  0.031676  1
  P  P6  1  0.746638  0.031676  0.483134  1
  P  P7  1  0.227188  0.965229  0.551805  1
  P  P8  1  0.551805  0.227188  0.965229  1
  P  P9  1  0.965229  0.551805  0.227188  1
  O  O10  1  0.129507  0.511924  0.264428  1
  O  O11  1  0.264428  0.129507  0.511924  1
  O  O12  1  0.061008  0.307389  0.907720  1
  O  O13  1  0.511924  0.264428  0.129507  1
  O  O14  1  0.199767  0.451126  0.580061  1
  O  O15  1  0.000985  0.642103  0.774560  1
  O  O16  1  0.307389  0.907720  0.061008  1
  O  O17  1  0.451126  0.580061  0.199767  1
  O  O18  1  0.580061  0.199767  0.451126  1
  O  O19  1  0.210484  0.998413  0.378893  1
  O  O20  1  0.064371  0.942279  0.713452  1
  O  O21  1  0.378893  0.210484  0.998413  1
  O  O22  1  0.642103  0.774560  0.000985  1
  O  O23  1  0.907720  0.061008  0.307389  1
  O  O24  1  0.774560  0.000985  0.642103  1
  O  O25  1  0.398286  0.799236  0.572754  1
  O  O26  1  0.572754  0.398286  0.799236  1
  O  O27  1  0.713452  0.064371  0.942279  1
  O  O28  1  0.998413  0.378893  0.210484  1
  O  O29  1  0.799236  0.572754  0.398286  1
  O  O30  1  0.503744  0.715691  0.872768  1
  O  O31  1  0.942279  0.713452  0.064371  1
  O  O32  1  0.715691  0.872768  0.503744  1
  O  O33  1  0.872768  0.503744  0.715691  1
