# generated using pymatgen
data_Tm4LuInPd4
_symmetry_space_group_name_H-M   'P 1'
_cell_length_a   7.73749100
_cell_length_b   7.73749100
_cell_length_c   3.71200800
_cell_angle_alpha   90.00000000
_cell_angle_beta   90.00000000
_cell_angle_gamma   90.00000000
_symmetry_Int_Tables_number   1
_chemical_formula_structural   Tm4LuInPd4
_chemical_formula_sum   'Tm4 Lu1 In1 Pd4'
_cell_volume   222.23334196
_cell_formula_units_Z   1
loop_
 _symmetry_equiv_pos_site_id
 _symmetry_equiv_pos_as_xyz
  1  'x, y, z'
loop_
 _atom_site_type_symbol
 _atom_site_label
 _atom_site_symmetry_multiplicity
 _atom_site_fract_x
 _atom_site_fract_y
 _atom_site_fract_z
 _atom_site_occupancy
  Tm  Tm0  1  0.353679  0.818446  0.500000  1
  Tm  Tm1  1  0.818446  0.646321  0.500000  1
  Tm  Tm2  1  0.181554  0.353679  0.500000  1
  Tm  Tm3  1  0.646321  0.181554  0.500000  1
  Lu  Lu4  1  0.000000  0.000000  0.000000  1
  In  In5  1  0.500000  0.500000  0.000000  1
  Pd  Pd6  1  0.358878  0.123851  0.000000  1
  Pd  Pd7  1  0.876149  0.358878  0.000000  1
  Pd  Pd8  1  0.123851  0.641122  0.000000  1
  Pd  Pd9  1  0.641122  0.876149  0.000000  1
