# generated using pymatgen
data_Lu4Ga8Tc5Mo
_symmetry_space_group_name_H-M   'P 1'
_cell_length_a   6.78391300
_cell_length_b   6.93098473
_cell_length_c   13.08865430
_cell_angle_alpha   89.96328795
_cell_angle_beta   90.00000000
_cell_angle_gamma   90.00000000
_symmetry_Int_Tables_number   1
_chemical_formula_structural   Lu4Ga8Tc5Mo
_chemical_formula_sum   'Lu8 Ga16 Tc10 Mo2'
_cell_volume   615.41789365
_cell_formula_units_Z   2
loop_
 _symmetry_equiv_pos_site_id
 _symmetry_equiv_pos_as_xyz
  1  'x, y, z'
loop_
 _atom_site_type_symbol
 _atom_site_label
 _atom_site_symmetry_multiplicity
 _atom_site_fract_x
 _atom_site_fract_y
 _atom_site_fract_z
 _atom_site_occupancy
  Lu  Lu0  1  0.489356  0.332831  0.091708  1
  Lu  Lu1  1  0.989356  0.167169  0.408292  1
  Lu  Lu2  1  0.511242  0.667997  0.590417  1
  Lu  Lu3  1  0.011242  0.832003  0.909583  1
  Lu  Lu4  1  0.510906  0.672812  0.909878  1
  Lu  Lu5  1  0.010906  0.827188  0.590122  1
  Lu  Lu6  1  0.486667  0.331500  0.408364  1
  Lu  Lu7  1  0.986667  0.168500  0.091636  1
  Ga  Ga8  1  0.669900  0.046702  0.544036  1
  Ga  Ga9  1  0.169900  0.453298  0.955964  1
  Ga  Ga10  1  0.333634  0.953845  0.047385  1
  Ga  Ga11  1  0.833634  0.546155  0.452615  1
  Ga  Ga12  1  0.334934  0.952932  0.453398  1
  Ga  Ga13  1  0.834934  0.547068  0.046602  1
  Ga  Ga14  1  0.666416  0.046684  0.955620  1
  Ga  Ga15  1  0.166416  0.453316  0.544380  1
  Ga  Ga16  1  0.527081  0.379300  0.752666  1
  Ga  Ga17  1  0.027081  0.120700  0.747334  1
  Ga  Ga18  1  0.472789  0.629200  0.250464  1
  Ga  Ga19  1  0.972789  0.870800  0.249536  1
  Ga  Ga20  1  0.805273  0.650361  0.750235  1
  Ga  Ga21  1  0.305273  0.849639  0.749765  1
  Ga  Ga22  1  0.190860  0.352561  0.249578  1
  Ga  Ga23  1  0.690860  0.147439  0.250422  1
  Tc  Tc24  1  0.828494  0.342052  0.626496  1
  Tc  Tc25  1  0.328494  0.157948  0.873504  1
  Tc  Tc26  1  0.172713  0.657469  0.127530  1
  Tc  Tc27  1  0.672713  0.842531  0.372470  1
  Tc  Tc28  1  0.170128  0.657399  0.371432  1
  Tc  Tc29  1  0.670128  0.842601  0.128568  1
  Tc  Tc30  1  0.656742  0.013675  0.749474  1
  Tc  Tc31  1  0.156742  0.486325  0.750526  1
  Tc  Tc32  1  0.337825  0.991161  0.250130  1
  Tc  Tc33  1  0.837825  0.508839  0.249870  1
  Mo  Mo34  1  0.835038  0.339738  0.871157  1
  Mo  Mo35  1  0.335038  0.160262  0.628843  1
