# generated using pymatgen
data_Sm2ZnSiRu2C
_symmetry_space_group_name_H-M   'P 1'
_cell_length_a   5.95741769
_cell_length_b   5.95741802
_cell_length_c   7.12943562
_cell_angle_alpha   126.24219162
_cell_angle_beta   126.24219432
_cell_angle_gamma   40.38273940
_symmetry_Int_Tables_number   1
_chemical_formula_structural   Sm2ZnSiRu2C
_chemical_formula_sum   'Sm2 Zn1 Si1 Ru2 C1'
_cell_volume   127.32331268
_cell_formula_units_Z   1
loop_
 _symmetry_equiv_pos_site_id
 _symmetry_equiv_pos_as_xyz
  1  'x, y, z'
loop_
 _atom_site_type_symbol
 _atom_site_label
 _atom_site_symmetry_multiplicity
 _atom_site_fract_x
 _atom_site_fract_y
 _atom_site_fract_z
 _atom_site_occupancy
  Sm  Sm0  1  0.562555  0.562555  0.299562  1
  Sm  Sm1  1  0.438801  0.438801  0.709054  1
  Zn  Zn2  1  0.853462  0.853462  0.309111  1
  Si  Si3  1  0.159785  0.159785  0.709952  1
  Ru  Ru4  1  0.192667  0.192667  0.078657  1
  Ru  Ru5  1  0.794405  0.794405  0.892236  1
  C  C6  1  0.998326  0.998326  0.001430  1
