# generated using pymatgen
data_ErLu4Si9P3Ir19
_symmetry_space_group_name_H-M   'P 1'
_cell_length_a   12.79897800
_cell_length_b   12.79897706
_cell_length_c   3.92921100
_cell_angle_alpha   90.00000000
_cell_angle_beta   90.00000000
_cell_angle_gamma   120.00000244
_symmetry_Int_Tables_number   1
_chemical_formula_structural   ErLu4Si9P3Ir19
_chemical_formula_sum   'Er1 Lu4 Si9 P3 Ir19'
_cell_volume   557.42510624
_cell_formula_units_Z   1
loop_
 _symmetry_equiv_pos_site_id
 _symmetry_equiv_pos_as_xyz
  1  'x, y, z'
loop_
 _atom_site_type_symbol
 _atom_site_label
 _atom_site_symmetry_multiplicity
 _atom_site_fract_x
 _atom_site_fract_y
 _atom_site_fract_z
 _atom_site_occupancy
  Er  Er0  1  0.333333  0.666667  0.000000  1
  Lu  Lu1  1  0.666667  0.333333  0.000000  1
  Lu  Lu2  1  0.814542  0.814540  0.500000  1
  Lu  Lu3  1  0.185460  0.000003  0.500000  1
  Lu  Lu4  1  0.999997  0.185458  0.500000  1
  Si  Si5  1  0.686075  0.167816  0.500000  1
  Si  Si6  1  0.832184  0.518259  0.500000  1
  Si  Si7  1  0.481741  0.313925  0.500000  1
  Si  Si8  1  0.167513  0.686125  0.500000  1
  Si  Si9  1  0.518612  0.832487  0.500000  1
  Si  Si10  1  0.313875  0.481388  0.500000  1
  Si  Si11  1  0.633745  0.633777  0.000000  1
  Si  Si12  1  0.366223  0.999968  0.000000  1
  Si  Si13  1  0.000032  0.366255  0.000000  1
  P  P14  1  0.177722  0.177683  0.000000  1
  P  P15  1  0.822317  0.000039  0.000000  1
  P  P16  1  0.999961  0.822278  0.000000  1
  Ir  Ir17  1  0.807715  0.179796  0.000000  1
  Ir  Ir18  1  0.820204  0.627919  0.000000  1
  Ir  Ir19  1  0.372081  0.192285  0.000000  1
  Ir  Ir20  1  0.179676  0.807808  0.000000  1
  Ir  Ir21  1  0.628132  0.820324  0.000000  1
  Ir  Ir22  1  0.192192  0.371868  0.000000  1
  Ir  Ir23  1  0.447194  0.447235  0.000000  1
  Ir  Ir24  1  0.552765  0.999959  0.000000  1
  Ir  Ir25  1  0.000041  0.552806  0.000000  1
  Ir  Ir26  1  0.277364  0.277311  0.500000  1
  Ir  Ir27  1  0.722689  0.000053  0.500000  1
  Ir  Ir28  1  0.999947  0.722636  0.500000  1
  Ir  Ir29  1  0.871576  0.359429  0.500000  1
  Ir  Ir30  1  0.640571  0.512148  0.500000  1
  Ir  Ir31  1  0.487852  0.128424  0.500000  1
  Ir  Ir32  1  0.359467  0.872136  0.500000  1
  Ir  Ir33  1  0.512670  0.640533  0.500000  1
  Ir  Ir34  1  0.127864  0.487330  0.500000  1
  Ir  Ir35  1  0.000000  0.000000  0.000000  1
