# generated using pymatgen
data_Ho8V5Si16Mo7
_symmetry_space_group_name_H-M   'P 1'
_cell_length_a   6.70513018
_cell_length_b   6.89775127
_cell_length_c   12.94928501
_cell_angle_alpha   89.99646058
_cell_angle_beta   89.98923583
_cell_angle_gamma   90.05327500
_symmetry_Int_Tables_number   1
_chemical_formula_structural   Ho8V5Si16Mo7
_chemical_formula_sum   'Ho8 V5 Si16 Mo7'
_cell_volume   598.90830833
_cell_formula_units_Z   1
loop_
 _symmetry_equiv_pos_site_id
 _symmetry_equiv_pos_as_xyz
  1  'x, y, z'
loop_
 _atom_site_type_symbol
 _atom_site_label
 _atom_site_symmetry_multiplicity
 _atom_site_fract_x
 _atom_site_fract_y
 _atom_site_fract_z
 _atom_site_occupancy
  Ho  Ho0  1  0.499289  0.329787  0.094941  1
  Ho  Ho1  1  0.999640  0.169365  0.406159  1
  Ho  Ho2  1  0.501682  0.670110  0.593616  1
  Ho  Ho3  1  0.000813  0.830090  0.905838  1
  Ho  Ho4  1  0.503230  0.666223  0.905527  1
  Ho  Ho5  1  0.003480  0.833788  0.593558  1
  Ho  Ho6  1  0.497590  0.332155  0.405911  1
  Ho  Ho7  1  0.998028  0.167372  0.095227  1
  V  V8  1  0.835990  0.333095  0.626668  1
  V  V9  1  0.334682  0.165779  0.873595  1
  V  V10  1  0.164688  0.668242  0.126169  1
  V  V11  1  0.666943  0.833088  0.373468  1
  V  V12  1  0.164796  0.667296  0.374202  1
  Si  Si13  1  0.663289  0.045377  0.543327  1
  Si  Si14  1  0.164163  0.455041  0.956589  1
  Si  Si15  1  0.335831  0.954377  0.042700  1
  Si  Si16  1  0.838116  0.546540  0.456495  1
  Si  Si17  1  0.340445  0.951506  0.454170  1
  Si  Si18  1  0.841965  0.544277  0.044957  1
  Si  Si19  1  0.657792  0.043960  0.954879  1
  Si  Si20  1  0.159211  0.458606  0.543196  1
  Si  Si21  1  0.536200  0.366910  0.748818  1
  Si  Si22  1  0.036497  0.132595  0.750557  1
  Si  Si23  1  0.460789  0.632811  0.251296  1
  Si  Si24  1  0.964253  0.866384  0.251776  1
  Si  Si25  1  0.801933  0.625907  0.747949  1
  Si  Si26  1  0.302009  0.874191  0.751368  1
  Si  Si27  1  0.198347  0.378023  0.250095  1
  Si  Si28  1  0.697975  0.124617  0.252020  1
  Mo  Mo29  1  0.667126  0.833302  0.124798  1
  Mo  Mo30  1  0.832053  0.334652  0.876196  1
  Mo  Mo31  1  0.331055  0.164998  0.623501  1
  Mo  Mo32  1  0.664297  0.006654  0.749751  1
  Mo  Mo33  1  0.164230  0.493601  0.749558  1
  Mo  Mo34  1  0.334882  0.991104  0.250125  1
  Mo  Mo35  1  0.836694  0.508173  0.250998  1
