# generated using pymatgen
data_Ti3Cr2B4W
_symmetry_space_group_name_H-M   'P 1'
_cell_length_a   5.82713587
_cell_length_b   5.82713568
_cell_length_c   3.13026300
_cell_angle_alpha   90.00000000
_cell_angle_beta   90.00000000
_cell_angle_gamma   90.51969711
_symmetry_Int_Tables_number   1
_chemical_formula_structural   Ti3Cr2B4W
_chemical_formula_sum   'Ti3 Cr2 B4 W1'
_cell_volume   106.28530844
_cell_formula_units_Z   1
loop_
 _symmetry_equiv_pos_site_id
 _symmetry_equiv_pos_as_xyz
  1  'x, y, z'
loop_
 _atom_site_type_symbol
 _atom_site_label
 _atom_site_symmetry_multiplicity
 _atom_site_fract_x
 _atom_site_fract_y
 _atom_site_fract_z
 _atom_site_occupancy
  Ti  Ti0  1  0.317808  0.817808  0.500000  1
  Ti  Ti1  1  0.181422  0.318616  0.500000  1
  Ti  Ti2  1  0.818616  0.681422  0.500000  1
  Cr  Cr3  1  0.499968  0.500301  0.000000  1
  Cr  Cr4  1  0.000301  0.999968  0.000000  1
  B  B5  1  0.108874  0.608874  0.000000  1
  B  B6  1  0.890379  0.390379  0.000000  1
  B  B7  1  0.610971  0.890391  0.000000  1
  B  B8  1  0.390391  0.110971  0.000000  1
  W  W9  1  0.681270  0.181270  0.500000  1
