# generated using pymatgen
data_AlNi8Mo12As3C2
_symmetry_space_group_name_H-M   'P 1'
_cell_length_a   7.79963384
_cell_length_b   7.82016223
_cell_length_c   7.79963400
_cell_angle_alpha   60.08679767
_cell_angle_beta   59.99999932
_cell_angle_gamma   60.08680033
_symmetry_Int_Tables_number   1
_chemical_formula_structural   AlNi8Mo12As3C2
_chemical_formula_sum   'Al1 Ni8 Mo12 As3 C2'
_cell_volume   336.83540710
_cell_formula_units_Z   1
loop_
 _symmetry_equiv_pos_site_id
 _symmetry_equiv_pos_as_xyz
  1  'x, y, z'
loop_
 _atom_site_type_symbol
 _atom_site_label
 _atom_site_symmetry_multiplicity
 _atom_site_fract_x
 _atom_site_fract_y
 _atom_site_fract_z
 _atom_site_occupancy
  Al  Al0  1  0.125000  0.625000  0.125000  1
  Ni  Ni1  1  0.333129  0.330801  0.002939  1
  Ni  Ni2  1  0.333129  0.330801  0.333129  1
  Ni  Ni3  1  0.247061  0.919199  0.916871  1
  Ni  Ni4  1  0.916871  0.919199  0.916871  1
  Ni  Ni5  1  0.002939  0.330801  0.333129  1
  Ni  Ni6  1  0.333575  0.999273  0.333575  1
  Ni  Ni7  1  0.916871  0.919199  0.247061  1
  Ni  Ni8  1  0.916425  0.250727  0.916425  1
  Mo  Mo9  1  0.307757  0.690234  0.694251  1
  Mo  Mo10  1  0.694251  0.690234  0.307757  1
  Mo  Mo11  1  0.691362  0.308009  0.691362  1
  Mo  Mo12  1  0.307757  0.690234  0.307757  1
  Mo  Mo13  1  0.558638  0.941991  0.558638  1
  Mo  Mo14  1  0.558638  0.941991  0.940733  1
  Mo  Mo15  1  0.942243  0.559766  0.555749  1
  Mo  Mo16  1  0.942243  0.559766  0.942243  1
  Mo  Mo17  1  0.309267  0.308009  0.691362  1
  Mo  Mo18  1  0.555749  0.559766  0.942243  1
  Mo  Mo19  1  0.940733  0.941991  0.558638  1
  Mo  Mo20  1  0.691362  0.308009  0.309267  1
  As  As21  1  0.125000  0.125000  0.625000  1
  As  As22  1  0.625000  0.125000  0.125000  1
  As  As23  1  0.125000  0.125000  0.125000  1
  C  C24  1  0.499826  0.500520  0.499826  1
  C  C25  1  0.750174  0.749480  0.750174  1
