# generated using pymatgen
data_Ac5La3(Si4I3)2
_symmetry_space_group_name_H-M   'P 1'
_cell_length_a   12.74704626
_cell_length_b   12.74704565
_cell_length_c   12.87240236
_cell_angle_alpha   82.88059814
_cell_angle_beta   82.88059901
_cell_angle_gamma   19.72429190
_symmetry_Int_Tables_number   1
_chemical_formula_structural   Ac5La3(Si4I3)2
_chemical_formula_sum   'Ac5 La3 Si8 I6'
_cell_volume   700.29574137
_cell_formula_units_Z   1
loop_
 _symmetry_equiv_pos_site_id
 _symmetry_equiv_pos_as_xyz
  1  'x, y, z'
loop_
 _atom_site_type_symbol
 _atom_site_label
 _atom_site_symmetry_multiplicity
 _atom_site_fract_x
 _atom_site_fract_y
 _atom_site_fract_z
 _atom_site_occupancy
  Ac  Ac0  1  0.495409  0.495409  0.165147  1
  Ac  Ac1  1  0.924869  0.924869  0.444886  1
  Ac  Ac2  1  0.353998  0.353998  0.020672  1
  Ac  Ac3  1  0.075900  0.075900  0.557326  1
  Ac  Ac4  1  0.646002  0.646002  0.977195  1
  La  La5  1  0.635963  0.635963  0.290612  1
  La  La6  1  0.364506  0.364506  0.709016  1
  La  La7  1  0.502277  0.502277  0.835783  1
  Si  Si8  1  0.524333  0.524333  0.407844  1
  Si  Si9  1  0.041656  0.041656  0.324489  1
  Si  Si10  1  0.049086  0.049086  0.985272  1
  Si  Si11  1  0.476602  0.476602  0.596091  1
  Si  Si12  1  0.907242  0.907242  0.854322  1
  Si  Si13  1  0.951570  0.951570  0.007956  1
  Si  Si14  1  0.959441  0.959441  0.678119  1
  Si  Si15  1  0.093492  0.093492  0.142291  1
  I  I16  1  0.246864  0.246864  0.866775  1
  I  I17  1  0.753605  0.753605  0.132469  1
  I  I18  1  0.800641  0.800641  0.579010  1
  I  I19  1  0.365449  0.365449  0.287943  1
  I  I20  1  0.199683  0.199683  0.421175  1
  I  I21  1  0.631411  0.631411  0.715607  1
