# generated using pymatgen
data_Th3Ni3(SnTe)2
_symmetry_space_group_name_H-M   'P 1'
_cell_length_a   8.34167064
_cell_length_b   8.34169828
_cell_length_c   8.34165700
_cell_angle_alpha   109.47180451
_cell_angle_beta   109.47085997
_cell_angle_gamma   109.47144913
_symmetry_Int_Tables_number   1
_chemical_formula_structural   Th3Ni3(SnTe)2
_chemical_formula_sum   'Th6 Ni6 Sn4 Te4'
_cell_volume   446.82301206
_cell_formula_units_Z   2
loop_
 _symmetry_equiv_pos_site_id
 _symmetry_equiv_pos_as_xyz
  1  'x, y, z'
loop_
 _atom_site_type_symbol
 _atom_site_label
 _atom_site_symmetry_multiplicity
 _atom_site_fract_x
 _atom_site_fract_y
 _atom_site_fract_z
 _atom_site_occupancy
  Th  Th0  1  0.887182  0.249998  0.137178  1
  Th  Th1  1  0.612818  0.750006  0.362820  1
  Th  Th2  1  0.249993  0.137182  0.887171  1
  Th  Th3  1  0.749998  0.362815  0.612822  1
  Th  Th4  1  0.137191  0.887192  0.250004  1
  Th  Th5  1  0.362814  0.612807  0.750002  1
  Ni  Ni6  1  0.378725  0.249999  0.628723  1
  Ni  Ni7  1  0.121288  0.750003  0.871286  1
  Ni  Ni8  1  0.249996  0.628729  0.378725  1
  Ni  Ni9  1  0.750002  0.871285  0.121283  1
  Ni  Ni10  1  0.628727  0.378726  0.249998  1
  Ni  Ni11  1  0.871281  0.121283  0.750002  1
  Sn  Sn12  1  0.499998  0.000001  0.157949  1
  Sn  Sn13  1  0.157948  0.500000  0.999998  1
  Sn  Sn14  1  0.000001  0.157951  0.500002  1
  Sn  Sn15  1  0.342047  0.342047  0.342049  1
  Te  Te16  1  0.664125  0.499995  0.000015  1
  Te  Te17  1  0.500003  0.999991  0.664118  1
  Te  Te18  1  0.999985  0.664106  0.499983  1
  Te  Te19  1  0.835879  0.835884  0.835870  1
