# generated using pymatgen
data_Ho12OsPd3
_symmetry_space_group_name_H-M   'P 1'
_cell_length_a   7.09252601
_cell_length_b   9.46113500
_cell_length_c   6.42597200
_cell_angle_alpha   90.00000000
_cell_angle_beta   89.99474491
_cell_angle_gamma   90.00000000
_symmetry_Int_Tables_number   1
_chemical_formula_structural   Ho12OsPd3
_chemical_formula_sum   'Ho12 Os1 Pd3'
_cell_volume   431.20422147
_cell_formula_units_Z   1
loop_
 _symmetry_equiv_pos_site_id
 _symmetry_equiv_pos_as_xyz
  1  'x, y, z'
loop_
 _atom_site_type_symbol
 _atom_site_label
 _atom_site_symmetry_multiplicity
 _atom_site_fract_x
 _atom_site_fract_y
 _atom_site_fract_z
 _atom_site_occupancy
  Ho  Ho0  1  0.472717  0.250000  0.130992  1
  Ho  Ho1  1  0.177442  0.562565  0.173222  1
  Ho  Ho2  1  0.177442  0.937435  0.173222  1
  Ho  Ho3  1  0.685251  0.562491  0.319244  1
  Ho  Ho4  1  0.685251  0.937509  0.319244  1
  Ho  Ho5  1  0.975275  0.250000  0.371968  1
  Ho  Ho6  1  0.024364  0.750000  0.630398  1
  Ho  Ho7  1  0.318531  0.059781  0.672639  1
  Ho  Ho8  1  0.318531  0.440219  0.672639  1
  Ho  Ho9  1  0.816818  0.053001  0.829866  1
  Ho  Ho10  1  0.816818  0.446999  0.829866  1
  Ho  Ho11  1  0.535635  0.750000  0.877562  1
  Os  Os12  1  0.887897  0.750000  0.046672  1
  Pd  Pd13  1  0.388486  0.750000  0.453354  1
  Pd  Pd14  1  0.612144  0.250000  0.557197  1
  Pd  Pd15  1  0.107393  0.250000  0.941910  1
