# generated using pymatgen
data_Hf4Pd3Rh
_symmetry_space_group_name_H-M   'P 1'
_cell_length_a   4.43281200
_cell_length_b   5.43486340
_cell_length_c   6.17815206
_cell_angle_alpha   90.39454176
_cell_angle_beta   90.00000000
_cell_angle_gamma   90.00000000
_symmetry_Int_Tables_number   1
_chemical_formula_structural   Hf4Pd3Rh
_chemical_formula_sum   'Hf4 Pd3 Rh1'
_cell_volume   148.83882834
_cell_formula_units_Z   1
loop_
 _symmetry_equiv_pos_site_id
 _symmetry_equiv_pos_as_xyz
  1  'x, y, z'
loop_
 _atom_site_type_symbol
 _atom_site_label
 _atom_site_symmetry_multiplicity
 _atom_site_fract_x
 _atom_site_fract_y
 _atom_site_fract_z
 _atom_site_occupancy
  Hf  Hf0  1  0.750000  0.863213  0.829018  1
  Hf  Hf1  1  0.250000  0.353305  0.681173  1
  Hf  Hf2  1  0.750000  0.636109  0.325765  1
  Hf  Hf3  1  0.250000  0.150890  0.167942  1
  Pd  Pd4  1  0.750000  0.156001  0.452155  1
  Pd  Pd5  1  0.250000  0.839420  0.542089  1
  Pd  Pd6  1  0.250000  0.662922  0.048580  1
  Rh  Rh7  1  0.750000  0.338140  0.953278  1
