# generated using pymatgen
data_CdOsRuPbO7
_symmetry_space_group_name_H-M   'P 1'
_cell_length_a   7.34536768
_cell_length_b   7.28295339
_cell_length_c   7.34536764
_cell_angle_alpha   60.28067606
_cell_angle_beta   60.57004931
_cell_angle_gamma   60.28067199
_symmetry_Int_Tables_number   1
_chemical_formula_structural   CdOsRuPbO7
_chemical_formula_sum   'Cd2 Os2 Ru2 Pb2 O14'
_cell_volume   280.22127231
_cell_formula_units_Z   2
loop_
 _symmetry_equiv_pos_site_id
 _symmetry_equiv_pos_as_xyz
  1  'x, y, z'
loop_
 _atom_site_type_symbol
 _atom_site_label
 _atom_site_symmetry_multiplicity
 _atom_site_fract_x
 _atom_site_fract_y
 _atom_site_fract_z
 _atom_site_occupancy
  Cd  Cd0  1  0.125000  0.125000  0.125000  1
  Cd  Cd1  1  0.125000  0.625000  0.125000  1
  Os  Os2  1  0.125000  0.625000  0.625000  1
  Os  Os3  1  0.625000  0.625000  0.125000  1
  Ru  Ru4  1  0.625000  0.625000  0.625000  1
  Ru  Ru5  1  0.625000  0.125000  0.625000  1
  Pb  Pb6  1  0.625000  0.125000  0.125000  1
  Pb  Pb7  1  0.125000  0.125000  0.625000  1
  O  O8  1  0.230830  0.269170  0.230830  1
  O  O9  1  0.019170  0.980830  0.019170  1
  O  O10  1  0.548990  0.951010  0.548990  1
  O  O11  1  0.314507  0.685493  0.314507  1
  O  O12  1  0.557232  0.554762  0.947105  1
  O  O13  1  0.947105  0.554762  0.557232  1
  O  O14  1  0.557232  0.940902  0.947105  1
  O  O15  1  0.947105  0.940902  0.557232  1
  O  O16  1  0.935493  0.564507  0.935493  1
  O  O17  1  0.692768  0.309098  0.302895  1
  O  O18  1  0.302895  0.695238  0.692768  1
  O  O19  1  0.701010  0.298990  0.701010  1
  O  O20  1  0.302895  0.309098  0.692768  1
  O  O21  1  0.692768  0.695238  0.302895  1
