# generated using pymatgen
data_Tb2Y7Rh6
_symmetry_space_group_name_H-M   'P 1'
_cell_length_a   7.42265281
_cell_length_b   7.42265328
_cell_length_c   7.42265491
_cell_angle_alpha   71.35215530
_cell_angle_beta   71.35215602
_cell_angle_gamma   71.35215319
_symmetry_Int_Tables_number   1
_chemical_formula_structural   Tb2Y7Rh6
_chemical_formula_sum   'Tb2 Y7 Rh6'
_cell_volume   356.20631506
_cell_formula_units_Z   1
loop_
 _symmetry_equiv_pos_site_id
 _symmetry_equiv_pos_as_xyz
  1  'x, y, z'
loop_
 _atom_site_type_symbol
 _atom_site_label
 _atom_site_symmetry_multiplicity
 _atom_site_fract_x
 _atom_site_fract_y
 _atom_site_fract_z
 _atom_site_occupancy
  Tb  Tb0  1  0.000027  0.000027  0.000027  1
  Tb  Tb1  1  0.797262  0.797262  0.797262  1
  Y  Y2  1  0.203581  0.203581  0.203581  1
  Y  Y3  1  0.159645  0.394473  0.665503  1
  Y  Y4  1  0.665503  0.159645  0.394473  1
  Y  Y5  1  0.394473  0.665503  0.159645  1
  Y  Y6  1  0.839855  0.605302  0.334709  1
  Y  Y7  1  0.334709  0.839855  0.605302  1
  Y  Y8  1  0.605302  0.334709  0.839855  1
  Rh  Rh9  1  0.955970  0.163183  0.592264  1
  Rh  Rh10  1  0.592264  0.955970  0.163183  1
  Rh  Rh11  1  0.163183  0.592264  0.955970  1
  Rh  Rh12  1  0.044234  0.833829  0.410160  1
  Rh  Rh13  1  0.410160  0.044234  0.833829  1
  Rh  Rh14  1  0.833829  0.410160  0.044234  1
