# generated using pymatgen
data_Tm4Lu4B24IrRu3
_symmetry_space_group_name_H-M   'P 1'
_cell_length_a   3.60671600
_cell_length_b   9.04624923
_cell_length_c   11.39882430
_cell_angle_alpha   90.02615765
_cell_angle_beta   90.00000000
_cell_angle_gamma   90.00000000
_symmetry_Int_Tables_number   1
_chemical_formula_structural   Tm4Lu4B24IrRu3
_chemical_formula_sum   'Tm4 Lu4 B24 Ir1 Ru3'
_cell_volume   371.91227247
_cell_formula_units_Z   1
loop_
 _symmetry_equiv_pos_site_id
 _symmetry_equiv_pos_as_xyz
  1  'x, y, z'
loop_
 _atom_site_type_symbol
 _atom_site_label
 _atom_site_symmetry_multiplicity
 _atom_site_fract_x
 _atom_site_fract_y
 _atom_site_fract_z
 _atom_site_occupancy
  Tm  Tm0  1  0.000000  0.317990  0.414694  1
  Tm  Tm1  1  0.000000  0.679911  0.588752  1
  Tm  Tm2  1  0.000000  0.822373  0.083965  1
  Tm  Tm3  1  0.000000  0.179453  0.913477  1
  Lu  Lu4  1  0.000000  0.945819  0.373380  1
  Lu  Lu5  1  0.000000  0.056042  0.626862  1
  Lu  Lu6  1  0.000000  0.441732  0.125443  1
  Lu  Lu7  1  0.000000  0.555976  0.873315  1
  B  B8  1  0.500000  0.553891  0.434212  1
  B  B9  1  0.500000  0.445962  0.566389  1
  B  B10  1  0.500000  0.054245  0.066481  1
  B  B11  1  0.500000  0.946045  0.933337  1
  B  B12  1  0.500000  0.750780  0.421357  1
  B  B13  1  0.500000  0.250191  0.579871  1
  B  B14  1  0.500000  0.249266  0.079658  1
  B  B15  1  0.500000  0.750660  0.920208  1
  B  B16  1  0.500000  0.792991  0.264837  1
  B  B17  1  0.500000  0.208057  0.734450  1
  B  B18  1  0.500000  0.292313  0.234951  1
  B  B19  1  0.500000  0.707824  0.765478  1
  B  B20  1  0.500000  0.631147  0.182798  1
  B  B21  1  0.500000  0.369217  0.815731  1
  B  B22  1  0.500000  0.131106  0.316016  1
  B  B23  1  0.500000  0.868793  0.684276  1
  B  B24  1  0.500000  0.981951  0.213190  1
  B  B25  1  0.500000  0.017938  0.786708  1
  B  B26  1  0.500000  0.480875  0.286435  1
  B  B27  1  0.500000  0.517955  0.713361  1
  B  B28  1  0.500000  0.606288  0.029404  1
  B  B29  1  0.500000  0.393790  0.970903  1
  B  B30  1  0.500000  0.105980  0.470970  1
  B  B31  1  0.500000  0.893541  0.528811  1
  Ir  Ir32  1  0.000000  0.637635  0.321133  1
  Ru  Ru33  1  0.000000  0.362205  0.678848  1
  Ru  Ru34  1  0.000000  0.138222  0.179728  1
  Ru  Ru35  1  0.000000  0.861836  0.820570  1
