# generated using pymatgen
data_Co2Tc5Os
_symmetry_space_group_name_H-M   'P 1'
_cell_length_a   5.37798000
_cell_length_b   5.38562335
_cell_length_c   4.29366000
_cell_angle_alpha   90.00000000
_cell_angle_beta   90.00000000
_cell_angle_gamma   119.95306386
_symmetry_Int_Tables_number   1
_chemical_formula_structural   Co2Tc5Os
_chemical_formula_sum   'Co2 Tc5 Os1'
_cell_volume   107.75034090
_cell_formula_units_Z   1
loop_
 _symmetry_equiv_pos_site_id
 _symmetry_equiv_pos_as_xyz
  1  'x, y, z'
loop_
 _atom_site_type_symbol
 _atom_site_label
 _atom_site_symmetry_multiplicity
 _atom_site_fract_x
 _atom_site_fract_y
 _atom_site_fract_z
 _atom_site_occupancy
  Co  Co0  1  0.332093  0.664186  0.750000  1
  Co  Co1  1  0.666003  0.332004  0.250000  1
  Tc  Tc2  1  0.666616  0.832700  0.250000  1
  Tc  Tc3  1  0.166084  0.832700  0.250000  1
  Tc  Tc4  1  0.834178  0.668358  0.750000  1
  Tc  Tc5  1  0.333788  0.167448  0.750000  1
  Tc  Tc6  1  0.833658  0.167448  0.750000  1
  Os  Os7  1  0.167579  0.335158  0.250000  1
