# generated using pymatgen
data_Tb2DyTlPd4F28
_symmetry_space_group_name_H-M   'P 1'
_cell_length_a   5.50939944
_cell_length_b   8.86100342
_cell_length_c   11.95602613
_cell_angle_alpha   62.47595101
_cell_angle_beta   90.13281430
_cell_angle_gamma   90.03889089
_symmetry_Int_Tables_number   1
_chemical_formula_structural   Tb2DyTlPd4F28
_chemical_formula_sum   'Tb2 Dy1 Tl1 Pd4 F28'
_cell_volume   517.61492837
_cell_formula_units_Z   1
loop_
 _symmetry_equiv_pos_site_id
 _symmetry_equiv_pos_as_xyz
  1  'x, y, z'
loop_
 _atom_site_type_symbol
 _atom_site_label
 _atom_site_symmetry_multiplicity
 _atom_site_fract_x
 _atom_site_fract_y
 _atom_site_fract_z
 _atom_site_occupancy
  Tb  Tb0  1  0.761853  0.186580  0.235601  1
  Tb  Tb1  1  0.239400  0.812772  0.764110  1
  Dy  Dy2  1  0.262395  0.812813  0.264199  1
  Tl  Tl3  1  0.735322  0.185424  0.736974  1
  Pd  Pd4  1  0.758469  0.727500  0.043424  1
  Pd  Pd5  1  0.240217  0.271808  0.955679  1
  Pd  Pd6  1  0.259601  0.273676  0.457793  1
  Pd  Pd7  1  0.741856  0.725004  0.543160  1
  F  F8  1  0.934259  0.701328  0.416149  1
  F  F9  1  0.072123  0.303842  0.583226  1
  F  F10  1  0.429703  0.294808  0.084514  1
  F  F11  1  0.565302  0.706271  0.914967  1
  F  F12  1  0.465025  0.724508  0.134684  1
  F  F13  1  0.543879  0.277738  0.869377  1
  F  F14  1  0.963771  0.273176  0.367985  1
  F  F15  1  0.036043  0.724815  0.633742  1
  F  F16  1  0.946393  0.741398  0.176761  1
  F  F17  1  0.061844  0.260580  0.817127  1
  F  F18  1  0.444394  0.254614  0.325066  1
  F  F19  1  0.554614  0.742777  0.675282  1
  F  F20  1  0.771953  0.479482  0.139728  1
  F  F21  1  0.226770  0.519695  0.859059  1
  F  F22  1  0.272439  0.520563  0.357482  1
  F  F23  1  0.721795  0.476849  0.645926  1
  F  F24  1  0.938603  0.278164  0.038932  1
  F  F25  1  0.057841  0.721666  0.958334  1
  F  F26  1  0.441242  0.718152  0.458854  1
  F  F27  1  0.566008  0.284807  0.536638  1
  F  F28  1  0.744153  0.971804  0.451009  1
  F  F29  1  0.257876  0.026875  0.551090  1
  F  F30  1  0.242409  0.025082  0.047937  1
  F  F31  1  0.756943  0.973851  0.956087  1
  F  F32  1  0.589001  0.967244  0.231361  1
  F  F33  1  0.403061  0.035478  0.770632  1
  F  F34  1  0.090400  0.029992  0.268583  1
  F  F35  1  0.903047  0.968864  0.728530  1
