# generated using pymatgen
data_Nb4Cr2FeCo5
_symmetry_space_group_name_H-M   'P 1'
_cell_length_a   4.85315600
_cell_length_b   4.85315643
_cell_length_c   7.68105800
_cell_angle_alpha   90.00000000
_cell_angle_beta   90.00000000
_cell_angle_gamma   119.99747966
_symmetry_Int_Tables_number   1
_chemical_formula_structural   Nb4Cr2FeCo5
_chemical_formula_sum   'Nb4 Cr2 Fe1 Co5'
_cell_volume   156.67916458
_cell_formula_units_Z   1
loop_
 _symmetry_equiv_pos_site_id
 _symmetry_equiv_pos_as_xyz
  1  'x, y, z'
loop_
 _atom_site_type_symbol
 _atom_site_label
 _atom_site_symmetry_multiplicity
 _atom_site_fract_x
 _atom_site_fract_y
 _atom_site_fract_z
 _atom_site_occupancy
  Nb  Nb0  1  0.332693  0.667307  0.437022  1
  Nb  Nb1  1  0.667082  0.332918  0.563123  1
  Nb  Nb2  1  0.667082  0.332918  0.936877  1
  Nb  Nb3  1  0.332693  0.667307  0.062978  1
  Cr  Cr4  1  0.997397  0.002603  0.497501  1
  Cr  Cr5  1  0.997397  0.002603  0.002499  1
  Fe  Fe6  1  0.830948  0.169052  0.250000  1
  Co  Co7  1  0.831564  0.656391  0.250000  1
  Co  Co8  1  0.343609  0.168436  0.250000  1
  Co  Co9  1  0.169381  0.830619  0.750000  1
  Co  Co10  1  0.170617  0.340462  0.750000  1
  Co  Co11  1  0.659538  0.829383  0.750000  1
