# generated using pymatgen
data_K2BaCaBi2
_symmetry_space_group_name_H-M   'P 1'
_cell_length_a   5.46435400
_cell_length_b   8.89847700
_cell_length_c   10.40996300
_cell_angle_alpha   90.00000000
_cell_angle_beta   90.00000000
_cell_angle_gamma   90.00000000
_symmetry_Int_Tables_number   1
_chemical_formula_structural   K2BaCaBi2
_chemical_formula_sum   'K4 Ba2 Ca2 Bi4'
_cell_volume   506.17850042
_cell_formula_units_Z   2
loop_
 _symmetry_equiv_pos_site_id
 _symmetry_equiv_pos_as_xyz
  1  'x, y, z'
loop_
 _atom_site_type_symbol
 _atom_site_label
 _atom_site_symmetry_multiplicity
 _atom_site_fract_x
 _atom_site_fract_y
 _atom_site_fract_z
 _atom_site_occupancy
  K  K0  1  0.500000  0.025390  0.416118  1
  K  K1  1  0.000000  0.342681  0.338895  1
  K  K2  1  0.500000  0.525390  0.583882  1
  K  K3  1  0.000000  0.842681  0.661105  1
  Ba  Ba4  1  0.000000  0.495398  0.946992  1
  Ba  Ba5  1  0.000000  0.995398  0.053008  1
  Ca  Ca6  1  0.500000  0.152229  0.815636  1
  Ca  Ca7  1  0.500000  0.652229  0.184364  1
  Bi  Bi8  1  0.000000  0.246826  0.676412  1
  Bi  Bi9  1  0.500000  0.282995  0.114659  1
  Bi  Bi10  1  0.000000  0.746826  0.323588  1
  Bi  Bi11  1  0.500000  0.782995  0.885341  1
