# generated using pymatgen
data_Nd9Dy8Y3Pb16
_symmetry_space_group_name_H-M   'P 1'
_cell_length_a   8.30732561
_cell_length_b   8.37736916
_cell_length_c   15.87391900
_cell_angle_alpha   90.02501835
_cell_angle_beta   90.11795979
_cell_angle_gamma   90.20825466
_symmetry_Int_Tables_number   1
_chemical_formula_structural   Nd9Dy8Y3Pb16
_chemical_formula_sum   'Nd9 Dy8 Y3 Pb16'
_cell_volume   1104.71236400
_cell_formula_units_Z   1
loop_
 _symmetry_equiv_pos_site_id
 _symmetry_equiv_pos_as_xyz
  1  'x, y, z'
loop_
 _atom_site_type_symbol
 _atom_site_label
 _atom_site_symmetry_multiplicity
 _atom_site_fract_x
 _atom_site_fract_y
 _atom_site_fract_z
 _atom_site_occupancy
  Nd  Nd0  1  0.129103  0.339866  0.619572  1
  Nd  Nd1  1  0.472910  0.679372  0.598309  1
  Nd  Nd2  1  0.974488  0.821853  0.903413  1
  Nd  Nd3  1  0.526143  0.322091  0.097917  1
  Nd  Nd4  1  0.027693  0.176437  0.399924  1
  Nd  Nd5  1  0.525677  0.322649  0.401178  1
  Nd  Nd6  1  0.025946  0.177715  0.098055  1
  Nd  Nd7  1  0.474996  0.678728  0.902754  1
  Nd  Nd8  1  0.973168  0.822576  0.598334  1
  Dy  Dy9  1  0.631642  0.159147  0.622501  1
  Dy  Dy10  1  0.131767  0.341696  0.878594  1
  Dy  Dy11  1  0.367914  0.841944  0.121911  1
  Dy  Dy12  1  0.868974  0.657618  0.378120  1
  Dy  Dy13  1  0.370136  0.842213  0.376189  1
  Dy  Dy14  1  0.868164  0.658600  0.122107  1
  Dy  Dy15  1  0.631395  0.158076  0.879586  1
  Dy  Dy16  1  0.797051  0.495048  0.750752  1
  Y  Y17  1  0.298551  0.004329  0.750776  1
  Y  Y18  1  0.202465  0.505401  0.248880  1
  Y  Y19  1  0.702730  0.995563  0.250145  1
  Pb  Pb20  1  0.709061  0.961144  0.456900  1
  Pb  Pb21  1  0.207729  0.539123  0.043125  1
  Pb  Pb22  1  0.291852  0.039472  0.957260  1
  Pb  Pb23  1  0.784153  0.464059  0.542746  1
  Pb  Pb24  1  0.295059  0.033510  0.542368  1
  Pb  Pb25  1  0.792782  0.461106  0.957108  1
  Pb  Pb26  1  0.707985  0.960275  0.043861  1
  Pb  Pb27  1  0.209689  0.541535  0.453622  1
  Pb  Pb28  1  0.436166  0.371521  0.752008  1
  Pb  Pb29  1  0.933567  0.125200  0.751824  1
  Pb  Pb30  1  0.565185  0.628133  0.249464  1
  Pb  Pb31  1  0.064372  0.871580  0.249757  1
  Pb  Pb32  1  0.663393  0.850476  0.750722  1
  Pb  Pb33  1  0.162429  0.651560  0.751313  1
  Pb  Pb34  1  0.337611  0.150386  0.249329  1
  Pb  Pb35  1  0.838054  0.349998  0.249578  1
