# generated using pymatgen
data_KLa2CuSe4
_symmetry_space_group_name_H-M   'P 1'
_cell_length_a   7.65536409
_cell_length_b   7.65536380
_cell_length_c   14.80716000
_cell_angle_alpha   90.00000000
_cell_angle_beta   90.00000000
_cell_angle_gamma   147.35600302
_symmetry_Int_Tables_number   1
_chemical_formula_structural   KLa2CuSe4
_chemical_formula_sum   'K2 La4 Cu2 Se8'
_cell_volume   468.08908739
_cell_formula_units_Z   2
loop_
 _symmetry_equiv_pos_site_id
 _symmetry_equiv_pos_as_xyz
  1  'x, y, z'
loop_
 _atom_site_type_symbol
 _atom_site_label
 _atom_site_symmetry_multiplicity
 _atom_site_fract_x
 _atom_site_fract_y
 _atom_site_fract_z
 _atom_site_occupancy
  K  K0  1  0.109118  0.890882  0.250000  1
  K  K1  1  0.890882  0.109118  0.750000  1
  La  La2  1  0.634829  0.365171  0.936811  1
  La  La3  1  0.365171  0.634829  0.436811  1
  La  La4  1  0.634829  0.365171  0.563189  1
  La  La5  1  0.365171  0.634829  0.063189  1
  Cu  Cu6  1  0.162695  0.837305  0.750000  1
  Cu  Cu7  1  0.837305  0.162695  0.250000  1
  Se  Se8  1  0.000000  0.000000  0.500000  1
  Se  Se9  1  0.000000  0.000000  0.000000  1
  Se  Se10  1  0.735627  0.264373  0.116334  1
  Se  Se11  1  0.264373  0.735627  0.883666  1
  Se  Se12  1  0.568414  0.431586  0.750000  1
  Se  Se13  1  0.735627  0.264373  0.383666  1
  Se  Se14  1  0.431586  0.568414  0.250000  1
  Se  Se15  1  0.264373  0.735627  0.616334  1
