# generated using pymatgen
data_Hf4MnGa3N
_symmetry_space_group_name_H-M   'P 1'
_cell_length_a   7.84379400
_cell_length_b   7.84379462
_cell_length_c   5.39410800
_cell_angle_alpha   90.00000000
_cell_angle_beta   90.00000000
_cell_angle_gamma   120.00000584
_symmetry_Int_Tables_number   1
_chemical_formula_structural   Hf4MnGa3N
_chemical_formula_sum   'Hf8 Mn2 Ga6 N2'
_cell_volume   287.41050419
_cell_formula_units_Z   2
loop_
 _symmetry_equiv_pos_site_id
 _symmetry_equiv_pos_as_xyz
  1  'x, y, z'
loop_
 _atom_site_type_symbol
 _atom_site_label
 _atom_site_symmetry_multiplicity
 _atom_site_fract_x
 _atom_site_fract_y
 _atom_site_fract_z
 _atom_site_occupancy
  Hf  Hf0  1  0.231582  0.000000  0.250091  1
  Hf  Hf1  1  0.768418  0.000000  0.749909  1
  Hf  Hf2  1  0.000000  0.231582  0.250091  1
  Hf  Hf3  1  0.000000  0.768418  0.749909  1
  Hf  Hf4  1  0.768418  0.768418  0.250091  1
  Hf  Hf5  1  0.231582  0.231582  0.749909  1
  Hf  Hf6  1  0.666667  0.333333  0.500000  1
  Hf  Hf7  1  0.333333  0.666667  0.500000  1
  Mn  Mn8  1  0.333333  0.666667  0.000000  1
  Mn  Mn9  1  0.666667  0.333333  0.000000  1
  Ga  Ga10  1  0.589214  0.000000  0.223530  1
  Ga  Ga11  1  0.410786  0.000000  0.776470  1
  Ga  Ga12  1  0.000000  0.589214  0.223530  1
  Ga  Ga13  1  0.000000  0.410786  0.776470  1
  Ga  Ga14  1  0.410786  0.410786  0.223530  1
  Ga  Ga15  1  0.589214  0.589214  0.776470  1
  N  N16  1  0.000000  0.000000  0.000000  1
  N  N17  1  0.000000  0.000000  0.500000  1
