# generated using pymatgen
data_Nd16Ag4IrRh3
_symmetry_space_group_name_H-M   'P 1'
_cell_length_a   9.88892479
_cell_length_b   9.88892432
_cell_length_c   9.88892487
_cell_angle_alpha   59.86776472
_cell_angle_beta   59.86776579
_cell_angle_gamma   59.86776292
_symmetry_Int_Tables_number   1
_chemical_formula_structural   Nd16Ag4IrRh3
_chemical_formula_sum   'Nd16 Ag4 Ir1 Rh3'
_cell_volume   681.75307635
_cell_formula_units_Z   1
loop_
 _symmetry_equiv_pos_site_id
 _symmetry_equiv_pos_as_xyz
  1  'x, y, z'
loop_
 _atom_site_type_symbol
 _atom_site_label
 _atom_site_symmetry_multiplicity
 _atom_site_fract_x
 _atom_site_fract_y
 _atom_site_fract_z
 _atom_site_occupancy
  Nd  Nd0  1  0.601043  0.601043  0.601043  1
  Nd  Nd1  1  0.601813  0.601813  0.193945  1
  Nd  Nd2  1  0.601813  0.193945  0.601813  1
  Nd  Nd3  1  0.193945  0.601813  0.601813  1
  Nd  Nd4  1  0.060708  0.438701  0.438701  1
  Nd  Nd5  1  0.437549  0.060966  0.060966  1
  Nd  Nd6  1  0.438701  0.060708  0.438701  1
  Nd  Nd7  1  0.060966  0.437549  0.060966  1
  Nd  Nd8  1  0.438701  0.438701  0.060708  1
  Nd  Nd9  1  0.060966  0.060966  0.437549  1
  Nd  Nd10  1  0.187830  0.813483  0.813483  1
  Nd  Nd11  1  0.812123  0.187503  0.187503  1
  Nd  Nd12  1  0.813483  0.187830  0.813483  1
  Nd  Nd13  1  0.187503  0.812123  0.187503  1
  Nd  Nd14  1  0.813483  0.813483  0.187830  1
  Nd  Nd15  1  0.187503  0.187503  0.812123  1
  Ag  Ag16  1  0.831826  0.831826  0.831826  1
  Ag  Ag17  1  0.831494  0.831494  0.505868  1
  Ag  Ag18  1  0.831494  0.505868  0.831494  1
  Ag  Ag19  1  0.505868  0.831494  0.831494  1
  Ir  Ir20  1  0.392669  0.392669  0.392669  1
  Rh  Rh21  1  0.393397  0.393397  0.821724  1
  Rh  Rh22  1  0.393397  0.821724  0.393397  1
  Rh  Rh23  1  0.821724  0.393397  0.393397  1
