# generated using pymatgen
data_TbDy(Fe4B)2
_symmetry_space_group_name_H-M   'P 1'
_cell_length_a   5.06440406
_cell_length_b   5.06500794
_cell_length_c   7.05309100
_cell_angle_alpha   90.00001240
_cell_angle_beta   89.99996112
_cell_angle_gamma   119.97791629
_symmetry_Int_Tables_number   1
_chemical_formula_structural   TbDy(Fe4B)2
_chemical_formula_sum   'Tb1 Dy1 Fe8 B2'
_cell_volume   156.71667140
_cell_formula_units_Z   1
loop_
 _symmetry_equiv_pos_site_id
 _symmetry_equiv_pos_as_xyz
  1  'x, y, z'
loop_
 _atom_site_type_symbol
 _atom_site_label
 _atom_site_symmetry_multiplicity
 _atom_site_fract_x
 _atom_site_fract_y
 _atom_site_fract_z
 _atom_site_occupancy
  Tb  Tb0  1  0.999981  0.000000  0.000000  1
  Dy  Dy1  1  0.999985  0.000000  0.500000  1
  Fe  Fe2  1  0.333305  0.666618  0.000001  1
  Fe  Fe3  1  0.666654  0.333382  0.000000  1
  Fe  Fe4  1  0.499984  0.000000  0.286956  1
  Fe  Fe5  1  0.499985  0.500001  0.286966  1
  Fe  Fe6  1  0.999984  0.499999  0.286964  1
  Fe  Fe7  1  0.499984  0.000000  0.713042  1
  Fe  Fe8  1  0.499985  0.500001  0.713032  1
  Fe  Fe9  1  0.999985  0.499999  0.713034  1
  B  B10  1  0.333345  0.666666  0.500002  1
  B  B11  1  0.666625  0.333334  0.500002  1
