# generated using pymatgen
data_Tm12Si12Os3Pt
_symmetry_space_group_name_H-M   'P 1'
_cell_length_a   4.18293300
_cell_length_b   10.57624221
_cell_length_c   12.15602405
_cell_angle_alpha   90.13629524
_cell_angle_beta   90.00000000
_cell_angle_gamma   90.00000000
_symmetry_Int_Tables_number   1
_chemical_formula_structural   Tm12Si12Os3Pt
_chemical_formula_sum   'Tm12 Si12 Os3 Pt1'
_cell_volume   537.77748802
_cell_formula_units_Z   1
loop_
 _symmetry_equiv_pos_site_id
 _symmetry_equiv_pos_as_xyz
  1  'x, y, z'
loop_
 _atom_site_type_symbol
 _atom_site_label
 _atom_site_symmetry_multiplicity
 _atom_site_fract_x
 _atom_site_fract_y
 _atom_site_fract_z
 _atom_site_occupancy
  Tm  Tm0  1  0.250000  0.879787  0.021754  1
  Tm  Tm1  1  0.250000  0.621268  0.520275  1
  Tm  Tm2  1  0.750000  0.122553  0.981383  1
  Tm  Tm3  1  0.750000  0.380749  0.478447  1
  Tm  Tm4  1  0.250000  0.920534  0.604128  1
  Tm  Tm5  1  0.250000  0.579266  0.104484  1
  Tm  Tm6  1  0.750000  0.078573  0.396660  1
  Tm  Tm7  1  0.750000  0.420008  0.895484  1
  Tm  Tm8  1  0.250000  0.658955  0.799439  1
  Tm  Tm9  1  0.250000  0.838495  0.299053  1
  Tm  Tm10  1  0.750000  0.339460  0.200404  1
  Tm  Tm11  1  0.750000  0.161168  0.697719  1
  Si  Si12  1  0.250000  0.017311  0.823564  1
  Si  Si13  1  0.250000  0.490302  0.320319  1
  Si  Si14  1  0.750000  0.990091  0.179268  1
  Si  Si15  1  0.750000  0.508852  0.679344  1
  Si  Si16  1  0.250000  0.249479  0.839933  1
  Si  Si17  1  0.250000  0.250202  0.341298  1
  Si  Si18  1  0.750000  0.750505  0.159125  1
  Si  Si19  1  0.750000  0.746418  0.655335  1
  Si  Si20  1  0.250000  0.202871  0.543613  1
  Si  Si21  1  0.250000  0.299808  0.044883  1
  Si  Si22  1  0.750000  0.800541  0.454385  1
  Si  Si23  1  0.750000  0.694051  0.958288  1
  Os  Os24  1  0.250000  0.390780  0.679293  1
  Os  Os25  1  0.250000  0.109080  0.179568  1
  Os  Os26  1  0.750000  0.609999  0.320678  1
  Pt  Pt27  1  0.750000  0.888892  0.821878  1
