# generated using pymatgen
data_Er16Ga6OsRh
_symmetry_space_group_name_H-M   'P 1'
_cell_length_a   9.96633300
_cell_length_b   9.96633413
_cell_length_c   6.97362400
_cell_angle_alpha   90.00000000
_cell_angle_beta   90.00000000
_cell_angle_gamma   120.00000620
_symmetry_Int_Tables_number   1
_chemical_formula_structural   Er16Ga6OsRh
_chemical_formula_sum   'Er16 Ga6 Os1 Rh1'
_cell_volume   599.87390378
_cell_formula_units_Z   1
loop_
 _symmetry_equiv_pos_site_id
 _symmetry_equiv_pos_as_xyz
  1  'x, y, z'
loop_
 _atom_site_type_symbol
 _atom_site_label
 _atom_site_symmetry_multiplicity
 _atom_site_fract_x
 _atom_site_fract_y
 _atom_site_fract_z
 _atom_site_occupancy
  Er  Er0  1  0.000000  0.000000  0.265973  1
  Er  Er1  1  0.000000  0.000000  0.766843  1
  Er  Er2  1  0.171071  0.828929  0.990334  1
  Er  Er3  1  0.828447  0.171553  0.491049  1
  Er  Er4  1  0.171071  0.342141  0.990334  1
  Er  Er5  1  0.657859  0.828929  0.990334  1
  Er  Er6  1  0.343105  0.171553  0.491049  1
  Er  Er7  1  0.828447  0.656895  0.491049  1
  Er  Er8  1  0.333333  0.666667  0.661377  1
  Er  Er9  1  0.666667  0.333333  0.160675  1
  Er  Er10  1  0.466367  0.533633  0.296339  1
  Er  Er11  1  0.534421  0.465579  0.794754  1
  Er  Er12  1  0.466367  0.932733  0.296339  1
  Er  Er13  1  0.067267  0.533633  0.296339  1
  Er  Er14  1  0.931157  0.465579  0.794754  1
  Er  Er15  1  0.534421  0.068843  0.794754  1
  Ga  Ga16  1  0.164009  0.835991  0.543791  1
  Ga  Ga17  1  0.836385  0.163615  0.043682  1
  Ga  Ga18  1  0.164009  0.328018  0.543791  1
  Ga  Ga19  1  0.671982  0.835991  0.543791  1
  Ga  Ga20  1  0.327231  0.163615  0.043682  1
  Ga  Ga21  1  0.836385  0.672769  0.043682  1
  Os  Os22  1  0.666667  0.333333  0.555847  1
  Rh  Rh23  1  0.333333  0.666667  0.055561  1
