# generated using pymatgen
data_DyHf(Si7Ir3)2
_symmetry_space_group_name_H-M   'P 1'
_cell_length_a   8.00316598
_cell_length_b   8.00316571
_cell_length_c   8.00316481
_cell_angle_alpha   56.67806226
_cell_angle_beta   56.67806479
_cell_angle_gamma   56.67806255
_symmetry_Int_Tables_number   1
_chemical_formula_structural   DyHf(Si7Ir3)2
_chemical_formula_sum   'Dy1 Hf1 Si14 Ir6'
_cell_volume   334.66123714
_cell_formula_units_Z   1
loop_
 _symmetry_equiv_pos_site_id
 _symmetry_equiv_pos_as_xyz
  1  'x, y, z'
loop_
 _atom_site_type_symbol
 _atom_site_label
 _atom_site_symmetry_multiplicity
 _atom_site_fract_x
 _atom_site_fract_y
 _atom_site_fract_z
 _atom_site_occupancy
  Dy  Dy0  1  0.000000  0.000000  0.000000  1
  Hf  Hf1  1  0.500000  0.500000  0.500000  1
  Si  Si2  1  0.750289  0.750289  0.750289  1
  Si  Si3  1  0.249711  0.249711  0.249711  1
  Si  Si4  1  0.850122  0.066802  0.671021  1
  Si  Si5  1  0.671021  0.850122  0.066802  1
  Si  Si6  1  0.066802  0.671021  0.850122  1
  Si  Si7  1  0.648078  0.825392  0.437357  1
  Si  Si8  1  0.437357  0.648078  0.825392  1
  Si  Si9  1  0.825392  0.437357  0.648078  1
  Si  Si10  1  0.174608  0.562643  0.351922  1
  Si  Si11  1  0.562643  0.351922  0.174608  1
  Si  Si12  1  0.351922  0.174608  0.562643  1
  Si  Si13  1  0.933198  0.328979  0.149878  1
  Si  Si14  1  0.328979  0.149878  0.933198  1
  Si  Si15  1  0.149878  0.933198  0.328979  1
  Ir  Ir16  1  0.073801  0.430338  0.747243  1
  Ir  Ir17  1  0.252757  0.926199  0.569662  1
  Ir  Ir18  1  0.569662  0.252757  0.926199  1
  Ir  Ir19  1  0.926199  0.569662  0.252757  1
  Ir  Ir20  1  0.430338  0.747243  0.073801  1
  Ir  Ir21  1  0.747243  0.073801  0.430338  1
