# generated using pymatgen
data_Dy5HoEr2(P3Ir4)4
_symmetry_space_group_name_H-M   'P 1'
_cell_length_a   12.96770501
_cell_length_b   12.96862997
_cell_length_c   4.00310600
_cell_angle_alpha   90.00000000
_cell_angle_beta   90.00000000
_cell_angle_gamma   120.00235947
_symmetry_Int_Tables_number   1
_chemical_formula_structural   Dy5HoEr2(P3Ir4)4
_chemical_formula_sum   'Dy5 Ho1 Er2 P12 Ir16'
_cell_volume   583.00813843
_cell_formula_units_Z   1
loop_
 _symmetry_equiv_pos_site_id
 _symmetry_equiv_pos_as_xyz
  1  'x, y, z'
loop_
 _atom_site_type_symbol
 _atom_site_label
 _atom_site_symmetry_multiplicity
 _atom_site_fract_x
 _atom_site_fract_y
 _atom_site_fract_z
 _atom_site_occupancy
  Dy  Dy0  1  0.333345  0.666668  0.500000  1
  Dy  Dy1  1  0.666655  0.333322  0.500000  1
  Dy  Dy2  1  0.000000  0.814779  0.000000  1
  Dy  Dy3  1  0.185229  0.185235  0.000000  1
  Dy  Dy4  1  0.814771  0.000006  0.000000  1
  Ho  Ho5  1  0.000000  0.446387  0.500000  1
  Er  Er6  1  0.553621  0.553623  0.500000  1
  Er  Er7  1  0.446379  0.000002  0.500000  1
  P  P8  1  0.000000  0.653024  0.500000  1
  P  P9  1  0.347303  0.347242  0.500000  1
  P  P10  1  0.652697  0.999939  0.500000  1
  P  P11  1  0.516760  0.688371  0.000000  1
  P  P12  1  0.311690  0.828423  0.000000  1
  P  P13  1  0.171836  0.483300  0.000000  1
  P  P14  1  0.483240  0.171611  0.000000  1
  P  P15  1  0.688310  0.516733  0.000000  1
  P  P16  1  0.828164  0.311464  0.000000  1
  P  P17  1  0.000000  0.176652  0.500000  1
  P  P18  1  0.823337  0.823348  0.500000  1
  P  P19  1  0.176663  0.000011  0.500000  1
  Ir  Ir20  1  0.509469  0.865742  0.000000  1
  Ir  Ir21  1  0.134482  0.643988  0.000000  1
  Ir  Ir22  1  0.356369  0.490598  0.000000  1
  Ir  Ir23  1  0.490531  0.356272  0.000000  1
  Ir  Ir24  1  0.865518  0.509505  0.000000  1
  Ir  Ir25  1  0.643631  0.134227  0.000000  1
  Ir  Ir26  1  0.000000  0.274591  0.000000  1
  Ir  Ir27  1  0.725112  0.725120  0.000000  1
  Ir  Ir28  1  0.274888  0.000008  0.000000  1
  Ir  Ir29  1  0.630351  0.809109  0.500000  1
  Ir  Ir30  1  0.190923  0.821332  0.500000  1
  Ir  Ir31  1  0.178930  0.369566  0.500000  1
  Ir  Ir32  1  0.369649  0.178757  0.500000  1
  Ir  Ir33  1  0.809077  0.630408  0.500000  1
  Ir  Ir34  1  0.821070  0.190635  0.500000  1
  Ir  Ir35  1  0.000000  0.000001  0.500000  1
