# generated using pymatgen
data_Tb2MgInRh2
_symmetry_space_group_name_H-M   'P 1'
_cell_length_a   4.13857000
_cell_length_b   7.12647700
_cell_length_c   8.65207500
_cell_angle_alpha   90.00000000
_cell_angle_beta   90.00000000
_cell_angle_gamma   90.00000000
_symmetry_Int_Tables_number   1
_chemical_formula_structural   Tb2MgInRh2
_chemical_formula_sum   'Tb4 Mg2 In2 Rh4'
_cell_volume   255.17931574
_cell_formula_units_Z   2
loop_
 _symmetry_equiv_pos_site_id
 _symmetry_equiv_pos_as_xyz
  1  'x, y, z'
loop_
 _atom_site_type_symbol
 _atom_site_label
 _atom_site_symmetry_multiplicity
 _atom_site_fract_x
 _atom_site_fract_y
 _atom_site_fract_z
 _atom_site_occupancy
  Tb  Tb0  1  0.250000  0.039578  0.322622  1
  Tb  Tb1  1  0.250000  0.539578  0.177378  1
  Tb  Tb2  1  0.750000  0.962450  0.677415  1
  Tb  Tb3  1  0.750000  0.462450  0.822585  1
  Mg  Mg4  1  0.250000  0.137688  0.940342  1
  Mg  Mg5  1  0.250000  0.637688  0.559658  1
  In  In6  1  0.750000  0.863028  0.058809  1
  In  In7  1  0.750000  0.363028  0.441191  1
  Rh  Rh8  1  0.250000  0.247049  0.633503  1
  Rh  Rh9  1  0.250000  0.747049  0.866497  1
  Rh  Rh10  1  0.750000  0.750205  0.370084  1
  Rh  Rh11  1  0.750000  0.250205  0.129916  1
