# generated using pymatgen
data_Tb3Y5(InPt)2
_symmetry_space_group_name_H-M   'P 1'
_cell_length_a   9.74412517
_cell_length_b   9.76227175
_cell_length_c   9.76227222
_cell_angle_alpha   59.87705646
_cell_angle_beta   60.06147357
_cell_angle_gamma   60.06147467
_symmetry_Int_Tables_number   1
_chemical_formula_structural   Tb3Y5(InPt)2
_chemical_formula_sum   'Tb6 Y10 In4 Pt4'
_cell_volume   656.63901398
_cell_formula_units_Z   2
loop_
 _symmetry_equiv_pos_site_id
 _symmetry_equiv_pos_as_xyz
  1  'x, y, z'
loop_
 _atom_site_type_symbol
 _atom_site_label
 _atom_site_symmetry_multiplicity
 _atom_site_fract_x
 _atom_site_fract_y
 _atom_site_fract_z
 _atom_site_occupancy
  Tb  Tb0  1  0.351099  0.351204  0.351204  1
  Tb  Tb1  1  0.351204  0.351099  0.946492  1
  Tb  Tb2  1  0.351204  0.946492  0.351099  1
  Tb  Tb3  1  0.946492  0.351204  0.351204  1
  Tb  Tb4  1  0.809792  0.190208  0.190208  1
  Tb  Tb5  1  0.190208  0.809792  0.809792  1
  Y  Y6  1  0.191026  0.808974  0.191026  1
  Y  Y7  1  0.808974  0.191026  0.808974  1
  Y  Y8  1  0.191026  0.191026  0.808974  1
  Y  Y9  1  0.808974  0.808974  0.191026  1
  Y  Y10  1  0.937434  0.562566  0.562566  1
  Y  Y11  1  0.562566  0.937434  0.937434  1
  Y  Y12  1  0.561974  0.938026  0.561974  1
  Y  Y13  1  0.938026  0.561974  0.938026  1
  Y  Y14  1  0.561974  0.561974  0.938026  1
  Y  Y15  1  0.938026  0.938026  0.561974  1
  In  In16  1  0.583749  0.583478  0.583478  1
  In  In17  1  0.583478  0.583749  0.249296  1
  In  In18  1  0.583478  0.249296  0.583749  1
  In  In19  1  0.249296  0.583478  0.583478  1
  Pt  Pt20  1  0.142050  0.143426  0.143426  1
  Pt  Pt21  1  0.143426  0.142050  0.571097  1
  Pt  Pt22  1  0.143426  0.571097  0.142050  1
  Pt  Pt23  1  0.571097  0.143426  0.143426  1
