# generated using pymatgen
data_Zr24Ga3Se5
_symmetry_space_group_name_H-M   'P 1'
_cell_length_a   11.05488959
_cell_length_b   11.09470729
_cell_length_c   5.50515919
_cell_angle_alpha   89.84398954
_cell_angle_beta   89.73324478
_cell_angle_gamma   90.01589740
_symmetry_Int_Tables_number   1
_chemical_formula_structural   Zr24Ga3Se5
_chemical_formula_sum   'Zr24 Ga3 Se5'
_cell_volume   675.20213250
_cell_formula_units_Z   1
loop_
 _symmetry_equiv_pos_site_id
 _symmetry_equiv_pos_as_xyz
  1  'x, y, z'
loop_
 _atom_site_type_symbol
 _atom_site_label
 _atom_site_symmetry_multiplicity
 _atom_site_fract_x
 _atom_site_fract_y
 _atom_site_fract_z
 _atom_site_occupancy
  Zr  Zr0  1  0.916989  0.606133  0.542502  1
  Zr  Zr1  1  0.082657  0.394387  0.541321  1
  Zr  Zr2  1  0.894745  0.415847  0.031469  1
  Zr  Zr3  1  0.105049  0.581920  0.040560  1
  Zr  Zr4  1  0.582925  0.896467  0.961561  1
  Zr  Zr5  1  0.416568  0.103943  0.960822  1
  Zr  Zr6  1  0.605261  0.082846  0.465294  1
  Zr  Zr7  1  0.395508  0.916680  0.461637  1
  Zr  Zr8  1  0.857970  0.973834  0.715163  1
  Zr  Zr9  1  0.140302  0.026290  0.716922  1
  Zr  Zr10  1  0.529406  0.359889  0.213038  1
  Zr  Zr11  1  0.476508  0.641178  0.217972  1
  Zr  Zr12  1  0.638649  0.524501  0.784494  1
  Zr  Zr13  1  0.360442  0.474302  0.782599  1
  Zr  Zr14  1  0.972642  0.140332  0.281640  1
  Zr  Zr15  1  0.024417  0.860268  0.283252  1
  Zr  Zr16  1  0.814934  0.715766  0.010994  1
  Zr  Zr17  1  0.183336  0.285246  0.006600  1
  Zr  Zr18  1  0.784928  0.319435  0.512825  1
  Zr  Zr19  1  0.214848  0.682896  0.507045  1
  Zr  Zr20  1  0.682433  0.785533  0.491629  1
  Zr  Zr21  1  0.318429  0.214744  0.489391  1
  Zr  Zr22  1  0.713834  0.181300  0.988652  1
  Zr  Zr23  1  0.285030  0.818058  0.990896  1
  Ga  Ga24  1  0.298022  0.460179  0.288572  1
  Ga  Ga25  1  0.959712  0.203087  0.788001  1
  Ga  Ga26  1  0.039482  0.796332  0.791445  1
  Se  Se27  1  0.792553  0.960864  0.210237  1
  Se  Se28  1  0.206214  0.039861  0.211723  1
  Se  Se29  1  0.537879  0.292086  0.710445  1
  Se  Se30  1  0.460319  0.707027  0.711812  1
  Se  Se31  1  0.708009  0.538770  0.289487  1
