# generated using pymatgen
data_K2Zn(PPd2)3
_symmetry_space_group_name_H-M   'P 1'
_cell_length_a   6.97823674
_cell_length_b   6.98009889
_cell_length_c   6.97823670
_cell_angle_alpha   128.74881871
_cell_angle_beta   120.13697780
_cell_angle_gamma   82.63964609
_symmetry_Int_Tables_number   1
_chemical_formula_structural   K2Zn(PPd2)3
_chemical_formula_sum   'K2 Zn1 P3 Pd6'
_cell_volume   220.35236397
_cell_formula_units_Z   1
loop_
 _symmetry_equiv_pos_site_id
 _symmetry_equiv_pos_as_xyz
  1  'x, y, z'
loop_
 _atom_site_type_symbol
 _atom_site_label
 _atom_site_symmetry_multiplicity
 _atom_site_fract_x
 _atom_site_fract_y
 _atom_site_fract_z
 _atom_site_occupancy
  K  K0  1  0.006206  0.999202  0.992996  1
  K  K1  1  0.498682  0.009833  0.511151  1
  Zn  Zn2  1  0.341903  0.372235  0.030332  1
  P  P3  1  0.825154  0.300771  0.475618  1
  P  P4  1  0.629131  0.647838  0.018708  1
  P  P5  1  0.195623  0.656054  0.460431  1
  Pd  Pd6  1  0.949642  0.501274  0.959656  1
  Pd  Pd7  1  0.541618  0.501274  0.551633  1
  Pd  Pd8  1  0.002489  0.999168  0.498792  1
  Pd  Pd9  1  0.800375  0.499091  0.290292  1
  Pd  Pd10  1  0.208799  0.499091  0.698715  1
  Pd  Pd11  1  0.500378  0.999168  0.996679  1
