# generated using pymatgen
data_Tb7Th3(TcSb2)2
_symmetry_space_group_name_H-M   'P 1'
_cell_length_a   8.13744500
_cell_length_b   8.80276873
_cell_length_c   12.42607797
_cell_angle_alpha   89.87392965
_cell_angle_beta   90.00000000
_cell_angle_gamma   90.00000000
_symmetry_Int_Tables_number   1
_chemical_formula_structural   Tb7Th3(TcSb2)2
_chemical_formula_sum   'Tb14 Th6 Tc4 Sb8'
_cell_volume   890.10323903
_cell_formula_units_Z   2
loop_
 _symmetry_equiv_pos_site_id
 _symmetry_equiv_pos_as_xyz
  1  'x, y, z'
loop_
 _atom_site_type_symbol
 _atom_site_label
 _atom_site_symmetry_multiplicity
 _atom_site_fract_x
 _atom_site_fract_y
 _atom_site_fract_z
 _atom_site_occupancy
  Tb  Tb0  1  0.164658  0.748577  0.211715  1
  Tb  Tb1  1  0.664658  0.251423  0.288285  1
  Tb  Tb2  1  0.833664  0.249752  0.787822  1
  Tb  Tb3  1  0.333664  0.750248  0.712178  1
  Tb  Tb4  1  0.457775  0.751187  0.999593  1
  Tb  Tb5  1  0.957775  0.248813  0.500407  1
  Tb  Tb6  1  0.544304  0.250842  0.000348  1
  Tb  Tb7  1  0.044304  0.749158  0.499652  1
  Tb  Tb8  1  0.627193  0.751507  0.296555  1
  Tb  Tb9  1  0.127193  0.248493  0.203445  1
  Tb  Tb10  1  0.369549  0.251962  0.703245  1
  Tb  Tb11  1  0.869549  0.748038  0.796755  1
  Tb  Tb12  1  0.820120  0.543634  0.067993  1
  Tb  Tb13  1  0.320120  0.456366  0.432007  1
  Th  Th14  1  0.821325  0.960877  0.064719  1
  Th  Th15  1  0.321325  0.039123  0.435281  1
  Th  Th16  1  0.177021  0.461454  0.937408  1
  Th  Th17  1  0.677021  0.538546  0.562592  1
  Th  Th18  1  0.181377  0.039346  0.934614  1
  Th  Th19  1  0.681377  0.960654  0.565386  1
  Tc  Tc20  1  0.422043  0.764343  0.484133  1
  Tc  Tc21  1  0.922043  0.235657  0.015867  1
  Tc  Tc22  1  0.582473  0.245335  0.518655  1
  Tc  Tc23  1  0.082473  0.754665  0.981345  1
  Sb  Sb24  1  0.926890  0.988859  0.327341  1
  Sb  Sb25  1  0.426890  0.011141  0.172659  1
  Sb  Sb26  1  0.070803  0.490010  0.672237  1
  Sb  Sb27  1  0.570803  0.509990  0.827763  1
  Sb  Sb28  1  0.071808  0.010068  0.673036  1
  Sb  Sb29  1  0.571808  0.989932  0.826964  1
  Sb  Sb30  1  0.928998  0.509242  0.327354  1
  Sb  Sb31  1  0.428998  0.490758  0.172646  1
