# generated using pymatgen
data_Pa2CrReC3
_symmetry_space_group_name_H-M   'P 1'
_cell_length_a   6.14879924
_cell_length_b   6.14879889
_cell_length_c   5.52352414
_cell_angle_alpha   66.34017680
_cell_angle_beta   66.34017730
_cell_angle_gamma   30.22462646
_symmetry_Int_Tables_number   1
_chemical_formula_structural   Pa2CrReC3
_chemical_formula_sum   'Pa2 Cr1 Re1 C3'
_cell_volume   95.61153262
_cell_formula_units_Z   1
loop_
 _symmetry_equiv_pos_site_id
 _symmetry_equiv_pos_as_xyz
  1  'x, y, z'
loop_
 _atom_site_type_symbol
 _atom_site_label
 _atom_site_symmetry_multiplicity
 _atom_site_fract_x
 _atom_site_fract_y
 _atom_site_fract_z
 _atom_site_occupancy
  Pa  Pa0  1  0.599536  0.599536  0.203160  1
  Pa  Pa1  1  0.399599  0.399599  0.801670  1
  Cr  Cr2  1  0.840492  0.840492  0.328974  1
  Re  Re3  1  0.157407  0.157407  0.665492  1
  C  C4  1  0.751658  0.751658  0.741467  1
  C  C5  1  0.255300  0.255300  0.249278  1
  C  C6  1  0.996009  0.996009  0.009959  1
