# generated using pymatgen
data_Ac4Ge3
_symmetry_space_group_name_H-M   'P 1'
_cell_length_a   8.46629350
_cell_length_b   8.46629379
_cell_length_c   8.46629400
_cell_angle_alpha   109.47122114
_cell_angle_beta   109.47122183
_cell_angle_gamma   109.47121874
_symmetry_Int_Tables_number   1
_chemical_formula_structural   Ac4Ge3
_chemical_formula_sum   'Ac8 Ge6'
_cell_volume   467.15189061
_cell_formula_units_Z   2
loop_
 _symmetry_equiv_pos_site_id
 _symmetry_equiv_pos_as_xyz
  1  'x, y, z'
loop_
 _atom_site_type_symbol
 _atom_site_label
 _atom_site_symmetry_multiplicity
 _atom_site_fract_x
 _atom_site_fract_y
 _atom_site_fract_z
 _atom_site_occupancy
  Ac  Ac0  1  0.130638  0.500000  0.000000  1
  Ac  Ac1  1  0.630638  0.500000  0.000000  1
  Ac  Ac2  1  0.500000  0.000000  0.630638  1
  Ac  Ac3  1  0.369362  0.369362  0.369362  1
  Ac  Ac4  1  0.500000  0.000000  0.130638  1
  Ac  Ac5  1  0.000000  0.630638  0.500000  1
  Ac  Ac6  1  0.869362  0.869362  0.869362  1
  Ac  Ac7  1  0.000000  0.130638  0.500000  1
  Ge  Ge8  1  0.375000  0.625000  0.750000  1
  Ge  Ge9  1  0.875000  0.250000  0.125000  1
  Ge  Ge10  1  0.625000  0.750000  0.375000  1
  Ge  Ge11  1  0.125000  0.875000  0.250000  1
  Ge  Ge12  1  0.250000  0.125000  0.875000  1
  Ge  Ge13  1  0.750000  0.375000  0.625000  1
