# generated using pymatgen
data_Ho3Al12Ru3Au
_symmetry_space_group_name_H-M   'P 1'
_cell_length_a   8.87442147
_cell_length_b   8.82439677
_cell_length_c   9.56628177
_cell_angle_alpha   89.99999657
_cell_angle_beta   89.95974456
_cell_angle_gamma   119.81369864
_symmetry_Int_Tables_number   1
_chemical_formula_structural   Ho3Al12Ru3Au
_chemical_formula_sum   'Ho6 Al24 Ru6 Au2'
_cell_volume   649.99643934
_cell_formula_units_Z   2
loop_
 _symmetry_equiv_pos_site_id
 _symmetry_equiv_pos_as_xyz
  1  'x, y, z'
loop_
 _atom_site_type_symbol
 _atom_site_label
 _atom_site_symmetry_multiplicity
 _atom_site_fract_x
 _atom_site_fract_y
 _atom_site_fract_z
 _atom_site_occupancy
  Ho  Ho0  1  0.191086  0.387164  0.253877  1
  Ho  Ho1  1  0.808914  0.612836  0.746123  1
  Ho  Ho2  1  0.614063  0.807032  0.249461  1
  Ho  Ho3  1  0.385937  0.192968  0.750539  1
  Ho  Ho4  1  0.191086  0.803923  0.253877  1
  Ho  Ho5  1  0.808914  0.196077  0.746123  1
  Al  Al6  1  0.321234  0.660617  0.029512  1
  Al  Al7  1  0.678766  0.339383  0.970488  1
  Al  Al8  1  0.666373  0.333186  0.525168  1
  Al  Al9  1  0.333627  0.666814  0.474832  1
  Al  Al10  1  0.163909  0.326956  0.575937  1
  Al  Al11  1  0.836091  0.673044  0.424063  1
  Al  Al12  1  0.674098  0.837049  0.572858  1
  Al  Al13  1  0.848085  0.676942  0.081258  1
  Al  Al14  1  0.325902  0.162951  0.427142  1
  Al  Al15  1  0.151915  0.323058  0.918742  1
  Al  Al16  1  0.163909  0.836954  0.575937  1
  Al  Al17  1  0.317790  0.158894  0.084235  1
  Al  Al18  1  0.836091  0.163046  0.424063  1
  Al  Al19  1  0.682210  0.841106  0.915765  1
  Al  Al20  1  0.848085  0.171142  0.081258  1
  Al  Al21  1  0.151915  0.828858  0.918742  1
  Al  Al22  1  0.563906  0.127284  0.256872  1
  Al  Al23  1  0.436094  0.872716  0.743128  1
  Al  Al24  1  0.878191  0.439096  0.249621  1
  Al  Al25  1  0.121809  0.560904  0.750379  1
  Al  Al26  1  0.563906  0.436622  0.256872  1
  Al  Al27  1  0.436094  0.563378  0.743128  1
  Al  Al28  1  0.996911  0.998455  0.250918  1
  Al  Al29  1  0.003089  0.001545  0.749082  1
  Ru  Ru30  1  0.000000  0.500000  0.000000  1
  Ru  Ru31  1  0.500000  0.000000  0.500000  1
  Ru  Ru32  1  0.000000  0.500000  0.500000  1
  Ru  Ru33  1  0.500000  0.500000  0.500000  1
  Ru  Ru34  1  0.000000  0.000000  0.000000  1
  Ru  Ru35  1  0.000000  0.000000  0.500000  1
  Au  Au36  1  0.500000  0.000000  0.000000  1
  Au  Au37  1  0.500000  0.500000  0.000000  1
