# generated using pymatgen
data_Li3Dy3SiAgP
_symmetry_space_group_name_H-M   'P 1'
_cell_length_a   7.08409900
_cell_length_b   7.08409765
_cell_length_c   4.14675000
_cell_angle_alpha   90.00000000
_cell_angle_beta   90.00000000
_cell_angle_gamma   119.99999231
_symmetry_Int_Tables_number   1
_chemical_formula_structural   Li3Dy3SiAgP
_chemical_formula_sum   'Li3 Dy3 Si1 Ag1 P1'
_cell_volume   180.22194787
_cell_formula_units_Z   1
loop_
 _symmetry_equiv_pos_site_id
 _symmetry_equiv_pos_as_xyz
  1  'x, y, z'
loop_
 _atom_site_type_symbol
 _atom_site_label
 _atom_site_symmetry_multiplicity
 _atom_site_fract_x
 _atom_site_fract_y
 _atom_site_fract_z
 _atom_site_occupancy
  Li  Li0  1  0.247450  0.998191  0.500000  1
  Li  Li1  1  0.750741  0.752550  0.500000  1
  Li  Li2  1  0.001809  0.249259  0.500000  1
  Dy  Dy3  1  0.999994  0.573723  0.000000  1
  Dy  Dy4  1  0.573729  0.000006  0.000000  1
  Dy  Dy5  1  0.426277  0.426271  0.000000  1
  Si  Si6  1  0.666667  0.333333  0.500000  1
  Ag  Ag7  1  0.000000  0.000000  0.000000  1
  P  P8  1  0.333333  0.666667  0.500000  1
