# generated using pymatgen
data_SmHoCd2(Ga3Ni)2
_symmetry_space_group_name_H-M   'P 1'
_cell_length_a   4.21176531
_cell_length_b   6.56422900
_cell_length_c   8.15273218
_cell_angle_alpha   90.00000000
_cell_angle_beta   104.96945316
_cell_angle_gamma   90.00000000
_symmetry_Int_Tables_number   1
_chemical_formula_structural   SmHoCd2(Ga3Ni)2
_chemical_formula_sum   'Sm1 Ho1 Cd2 Ga6 Ni2'
_cell_volume   217.74932403
_cell_formula_units_Z   1
loop_
 _symmetry_equiv_pos_site_id
 _symmetry_equiv_pos_as_xyz
  1  'x, y, z'
loop_
 _atom_site_type_symbol
 _atom_site_label
 _atom_site_symmetry_multiplicity
 _atom_site_fract_x
 _atom_site_fract_y
 _atom_site_fract_z
 _atom_site_occupancy
  Sm  Sm0  1  0.126342  0.250000  0.252684  1
  Ho  Ho1  1  0.872733  0.750000  0.745465  1
  Cd  Cd2  1  0.498770  0.502560  0.997541  1
  Cd  Cd3  1  0.498770  0.997440  0.997541  1
  Ga  Ga4  1  0.072035  0.750000  0.144071  1
  Ga  Ga5  1  0.927758  0.250000  0.855513  1
  Ga  Ga6  1  0.688343  0.551725  0.376685  1
  Ga  Ga7  1  0.313067  0.450147  0.626134  1
  Ga  Ga8  1  0.688343  0.948275  0.376685  1
  Ga  Ga9  1  0.313067  0.049853  0.626134  1
  Ni  Ni10  1  0.222343  0.750000  0.444686  1
  Ni  Ni11  1  0.778430  0.250000  0.556861  1
