# generated using pymatgen
data_Y2ZnCoRu
_symmetry_space_group_name_H-M   'P 1'
_cell_length_a   4.18143705
_cell_length_b   5.60557502
_cell_length_c   5.41180030
_cell_angle_alpha   121.19169718
_cell_angle_beta   112.72608601
_cell_angle_gamma   89.99998616
_symmetry_Int_Tables_number   1
_chemical_formula_structural   Y2ZnCoRu
_chemical_formula_sum   'Y2 Zn1 Co1 Ru1'
_cell_volume   96.81578478
_cell_formula_units_Z   1
loop_
 _symmetry_equiv_pos_site_id
 _symmetry_equiv_pos_as_xyz
  1  'x, y, z'
loop_
 _atom_site_type_symbol
 _atom_site_label
 _atom_site_symmetry_multiplicity
 _atom_site_fract_x
 _atom_site_fract_y
 _atom_site_fract_z
 _atom_site_occupancy
  Y  Y0  1  0.791703  0.285770  0.583408  1
  Y  Y1  1  0.208297  0.702363  0.416592  1
  Zn  Zn2  1  0.000000  0.991964  0.000000  1
  Co  Co3  1  0.500000  0.725528  0.000000  1
  Ru  Ru4  1  0.500000  0.294375  0.000000  1
