# generated using pymatgen
data_Yb3Ag(BPt3)2
_symmetry_space_group_name_H-M   'P 1'
_cell_length_a   8.24105283
_cell_length_b   8.24105210
_cell_length_c   8.24105182
_cell_angle_alpha   39.30335734
_cell_angle_beta   39.30336427
_cell_angle_gamma   39.30335483
_symmetry_Int_Tables_number   1
_chemical_formula_structural   Yb3Ag(BPt3)2
_chemical_formula_sum   'Yb3 Ag1 B2 Pt6'
_cell_volume   202.06953346
_cell_formula_units_Z   1
loop_
 _symmetry_equiv_pos_site_id
 _symmetry_equiv_pos_as_xyz
  1  'x, y, z'
loop_
 _atom_site_type_symbol
 _atom_site_label
 _atom_site_symmetry_multiplicity
 _atom_site_fract_x
 _atom_site_fract_y
 _atom_site_fract_z
 _atom_site_occupancy
  Yb  Yb0  1  0.358023  0.358023  0.358023  1
  Yb  Yb1  1  0.500000  0.500000  0.500000  1
  Yb  Yb2  1  0.641977  0.641977  0.641977  1
  Ag  Ag3  1  0.000000  0.000000  0.000000  1
  B  B4  1  0.167084  0.167084  0.167084  1
  B  B5  1  0.832916  0.832916  0.832916  1
  Pt  Pt6  1  0.564345  0.066872  0.066872  1
  Pt  Pt7  1  0.066872  0.564345  0.066872  1
  Pt  Pt8  1  0.933128  0.933128  0.435655  1
  Pt  Pt9  1  0.066872  0.066872  0.564345  1
  Pt  Pt10  1  0.933128  0.435655  0.933128  1
  Pt  Pt11  1  0.435655  0.933128  0.933128  1
