# generated using pymatgen
data_Ho3Tm5Re2(B12Rh)2
_symmetry_space_group_name_H-M   'P 1'
_cell_length_a   3.64983900
_cell_length_b   9.09728532
_cell_length_c   11.48979802
_cell_angle_alpha   90.40788183
_cell_angle_beta   90.00000000
_cell_angle_gamma   90.00000000
_symmetry_Int_Tables_number   1
_chemical_formula_structural   Ho3Tm5Re2(B12Rh)2
_chemical_formula_sum   'Ho3 Tm5 Re2 B24 Rh2'
_cell_volume   381.49329801
_cell_formula_units_Z   1
loop_
 _symmetry_equiv_pos_site_id
 _symmetry_equiv_pos_as_xyz
  1  'x, y, z'
loop_
 _atom_site_type_symbol
 _atom_site_label
 _atom_site_symmetry_multiplicity
 _atom_site_fract_x
 _atom_site_fract_y
 _atom_site_fract_z
 _atom_site_occupancy
  Ho  Ho0  1  0.500000  0.318164  0.410891  1
  Ho  Ho1  1  0.500000  0.681825  0.589079  1
  Ho  Ho2  1  0.500000  0.174160  0.917232  1
  Tm  Tm3  1  0.500000  0.825978  0.082500  1
  Tm  Tm4  1  0.500000  0.442657  0.126566  1
  Tm  Tm5  1  0.500000  0.557541  0.873602  1
  Tm  Tm6  1  0.500000  0.054441  0.628043  1
  Tm  Tm7  1  0.500000  0.945422  0.371939  1
  Re  Re8  1  0.500000  0.138782  0.179709  1
  Re  Re9  1  0.500000  0.860848  0.820390  1
  B  B10  1  0.000000  0.106177  0.471415  1
  B  B11  1  0.000000  0.893786  0.528562  1
  B  B12  1  0.000000  0.394954  0.970929  1
  B  B13  1  0.000000  0.605636  0.029249  1
  B  B14  1  0.000000  0.131526  0.315170  1
  B  B15  1  0.000000  0.868339  0.684812  1
  B  B16  1  0.000000  0.367844  0.816842  1
  B  B17  1  0.000000  0.632612  0.182933  1
  B  B18  1  0.000000  0.052747  0.067407  1
  B  B19  1  0.000000  0.946705  0.932873  1
  B  B20  1  0.000000  0.445500  0.565830  1
  B  B21  1  0.000000  0.554539  0.434119  1
  B  B22  1  0.000000  0.483475  0.287401  1
  B  B23  1  0.000000  0.516655  0.712599  1
  B  B24  1  0.000000  0.017314  0.786708  1
  B  B25  1  0.000000  0.982148  0.213194  1
  B  B26  1  0.000000  0.249076  0.081264  1
  B  B27  1  0.000000  0.750889  0.919206  1
  B  B28  1  0.000000  0.250293  0.578726  1
  B  B29  1  0.000000  0.749659  0.421208  1
  B  B30  1  0.000000  0.293363  0.234765  1
  B  B31  1  0.000000  0.706601  0.765333  1
  B  B32  1  0.000000  0.208292  0.734799  1
  B  B33  1  0.000000  0.791876  0.264867  1
  Rh  Rh34  1  0.500000  0.361700  0.679136  1
  Rh  Rh35  1  0.500000  0.638473  0.320699  1
