# generated using pymatgen
data_NaH5F6
_symmetry_space_group_name_H-M   'P 1'
_cell_length_a   3.51159965
_cell_length_b   6.31876995
_cell_length_c   7.86286721
_cell_angle_alpha   116.37393880
_cell_angle_beta   99.12023494
_cell_angle_gamma   104.99405868
_symmetry_Int_Tables_number   1
_chemical_formula_structural   NaH5F6
_chemical_formula_sum   'Na1 H5 F6'
_cell_volume   143.25255643
_cell_formula_units_Z   1
loop_
 _symmetry_equiv_pos_site_id
 _symmetry_equiv_pos_as_xyz
  1  'x, y, z'
loop_
 _atom_site_type_symbol
 _atom_site_label
 _atom_site_symmetry_multiplicity
 _atom_site_fract_x
 _atom_site_fract_y
 _atom_site_fract_z
 _atom_site_occupancy
  Na  Na0  1  0.717967  0.827465  0.318990  1
  H  H1  1  0.605123  0.259288  0.610028  1
  H  H2  1  0.673279  0.338529  0.279378  1
  H  H3  1  0.972185  0.549384  0.953865  1
  H  H4  1  0.571409  0.994249  0.994190  1
  H  H5  1  0.153353  0.689273  0.760244  1
  F  F6  1  0.402981  0.084660  0.501432  1
  F  F7  1  0.364874  0.859507  0.791874  1
  F  F8  1  0.715295  0.081493  0.143482  1
  F  F9  1  0.908664  0.487130  0.760059  1
  F  F10  1  0.647634  0.494311  0.372766  1
  F  F11  1  0.035530  0.609050  0.101584  1
