# generated using pymatgen
data_Ho19Er(Bi2Os)4
_symmetry_space_group_name_H-M   'P 1'
_cell_length_a   7.93283104
_cell_length_b   9.02474305
_cell_length_c   12.47250704
_cell_angle_alpha   89.99281911
_cell_angle_beta   90.00570078
_cell_angle_gamma   89.99085082
_symmetry_Int_Tables_number   1
_chemical_formula_structural   Ho19Er(Bi2Os)4
_chemical_formula_sum   'Ho19 Er1 Bi8 Os4'
_cell_volume   892.92872927
_cell_formula_units_Z   1
loop_
 _symmetry_equiv_pos_site_id
 _symmetry_equiv_pos_as_xyz
  1  'x, y, z'
loop_
 _atom_site_type_symbol
 _atom_site_label
 _atom_site_symmetry_multiplicity
 _atom_site_fract_x
 _atom_site_fract_y
 _atom_site_fract_z
 _atom_site_occupancy
  Ho  Ho0  1  0.839457  0.750026  0.791984  1
  Ho  Ho1  1  0.160512  0.249983  0.207965  1
  Ho  Ho2  1  0.339572  0.249946  0.707941  1
  Ho  Ho3  1  0.660522  0.750014  0.292045  1
  Ho  Ho4  1  0.375225  0.750062  0.690438  1
  Ho  Ho5  1  0.624914  0.249906  0.309608  1
  Ho  Ho6  1  0.875131  0.249976  0.809536  1
  Ho  Ho7  1  0.124904  0.750019  0.190483  1
  Ho  Ho8  1  0.943284  0.750104  0.504434  1
  Ho  Ho9  1  0.056559  0.249939  0.495598  1
  Ho  Ho10  1  0.443354  0.249989  0.995598  1
  Ho  Ho11  1  0.556648  0.750003  0.004382  1
  Ho  Ho12  1  0.326534  0.958589  0.435355  1
  Ho  Ho13  1  0.173625  0.958551  0.935293  1
  Ho  Ho14  1  0.326314  0.541442  0.435277  1
  Ho  Ho15  1  0.826376  0.041488  0.064697  1
  Ho  Ho16  1  0.673611  0.458493  0.564706  1
  Ho  Ho17  1  0.826366  0.458514  0.064693  1
  Ho  Ho18  1  0.173628  0.541438  0.935300  1
  Er  Er19  1  0.673106  0.041527  0.564638  1
  Bi  Bi20  1  0.566257  0.493295  0.827456  1
  Bi  Bi21  1  0.433746  0.506701  0.172552  1
  Bi  Bi22  1  0.066275  0.506701  0.672544  1
  Bi  Bi23  1  0.433740  0.993293  0.172547  1
  Bi  Bi24  1  0.933728  0.493285  0.327465  1
  Bi  Bi25  1  0.566300  0.006705  0.827412  1
  Bi  Bi26  1  0.933765  0.006700  0.327466  1
  Bi  Bi27  1  0.066102  0.993320  0.672480  1
  Os  Os28  1  0.575405  0.750190  0.509584  1
  Os  Os29  1  0.425073  0.249797  0.490507  1
  Os  Os30  1  0.075257  0.250014  0.990441  1
  Os  Os31  1  0.924714  0.749989  0.009574  1
