# generated using pymatgen
data_SmY3(WN3)4
_symmetry_space_group_name_H-M   'P 1'
_cell_length_a   7.39549327
_cell_length_b   7.39549311
_cell_length_c   6.32040401
_cell_angle_alpha   73.79413024
_cell_angle_beta   73.79413222
_cell_angle_gamma   82.17548406
_symmetry_Int_Tables_number   1
_chemical_formula_structural   SmY3(WN3)4
_chemical_formula_sum   'Sm1 Y3 W4 N12'
_cell_volume   318.12163110
_cell_formula_units_Z   1
loop_
 _symmetry_equiv_pos_site_id
 _symmetry_equiv_pos_as_xyz
  1  'x, y, z'
loop_
 _atom_site_type_symbol
 _atom_site_label
 _atom_site_symmetry_multiplicity
 _atom_site_fract_x
 _atom_site_fract_y
 _atom_site_fract_z
 _atom_site_occupancy
  Sm  Sm0  1  0.708604  0.291396  0.750000  1
  Y  Y1  1  0.091561  0.908439  0.750000  1
  Y  Y2  1  0.289457  0.710543  0.250000  1
  Y  Y3  1  0.910898  0.089102  0.250000  1
  W  W4  1  0.378408  0.201213  0.230403  1
  W  W5  1  0.620133  0.798495  0.771792  1
  W  W6  1  0.798787  0.621592  0.269597  1
  W  W7  1  0.201505  0.379867  0.728208  1
  N  N8  1  0.621903  0.113936  0.165400  1
  N  N9  1  0.345364  0.365021  0.433323  1
  N  N10  1  0.005191  0.216284  0.847119  1
  N  N11  1  0.376762  0.886573  0.840089  1
  N  N12  1  0.783716  0.994809  0.652881  1
  N  N13  1  0.113427  0.623238  0.659911  1
  N  N14  1  0.886064  0.378097  0.334600  1
  N  N15  1  0.654857  0.638911  0.563621  1
  N  N16  1  0.634979  0.654636  0.066677  1
  N  N17  1  0.361089  0.345143  0.936379  1
  N  N18  1  0.998722  0.781431  0.153098  1
  N  N19  1  0.218569  0.001278  0.346902  1
