# generated using pymatgen
data_Sb12Ir2OsPt
_symmetry_space_group_name_H-M   'P 1'
_cell_length_a   8.15752112
_cell_length_b   8.14512850
_cell_length_c   8.16290419
_cell_angle_alpha   109.44811527
_cell_angle_beta   109.49710063
_cell_angle_gamma   109.39219063
_symmetry_Int_Tables_number   1
_chemical_formula_structural   Sb12Ir2OsPt
_chemical_formula_sum   'Sb12 Ir2 Os1 Pt1'
_cell_volume   417.91380856
_cell_formula_units_Z   1
loop_
 _symmetry_equiv_pos_site_id
 _symmetry_equiv_pos_as_xyz
  1  'x, y, z'
loop_
 _atom_site_type_symbol
 _atom_site_label
 _atom_site_symmetry_multiplicity
 _atom_site_fract_x
 _atom_site_fract_y
 _atom_site_fract_z
 _atom_site_occupancy
  Sb  Sb0  1  0.845295  0.659894  0.505705  1
  Sb  Sb1  1  0.850516  0.344720  0.187494  1
  Sb  Sb2  1  0.149484  0.655280  0.812506  1
  Sb  Sb3  1  0.335747  0.492268  0.153940  1
  Sb  Sb4  1  0.154705  0.340106  0.494295  1
  Sb  Sb5  1  0.659417  0.809320  0.155563  1
  Sb  Sb6  1  0.181789  0.843602  0.335633  1
  Sb  Sb7  1  0.664253  0.507732  0.846060  1
  Sb  Sb8  1  0.818211  0.156398  0.664367  1
  Sb  Sb9  1  0.340583  0.190680  0.844437  1
  Sb  Sb10  1  0.504027  0.845100  0.654280  1
  Sb  Sb11  1  0.495973  0.154900  0.345720  1
  Ir  Ir12  1  0.000000  0.000000  0.500000  1
  Ir  Ir13  1  0.500000  0.500000  0.500000  1
  Os  Os14  1  0.000000  0.500000  0.000000  1
  Pt  Pt15  1  0.500000  0.000000  0.000000  1
