# generated using pymatgen
data_PrY3Np2O12
_symmetry_space_group_name_H-M   'P 1'
_cell_length_a   5.61824200
_cell_length_b   7.94212082
_cell_length_c   11.94581443
_cell_angle_alpha   73.93306414
_cell_angle_beta   90.00000000
_cell_angle_gamma   90.00000000
_symmetry_Int_Tables_number   1
_chemical_formula_structural   PrY3Np2O12
_chemical_formula_sum   'Pr2 Y6 Np4 O24'
_cell_volume   512.21055931
_cell_formula_units_Z   2
loop_
 _symmetry_equiv_pos_site_id
 _symmetry_equiv_pos_as_xyz
  1  'x, y, z'
loop_
 _atom_site_type_symbol
 _atom_site_label
 _atom_site_symmetry_multiplicity
 _atom_site_fract_x
 _atom_site_fract_y
 _atom_site_fract_z
 _atom_site_occupancy
  Pr  Pr0  1  0.308607  0.500000  0.750000  1
  Pr  Pr1  1  0.691393  0.500000  0.250000  1
  Y  Y2  1  0.186420  0.795354  0.077987  1
  Y  Y3  1  0.254443  0.000000  0.750000  1
  Y  Y4  1  0.745557  0.000000  0.250000  1
  Y  Y5  1  0.186420  0.204646  0.422013  1
  Y  Y6  1  0.813580  0.204646  0.922013  1
  Y  Y7  1  0.813580  0.795354  0.577987  1
  Np  Np8  1  0.745737  0.728275  0.884446  1
  Np  Np9  1  0.254263  0.728275  0.384446  1
  Np  Np10  1  0.745737  0.271725  0.615554  1
  Np  Np11  1  0.254263  0.271725  0.115554  1
  O  O12  1  0.872048  0.362630  0.449498  1
  O  O13  1  0.446975  0.847173  0.931246  1
  O  O14  1  0.872048  0.637370  0.050502  1
  O  O15  1  0.030066  0.280799  0.731376  1
  O  O16  1  0.969934  0.280799  0.231376  1
  O  O17  1  0.127952  0.362630  0.949498  1
  O  O18  1  0.629959  0.485997  0.885458  1
  O  O19  1  0.553025  0.152827  0.068754  1
  O  O20  1  0.127952  0.637370  0.550502  1
  O  O21  1  0.030066  0.719201  0.768624  1
  O  O22  1  0.449247  0.197269  0.274686  1
  O  O23  1  0.042354  0.948643  0.395195  1
  O  O24  1  0.446975  0.152827  0.568754  1
  O  O25  1  0.969934  0.719201  0.268624  1
  O  O26  1  0.957646  0.051357  0.604805  1
  O  O27  1  0.550753  0.197269  0.774686  1
  O  O28  1  0.550753  0.802731  0.725314  1
  O  O29  1  0.042354  0.051357  0.104805  1
  O  O30  1  0.629959  0.514003  0.614542  1
  O  O31  1  0.370041  0.514003  0.114542  1
  O  O32  1  0.449247  0.802731  0.225314  1
  O  O33  1  0.370041  0.485997  0.385458  1
  O  O34  1  0.553025  0.847173  0.431246  1
  O  O35  1  0.957646  0.948643  0.895195  1
