# generated using pymatgen
data_Na4HoP12Ir19
_symmetry_space_group_name_H-M   'P 1'
_cell_length_a   12.61571500
_cell_length_b   12.61571603
_cell_length_c   3.97691700
_cell_angle_alpha   90.00000000
_cell_angle_beta   90.00000000
_cell_angle_gamma   120.00000517
_symmetry_Int_Tables_number   1
_chemical_formula_structural   Na4HoP12Ir19
_chemical_formula_sum   'Na4 Ho1 P12 Ir19'
_cell_volume   548.15188307
_cell_formula_units_Z   1
loop_
 _symmetry_equiv_pos_site_id
 _symmetry_equiv_pos_as_xyz
  1  'x, y, z'
loop_
 _atom_site_type_symbol
 _atom_site_label
 _atom_site_symmetry_multiplicity
 _atom_site_fract_x
 _atom_site_fract_y
 _atom_site_fract_z
 _atom_site_occupancy
  Na  Na0  1  0.000338  0.822031  0.500000  1
  Na  Na1  1  0.177969  0.178307  0.500000  1
  Na  Na2  1  0.821693  0.999662  0.500000  1
  Na  Na3  1  0.666667  0.333333  0.000000  1
  Ho  Ho4  1  0.333333  0.666667  0.000000  1
  P  P5  1  0.998689  0.178175  0.000000  1
  P  P6  1  0.821825  0.820514  0.000000  1
  P  P7  1  0.179486  0.001311  0.000000  1
  P  P8  1  0.518953  0.691180  0.500000  1
  P  P9  1  0.308820  0.827773  0.500000  1
  P  P10  1  0.172227  0.481047  0.500000  1
  P  P11  1  0.486463  0.174898  0.500000  1
  P  P12  1  0.688436  0.513537  0.500000  1
  P  P13  1  0.825102  0.311564  0.500000  1
  P  P14  1  0.997642  0.640743  0.000000  1
  P  P15  1  0.359257  0.356899  0.000000  1
  P  P16  1  0.643101  0.002358  0.000000  1
  Ir  Ir17  1  0.998996  0.288685  0.500000  1
  Ir  Ir18  1  0.711315  0.710312  0.500000  1
  Ir  Ir19  1  0.289688  0.001004  0.500000  1
  Ir  Ir20  1  0.621310  0.804140  0.000000  1
  Ir  Ir21  1  0.195860  0.817170  0.000000  1
  Ir  Ir22  1  0.182830  0.378690  0.000000  1
  Ir  Ir23  1  0.379162  0.181284  0.000000  1
  Ir  Ir24  1  0.802123  0.620838  0.000000  1
  Ir  Ir25  1  0.818716  0.197877  0.000000  1
  Ir  Ir26  1  0.504308  0.867374  0.500000  1
  Ir  Ir27  1  0.132626  0.636933  0.500000  1
  Ir  Ir28  1  0.363067  0.495692  0.500000  1
  Ir  Ir29  1  0.489354  0.361010  0.500000  1
  Ir  Ir30  1  0.871656  0.510646  0.500000  1
  Ir  Ir31  1  0.638990  0.128344  0.500000  1
  Ir  Ir32  1  0.000000  0.000000  0.000000  1
  Ir  Ir33  1  0.000539  0.460193  0.000000  1
  Ir  Ir34  1  0.539807  0.540347  0.000000  1
  Ir  Ir35  1  0.459653  0.999461  0.000000  1
