# generated using pymatgen
data_Yb4MnO6
_symmetry_space_group_name_H-M   'P 1'
_cell_length_a   6.33593779
_cell_length_b   6.33593767
_cell_length_c   6.33593700
_cell_angle_alpha   90.13953337
_cell_angle_beta   90.13952433
_cell_angle_gamma   90.13953681
_symmetry_Int_Tables_number   1
_chemical_formula_structural   Yb4MnO6
_chemical_formula_sum   'Yb8 Mn2 O12'
_cell_volume   254.34826582
_cell_formula_units_Z   2
loop_
 _symmetry_equiv_pos_site_id
 _symmetry_equiv_pos_as_xyz
  1  'x, y, z'
loop_
 _atom_site_type_symbol
 _atom_site_label
 _atom_site_symmetry_multiplicity
 _atom_site_fract_x
 _atom_site_fract_y
 _atom_site_fract_z
 _atom_site_occupancy
  Yb  Yb0  1  0.881543  0.618457  0.250000  1
  Yb  Yb1  1  0.118457  0.381543  0.750000  1
  Yb  Yb2  1  0.250000  0.881543  0.618457  1
  Yb  Yb3  1  0.618457  0.250000  0.881543  1
  Yb  Yb4  1  0.750000  0.750000  0.750000  1
  Yb  Yb5  1  0.381543  0.750000  0.118457  1
  Yb  Yb6  1  0.250000  0.250000  0.250000  1
  Yb  Yb7  1  0.750000  0.118457  0.381543  1
  Mn  Mn8  1  0.000000  0.000000  0.000000  1
  Mn  Mn9  1  0.500000  0.500000  0.500000  1
  O  O10  1  0.442544  0.574011  0.790599  1
  O  O11  1  0.574011  0.790599  0.442544  1
  O  O12  1  0.942544  0.290599  0.074011  1
  O  O13  1  0.557456  0.425989  0.209401  1
  O  O14  1  0.209401  0.557456  0.425989  1
  O  O15  1  0.057456  0.709401  0.925989  1
  O  O16  1  0.790599  0.442544  0.574011  1
  O  O17  1  0.709401  0.925989  0.057456  1
  O  O18  1  0.074011  0.942544  0.290599  1
  O  O19  1  0.925989  0.057456  0.709401  1
  O  O20  1  0.425989  0.209401  0.557456  1
  O  O21  1  0.290599  0.074011  0.942544  1
