# generated using pymatgen
data_Tb3Er3(Tm3Os2)2
_symmetry_space_group_name_H-M   'P 1'
_cell_length_a   6.28175468
_cell_length_b   7.36773468
_cell_length_c   8.96032535
_cell_angle_alpha   90.00999310
_cell_angle_beta   89.91771804
_cell_angle_gamma   89.92097156
_symmetry_Int_Tables_number   1
_chemical_formula_structural   Tb3Er3(Tm3Os2)2
_chemical_formula_sum   'Tb3 Er3 Tm6 Os4'
_cell_volume   414.70365343
_cell_formula_units_Z   1
loop_
 _symmetry_equiv_pos_site_id
 _symmetry_equiv_pos_as_xyz
  1  'x, y, z'
loop_
 _atom_site_type_symbol
 _atom_site_label
 _atom_site_symmetry_multiplicity
 _atom_site_fract_x
 _atom_site_fract_y
 _atom_site_fract_z
 _atom_site_occupancy
  Tb  Tb0  1  0.870273  0.538657  0.249907  1
  Tb  Tb1  1  0.629972  0.038788  0.250025  1
  Tb  Tb2  1  0.129959  0.461178  0.750008  1
  Er  Er3  1  0.333682  0.675969  0.437443  1
  Er  Er4  1  0.167005  0.174569  0.062280  1
  Er  Er5  1  0.370031  0.961095  0.750049  1
  Tm  Tm6  1  0.333765  0.675560  0.062585  1
  Tm  Tm7  1  0.166945  0.174085  0.437583  1
  Tm  Tm8  1  0.666275  0.324404  0.563326  1
  Tm  Tm9  1  0.832240  0.825170  0.936380  1
  Tm  Tm10  1  0.666047  0.324601  0.936625  1
  Tm  Tm11  1  0.832421  0.825415  0.563715  1
  Os  Os12  1  0.042709  0.883100  0.250006  1
  Os  Os13  1  0.457206  0.382982  0.250049  1
  Os  Os14  1  0.958961  0.116337  0.749603  1
  Os  Os15  1  0.542508  0.618089  0.750415  1
