# generated using pymatgen
data_Bi4PtPb3O14
_symmetry_space_group_name_H-M   'P 1'
_cell_length_a   7.69538014
_cell_length_b   7.73889826
_cell_length_c   7.73889800
_cell_angle_alpha   60.00000112
_cell_angle_beta   59.81275502
_cell_angle_gamma   59.81274744
_symmetry_Int_Tables_number   1
_chemical_formula_structural   Bi4PtPb3O14
_chemical_formula_sum   'Bi4 Pt1 Pb3 O14'
_cell_volume   324.96632565
_cell_formula_units_Z   1
loop_
 _symmetry_equiv_pos_site_id
 _symmetry_equiv_pos_as_xyz
  1  'x, y, z'
loop_
 _atom_site_type_symbol
 _atom_site_label
 _atom_site_symmetry_multiplicity
 _atom_site_fract_x
 _atom_site_fract_y
 _atom_site_fract_z
 _atom_site_occupancy
  Bi  Bi0  1  0.625000  0.125000  0.125000  1
  Bi  Bi1  1  0.125000  0.125000  0.125000  1
  Bi  Bi2  1  0.125000  0.625000  0.125000  1
  Bi  Bi3  1  0.125000  0.125000  0.625000  1
  Pt  Pt4  1  0.125000  0.625000  0.625000  1
  Pb  Pb5  1  0.625000  0.625000  0.125000  1
  Pb  Pb6  1  0.625000  0.625000  0.625000  1
  Pb  Pb7  1  0.625000  0.125000  0.625000  1
  O  O8  1  0.729202  0.278594  0.278594  1
  O  O9  1  0.729202  0.713610  0.278594  1
  O  O10  1  0.278448  0.708280  0.304992  1
  O  O11  1  0.005738  0.998088  0.998088  1
  O  O12  1  0.729202  0.278594  0.713610  1
  O  O13  1  0.971552  0.541720  0.541720  1
  O  O14  1  0.278448  0.708280  0.708280  1
  O  O15  1  0.520798  0.971406  0.536390  1
  O  O16  1  0.244262  0.251912  0.251912  1
  O  O17  1  0.971552  0.541720  0.945008  1
  O  O18  1  0.520798  0.536390  0.971406  1
  O  O19  1  0.971552  0.945008  0.541720  1
  O  O20  1  0.520798  0.971406  0.971406  1
  O  O21  1  0.278448  0.304992  0.708280  1
