# generated using pymatgen
data_Nd10CuBi6Te
_symmetry_space_group_name_H-M   'P 1'
_cell_length_a   9.71179800
_cell_length_b   9.71179855
_cell_length_c   6.65569100
_cell_angle_alpha   90.00000000
_cell_angle_beta   90.00000000
_cell_angle_gamma   119.99999131
_symmetry_Int_Tables_number   1
_chemical_formula_structural   Nd10CuBi6Te
_chemical_formula_sum   'Nd10 Cu1 Bi6 Te1'
_cell_volume   543.65467497
_cell_formula_units_Z   1
loop_
 _symmetry_equiv_pos_site_id
 _symmetry_equiv_pos_as_xyz
  1  'x, y, z'
loop_
 _atom_site_type_symbol
 _atom_site_label
 _atom_site_symmetry_multiplicity
 _atom_site_fract_x
 _atom_site_fract_y
 _atom_site_fract_z
 _atom_site_occupancy
  Nd  Nd0  1  0.666667  0.333333  0.000000  1
  Nd  Nd1  1  0.333333  0.666667  0.000000  1
  Nd  Nd2  1  0.333333  0.666667  0.500000  1
  Nd  Nd3  1  0.666667  0.333333  0.500000  1
  Nd  Nd4  1  0.735168  0.735168  0.739941  1
  Nd  Nd5  1  0.264832  0.000000  0.739941  1
  Nd  Nd6  1  0.000000  0.264832  0.739941  1
  Nd  Nd7  1  0.264832  0.264832  0.260059  1
  Nd  Nd8  1  0.735168  0.000000  0.260059  1
  Nd  Nd9  1  0.000000  0.735168  0.260059  1
  Cu  Cu10  1  0.000000  0.000000  0.500000  1
  Bi  Bi11  1  0.385415  0.385415  0.749923  1
  Bi  Bi12  1  0.614585  0.000000  0.749923  1
  Bi  Bi13  1  0.000000  0.614585  0.749923  1
  Bi  Bi14  1  0.614585  0.614585  0.250077  1
  Bi  Bi15  1  0.385415  0.000000  0.250077  1
  Bi  Bi16  1  0.000000  0.385415  0.250077  1
  Te  Te17  1  0.000000  0.000000  0.000000  1
