# generated using pymatgen
data_NdDyMo2O7
_symmetry_space_group_name_H-M   'P 1'
_cell_length_a   7.42966060
_cell_length_b   7.45710531
_cell_length_c   7.45710585
_cell_angle_alpha   59.63605761
_cell_angle_beta   60.12167983
_cell_angle_gamma   60.12167301
_symmetry_Int_Tables_number   1
_chemical_formula_structural   NdDyMo2O7
_chemical_formula_sum   'Nd2 Dy2 Mo4 O14'
_cell_volume   291.86211668
_cell_formula_units_Z   2
loop_
 _symmetry_equiv_pos_site_id
 _symmetry_equiv_pos_as_xyz
  1  'x, y, z'
loop_
 _atom_site_type_symbol
 _atom_site_label
 _atom_site_symmetry_multiplicity
 _atom_site_fract_x
 _atom_site_fract_y
 _atom_site_fract_z
 _atom_site_occupancy
  Nd  Nd0  1  0.625000  0.125000  0.125000  1
  Nd  Nd1  1  0.125000  0.125000  0.125000  1
  Dy  Dy2  1  0.125000  0.625000  0.125000  1
  Dy  Dy3  1  0.125000  0.125000  0.625000  1
  Mo  Mo4  1  0.125000  0.625000  0.625000  1
  Mo  Mo5  1  0.625000  0.125000  0.625000  1
  Mo  Mo6  1  0.625000  0.625000  0.125000  1
  Mo  Mo7  1  0.625000  0.625000  0.625000  1
  O  O8  1  0.712545  0.705746  0.291071  1
  O  O9  1  0.290637  0.291071  0.705746  1
  O  O10  1  0.712545  0.291071  0.705746  1
  O  O11  1  0.290637  0.705746  0.291071  1
  O  O12  1  0.281899  0.718101  0.718101  1
  O  O13  1  0.716502  0.283498  0.283498  1
  O  O14  1  0.537455  0.544254  0.958929  1
  O  O15  1  0.959363  0.958929  0.544254  1
  O  O16  1  0.537455  0.958929  0.544254  1
  O  O17  1  0.959363  0.544254  0.958929  1
  O  O18  1  0.968101  0.531899  0.531899  1
  O  O19  1  0.533498  0.966502  0.966502  1
  O  O20  1  0.242362  0.257638  0.257638  1
  O  O21  1  0.007638  0.992362  0.992362  1
