# generated using pymatgen
data_NdHo3AlIr
_symmetry_space_group_name_H-M   'P 1'
_cell_length_a   9.59364750
_cell_length_b   9.58268089
_cell_length_c   9.58268019
_cell_angle_alpha   60.07572639
_cell_angle_beta   59.96213206
_cell_angle_gamma   59.96213884
_symmetry_Int_Tables_number   1
_chemical_formula_structural   NdHo3AlIr
_chemical_formula_sum   'Nd4 Ho12 Al4 Ir4'
_cell_volume   622.93342194
_cell_formula_units_Z   4
loop_
 _symmetry_equiv_pos_site_id
 _symmetry_equiv_pos_as_xyz
  1  'x, y, z'
loop_
 _atom_site_type_symbol
 _atom_site_label
 _atom_site_symmetry_multiplicity
 _atom_site_fract_x
 _atom_site_fract_y
 _atom_site_fract_z
 _atom_site_occupancy
  Nd  Nd0  1  0.564366  0.935634  0.564366  1
  Nd  Nd1  1  0.935634  0.564366  0.935634  1
  Nd  Nd2  1  0.564366  0.564366  0.935634  1
  Nd  Nd3  1  0.935634  0.935634  0.564366  1
  Ho  Ho4  1  0.353593  0.348975  0.348975  1
  Ho  Ho5  1  0.348975  0.353593  0.948457  1
  Ho  Ho6  1  0.348975  0.948457  0.353593  1
  Ho  Ho7  1  0.948457  0.348975  0.348975  1
  Ho  Ho8  1  0.809568  0.190432  0.190432  1
  Ho  Ho9  1  0.190432  0.809568  0.809568  1
  Ho  Ho10  1  0.192844  0.807156  0.192844  1
  Ho  Ho11  1  0.807156  0.192844  0.807156  1
  Ho  Ho12  1  0.192844  0.192844  0.807156  1
  Ho  Ho13  1  0.807156  0.807156  0.192844  1
  Ho  Ho14  1  0.945592  0.554408  0.554408  1
  Ho  Ho15  1  0.554408  0.945592  0.945592  1
  Al  Al16  1  0.577087  0.574597  0.574597  1
  Al  Al17  1  0.574597  0.577087  0.273719  1
  Al  Al18  1  0.574597  0.273719  0.577087  1
  Al  Al19  1  0.273719  0.574597  0.574597  1
  Ir  Ir20  1  0.145499  0.139013  0.139013  1
  Ir  Ir21  1  0.139013  0.145499  0.576474  1
  Ir  Ir22  1  0.139013  0.576474  0.145499  1
  Ir  Ir23  1  0.576474  0.139013  0.139013  1
