# generated using pymatgen
data_Li4Nd3Th5Si12
_symmetry_space_group_name_H-M   'P 1'
_cell_length_a   10.95969217
_cell_length_b   9.26022067
_cell_length_c   8.30945027
_cell_angle_alpha   76.97514886
_cell_angle_beta   55.40602686
_cell_angle_gamma   47.56218476
_symmetry_Int_Tables_number   1
_chemical_formula_structural   Li4Nd3Th5Si12
_chemical_formula_sum   'Li4 Nd3 Th5 Si12'
_cell_volume   494.76774933
_cell_formula_units_Z   1
loop_
 _symmetry_equiv_pos_site_id
 _symmetry_equiv_pos_as_xyz
  1  'x, y, z'
loop_
 _atom_site_type_symbol
 _atom_site_label
 _atom_site_symmetry_multiplicity
 _atom_site_fract_x
 _atom_site_fract_y
 _atom_site_fract_z
 _atom_site_occupancy
  Li  Li0  1  0.832356  0.166893  0.833383  1
  Li  Li1  1  0.166893  0.832356  0.167369  1
  Li  Li2  1  0.417572  0.083103  0.415425  1
  Li  Li3  1  0.083103  0.417572  0.083901  1
  Nd  Nd4  1  0.875955  0.875955  0.124045  1
  Nd  Nd5  1  0.125955  0.125955  0.374045  1
  Nd  Nd6  1  0.374222  0.374222  0.125778  1
  Th  Th7  1  0.623102  0.623102  0.376898  1
  Th  Th8  1  0.377048  0.377048  0.622952  1
  Th  Th9  1  0.626561  0.626561  0.873439  1
  Th  Th10  1  0.873182  0.873182  0.626818  1
  Th  Th11  1  0.123634  0.123634  0.876366  1
  Si  Si12  1  0.169750  0.837905  0.662209  1
  Si  Si13  1  0.329843  0.663499  0.838113  1
  Si  Si14  1  0.663499  0.329843  0.168544  1
  Si  Si15  1  0.837905  0.169750  0.330136  1
  Si  Si16  1  0.080222  0.412347  0.588854  1
  Si  Si17  1  0.919096  0.588126  0.412820  1
  Si  Si18  1  0.588126  0.919096  0.079959  1
  Si  Si19  1  0.412347  0.080222  0.918578  1
  Si  Si20  1  0.668583  0.331446  0.667830  1
  Si  Si21  1  0.331446  0.668583  0.332140  1
  Si  Si22  1  0.580204  0.919397  0.582553  1
  Si  Si23  1  0.919397  0.580204  0.917846  1
