# generated using pymatgen
data_Li3TbDy2Si2Ge
_symmetry_space_group_name_H-M   'P 1'
_cell_length_a   7.02057246
_cell_length_b   7.00154583
_cell_length_c   4.25579200
_cell_angle_alpha   90.00000000
_cell_angle_beta   90.00000000
_cell_angle_gamma   119.91039044
_symmetry_Int_Tables_number   1
_chemical_formula_structural   Li3TbDy2Si2Ge
_chemical_formula_sum   'Li3 Tb1 Dy2 Si2 Ge1'
_cell_volume   181.32969575
_cell_formula_units_Z   1
loop_
 _symmetry_equiv_pos_site_id
 _symmetry_equiv_pos_as_xyz
  1  'x, y, z'
loop_
 _atom_site_type_symbol
 _atom_site_label
 _atom_site_symmetry_multiplicity
 _atom_site_fract_x
 _atom_site_fract_y
 _atom_site_fract_z
 _atom_site_occupancy
  Li  Li0  1  0.234537  0.000217  0.500000  1
  Li  Li1  1  0.765463  0.765681  0.500000  1
  Li  Li2  1  0.000000  0.234253  0.500000  1
  Tb  Tb3  1  0.000000  0.573555  0.000000  1
  Dy  Dy4  1  0.574086  0.999979  0.000000  1
  Dy  Dy5  1  0.425914  0.425892  0.000000  1
  Si  Si6  1  0.334631  0.667012  0.500000  1
  Si  Si7  1  0.665369  0.332382  0.500000  1
  Ge  Ge8  1  0.000000  0.001028  0.000000  1
