# generated using pymatgen
data_Er2Th3SiSn3
_symmetry_space_group_name_H-M   'P 1'
_cell_length_a   9.45359700
_cell_length_b   9.45359798
_cell_length_c   6.53278200
_cell_angle_alpha   90.00000000
_cell_angle_beta   90.00000000
_cell_angle_gamma   120.00000008
_symmetry_Int_Tables_number   1
_chemical_formula_structural   Er2Th3SiSn3
_chemical_formula_sum   'Er4 Th6 Si2 Sn6'
_cell_volume   505.61856491
_cell_formula_units_Z   2
loop_
 _symmetry_equiv_pos_site_id
 _symmetry_equiv_pos_as_xyz
  1  'x, y, z'
loop_
 _atom_site_type_symbol
 _atom_site_label
 _atom_site_symmetry_multiplicity
 _atom_site_fract_x
 _atom_site_fract_y
 _atom_site_fract_z
 _atom_site_occupancy
  Er  Er0  1  0.666667  0.333333  0.000000  1
  Er  Er1  1  0.333333  0.666667  0.000000  1
  Er  Er2  1  0.333333  0.666667  0.500000  1
  Er  Er3  1  0.666667  0.333333  0.500000  1
  Th  Th4  1  0.745597  0.745597  0.750000  1
  Th  Th5  1  0.254403  0.000000  0.750000  1
  Th  Th6  1  0.000000  0.254403  0.750000  1
  Th  Th7  1  0.254403  0.254403  0.250000  1
  Th  Th8  1  0.745597  0.000000  0.250000  1
  Th  Th9  1  0.000000  0.745597  0.250000  1
  Si  Si10  1  0.000000  0.000000  0.000000  1
  Si  Si11  1  0.000000  0.000000  0.500000  1
  Sn  Sn12  1  0.394312  0.394312  0.750000  1
  Sn  Sn13  1  0.605688  0.000000  0.750000  1
  Sn  Sn14  1  0.000000  0.605688  0.750000  1
  Sn  Sn15  1  0.605688  0.605688  0.250000  1
  Sn  Sn16  1  0.394312  0.000000  0.250000  1
  Sn  Sn17  1  0.000000  0.394312  0.250000  1
