# generated using pymatgen
data_Tb6Sm2Hf12Si15As
_symmetry_space_group_name_H-M   'P 1'
_cell_length_a   7.29467587
_cell_length_b   7.31109563
_cell_length_c   13.42000044
_cell_angle_alpha   89.73747522
_cell_angle_beta   89.97535745
_cell_angle_gamma   89.96527003
_symmetry_Int_Tables_number   1
_chemical_formula_structural   Tb6Sm2Hf12Si15As
_chemical_formula_sum   'Tb6 Sm2 Hf12 Si15 As1'
_cell_volume   715.70873160
_cell_formula_units_Z   1
loop_
 _symmetry_equiv_pos_site_id
 _symmetry_equiv_pos_as_xyz
  1  'x, y, z'
loop_
 _atom_site_type_symbol
 _atom_site_label
 _atom_site_symmetry_multiplicity
 _atom_site_fract_x
 _atom_site_fract_y
 _atom_site_fract_z
 _atom_site_occupancy
  Tb  Tb0  1  0.153116  0.499108  0.466618  1
  Tb  Tb1  1  0.507077  0.842693  0.033867  1
  Tb  Tb2  1  0.843955  0.503520  0.964818  1
  Tb  Tb3  1  0.495857  0.154633  0.535582  1
  Tb  Tb4  1  0.345129  0.996125  0.785312  1
  Tb  Tb5  1  0.654372  0.004090  0.284287  1
  Sm  Sm6  1  0.995042  0.344510  0.215445  1
  Sm  Sm7  1  0.005999  0.656632  0.715430  1
  Hf  Hf8  1  0.174740  0.175079  0.000072  1
  Hf  Hf9  1  0.825905  0.826449  0.499989  1
  Hf  Hf10  1  0.325293  0.678099  0.249739  1
  Hf  Hf11  1  0.674132  0.325017  0.749970  1
  Hf  Hf12  1  0.149961  0.995368  0.373017  1
  Hf  Hf13  1  0.850455  0.004220  0.874841  1
  Hf  Hf14  1  0.503525  0.650268  0.624594  1
  Hf  Hf15  1  0.351309  0.495789  0.875495  1
  Hf  Hf16  1  0.494580  0.347917  0.124978  1
  Hf  Hf17  1  0.652909  0.507112  0.376852  1
  Hf  Hf18  1  0.996357  0.150628  0.625540  1
  Hf  Hf19  1  0.001309  0.847412  0.124291  1
  Si  Si20  1  0.636144  0.705253  0.816805  1
  Si  Si21  1  0.204688  0.864416  0.565528  1
  Si  Si22  1  0.137253  0.795087  0.932886  1
  Si  Si23  1  0.794238  0.137427  0.066523  1
  Si  Si24  1  0.862820  0.204077  0.433098  1
  Si  Si25  1  0.296728  0.361477  0.683032  1
  Si  Si26  1  0.702048  0.636618  0.183906  1
  Si  Si27  1  0.293537  0.038275  0.179780  1
  Si  Si28  1  0.705300  0.951720  0.685642  1
  Si  Si29  1  0.451521  0.795387  0.435929  1
  Si  Si30  1  0.205876  0.548760  0.064023  1
  Si  Si31  1  0.549165  0.205110  0.935851  1
  Si  Si32  1  0.793442  0.450496  0.564782  1
  Si  Si33  1  0.049574  0.293363  0.814408  1
  Si  Si34  1  0.951488  0.706835  0.314865  1
  As  As35  1  0.365158  0.301029  0.322202  1
