# generated using pymatgen
data_Tm2Cr3Si7Pt9
_symmetry_space_group_name_H-M   'P 1'
_cell_length_a   9.92016000
_cell_length_b   9.92015987
_cell_length_c   3.88255400
_cell_angle_alpha   90.00000000
_cell_angle_beta   90.00000000
_cell_angle_gamma   119.99999953
_symmetry_Int_Tables_number   1
_chemical_formula_structural   Tm2Cr3Si7Pt9
_chemical_formula_sum   'Tm2 Cr3 Si7 Pt9'
_cell_volume   330.89140520
_cell_formula_units_Z   1
loop_
 _symmetry_equiv_pos_site_id
 _symmetry_equiv_pos_as_xyz
  1  'x, y, z'
loop_
 _atom_site_type_symbol
 _atom_site_label
 _atom_site_symmetry_multiplicity
 _atom_site_fract_x
 _atom_site_fract_y
 _atom_site_fract_z
 _atom_site_occupancy
  Tm  Tm0  1  0.000000  0.000000  0.000000  1
  Tm  Tm1  1  0.333333  0.666667  0.500000  1
  Cr  Cr2  1  0.890885  0.455186  0.500000  1
  Cr  Cr3  1  0.564301  0.109115  0.500000  1
  Cr  Cr4  1  0.544814  0.435699  0.500000  1
  Si  Si5  1  0.258588  0.211951  0.500000  1
  Si  Si6  1  0.788049  0.046639  0.500000  1
  Si  Si7  1  0.953361  0.741412  0.500000  1
  Si  Si8  1  0.553916  0.634591  0.000000  1
  Si  Si9  1  0.365409  0.919323  0.000000  1
  Si  Si10  1  0.080677  0.446084  0.000000  1
  Si  Si11  1  0.666667  0.333333  0.000000  1
  Pt  Pt12  1  0.218895  0.944059  0.500000  1
  Pt  Pt13  1  0.055941  0.274837  0.500000  1
  Pt  Pt14  1  0.725163  0.781105  0.500000  1
  Pt  Pt15  1  0.306463  0.411331  0.000000  1
  Pt  Pt16  1  0.588669  0.895131  0.000000  1
  Pt  Pt17  1  0.104869  0.693537  0.000000  1
  Pt  Pt18  1  0.392174  0.177302  0.000000  1
  Pt  Pt19  1  0.822698  0.214871  0.000000  1
  Pt  Pt20  1  0.785129  0.607826  0.000000  1
