# generated using pymatgen
data_Tb7Ce2LuRu4
_symmetry_space_group_name_H-M   'P 1'
_cell_length_a   6.41139493
_cell_length_b   7.18320593
_cell_length_c   8.73547551
_cell_angle_alpha   95.00669638
_cell_angle_beta   111.76877042
_cell_angle_gamma   93.04273561
_symmetry_Int_Tables_number   1
_chemical_formula_structural   Tb7Ce2LuRu4
_chemical_formula_sum   'Tb7 Ce2 Lu1 Ru4'
_cell_volume   370.60114414
_cell_formula_units_Z   1
loop_
 _symmetry_equiv_pos_site_id
 _symmetry_equiv_pos_as_xyz
  1  'x, y, z'
loop_
 _atom_site_type_symbol
 _atom_site_label
 _atom_site_symmetry_multiplicity
 _atom_site_fract_x
 _atom_site_fract_y
 _atom_site_fract_z
 _atom_site_occupancy
  Tb  Tb0  1  0.711686  0.420561  0.189164  1
  Tb  Tb1  1  0.290173  0.581734  0.810659  1
  Tb  Tb2  1  0.289214  0.313288  0.430186  1
  Tb  Tb3  1  0.709998  0.687348  0.572184  1
  Tb  Tb4  1  0.857232  0.187343  0.566104  1
  Tb  Tb5  1  0.140752  0.812388  0.432327  1
  Tb  Tb6  1  0.076589  0.248827  0.004976  1
  Ce  Ce7  1  0.508371  0.097991  0.812581  1
  Ce  Ce8  1  0.493499  0.900406  0.187572  1
  Lu  Lu9  1  0.926546  0.749799  0.996204  1
  Ru  Ru10  1  0.332579  0.598371  0.219366  1
  Ru  Ru11  1  0.666616  0.403728  0.781665  1
  Ru  Ru12  1  0.129454  0.935318  0.780254  1
  Ru  Ru13  1  0.867290  0.062900  0.216757  1
