# generated using pymatgen
data_HfSc2(SnIr)3
_symmetry_space_group_name_H-M   'P 1'
_cell_length_a   7.60065550
_cell_length_b   7.62806692
_cell_length_c   3.42995300
_cell_angle_alpha   90.00000000
_cell_angle_beta   90.00000000
_cell_angle_gamma   120.11936457
_symmetry_Int_Tables_number   1
_chemical_formula_structural   HfSc2(SnIr)3
_chemical_formula_sum   'Hf1 Sc2 Sn3 Ir3'
_cell_volume   172.01278121
_cell_formula_units_Z   1
loop_
 _symmetry_equiv_pos_site_id
 _symmetry_equiv_pos_as_xyz
  1  'x, y, z'
loop_
 _atom_site_type_symbol
 _atom_site_label
 _atom_site_symmetry_multiplicity
 _atom_site_fract_x
 _atom_site_fract_y
 _atom_site_fract_z
 _atom_site_occupancy
  Hf  Hf0  1  0.000000  0.609584  0.500000  1
  Sc  Sc1  1  0.389320  0.390668  0.500000  1
  Sc  Sc2  1  0.610680  0.001348  0.500000  1
  Sn  Sn3  1  0.715038  0.722598  0.000000  1
  Sn  Sn4  1  0.284962  0.007561  0.000000  1
  Sn  Sn5  1  0.000000  0.269531  0.000000  1
  Ir  Ir6  1  0.678605  0.343509  0.000000  1
  Ir  Ir7  1  0.321395  0.664905  0.000000  1
  Ir  Ir8  1  0.000000  0.990296  0.500000  1
