# generated using pymatgen
data_Ta5Ti7Al8(PtN)4
_symmetry_space_group_name_H-M   'P 1'
_cell_length_a   8.24827247
_cell_length_b   8.24161711
_cell_length_c   8.24765218
_cell_angle_alpha   60.01872623
_cell_angle_beta   59.95222703
_cell_angle_gamma   60.01683830
_symmetry_Int_Tables_number   1
_chemical_formula_structural   Ta5Ti7Al8(PtN)4
_chemical_formula_sum   'Ta5 Ti7 Al8 Pt4 N4'
_cell_volume   396.41521984
_cell_formula_units_Z   1
loop_
 _symmetry_equiv_pos_site_id
 _symmetry_equiv_pos_as_xyz
  1  'x, y, z'
loop_
 _atom_site_type_symbol
 _atom_site_label
 _atom_site_symmetry_multiplicity
 _atom_site_fract_x
 _atom_site_fract_y
 _atom_site_fract_z
 _atom_site_occupancy
  Ta  Ta0  1  0.818317  0.820077  0.180674  1
  Ta  Ta1  1  0.066032  0.430785  0.432550  1
  Ta  Ta2  1  0.433975  0.067910  0.068063  1
  Ta  Ta3  1  0.068429  0.071170  0.431438  1
  Ta  Ta4  1  0.067867  0.431194  0.070519  1
  Ti  Ti5  1  0.432640  0.066646  0.431838  1
  Ti  Ti6  1  0.179350  0.819925  0.181485  1
  Ti  Ti7  1  0.179285  0.820783  0.818118  1
  Ti  Ti8  1  0.818899  0.179428  0.181638  1
  Ti  Ti9  1  0.819120  0.180160  0.818196  1
  Ti  Ti10  1  0.433183  0.430083  0.067339  1
  Ti  Ti11  1  0.180640  0.180874  0.818239  1
  Al  Al12  1  0.415701  0.753285  0.416790  1
  Al  Al13  1  0.835307  0.835928  0.495860  1
  Al  Al14  1  0.494147  0.834804  0.835332  1
  Al  Al15  1  0.836106  0.835667  0.833293  1
  Al  Al16  1  0.749305  0.416334  0.416838  1
  Al  Al17  1  0.416390  0.414056  0.414272  1
  Al  Al18  1  0.416319  0.417218  0.752281  1
  Al  Al19  1  0.835141  0.493112  0.835908  1
  Pt  Pt20  1  0.623246  0.124997  0.625683  1
  Pt  Pt21  1  0.623657  0.624472  0.124540  1
  Pt  Pt22  1  0.125688  0.623794  0.624819  1
  Pt  Pt23  1  0.624275  0.625580  0.626382  1
  N  N24  1  0.131258  0.627493  0.121417  1
  N  N25  1  0.127361  0.122386  0.630218  1
  N  N26  1  0.624501  0.129742  0.125468  1
  N  N27  1  0.123859  0.122094  0.120801  1
