# generated using pymatgen
data_CeNd(Co5P3)2
_symmetry_space_group_name_H-M   'P 1'
_cell_length_a   3.69630900
_cell_length_b   10.39194300
_cell_length_c   11.78312000
_cell_angle_alpha   90.00000000
_cell_angle_beta   90.00000000
_cell_angle_gamma   90.00000000
_symmetry_Int_Tables_number   1
_chemical_formula_structural   CeNd(Co5P3)2
_chemical_formula_sum   'Ce2 Nd2 Co20 P12'
_cell_volume   452.61123104
_cell_formula_units_Z   2
loop_
 _symmetry_equiv_pos_site_id
 _symmetry_equiv_pos_as_xyz
  1  'x, y, z'
loop_
 _atom_site_type_symbol
 _atom_site_label
 _atom_site_symmetry_multiplicity
 _atom_site_fract_x
 _atom_site_fract_y
 _atom_site_fract_z
 _atom_site_occupancy
  Ce  Ce0  1  0.250000  0.583197  0.701196  1
  Ce  Ce1  1  0.250000  0.916803  0.201196  1
  Nd  Nd2  1  0.750000  0.416642  0.298301  1
  Nd  Nd3  1  0.750000  0.083358  0.798301  1
  Co  Co4  1  0.250000  0.715048  0.989964  1
  Co  Co5  1  0.250000  0.784952  0.489964  1
  Co  Co6  1  0.750000  0.285407  0.008071  1
  Co  Co7  1  0.750000  0.214593  0.508071  1
  Co  Co8  1  0.250000  0.407222  0.490802  1
  Co  Co9  1  0.250000  0.092778  0.990802  1
  Co  Co10  1  0.750000  0.594836  0.513887  1
  Co  Co11  1  0.750000  0.905164  0.013887  1
  Co  Co12  1  0.250000  0.220864  0.176061  1
  Co  Co13  1  0.250000  0.279136  0.676061  1
  Co  Co14  1  0.750000  0.778259  0.824110  1
  Co  Co15  1  0.750000  0.721741  0.324110  1
  Co  Co16  1  0.250000  0.881237  0.697202  1
  Co  Co17  1  0.250000  0.618763  0.197202  1
  Co  Co18  1  0.750000  0.114293  0.301430  1
  Co  Co19  1  0.750000  0.385707  0.801430  1
  Co  Co20  1  0.250000  0.469651  0.931224  1
  Co  Co21  1  0.250000  0.030349  0.431224  1
  Co  Co22  1  0.750000  0.531066  0.067149  1
  Co  Co23  1  0.750000  0.968934  0.567149  1
  P  P24  1  0.250000  0.418122  0.109943  1
  P  P25  1  0.250000  0.081878  0.609943  1
  P  P26  1  0.750000  0.582420  0.889630  1
  P  P27  1  0.750000  0.917580  0.389630  1
  P  P28  1  0.250000  0.274958  0.870512  1
  P  P29  1  0.250000  0.225042  0.370512  1
  P  P30  1  0.750000  0.724359  0.130258  1
  P  P31  1  0.750000  0.775641  0.630258  1
  P  P32  1  0.250000  0.604867  0.392575  1
  P  P33  1  0.250000  0.895133  0.892575  1
  P  P34  1  0.750000  0.394018  0.607684  1
  P  P35  1  0.750000  0.105982  0.107684  1
