# generated using pymatgen
data_Zr4CrBi2
_symmetry_space_group_name_H-M   'P 1'
_cell_length_a   8.34039245
_cell_length_b   8.34039263
_cell_length_c   8.34039251
_cell_angle_alpha   96.17986832
_cell_angle_beta   96.17987174
_cell_angle_gamma   141.69292487
_symmetry_Int_Tables_number   1
_chemical_formula_structural   Zr4CrBi2
_chemical_formula_sum   'Zr8 Cr2 Bi4'
_cell_volume   339.72839614
_cell_formula_units_Z   2
loop_
 _symmetry_equiv_pos_site_id
 _symmetry_equiv_pos_as_xyz
  1  'x, y, z'
loop_
 _atom_site_type_symbol
 _atom_site_label
 _atom_site_symmetry_multiplicity
 _atom_site_fract_x
 _atom_site_fract_y
 _atom_site_fract_z
 _atom_site_occupancy
  Zr  Zr0  1  0.081139  0.195562  0.276700  1
  Zr  Zr1  1  0.918861  0.804438  0.723300  1
  Zr  Zr2  1  0.804438  0.081139  0.885576  1
  Zr  Zr3  1  0.418861  0.695562  0.114424  1
  Zr  Zr4  1  0.195562  0.918861  0.114424  1
  Zr  Zr5  1  0.581139  0.304438  0.885576  1
  Zr  Zr6  1  0.695562  0.581139  0.276700  1
  Zr  Zr7  1  0.304438  0.418861  0.723300  1
  Cr  Cr8  1  0.250000  0.250000  0.000000  1
  Cr  Cr9  1  0.750000  0.750000  0.000000  1
  Bi  Bi10  1  0.139502  0.639502  0.779003  1
  Bi  Bi11  1  0.860498  0.360498  0.220997  1
  Bi  Bi12  1  0.360498  0.139502  0.500000  1
  Bi  Bi13  1  0.639502  0.860498  0.500000  1
