# generated using pymatgen
data_Tb8Tl3Os
_symmetry_space_group_name_H-M   'P 1'
_cell_length_a   10.35193700
_cell_length_b   10.35193725
_cell_length_c   7.27946600
_cell_angle_alpha   90.00000000
_cell_angle_beta   90.00000000
_cell_angle_gamma   119.99999600
_symmetry_Int_Tables_number   1
_chemical_formula_structural   Tb8Tl3Os
_chemical_formula_sum   'Tb16 Tl6 Os2'
_cell_volume   675.57477038
_cell_formula_units_Z   2
loop_
 _symmetry_equiv_pos_site_id
 _symmetry_equiv_pos_as_xyz
  1  'x, y, z'
loop_
 _atom_site_type_symbol
 _atom_site_label
 _atom_site_symmetry_multiplicity
 _atom_site_fract_x
 _atom_site_fract_y
 _atom_site_fract_z
 _atom_site_occupancy
  Tb  Tb0  1  0.824402  0.648806  0.489836  1
  Tb  Tb1  1  0.351194  0.175598  0.489836  1
  Tb  Tb2  1  0.824402  0.175598  0.489836  1
  Tb  Tb3  1  0.175598  0.351194  0.989836  1
  Tb  Tb4  1  0.648806  0.824402  0.989836  1
  Tb  Tb5  1  0.175598  0.824402  0.989836  1
  Tb  Tb6  1  0.666667  0.333333  0.170017  1
  Tb  Tb7  1  0.333333  0.666667  0.670017  1
  Tb  Tb8  1  0.536854  0.073706  0.789210  1
  Tb  Tb9  1  0.926294  0.463146  0.789210  1
  Tb  Tb10  1  0.536854  0.463146  0.789210  1
  Tb  Tb11  1  0.463146  0.926294  0.289210  1
  Tb  Tb12  1  0.073706  0.536854  0.289210  1
  Tb  Tb13  1  0.463146  0.536854  0.289210  1
  Tb  Tb14  1  0.000000  0.000000  0.768386  1
  Tb  Tb15  1  0.000000  0.000000  0.268386  1
  Tl  Tl16  1  0.835556  0.671114  0.043536  1
  Tl  Tl17  1  0.328886  0.164444  0.043536  1
  Tl  Tl18  1  0.835556  0.164444  0.043536  1
  Tl  Tl19  1  0.164444  0.328886  0.543536  1
  Tl  Tl20  1  0.671114  0.835556  0.543536  1
  Tl  Tl21  1  0.164444  0.835556  0.543536  1
  Os  Os22  1  0.666667  0.333333  0.556889  1
  Os  Os23  1  0.333333  0.666667  0.056889  1
