# generated using pymatgen
data_YPuS2
_symmetry_space_group_name_H-M   'P 1'
_cell_length_a   6.83558403
_cell_length_b   6.83558427
_cell_length_c   6.83558416
_cell_angle_alpha   33.32552628
_cell_angle_beta   33.32552776
_cell_angle_gamma   33.32552991
_symmetry_Int_Tables_number   1
_chemical_formula_structural   YPuS2
_chemical_formula_sum   'Y1 Pu1 S2'
_cell_volume   85.83698815
_cell_formula_units_Z   1
loop_
 _symmetry_equiv_pos_site_id
 _symmetry_equiv_pos_as_xyz
  1  'x, y, z'
loop_
 _atom_site_type_symbol
 _atom_site_label
 _atom_site_symmetry_multiplicity
 _atom_site_fract_x
 _atom_site_fract_y
 _atom_site_fract_z
 _atom_site_occupancy
  Y  Y0  1  0.500000  0.500000  0.500000  1
  Pu  Pu1  1  0.000000  0.000000  0.000000  1
  S  S2  1  0.248913  0.248913  0.248913  1
  S  S3  1  0.751087  0.751087  0.751087  1
