# generated using pymatgen
data_Ho8Al2OsPt
_symmetry_space_group_name_H-M   'P 1'
_cell_length_a   9.52433368
_cell_length_b   9.52433519
_cell_length_c   9.57652900
_cell_angle_alpha   59.81855880
_cell_angle_beta   59.81855352
_cell_angle_gamma   59.56229120
_symmetry_Int_Tables_number   1
_chemical_formula_structural   Ho8Al2OsPt
_chemical_formula_sum   'Ho16 Al4 Os2 Pt2'
_cell_volume   610.54332694
_cell_formula_units_Z   2
loop_
 _symmetry_equiv_pos_site_id
 _symmetry_equiv_pos_as_xyz
  1  'x, y, z'
loop_
 _atom_site_type_symbol
 _atom_site_label
 _atom_site_symmetry_multiplicity
 _atom_site_fract_x
 _atom_site_fract_y
 _atom_site_fract_z
 _atom_site_occupancy
  Ho  Ho0  1  0.603087  0.603087  0.606161  1
  Ho  Ho1  1  0.603087  0.603087  0.187664  1
  Ho  Ho2  1  0.600236  0.194501  0.602632  1
  Ho  Ho3  1  0.194501  0.600236  0.602632  1
  Ho  Ho4  1  0.059476  0.442540  0.446063  1
  Ho  Ho5  1  0.442540  0.059476  0.051920  1
  Ho  Ho6  1  0.442540  0.059476  0.446063  1
  Ho  Ho7  1  0.059476  0.442540  0.051920  1
  Ho  Ho8  1  0.443154  0.443154  0.056846  1
  Ho  Ho9  1  0.053931  0.053931  0.446069  1
  Ho  Ho10  1  0.187723  0.806561  0.815975  1
  Ho  Ho11  1  0.806561  0.187723  0.189741  1
  Ho  Ho12  1  0.806561  0.187723  0.815975  1
  Ho  Ho13  1  0.187723  0.806561  0.189741  1
  Ho  Ho14  1  0.813379  0.813379  0.186621  1
  Ho  Ho15  1  0.189693  0.189693  0.810307  1
  Al  Al16  1  0.827872  0.827872  0.828023  1
  Al  Al17  1  0.827872  0.827872  0.516232  1
  Al  Al18  1  0.827986  0.515512  0.828251  1
  Al  Al19  1  0.515512  0.827986  0.828251  1
  Os  Os20  1  0.394103  0.394103  0.388496  1
  Os  Os21  1  0.394103  0.394103  0.823298  1
  Pt  Pt22  1  0.395213  0.823665  0.390560  1
  Pt  Pt23  1  0.823665  0.395213  0.390560  1
