# generated using pymatgen
data_Tb2DyCd3PtAu2
_symmetry_space_group_name_H-M   'P 1'
_cell_length_a   7.88088968
_cell_length_b   7.87870784
_cell_length_c   3.82691700
_cell_angle_alpha   90.00000000
_cell_angle_beta   90.00000000
_cell_angle_gamma   119.96147706
_symmetry_Int_Tables_number   1
_chemical_formula_structural   Tb2DyCd3PtAu2
_chemical_formula_sum   'Tb2 Dy1 Cd3 Pt1 Au2'
_cell_volume   205.86303628
_cell_formula_units_Z   1
loop_
 _symmetry_equiv_pos_site_id
 _symmetry_equiv_pos_as_xyz
  1  'x, y, z'
loop_
 _atom_site_type_symbol
 _atom_site_label
 _atom_site_symmetry_multiplicity
 _atom_site_fract_x
 _atom_site_fract_y
 _atom_site_fract_z
 _atom_site_occupancy
  Tb  Tb0  1  0.587691  0.983322  0.000000  1
  Tb  Tb1  1  0.016697  0.604296  0.000000  1
  Dy  Dy2  1  0.395615  0.412526  0.000000  1
  Cd  Cd3  1  0.267066  0.001751  0.500000  1
  Cd  Cd4  1  0.998630  0.265500  0.500000  1
  Cd  Cd5  1  0.734360  0.732779  0.500000  1
  Pt  Pt6  1  0.333426  0.666145  0.500000  1
  Au  Au7  1  0.666254  0.333422  0.500000  1
  Au  Au8  1  0.000260  0.000260  0.000000  1
