# generated using pymatgen
data_Er12FeTc3
_symmetry_space_group_name_H-M   'P 1'
_cell_length_a   6.17746816
_cell_length_b   7.28816742
_cell_length_c   9.01904000
_cell_angle_alpha   90.00000000
_cell_angle_beta   90.00000000
_cell_angle_gamma   90.05680584
_symmetry_Int_Tables_number   1
_chemical_formula_structural   Er12FeTc3
_chemical_formula_sum   'Er12 Fe1 Tc3'
_cell_volume   406.05882692
_cell_formula_units_Z   1
loop_
 _symmetry_equiv_pos_site_id
 _symmetry_equiv_pos_as_xyz
  1  'x, y, z'
loop_
 _atom_site_type_symbol
 _atom_site_label
 _atom_site_symmetry_multiplicity
 _atom_site_fract_x
 _atom_site_fract_y
 _atom_site_fract_z
 _atom_site_occupancy
  Er  Er0  1  0.337545  0.676324  0.061488  1
  Er  Er1  1  0.158980  0.175718  0.438653  1
  Er  Er2  1  0.659981  0.329410  0.565125  1
  Er  Er3  1  0.836379  0.821014  0.935992  1
  Er  Er4  1  0.659981  0.329410  0.934875  1
  Er  Er5  1  0.836379  0.821014  0.564008  1
  Er  Er6  1  0.337545  0.676324  0.438512  1
  Er  Er7  1  0.158980  0.175718  0.061347  1
  Er  Er8  1  0.874704  0.539402  0.250000  1
  Er  Er9  1  0.626433  0.038831  0.250000  1
  Er  Er10  1  0.135612  0.459841  0.750000  1
  Er  Er11  1  0.377628  0.953794  0.750000  1
  Fe  Fe12  1  0.536751  0.617769  0.750000  1
  Tc  Tc13  1  0.042572  0.884483  0.250000  1
  Tc  Tc14  1  0.459997  0.385862  0.250000  1
  Tc  Tc15  1  0.960535  0.115083  0.750000  1
