# generated using pymatgen
data_Er8TlInPdRh
_symmetry_space_group_name_H-M   'P 1'
_cell_length_a   9.62940973
_cell_length_b   9.62555119
_cell_length_c   9.62555128
_cell_angle_alpha   59.94318023
_cell_angle_beta   59.98674219
_cell_angle_gamma   59.98673927
_symmetry_Int_Tables_number   1
_chemical_formula_structural   Er8TlInPdRh
_chemical_formula_sum   'Er16 Tl2 In2 Pd2 Rh2'
_cell_volume   630.46655842
_cell_formula_units_Z   2
loop_
 _symmetry_equiv_pos_site_id
 _symmetry_equiv_pos_as_xyz
  1  'x, y, z'
loop_
 _atom_site_type_symbol
 _atom_site_label
 _atom_site_symmetry_multiplicity
 _atom_site_fract_x
 _atom_site_fract_y
 _atom_site_fract_z
 _atom_site_occupancy
  Er  Er0  1  0.192888  0.184778  0.810278  1
  Er  Er1  1  0.438401  0.061599  0.061599  1
  Er  Er2  1  0.435824  0.064376  0.438442  1
  Er  Er3  1  0.061357  0.438442  0.064376  1
  Er  Er4  1  0.648039  0.051993  0.651930  1
  Er  Er5  1  0.187955  0.812045  0.812045  1
  Er  Er6  1  0.061357  0.064376  0.438442  1
  Er  Er7  1  0.810012  0.189988  0.189988  1
  Er  Er8  1  0.812056  0.810278  0.184778  1
  Er  Er9  1  0.648039  0.651930  0.051993  1
  Er  Er10  1  0.644916  0.650129  0.650129  1
  Er  Er11  1  0.063596  0.436404  0.436404  1
  Er  Er12  1  0.054826  0.650129  0.650129  1
  Er  Er13  1  0.812056  0.184778  0.810278  1
  Er  Er14  1  0.435824  0.438442  0.064376  1
  Er  Er15  1  0.192888  0.810278  0.184778  1
  Tl  Tl16  1  0.415092  0.756164  0.413652  1
  Tl  Tl17  1  0.415092  0.413652  0.756164  1
  In  In18  1  0.752626  0.415305  0.415305  1
  In  In19  1  0.416765  0.415305  0.415305  1
  Pd  Pd20  1  0.856860  0.430167  0.856113  1
  Pd  Pd21  1  0.856860  0.856113  0.430167  1
  Rh  Rh22  1  0.429583  0.856666  0.856666  1
  Rh  Rh23  1  0.857086  0.856666  0.856666  1
