# generated using pymatgen
data_Ca7YbIn4Cu3N5
_symmetry_space_group_name_H-M   'P 1'
_cell_length_a   10.86552516
_cell_length_b   10.87433250
_cell_length_c   10.87433387
_cell_angle_alpha   160.51785554
_cell_angle_beta   112.47936913
_cell_angle_gamma   71.03141177
_symmetry_Int_Tables_number   1
_chemical_formula_structural   Ca7YbIn4Cu3N5
_chemical_formula_sum   'Ca7 Yb1 In4 Cu3 N5'
_cell_volume   393.33532963
_cell_formula_units_Z   1
loop_
 _symmetry_equiv_pos_site_id
 _symmetry_equiv_pos_as_xyz
  1  'x, y, z'
loop_
 _atom_site_type_symbol
 _atom_site_label
 _atom_site_symmetry_multiplicity
 _atom_site_fract_x
 _atom_site_fract_y
 _atom_site_fract_z
 _atom_site_occupancy
  Ca  Ca0  1  0.560126  0.712344  0.847783  1
  Ca  Ca1  1  0.749693  0.901004  0.848690  1
  Ca  Ca2  1  0.439471  0.287642  0.151828  1
  Ca  Ca3  1  0.864026  0.711444  0.152580  1
  Ca  Ca4  1  0.135470  0.287491  0.847980  1
  Ca  Ca5  1  0.251033  0.099410  0.151622  1
  Ca  Ca6  1  0.050881  0.900519  0.150363  1
  Yb  Yb7  1  0.951967  0.100008  0.851957  1
  In  In8  1  0.661484  0.501048  0.160435  1
  In  In9  1  0.340427  0.499760  0.840667  1
  In  In10  1  0.411074  0.910967  0.500106  1
  In  In11  1  0.588892  0.088900  0.499991  1
  Cu  Cu12  1  0.190404  0.690868  0.499536  1
  Cu  Cu13  1  0.807415  0.307173  0.500242  1
  Cu  Cu14  1  0.999939  0.502096  0.497843  1
  N  N15  1  0.348263  0.693223  0.655039  1
  N  N16  1  0.962006  0.306299  0.655707  1
  N  N17  1  0.035996  0.691827  0.344168  1
  N  N18  1  0.000357  0.001331  0.999027  1
  N  N19  1  0.651078  0.306644  0.344434  1
