# generated using pymatgen
data_Tb2ErIn3Ag2Pt
_symmetry_space_group_name_H-M   'P 1'
_cell_length_a   7.97714103
_cell_length_b   7.98996132
_cell_length_c   3.74679300
_cell_angle_alpha   90.00000000
_cell_angle_beta   90.00000000
_cell_angle_gamma   120.10929626
_symmetry_Int_Tables_number   1
_chemical_formula_structural   Tb2ErIn3Ag2Pt
_chemical_formula_sum   'Tb2 Er1 In3 Ag2 Pt1'
_cell_volume   206.58696604
_cell_formula_units_Z   1
loop_
 _symmetry_equiv_pos_site_id
 _symmetry_equiv_pos_as_xyz
  1  'x, y, z'
loop_
 _atom_site_type_symbol
 _atom_site_label
 _atom_site_symmetry_multiplicity
 _atom_site_fract_x
 _atom_site_fract_y
 _atom_site_fract_z
 _atom_site_occupancy
  Tb  Tb0  1  0.609834  0.023573  0.500000  1
  Tb  Tb1  1  0.413926  0.390371  0.500000  1
  Er  Er2  1  0.975128  0.585521  0.500000  1
  In  In3  1  0.725481  0.734038  0.000000  1
  In  In4  1  0.009515  0.275873  0.000000  1
  In  In5  1  0.264667  0.989333  0.000000  1
  Ag  Ag6  1  0.331917  0.666360  0.000000  1
  Ag  Ag7  1  0.000063  0.999491  0.500000  1
  Pt  Pt8  1  0.669471  0.335441  0.000000  1
