# generated using pymatgen
data_CeTm15(ZnNi)4
_symmetry_space_group_name_H-M   'P 1'
_cell_length_a   9.24769421
_cell_length_b   9.24769458
_cell_length_c   9.24769500
_cell_angle_alpha   60.24448118
_cell_angle_beta   60.24447987
_cell_angle_gamma   60.24448304
_symmetry_Int_Tables_number   1
_chemical_formula_structural   CeTm15(ZnNi)4
_chemical_formula_sum   'Ce1 Tm15 Zn4 Ni4'
_cell_volume   562.31849725
_cell_formula_units_Z   1
loop_
 _symmetry_equiv_pos_site_id
 _symmetry_equiv_pos_as_xyz
  1  'x, y, z'
loop_
 _atom_site_type_symbol
 _atom_site_label
 _atom_site_symmetry_multiplicity
 _atom_site_fract_x
 _atom_site_fract_y
 _atom_site_fract_z
 _atom_site_occupancy
  Ce  Ce0  1  0.350594  0.350594  0.350594  1
  Tm  Tm1  1  0.355733  0.355733  0.933024  1
  Tm  Tm2  1  0.355733  0.933024  0.355733  1
  Tm  Tm3  1  0.933024  0.355733  0.355733  1
  Tm  Tm4  1  0.811637  0.188772  0.188772  1
  Tm  Tm5  1  0.191763  0.810304  0.810304  1
  Tm  Tm6  1  0.188772  0.811637  0.188772  1
  Tm  Tm7  1  0.810304  0.191763  0.810304  1
  Tm  Tm8  1  0.188772  0.188772  0.811637  1
  Tm  Tm9  1  0.810304  0.810304  0.191763  1
  Tm  Tm10  1  0.937459  0.565037  0.565037  1
  Tm  Tm11  1  0.564301  0.936422  0.936422  1
  Tm  Tm12  1  0.565037  0.937459  0.565037  1
  Tm  Tm13  1  0.936422  0.564301  0.936422  1
  Tm  Tm14  1  0.565037  0.565037  0.937459  1
  Tm  Tm15  1  0.936422  0.936422  0.564301  1
  Zn  Zn16  1  0.579849  0.579849  0.579849  1
  Zn  Zn17  1  0.580385  0.580385  0.258474  1
  Zn  Zn18  1  0.580385  0.258474  0.580385  1
  Zn  Zn19  1  0.258474  0.580385  0.580385  1
  Ni  Ni20  1  0.145960  0.145960  0.145960  1
  Ni  Ni21  1  0.143492  0.143492  0.566646  1
  Ni  Ni22  1  0.143492  0.566646  0.143492  1
  Ni  Ni23  1  0.566646  0.143492  0.143492  1
