# generated using pymatgen
data_Y10Ga2BiSb3
_symmetry_space_group_name_H-M   'P 1'
_cell_length_a   8.89640158
_cell_length_b   8.85718745
_cell_length_c   6.46799500
_cell_angle_alpha   90.00000000
_cell_angle_beta   90.00000000
_cell_angle_gamma   119.82162101
_symmetry_Int_Tables_number   1
_chemical_formula_structural   Y10Ga2BiSb3
_chemical_formula_sum   'Y10 Ga2 Bi1 Sb3'
_cell_volume   442.16905725
_cell_formula_units_Z   1
loop_
 _symmetry_equiv_pos_site_id
 _symmetry_equiv_pos_as_xyz
  1  'x, y, z'
loop_
 _atom_site_type_symbol
 _atom_site_label
 _atom_site_symmetry_multiplicity
 _atom_site_fract_x
 _atom_site_fract_y
 _atom_site_fract_z
 _atom_site_occupancy
  Y  Y0  1  0.337905  0.668915  0.999334  1
  Y  Y1  1  0.649793  0.323618  0.500891  1
  Y  Y2  1  0.649793  0.323618  0.999109  1
  Y  Y3  1  0.337905  0.668915  0.500666  1
  Y  Y4  1  0.246820  0.013683  0.250000  1
  Y  Y5  1  0.246293  0.235447  0.750000  1
  Y  Y6  1  0.010701  0.766892  0.750000  1
  Y  Y7  1  0.012412  0.241839  0.250000  1
  Y  Y8  1  0.749330  0.753376  0.250000  1
  Y  Y9  1  0.752833  0.999443  0.750000  1
  Ga  Ga10  1  0.393301  0.396752  0.250000  1
  Ga  Ga11  1  0.393271  0.995901  0.750000  1
  Bi  Bi12  1  0.998729  0.607907  0.250000  1
  Sb  Sb13  1  0.610197  0.002603  0.250000  1
  Sb  Sb14  1  0.612509  0.610366  0.750000  1
  Sb  Sb15  1  0.998207  0.390728  0.750000  1
