# generated using pymatgen
data_TaBeB2Ru5W
_symmetry_space_group_name_H-M   'P 1'
_cell_length_a   9.14439668
_cell_length_b   9.14439668
_cell_length_c   2.93018000
_cell_angle_alpha   90.00000000
_cell_angle_beta   90.00000000
_cell_angle_gamma   90.28195547
_symmetry_Int_Tables_number   1
_chemical_formula_structural   TaBeB2Ru5W
_chemical_formula_sum   'Ta2 Be2 B4 Ru10 W2'
_cell_volume   245.01865742
_cell_formula_units_Z   2
loop_
 _symmetry_equiv_pos_site_id
 _symmetry_equiv_pos_as_xyz
  1  'x, y, z'
loop_
 _atom_site_type_symbol
 _atom_site_label
 _atom_site_symmetry_multiplicity
 _atom_site_fract_x
 _atom_site_fract_y
 _atom_site_fract_z
 _atom_site_occupancy
  Ta  Ta0  1  0.323284  0.823284  0.000000  1
  Ta  Ta1  1  0.676716  0.176716  0.000000  1
  Be  Be2  1  0.500000  0.500000  0.000000  1
  Be  Be3  1  0.000000  0.000000  0.000000  1
  B  B4  1  0.628137  0.871863  0.000000  1
  B  B5  1  0.371863  0.128137  0.000000  1
  B  B6  1  0.128411  0.628411  0.000000  1
  B  B7  1  0.871589  0.371589  0.000000  1
  Ru  Ru8  1  0.567570  0.706847  0.500000  1
  Ru  Ru9  1  0.432430  0.293153  0.500000  1
  Ru  Ru10  1  0.062416  0.790858  0.500000  1
  Ru  Ru11  1  0.937584  0.209142  0.500000  1
  Ru  Ru12  1  0.290858  0.562416  0.500000  1
  Ru  Ru13  1  0.709142  0.437584  0.500000  1
  Ru  Ru14  1  0.206847  0.067570  0.500000  1
  Ru  Ru15  1  0.793153  0.932430  0.500000  1
  Ru  Ru16  1  0.500000  0.000000  0.500000  1
  Ru  Ru17  1  0.000000  0.500000  0.500000  1
  W  W18  1  0.821890  0.678110  0.000000  1
  W  W19  1  0.178110  0.321890  0.000000  1
