# generated using pymatgen
data_NdLuSc2(ZnSn)4
_symmetry_space_group_name_H-M   'P 1'
_cell_length_a   4.48187900
_cell_length_b   4.48187919
_cell_length_c   15.30592700
_cell_angle_alpha   90.00000000
_cell_angle_beta   90.00000000
_cell_angle_gamma   120.00000599
_symmetry_Int_Tables_number   1
_chemical_formula_structural   NdLuSc2(ZnSn)4
_chemical_formula_sum   'Nd1 Lu1 Sc2 Zn4 Sn4'
_cell_volume   266.26281328
_cell_formula_units_Z   1
loop_
 _symmetry_equiv_pos_site_id
 _symmetry_equiv_pos_as_xyz
  1  'x, y, z'
loop_
 _atom_site_type_symbol
 _atom_site_label
 _atom_site_symmetry_multiplicity
 _atom_site_fract_x
 _atom_site_fract_y
 _atom_site_fract_z
 _atom_site_occupancy
  Nd  Nd0  1  0.000000  0.000000  0.000000  1
  Lu  Lu1  1  0.000000  0.000000  0.500000  1
  Sc  Sc2  1  0.000000  0.000000  0.256473  1
  Sc  Sc3  1  0.000000  0.000000  0.743527  1
  Zn  Zn4  1  0.333333  0.666667  0.167776  1
  Zn  Zn5  1  0.666667  0.333333  0.832224  1
  Zn  Zn6  1  0.666667  0.333333  0.659095  1
  Zn  Zn7  1  0.333333  0.666667  0.340905  1
  Sn  Sn8  1  0.333333  0.666667  0.610392  1
  Sn  Sn9  1  0.666667  0.333333  0.389608  1
  Sn  Sn10  1  0.666667  0.333333  0.123610  1
  Sn  Sn11  1  0.333333  0.666667  0.876390  1
