# generated using pymatgen
data_Tb5HoScCrO12
_symmetry_space_group_name_H-M   'P 1'
_cell_length_a   6.58487331
_cell_length_b   6.57823522
_cell_length_c   6.58290533
_cell_angle_alpha   92.94245905
_cell_angle_beta   92.90732868
_cell_angle_gamma   92.92516138
_symmetry_Int_Tables_number   1
_chemical_formula_structural   Tb5HoScCrO12
_chemical_formula_sum   'Tb5 Ho1 Sc1 Cr1 O12'
_cell_volume   283.99668845
_cell_formula_units_Z   1
loop_
 _symmetry_equiv_pos_site_id
 _symmetry_equiv_pos_as_xyz
  1  'x, y, z'
loop_
 _atom_site_type_symbol
 _atom_site_label
 _atom_site_symmetry_multiplicity
 _atom_site_fract_x
 _atom_site_fract_y
 _atom_site_fract_z
 _atom_site_occupancy
  Tb  Tb0  1  0.742491  0.926497  0.434575  1
  Tb  Tb1  1  0.925568  0.435123  0.742540  1
  Tb  Tb2  1  0.435465  0.741838  0.926186  1
  Tb  Tb3  1  0.258556  0.074273  0.565547  1
  Tb  Tb4  1  0.074065  0.564541  0.258128  1
  Ho  Ho5  1  0.564724  0.257514  0.073902  1
  Sc  Sc6  1  0.000351  0.000735  0.000428  1
  Cr  Cr7  1  0.500048  0.499432  0.499442  1
  O  O8  1  0.585791  0.456821  0.798154  1
  O  O9  1  0.459541  0.797509  0.586870  1
  O  O10  1  0.797941  0.586944  0.459838  1
  O  O11  1  0.414109  0.538264  0.200978  1
  O  O12  1  0.540388  0.202048  0.410458  1
  O  O13  1  0.202288  0.413284  0.540681  1
  O  O14  1  0.067782  0.916275  0.307322  1
  O  O15  1  0.913310  0.307853  0.068303  1
  O  O16  1  0.692405  0.934266  0.083059  1
  O  O17  1  0.084050  0.693429  0.932518  1
  O  O18  1  0.933125  0.083739  0.692981  1
  O  O19  1  0.308000  0.069616  0.918092  1
