# generated using pymatgen
data_TbEr4(In2Pt)2
_symmetry_space_group_name_H-M   'P 1'
_cell_length_a   3.59521700
_cell_length_b   8.15081100
_cell_length_c   18.23157100
_cell_angle_alpha   90.00000000
_cell_angle_beta   90.00000000
_cell_angle_gamma   90.00000000
_symmetry_Int_Tables_number   1
_chemical_formula_structural   TbEr4(In2Pt)2
_chemical_formula_sum   'Tb2 Er8 In8 Pt4'
_cell_volume   534.25675824
_cell_formula_units_Z   2
loop_
 _symmetry_equiv_pos_site_id
 _symmetry_equiv_pos_as_xyz
  1  'x, y, z'
loop_
 _atom_site_type_symbol
 _atom_site_label
 _atom_site_symmetry_multiplicity
 _atom_site_fract_x
 _atom_site_fract_y
 _atom_site_fract_z
 _atom_site_occupancy
  Tb  Tb0  1  0.000000  0.000000  0.000000  1
  Tb  Tb1  1  0.000000  0.500000  0.500000  1
  Er  Er2  1  0.000000  0.116942  0.414177  1
  Er  Er3  1  0.000000  0.883058  0.585823  1
  Er  Er4  1  0.000000  0.383058  0.914177  1
  Er  Er5  1  0.000000  0.616942  0.085823  1
  Er  Er6  1  0.000000  0.243344  0.220176  1
  Er  Er7  1  0.000000  0.756656  0.779824  1
  Er  Er8  1  0.000000  0.256656  0.720176  1
  Er  Er9  1  0.000000  0.743344  0.279824  1
  In  In10  1  0.500000  0.423452  0.350426  1
  In  In11  1  0.500000  0.576548  0.649574  1
  In  In12  1  0.500000  0.076548  0.850426  1
  In  In13  1  0.500000  0.923452  0.149574  1
  In  In14  1  0.500000  0.293225  0.066745  1
  In  In15  1  0.500000  0.706775  0.933255  1
  In  In16  1  0.500000  0.206775  0.566745  1
  In  In17  1  0.500000  0.793225  0.433255  1
  Pt  Pt18  1  0.500000  0.024534  0.303223  1
  Pt  Pt19  1  0.500000  0.975466  0.696777  1
  Pt  Pt20  1  0.500000  0.475466  0.803223  1
  Pt  Pt21  1  0.500000  0.524534  0.196777  1
