# generated using pymatgen
data_TbHo3GaFe2Ru5
_symmetry_space_group_name_H-M   'P 1'
_cell_length_a   5.24221783
_cell_length_b   5.39652502
_cell_length_c   9.13925992
_cell_angle_alpha   72.82814874
_cell_angle_beta   91.80291368
_cell_angle_gamma   120.97856648
_symmetry_Int_Tables_number   1
_chemical_formula_structural   TbHo3GaFe2Ru5
_chemical_formula_sum   'Tb1 Ho3 Ga1 Fe2 Ru5'
_cell_volume   209.48287088
_cell_formula_units_Z   1
loop_
 _symmetry_equiv_pos_site_id
 _symmetry_equiv_pos_as_xyz
  1  'x, y, z'
loop_
 _atom_site_type_symbol
 _atom_site_label
 _atom_site_symmetry_multiplicity
 _atom_site_fract_x
 _atom_site_fract_y
 _atom_site_fract_z
 _atom_site_occupancy
  Tb  Tb0  1  0.873815  0.749624  0.374567  1
  Ho  Ho1  1  0.379045  0.753765  0.871515  1
  Ho  Ho2  1  0.995937  0.996255  0.003428  1
  Ho  Ho3  1  0.501587  0.000524  0.500542  1
  Ga  Ga4  1  0.687310  0.374849  0.937612  1
  Fe  Fe5  1  0.942843  0.375992  0.190857  1
  Fe  Fe6  1  0.432117  0.374075  0.683967  1
  Ru  Ru7  1  0.437724  0.373361  0.183582  1
  Ru  Ru8  1  0.937242  0.376661  0.691369  1
  Ru  Ru9  1  0.437724  0.880783  0.183582  1
  Ru  Ru10  1  0.937242  0.869213  0.691369  1
  Ru  Ru11  1  0.187408  0.374898  0.437612  1
