# generated using pymatgen
data_Ta12Al8IrPd3C4
_symmetry_space_group_name_H-M   'P 1'
_cell_length_a   8.36004604
_cell_length_b   8.33071569
_cell_length_c   8.33071600
_cell_angle_alpha   60.00000672
_cell_angle_beta   60.11599577
_cell_angle_gamma   60.11599049
_symmetry_Int_Tables_number   1
_chemical_formula_structural   Ta12Al8IrPd3C4
_chemical_formula_sum   'Ta12 Al8 Ir1 Pd3 C4'
_cell_volume   410.97701716
_cell_formula_units_Z   1
loop_
 _symmetry_equiv_pos_site_id
 _symmetry_equiv_pos_as_xyz
  1  'x, y, z'
loop_
 _atom_site_type_symbol
 _atom_site_label
 _atom_site_symmetry_multiplicity
 _atom_site_fract_x
 _atom_site_fract_y
 _atom_site_fract_z
 _atom_site_occupancy
  Ta  Ta0  1  0.568869  0.934405  0.562321  1
  Ta  Ta1  1  0.320445  0.680876  0.680876  1
  Ta  Ta2  1  0.681131  0.315595  0.315595  1
  Ta  Ta3  1  0.320445  0.680876  0.317801  1
  Ta  Ta4  1  0.681131  0.687679  0.315595  1
  Ta  Ta5  1  0.320445  0.317801  0.680876  1
  Ta  Ta6  1  0.568869  0.562321  0.934405  1
  Ta  Ta7  1  0.929555  0.569124  0.569124  1
  Ta  Ta8  1  0.568869  0.934405  0.934405  1
  Ta  Ta9  1  0.929555  0.932199  0.569124  1
  Ta  Ta10  1  0.681131  0.315595  0.687679  1
  Ta  Ta11  1  0.929555  0.569124  0.932199  1
  Al  Al12  1  0.916897  0.916494  0.916494  1
  Al  Al13  1  0.993143  0.335619  0.335619  1
  Al  Al14  1  0.333103  0.999884  0.333506  1
  Al  Al15  1  0.333103  0.333506  0.999884  1
  Al  Al16  1  0.916897  0.250116  0.916494  1
  Al  Al17  1  0.916897  0.916494  0.250116  1
  Al  Al18  1  0.256857  0.914381  0.914381  1
  Al  Al19  1  0.333103  0.333506  0.333506  1
  Ir  Ir20  1  0.625000  0.125000  0.125000  1
  Pd  Pd21  1  0.125000  0.125000  0.125000  1
  Pd  Pd22  1  0.125000  0.625000  0.125000  1
  Pd  Pd23  1  0.125000  0.125000  0.625000  1
  C  C24  1  0.625000  0.625000  0.625000  1
  C  C25  1  0.125000  0.625000  0.625000  1
  C  C26  1  0.625000  0.125000  0.625000  1
  C  C27  1  0.625000  0.625000  0.125000  1
