# generated using pymatgen
data_Gd5Dy3(ErIn3)2
_symmetry_space_group_name_H-M   'P 1'
_cell_length_a   9.16383887
_cell_length_b   9.16383800
_cell_length_c   9.16260100
_cell_angle_alpha   96.39682756
_cell_angle_beta   96.38748409
_cell_angle_gamma   141.01989376
_symmetry_Int_Tables_number   1
_chemical_formula_structural   Gd5Dy3(ErIn3)2
_chemical_formula_sum   'Gd5 Dy3 Er2 In6'
_cell_volume   456.27325666
_cell_formula_units_Z   1
loop_
 _symmetry_equiv_pos_site_id
 _symmetry_equiv_pos_as_xyz
  1  'x, y, z'
loop_
 _atom_site_type_symbol
 _atom_site_label
 _atom_site_symmetry_multiplicity
 _atom_site_fract_x
 _atom_site_fract_y
 _atom_site_fract_z
 _atom_site_occupancy
  Gd  Gd0  1  0.718627  0.416340  0.134967  1
  Gd  Gd1  1  0.280601  0.582582  0.863183  1
  Gd  Gd2  1  0.582527  0.719131  0.301657  1
  Gd  Gd3  1  0.219602  0.083057  0.302661  1
  Gd  Gd4  1  0.916465  0.218670  0.135133  1
  Dy  Dy5  1  0.782187  0.916957  0.699146  1
  Dy  Dy6  1  0.417284  0.281977  0.699262  1
  Dy  Dy7  1  0.082355  0.781572  0.863928  1
  Er  Er8  1  0.750859  0.251012  0.500909  1
  Er  Er9  1  0.249897  0.750048  0.500909  1
  In  In10  1  0.840791  0.661422  0.502213  1
  In  In11  1  0.339590  0.839801  0.179391  1
  In  In12  1  0.749729  0.748957  0.997629  1
  In  In13  1  0.659825  0.160383  0.820208  1
  In  In14  1  0.160988  0.340189  0.501177  1
  In  In15  1  0.248673  0.247900  0.997629  1
