# generated using pymatgen
data_Ca3As(PPd4)5
_symmetry_space_group_name_H-M   'P 1'
_cell_length_a   8.73530888
_cell_length_b   8.72578673
_cell_length_c   8.72578700
_cell_angle_alpha   60.07220326
_cell_angle_beta   59.96390004
_cell_angle_gamma   59.96389510
_symmetry_Int_Tables_number   1
_chemical_formula_structural   Ca3As(PPd4)5
_chemical_formula_sum   'Ca3 As1 P5 Pd20'
_cell_volume   470.29615639
_cell_formula_units_Z   1
loop_
 _symmetry_equiv_pos_site_id
 _symmetry_equiv_pos_as_xyz
  1  'x, y, z'
loop_
 _atom_site_type_symbol
 _atom_site_label
 _atom_site_symmetry_multiplicity
 _atom_site_fract_x
 _atom_site_fract_y
 _atom_site_fract_z
 _atom_site_occupancy
  Ca  Ca0  1  0.999495  0.000505  0.000505  1
  Ca  Ca1  1  0.751060  0.748940  0.748940  1
  Ca  Ca2  1  0.251060  0.248940  0.248940  1
  As  As3  1  0.737808  0.262192  0.262192  1
  P  P4  1  0.737838  0.735467  0.262162  1
  P  P5  1  0.737838  0.262162  0.735467  1
  P  P6  1  0.264533  0.735467  0.262162  1
  P  P7  1  0.263205  0.736795  0.736795  1
  P  P8  1  0.264533  0.262162  0.735467  1
  Pd  Pd9  1  0.345462  0.000503  0.000503  1
  Pd  Pd10  1  0.999497  0.654538  0.346467  1
  Pd  Pd11  1  0.344776  0.000246  0.655224  1
  Pd  Pd12  1  0.999754  0.655224  0.000246  1
  Pd  Pd13  1  0.651378  0.348622  0.991710  1
  Pd  Pd14  1  0.611247  0.621326  0.156176  1
  Pd  Pd15  1  0.385312  0.841676  0.387698  1
  Pd  Pd16  1  0.158324  0.614688  0.614688  1
  Pd  Pd17  1  0.651378  0.991710  0.348622  1
  Pd  Pd18  1  0.999497  0.346467  0.654538  1
  Pd  Pd19  1  0.653533  0.000503  0.000503  1
  Pd  Pd20  1  0.008290  0.991710  0.348622  1
  Pd  Pd21  1  0.611247  0.156176  0.621326  1
  Pd  Pd22  1  0.344776  0.655224  0.000246  1
  Pd  Pd23  1  0.378674  0.388753  0.388753  1
  Pd  Pd24  1  0.612302  0.614688  0.614688  1
  Pd  Pd25  1  0.385312  0.387698  0.841676  1
  Pd  Pd26  1  0.999754  0.000246  0.655224  1
  Pd  Pd27  1  0.843824  0.388753  0.388753  1
  Pd  Pd28  1  0.008290  0.348622  0.991710  1
