# generated using pymatgen
data_Sm8Pd22Pt2Pb
_symmetry_space_group_name_H-M   'P 1'
_cell_length_a   8.50892000
_cell_length_b   8.49663400
_cell_length_c   8.49663400
_cell_angle_alpha   90.00000000
_cell_angle_beta   90.00000000
_cell_angle_gamma   90.00000000
_symmetry_Int_Tables_number   1
_chemical_formula_structural   Sm8Pd22Pt2Pb
_chemical_formula_sum   'Sm8 Pd22 Pt2 Pb1'
_cell_volume   614.28266899
_cell_formula_units_Z   1
loop_
 _symmetry_equiv_pos_site_id
 _symmetry_equiv_pos_as_xyz
  1  'x, y, z'
loop_
 _atom_site_type_symbol
 _atom_site_label
 _atom_site_symmetry_multiplicity
 _atom_site_fract_x
 _atom_site_fract_y
 _atom_site_fract_z
 _atom_site_occupancy
  Sm  Sm0  1  0.252483  0.253097  0.253097  1
  Sm  Sm1  1  0.747517  0.746903  0.746903  1
  Sm  Sm2  1  0.747517  0.746903  0.253097  1
  Sm  Sm3  1  0.747517  0.253097  0.746903  1
  Sm  Sm4  1  0.252483  0.253097  0.746903  1
  Sm  Sm5  1  0.252483  0.746903  0.253097  1
  Sm  Sm6  1  0.252483  0.746903  0.746903  1
  Sm  Sm7  1  0.747517  0.253097  0.253097  1
  Pd  Pd8  1  0.267993  0.500000  0.000000  1
  Pd  Pd9  1  0.732007  0.500000  0.000000  1
  Pd  Pd10  1  0.000000  0.267730  0.500000  1
  Pd  Pd11  1  0.500000  0.267614  0.000000  1
  Pd  Pd12  1  0.000000  0.732270  0.500000  1
  Pd  Pd13  1  0.500000  0.732386  0.000000  1
  Pd  Pd14  1  0.500000  0.000000  0.267614  1
  Pd  Pd15  1  0.267993  0.000000  0.500000  1
  Pd  Pd16  1  0.500000  0.000000  0.732386  1
  Pd  Pd17  1  0.732007  0.000000  0.500000  1
  Pd  Pd18  1  0.000000  0.500000  0.267730  1
  Pd  Pd19  1  0.000000  0.500000  0.732270  1
  Pd  Pd20  1  0.500000  0.255511  0.500000  1
  Pd  Pd21  1  0.500000  0.744489  0.500000  1
  Pd  Pd22  1  0.500000  0.500000  0.255511  1
  Pd  Pd23  1  0.500000  0.500000  0.744489  1
  Pd  Pd24  1  0.317617  0.000000  0.000000  1
  Pd  Pd25  1  0.682383  0.000000  0.000000  1
  Pd  Pd26  1  0.000000  0.317486  0.000000  1
  Pd  Pd27  1  0.000000  0.682514  0.000000  1
  Pd  Pd28  1  0.000000  0.000000  0.317486  1
  Pd  Pd29  1  0.000000  0.000000  0.682514  1
  Pt  Pt30  1  0.254736  0.500000  0.500000  1
  Pt  Pt31  1  0.745264  0.500000  0.500000  1
  Pb  Pb32  1  0.000000  0.000000  0.000000  1
