# generated using pymatgen
data_Tb4Lu8Co5Sn
_symmetry_space_group_name_H-M   'P 1'
_cell_length_a   8.15753211
_cell_length_b   8.15753124
_cell_length_c   8.15753109
_cell_angle_alpha   106.60537354
_cell_angle_beta   110.48653754
_cell_angle_gamma   111.36048128
_symmetry_Int_Tables_number   1
_chemical_formula_structural   Tb4Lu8Co5Sn
_chemical_formula_sum   'Tb4 Lu8 Co5 Sn1'
_cell_volume   417.07792897
_cell_formula_units_Z   1
loop_
 _symmetry_equiv_pos_site_id
 _symmetry_equiv_pos_as_xyz
  1  'x, y, z'
loop_
 _atom_site_type_symbol
 _atom_site_label
 _atom_site_symmetry_multiplicity
 _atom_site_fract_x
 _atom_site_fract_y
 _atom_site_fract_z
 _atom_site_occupancy
  Tb  Tb0  1  0.195399  0.212964  0.408362  1
  Tb  Tb1  1  0.804601  0.787036  0.591638  1
  Tb  Tb2  1  0.195399  0.787036  0.982434  1
  Tb  Tb3  1  0.804601  0.212964  0.017566  1
  Lu  Lu4  1  0.473287  0.289743  0.183544  1
  Lu  Lu5  1  0.106200  0.289743  0.816456  1
  Lu  Lu6  1  0.893800  0.710257  0.183544  1
  Lu  Lu7  1  0.526713  0.710257  0.816456  1
  Lu  Lu8  1  0.305873  0.620891  0.315018  1
  Lu  Lu9  1  0.305873  0.990857  0.684982  1
  Lu  Lu10  1  0.694127  0.379109  0.684982  1
  Lu  Lu11  1  0.694127  0.009143  0.315018  1
  Co  Co12  1  0.500000  0.612900  0.112900  1
  Co  Co13  1  0.500000  0.387100  0.887100  1
  Co  Co14  1  0.377444  0.000000  0.377444  1
  Co  Co15  1  0.622556  0.000000  0.622556  1
  Co  Co16  1  0.000000  0.000000  0.000000  1
  Sn  Sn17  1  0.000000  0.500000  0.500000  1
