# generated using pymatgen
data_Tl8ZnCo3Cl16
_symmetry_space_group_name_H-M   'P 1'
_cell_length_a   7.27604000
_cell_length_b   9.56939552
_cell_length_c   12.95823500
_cell_angle_alpha   89.87030686
_cell_angle_beta   90.00000000
_cell_angle_gamma   90.00000000
_symmetry_Int_Tables_number   1
_chemical_formula_structural   Tl8ZnCo3Cl16
_chemical_formula_sum   'Tl8 Zn1 Co3 Cl16'
_cell_volume   902.24466330
_cell_formula_units_Z   1
loop_
 _symmetry_equiv_pos_site_id
 _symmetry_equiv_pos_as_xyz
  1  'x, y, z'
loop_
 _atom_site_type_symbol
 _atom_site_label
 _atom_site_symmetry_multiplicity
 _atom_site_fract_x
 _atom_site_fract_y
 _atom_site_fract_z
 _atom_site_occupancy
  Tl  Tl0  1  0.250000  0.985906  0.171919  1
  Tl  Tl1  1  0.750000  0.015665  0.829235  1
  Tl  Tl2  1  0.750000  0.515002  0.671802  1
  Tl  Tl3  1  0.250000  0.484505  0.326921  1
  Tl  Tl4  1  0.250000  0.629855  0.943447  1
  Tl  Tl5  1  0.750000  0.370381  0.058775  1
  Tl  Tl6  1  0.750000  0.872060  0.440008  1
  Tl  Tl7  1  0.250000  0.128003  0.558519  1
  Zn  Zn8  1  0.250000  0.725036  0.572434  1
  Co  Co9  1  0.750000  0.273529  0.427102  1
  Co  Co10  1  0.750000  0.772766  0.072763  1
  Co  Co11  1  0.250000  0.227788  0.927359  1
  Cl  Cl12  1  0.993341  0.821910  0.644657  1
  Cl  Cl13  1  0.004234  0.178894  0.356061  1
  Cl  Cl14  1  0.004277  0.678565  0.144213  1
  Cl  Cl15  1  0.495766  0.178894  0.356061  1
  Cl  Cl16  1  0.994932  0.321061  0.856309  1
  Cl  Cl17  1  0.506659  0.821910  0.644657  1
  Cl  Cl18  1  0.505068  0.321061  0.856309  1
  Cl  Cl19  1  0.495723  0.678565  0.144213  1
  Cl  Cl20  1  0.250000  0.487463  0.580169  1
  Cl  Cl21  1  0.750000  0.509145  0.418752  1
  Cl  Cl22  1  0.750000  0.008320  0.082067  1
  Cl  Cl23  1  0.250000  0.992144  0.919402  1
  Cl  Cl24  1  0.250000  0.308072  0.092239  1
  Cl  Cl25  1  0.750000  0.693347  0.907854  1
  Cl  Cl26  1  0.750000  0.193393  0.592132  1
  Cl  Cl27  1  0.250000  0.806761  0.404626  1
