# generated using pymatgen
data_Er8B24MoRuRh2
_symmetry_space_group_name_H-M   'P 1'
_cell_length_a   3.64349700
_cell_length_b   9.12512414
_cell_length_c   11.50713908
_cell_angle_alpha   90.36133338
_cell_angle_beta   90.00000000
_cell_angle_gamma   90.00000000
_symmetry_Int_Tables_number   1
_chemical_formula_structural   Er8B24MoRuRh2
_chemical_formula_sum   'Er8 B24 Mo1 Ru1 Rh2'
_cell_volume   382.57441536
_cell_formula_units_Z   1
loop_
 _symmetry_equiv_pos_site_id
 _symmetry_equiv_pos_as_xyz
  1  'x, y, z'
loop_
 _atom_site_type_symbol
 _atom_site_label
 _atom_site_symmetry_multiplicity
 _atom_site_fract_x
 _atom_site_fract_y
 _atom_site_fract_z
 _atom_site_occupancy
  Er  Er0  1  0.500000  0.318588  0.410330  1
  Er  Er1  1  0.500000  0.678341  0.586097  1
  Er  Er2  1  0.500000  0.176016  0.916886  1
  Er  Er3  1  0.500000  0.824989  0.085067  1
  Er  Er4  1  0.500000  0.444478  0.125656  1
  Er  Er5  1  0.500000  0.558549  0.872178  1
  Er  Er6  1  0.500000  0.054484  0.629303  1
  Er  Er7  1  0.500000  0.945473  0.373870  1
  B  B8  1  0.000000  0.107653  0.472495  1
  B  B9  1  0.000000  0.891115  0.530349  1
  B  B10  1  0.000000  0.395134  0.969129  1
  B  B11  1  0.000000  0.608097  0.028955  1
  B  B12  1  0.000000  0.132491  0.317050  1
  B  B13  1  0.000000  0.867170  0.684879  1
  B  B14  1  0.000000  0.367564  0.816380  1
  B  B15  1  0.000000  0.633555  0.183847  1
  B  B16  1  0.000000  0.051397  0.064741  1
  B  B17  1  0.000000  0.945941  0.932419  1
  B  B18  1  0.000000  0.445471  0.565455  1
  B  B19  1  0.000000  0.553080  0.433833  1
  B  B20  1  0.000000  0.483030  0.287814  1
  B  B21  1  0.000000  0.517235  0.711289  1
  B  B22  1  0.000000  0.016047  0.787138  1
  B  B23  1  0.000000  0.980044  0.213883  1
  B  B24  1  0.000000  0.250617  0.078324  1
  B  B25  1  0.000000  0.752335  0.919004  1
  B  B26  1  0.000000  0.250557  0.579282  1
  B  B27  1  0.000000  0.748357  0.421580  1
  B  B28  1  0.000000  0.295807  0.235909  1
  B  B29  1  0.000000  0.707284  0.765001  1
  B  B30  1  0.000000  0.208000  0.736181  1
  B  B31  1  0.000000  0.792063  0.265913  1
  Mo  Mo32  1  0.500000  0.138607  0.179526  1
  Ru  Ru33  1  0.500000  0.860071  0.819659  1
  Rh  Rh34  1  0.500000  0.362065  0.679232  1
  Rh  Rh35  1  0.500000  0.638298  0.321346  1
