# generated using pymatgen
data_Nd2Er(SnIr)3
_symmetry_space_group_name_H-M   'P 1'
_cell_length_a   7.61879500
_cell_length_b   7.37205152
_cell_length_c   4.15877000
_cell_angle_alpha   90.00000000
_cell_angle_beta   90.00000000
_cell_angle_gamma   121.11349507
_symmetry_Int_Tables_number   1
_chemical_formula_structural   Nd2Er(SnIr)3
_chemical_formula_sum   'Nd2 Er1 Sn3 Ir3'
_cell_volume   199.98023757
_cell_formula_units_Z   1
loop_
 _symmetry_equiv_pos_site_id
 _symmetry_equiv_pos_as_xyz
  1  'x, y, z'
loop_
 _atom_site_type_symbol
 _atom_site_label
 _atom_site_symmetry_multiplicity
 _atom_site_fract_x
 _atom_site_fract_y
 _atom_site_fract_z
 _atom_site_occupancy
  Nd  Nd0  1  0.998975  0.588881  0.000000  1
  Nd  Nd1  1  0.410094  0.411119  0.000000  1
  Er  Er2  1  0.598478  0.000000  0.000000  1
  Sn  Sn3  1  0.246723  0.000000  0.500000  1
  Sn  Sn4  1  0.002080  0.256006  0.500000  1
  Sn  Sn5  1  0.746074  0.743994  0.500000  1
  Ir  Ir6  1  0.348833  0.690561  0.500000  1
  Ir  Ir7  1  0.658273  0.309439  0.500000  1
  Ir  Ir8  1  0.990470  0.000000  0.000000  1
