# generated using pymatgen
data_Dy4InAs5Ir7
_symmetry_space_group_name_H-M   'P 1'
_cell_length_a   7.34783720
_cell_length_b   7.34839900
_cell_length_c   7.34840118
_cell_angle_alpha   108.53962256
_cell_angle_beta   109.93536530
_cell_angle_gamma   109.93535198
_symmetry_Int_Tables_number   1
_chemical_formula_structural   Dy4InAs5Ir7
_chemical_formula_sum   'Dy4 In1 As5 Ir7'
_cell_volume   305.40548854
_cell_formula_units_Z   1
loop_
 _symmetry_equiv_pos_site_id
 _symmetry_equiv_pos_as_xyz
  1  'x, y, z'
loop_
 _atom_site_type_symbol
 _atom_site_label
 _atom_site_symmetry_multiplicity
 _atom_site_fract_x
 _atom_site_fract_y
 _atom_site_fract_z
 _atom_site_occupancy
  Dy  Dy0  1  0.999983  0.001887  0.477005  1
  Dy  Dy1  1  0.999983  0.477005  0.001887  1
  Dy  Dy2  1  0.524710  0.001973  0.001973  1
  Dy  Dy3  1  0.475160  0.477146  0.477146  1
  In  In4  1  0.999787  0.707658  0.707658  1
  As  As5  1  0.680899  0.673405  0.992226  1
  As  As6  1  0.319202  0.992574  0.311471  1
  As  As7  1  0.000065  0.342211  0.342211  1
  As  As8  1  0.319202  0.311471  0.992574  1
  As  As9  1  0.680899  0.992226  0.673405  1
  Ir  Ir10  1  0.744669  0.243867  0.499610  1
  Ir  Ir11  1  0.744669  0.499610  0.243867  1
  Ir  Ir12  1  0.499991  0.245811  0.745917  1
  Ir  Ir13  1  0.255399  0.499248  0.754911  1
  Ir  Ir14  1  0.255399  0.754911  0.499248  1
  Ir  Ir15  1  0.499991  0.745917  0.245811  1
  Ir  Ir16  1  0.999993  0.033078  0.033078  1
