# generated using pymatgen
data_La3Nb(Ni4P3)2
_symmetry_space_group_name_H-M   'P 1'
_cell_length_a   3.88931200
_cell_length_b   10.90963300
_cell_length_c   12.60639600
_cell_angle_alpha   90.00000000
_cell_angle_beta   90.00000000
_cell_angle_gamma   90.00000000
_symmetry_Int_Tables_number   1
_chemical_formula_structural   La3Nb(Ni4P3)2
_chemical_formula_sum   'La6 Nb2 Ni16 P12'
_cell_volume   534.90156690
_cell_formula_units_Z   2
loop_
 _symmetry_equiv_pos_site_id
 _symmetry_equiv_pos_as_xyz
  1  'x, y, z'
loop_
 _atom_site_type_symbol
 _atom_site_label
 _atom_site_symmetry_multiplicity
 _atom_site_fract_x
 _atom_site_fract_y
 _atom_site_fract_z
 _atom_site_occupancy
  La  La0  1  0.000000  0.500000  0.521677  1
  La  La1  1  0.500000  0.000000  0.478323  1
  La  La2  1  0.500000  0.818189  0.205988  1
  La  La3  1  0.500000  0.181811  0.205988  1
  La  La4  1  0.000000  0.681811  0.794012  1
  La  La5  1  0.000000  0.318189  0.794012  1
  Nb  Nb6  1  0.500000  0.500000  0.147442  1
  Nb  Nb7  1  0.000000  0.000000  0.852558  1
  Ni  Ni8  1  0.500000  0.500000  0.700165  1
  Ni  Ni9  1  0.000000  0.000000  0.299835  1
  Ni  Ni10  1  0.000000  0.500000  0.983228  1
  Ni  Ni11  1  0.500000  0.000000  0.016772  1
  Ni  Ni12  1  0.500000  0.331637  0.990266  1
  Ni  Ni13  1  0.500000  0.668363  0.990266  1
  Ni  Ni14  1  0.000000  0.168363  0.009734  1
  Ni  Ni15  1  0.000000  0.831637  0.009734  1
  Ni  Ni16  1  0.500000  0.302255  0.424192  1
  Ni  Ni17  1  0.500000  0.697745  0.424192  1
  Ni  Ni18  1  0.000000  0.197745  0.575808  1
  Ni  Ni19  1  0.000000  0.802255  0.575808  1
  Ni  Ni20  1  0.500000  0.883059  0.712051  1
  Ni  Ni21  1  0.500000  0.116941  0.712051  1
  Ni  Ni22  1  0.000000  0.616941  0.287949  1
  Ni  Ni23  1  0.000000  0.383059  0.287949  1
  P  P24  1  0.500000  0.500000  0.885162  1
  P  P25  1  0.000000  0.000000  0.114838  1
  P  P26  1  0.500000  0.500000  0.343367  1
  P  P27  1  0.000000  0.000000  0.656633  1
  P  P28  1  0.500000  0.305565  0.610184  1
  P  P29  1  0.500000  0.694435  0.610184  1
  P  P30  1  0.000000  0.194435  0.389816  1
  P  P31  1  0.000000  0.805565  0.389816  1
  P  P32  1  0.500000  0.845525  0.898517  1
  P  P33  1  0.500000  0.154475  0.898517  1
  P  P34  1  0.000000  0.654475  0.101483  1
  P  P35  1  0.000000  0.345525  0.101483  1
