# generated using pymatgen
data_Er3ZnIn4Ru
_symmetry_space_group_name_H-M   'P 1'
_cell_length_a   7.94979600
_cell_length_b   7.94979575
_cell_length_c   3.79235600
_cell_angle_alpha   90.00000000
_cell_angle_beta   90.00000000
_cell_angle_gamma   120.00000105
_symmetry_Int_Tables_number   1
_chemical_formula_structural   Er3ZnIn4Ru
_chemical_formula_sum   'Er3 Zn1 In4 Ru1'
_cell_volume   207.56383259
_cell_formula_units_Z   1
loop_
 _symmetry_equiv_pos_site_id
 _symmetry_equiv_pos_as_xyz
  1  'x, y, z'
loop_
 _atom_site_type_symbol
 _atom_site_label
 _atom_site_symmetry_multiplicity
 _atom_site_fract_x
 _atom_site_fract_y
 _atom_site_fract_z
 _atom_site_occupancy
  Er  Er0  1  0.711782  0.958203  0.500000  1
  Er  Er1  1  0.246421  0.288218  0.500000  1
  Er  Er2  1  0.041797  0.753579  0.500000  1
  Zn  Zn3  1  0.666667  0.333333  0.500000  1
  In  In4  1  0.931703  0.334104  0.000000  1
  In  In5  1  0.402402  0.068297  0.000000  1
  In  In6  1  0.665896  0.597598  0.000000  1
  In  In7  1  0.333333  0.666667  0.000000  1
  Ru  Ru8  1  0.000000  0.000000  0.000000  1
