# generated using pymatgen
data_TbCdNiPt3
_symmetry_space_group_name_H-M   'P 1'
_cell_length_a   5.19408003
_cell_length_b   5.19408037
_cell_length_c   5.19407930
_cell_angle_alpha   62.83996457
_cell_angle_beta   62.83996126
_cell_angle_gamma   62.83996332
_symmetry_Int_Tables_number   1
_chemical_formula_structural   TbCdNiPt3
_chemical_formula_sum   'Tb1 Cd1 Ni1 Pt3'
_cell_volume   105.34060423
_cell_formula_units_Z   1
loop_
 _symmetry_equiv_pos_site_id
 _symmetry_equiv_pos_as_xyz
  1  'x, y, z'
loop_
 _atom_site_type_symbol
 _atom_site_label
 _atom_site_symmetry_multiplicity
 _atom_site_fract_x
 _atom_site_fract_y
 _atom_site_fract_z
 _atom_site_occupancy
  Tb  Tb0  1  0.250095  0.250095  0.250095  1
  Cd  Cd1  1  0.997916  0.997916  0.997916  1
  Ni  Ni2  1  0.626138  0.626138  0.626138  1
  Pt  Pt3  1  0.626180  0.626180  0.123490  1
  Pt  Pt4  1  0.626180  0.123490  0.626180  1
  Pt  Pt5  1  0.123490  0.626180  0.626180  1
