# generated using pymatgen
data_CaBr19
_symmetry_space_group_name_H-M   'P 1'
_cell_length_a   9.72613599
_cell_length_b   12.27071540
_cell_length_c   9.25908549
_cell_angle_alpha   72.01687832
_cell_angle_beta   81.02451224
_cell_angle_gamma   90.05719214
_symmetry_Int_Tables_number   1
_chemical_formula_structural   CaBr19
_chemical_formula_sum   'Ca1 Br19'
_cell_volume   1036.76428306
_cell_formula_units_Z   1
loop_
 _symmetry_equiv_pos_site_id
 _symmetry_equiv_pos_as_xyz
  1  'x, y, z'
loop_
 _atom_site_type_symbol
 _atom_site_label
 _atom_site_symmetry_multiplicity
 _atom_site_fract_x
 _atom_site_fract_y
 _atom_site_fract_z
 _atom_site_occupancy
  Ca  Ca0  1  0.881939  0.598236  0.365782  1
  Br  Br1  1  0.416982  0.466328  0.573003  1
  Br  Br2  1  0.846689  0.535077  0.097938  1
  Br  Br3  1  0.672872  0.406490  0.563769  1
  Br  Br4  1  0.083099  0.638179  0.058552  1
  Br  Br5  1  0.095855  0.637465  0.530282  1
  Br  Br6  1  0.585852  0.256092  0.120412  1
  Br  Br7  1  0.931476  0.361986  0.539614  1
  Br  Br8  1  0.324863  0.746110  0.019335  1
  Br  Br9  1  0.140008  0.844079  0.523684  1
  Br  Br10  1  0.702986  0.105818  0.980553  1
  Br  Br11  1  0.834827  0.138355  0.395942  1
  Br  Br12  1  0.240228  0.945875  0.003866  1
  Br  Br13  1  0.183981  0.047406  0.536447  1
  Br  Br14  1  0.814337  0.979607  0.851203  1
  Br  Br15  1  0.764441  0.956153  0.373479  1
  Br  Br16  1  0.140184  0.137939  0.003451  1
  Br  Br17  1  0.671334  0.754917  0.352383  1
  Br  Br18  1  0.283098  0.296142  0.788544  1
  Br  Br19  1  0.384950  0.147745  0.321762  1
