# generated using pymatgen
data_Tb2Ho4OsPd
_symmetry_space_group_name_H-M   'P 1'
_cell_length_a   6.39892700
_cell_length_b   7.30355032
_cell_length_c   9.22449200
_cell_angle_alpha   90.00000000
_cell_angle_beta   90.00000000
_cell_angle_gamma   90.49568755
_symmetry_Int_Tables_number   1
_chemical_formula_structural   Tb2Ho4OsPd
_chemical_formula_sum   'Tb4 Ho8 Os2 Pd2'
_cell_volume   431.08944271
_cell_formula_units_Z   2
loop_
 _symmetry_equiv_pos_site_id
 _symmetry_equiv_pos_as_xyz
  1  'x, y, z'
loop_
 _atom_site_type_symbol
 _atom_site_label
 _atom_site_symmetry_multiplicity
 _atom_site_fract_x
 _atom_site_fract_y
 _atom_site_fract_z
 _atom_site_occupancy
  Tb  Tb0  1  0.620525  0.041794  0.250000  1
  Tb  Tb1  1  0.379475  0.958206  0.750000  1
  Tb  Tb2  1  0.121633  0.477125  0.750000  1
  Tb  Tb3  1  0.878367  0.522875  0.250000  1
  Ho  Ho4  1  0.176655  0.184347  0.061383  1
  Ho  Ho5  1  0.823345  0.815653  0.938617  1
  Ho  Ho6  1  0.662768  0.325948  0.941769  1
  Ho  Ho7  1  0.823345  0.815653  0.561383  1
  Ho  Ho8  1  0.337232  0.674052  0.058231  1
  Ho  Ho9  1  0.176655  0.184347  0.438617  1
  Ho  Ho10  1  0.337232  0.674052  0.441769  1
  Ho  Ho11  1  0.662768  0.325948  0.558231  1
  Os  Os12  1  0.452812  0.385560  0.250000  1
  Os  Os13  1  0.547188  0.614440  0.750000  1
  Pd  Pd14  1  0.948806  0.112775  0.750000  1
  Pd  Pd15  1  0.051194  0.887225  0.250000  1
