# generated using pymatgen
data_FeCo7Bi16(SO7)8
_symmetry_space_group_name_H-M   'P 1'
_cell_length_a   5.50299565
_cell_length_b   14.52824275
_cell_length_c   16.05233636
_cell_angle_alpha   89.85252390
_cell_angle_beta   89.94902752
_cell_angle_gamma   90.02147850
_symmetry_Int_Tables_number   1
_chemical_formula_structural   FeCo7Bi16(SO7)8
_chemical_formula_sum   'Fe1 Co7 Bi16 S8 O56'
_cell_volume   1283.36108813
_cell_formula_units_Z   1
loop_
 _symmetry_equiv_pos_site_id
 _symmetry_equiv_pos_as_xyz
  1  'x, y, z'
loop_
 _atom_site_type_symbol
 _atom_site_label
 _atom_site_symmetry_multiplicity
 _atom_site_fract_x
 _atom_site_fract_y
 _atom_site_fract_z
 _atom_site_occupancy
  Fe  Fe0  1  0.724992  0.016060  0.326186  1
  Co  Co1  1  0.224742  0.485356  0.673394  1
  Co  Co2  1  0.275114  0.514134  0.173288  1
  Co  Co3  1  0.774889  0.985698  0.826530  1
  Co  Co4  1  0.275161  0.985374  0.673545  1
  Co  Co5  1  0.775395  0.514458  0.326621  1
  Co  Co6  1  0.724960  0.485517  0.826800  1
  Co  Co7  1  0.223380  0.013229  0.172214  1
  Bi  Bi8  1  0.719441  0.881372  0.156182  1
  Bi  Bi9  1  0.220379  0.617691  0.843241  1
  Bi  Bi10  1  0.279803  0.382494  0.344054  1
  Bi  Bi11  1  0.779641  0.117878  0.656161  1
  Bi  Bi12  1  0.279500  0.118065  0.843185  1
  Bi  Bi13  1  0.779776  0.382124  0.156816  1
  Bi  Bi14  1  0.720368  0.617571  0.656378  1
  Bi  Bi15  1  0.223224  0.880872  0.343486  1
  Bi  Bi16  1  0.750558  0.083812  0.018710  1
  Bi  Bi17  1  0.251953  0.415956  0.981077  1
  Bi  Bi18  1  0.248163  0.584000  0.481024  1
  Bi  Bi19  1  0.749182  0.915659  0.519437  1
  Bi  Bi20  1  0.247375  0.916036  0.980403  1
  Bi  Bi21  1  0.747904  0.583759  0.018922  1
  Bi  Bi22  1  0.751765  0.416142  0.519087  1
  Bi  Bi23  1  0.252498  0.083235  0.481210  1
  S  S24  1  0.798732  0.208093  0.393387  1
  S  S25  1  0.299453  0.294275  0.607771  1
  S  S26  1  0.200368  0.705284  0.107159  1
  S  S27  1  0.700713  0.794241  0.892330  1
  S  S28  1  0.200743  0.794052  0.608004  1
  S  S29  1  0.700667  0.705911  0.392164  1
  S  S30  1  0.799647  0.294335  0.892453  1
  S  S31  1  0.299467  0.205260  0.107683  1
  O  O32  1  0.480065  0.981023  0.082465  1
  O  O33  1  0.980791  0.518415  0.916535  1
  O  O34  1  0.519267  0.482085  0.416732  1
  O  O35  1  0.019032  0.018098  0.583656  1
  O  O36  1  0.518735  0.018666  0.916146  1
  O  O37  1  0.019109  0.481351  0.083554  1
  O  O38  1  0.480577  0.518502  0.583493  1
  O  O39  1  0.986107  0.980632  0.416774  1
  O  O40  1  0.967355  0.969602  0.078702  1
  O  O41  1  0.469201  0.529916  0.920838  1
  O  O42  1  0.031063  0.470689  0.420924  1
  O  O43  1  0.530904  0.029540  0.579385  1
  O  O44  1  0.030254  0.030122  0.920564  1
  O  O45  1  0.530631  0.469730  0.079157  1
  O  O46  1  0.969385  0.529843  0.579254  1
  O  O47  1  0.469731  0.969569  0.421658  1
  O  O48  1  0.975377  0.951042  0.248474  1
  O  O49  1  0.472108  0.545870  0.750886  1
  O  O50  1  0.028110  0.453559  0.251096  1
  O  O51  1  0.527676  0.046384  0.748914  1
  O  O52  1  0.027956  0.046558  0.750800  1
  O  O53  1  0.528141  0.453952  0.249167  1
  O  O54  1  0.972098  0.546205  0.749029  1
  O  O55  1  0.468766  0.953620  0.249372  1
  O  O56  1  0.740753  0.306684  0.374241  1
  O  O57  1  0.236694  0.196370  0.627613  1
  O  O58  1  0.262938  0.803156  0.126636  1
  O  O59  1  0.762842  0.696404  0.872389  1
  O  O60  1  0.262726  0.696316  0.628600  1
  O  O61  1  0.763590  0.803801  0.372015  1
  O  O62  1  0.737352  0.196544  0.872430  1
  O  O63  1  0.236631  0.302972  0.127783  1
  O  O64  1  0.809504  0.193499  0.485336  1
  O  O65  1  0.310523  0.308036  0.515666  1
  O  O66  1  0.189453  0.691722  0.015123  1
  O  O67  1  0.689815  0.807286  0.984441  1
  O  O68  1  0.189701  0.806699  0.515794  1
  O  O69  1  0.689998  0.692657  0.484308  1
  O  O70  1  0.810326  0.307355  0.984569  1
  O  O71  1  0.311180  0.192383  0.015549  1
  O  O72  1  0.598894  0.148727  0.357717  1
  O  O73  1  0.102946  0.355630  0.643309  1
  O  O74  1  0.396964  0.643950  0.142825  1
  O  O75  1  0.897380  0.855781  0.856771  1
  O  O76  1  0.397434  0.855717  0.642912  1
  O  O77  1  0.896541  0.644424  0.356588  1
  O  O78  1  0.602803  0.355817  0.857134  1
  O  O79  1  0.102542  0.143548  0.142830  1
  O  O80  1  0.034697  0.183011  0.354458  1
  O  O81  1  0.536664  0.318279  0.646249  1
  O  O82  1  0.963216  0.681107  0.145897  1
  O  O83  1  0.463695  0.818711  0.853876  1
  O  O84  1  0.963690  0.818768  0.646448  1
  O  O85  1  0.462998  0.682034  0.353884  1
  O  O86  1  0.036712  0.318880  0.853875  1
  O  O87  1  0.536407  0.180816  0.146257  1
