# generated using pymatgen
data_La4RhBr6
_symmetry_space_group_name_H-M   'P 1'
_cell_length_a   4.36706500
_cell_length_b   14.01796100
_cell_length_c   14.56567400
_cell_angle_alpha   90.00000000
_cell_angle_beta   90.00000000
_cell_angle_gamma   90.00000000
_symmetry_Int_Tables_number   1
_chemical_formula_structural   La4RhBr6
_chemical_formula_sum   'La8 Rh2 Br12'
_cell_volume   891.67191743
_cell_formula_units_Z   2
loop_
 _symmetry_equiv_pos_site_id
 _symmetry_equiv_pos_as_xyz
  1  'x, y, z'
loop_
 _atom_site_type_symbol
 _atom_site_label
 _atom_site_symmetry_multiplicity
 _atom_site_fract_x
 _atom_site_fract_y
 _atom_site_fract_z
 _atom_site_occupancy
  La  La0  1  0.500000  0.109030  0.350338  1
  La  La1  1  0.500000  0.890970  0.649662  1
  La  La2  1  0.500000  0.609030  0.149662  1
  La  La3  1  0.500000  0.390970  0.850338  1
  La  La4  1  0.000000  0.127637  0.586505  1
  La  La5  1  0.000000  0.872363  0.413495  1
  La  La6  1  0.000000  0.627637  0.913495  1
  La  La7  1  0.000000  0.372363  0.086505  1
  Rh  Rh8  1  0.500000  0.000000  0.500000  1
  Rh  Rh9  1  0.500000  0.500000  0.000000  1
  Br  Br10  1  0.500000  0.239004  0.173042  1
  Br  Br11  1  0.500000  0.760996  0.826958  1
  Br  Br12  1  0.500000  0.739004  0.326958  1
  Br  Br13  1  0.500000  0.260996  0.673042  1
  Br  Br14  1  0.000000  0.248921  0.413882  1
  Br  Br15  1  0.000000  0.751079  0.586118  1
  Br  Br16  1  0.000000  0.748921  0.086118  1
  Br  Br17  1  0.000000  0.251079  0.913882  1
  Br  Br18  1  0.000000  0.000297  0.245137  1
  Br  Br19  1  0.000000  0.999703  0.754863  1
  Br  Br20  1  0.000000  0.500297  0.254863  1
  Br  Br21  1  0.000000  0.499703  0.745137  1
