# generated using pymatgen
data_K11LiNb4O16
_symmetry_space_group_name_H-M   'P 1'
_cell_length_a   8.37391044
_cell_length_b   8.37421586
_cell_length_c   10.76857394
_cell_angle_alpha   112.87759554
_cell_angle_beta   112.88327077
_cell_angle_gamma   90.00820372
_symmetry_Int_Tables_number   1
_chemical_formula_structural   K11LiNb4O16
_chemical_formula_sum   'K11 Li1 Nb4 O16'
_cell_volume   630.72116690
_cell_formula_units_Z   1
loop_
 _symmetry_equiv_pos_site_id
 _symmetry_equiv_pos_as_xyz
  1  'x, y, z'
loop_
 _atom_site_type_symbol
 _atom_site_label
 _atom_site_symmetry_multiplicity
 _atom_site_fract_x
 _atom_site_fract_y
 _atom_site_fract_z
 _atom_site_occupancy
  K  K0  1  0.287243  0.287210  0.574741  1
  K  K1  1  0.499895  0.999911  0.000051  1
  K  K2  1  0.249901  0.749929  0.499885  1
  K  K3  1  0.910232  0.910243  0.231987  1
  K  K4  1  0.089761  0.678459  0.767848  1
  K  K5  1  0.712840  0.712791  0.425258  1
  K  K6  1  0.999859  0.499904  0.000070  1
  K  K7  1  0.678423  0.089759  0.767840  1
  K  K8  1  0.321797  0.321837  0.232014  1
  K  K9  1  0.749902  0.250006  0.499982  1
  K  K10  1  0.500152  0.500128  0.000080  1
  Li  Li11  1  0.999979  0.000004  0.000056  1
  Nb  Nb12  1  0.868364  0.382655  0.250973  1
  Nb  Nb13  1  0.131608  0.131602  0.748984  1
  Nb  Nb14  1  0.617330  0.617323  0.749037  1
  Nb  Nb15  1  0.382694  0.868315  0.250993  1
  O  O16  1  0.433430  0.017052  0.450518  1
  O  O17  1  0.805709  0.805694  0.881897  1
  O  O18  1  0.633476  0.329018  0.218885  1
  O  O19  1  0.328962  0.633459  0.218891  1
  O  O20  1  0.017034  0.433465  0.450499  1
  O  O21  1  0.585570  0.889875  0.218965  1
  O  O22  1  0.366516  0.110098  0.781125  1
  O  O23  1  0.194456  0.923994  0.118290  1
  O  O24  1  0.566629  0.566647  0.549574  1
  O  O25  1  0.075895  0.075902  0.881655  1
  O  O26  1  0.670899  0.414462  0.781092  1
  O  O27  1  0.982926  0.982939  0.549418  1
  O  O28  1  0.889896  0.585564  0.218973  1
  O  O29  1  0.924060  0.194378  0.118264  1
  O  O30  1  0.110058  0.366487  0.781087  1
  O  O31  1  0.414505  0.670887  0.781068  1
