# generated using pymatgen
data_Zr6Sc16CoOs7
_symmetry_space_group_name_H-M   'P 1'
_cell_length_a   9.41238207
_cell_length_b   9.47510814
_cell_length_c   9.47510798
_cell_angle_alpha   60.30970110
_cell_angle_beta   60.21875208
_cell_angle_gamma   60.21875343
_symmetry_Int_Tables_number   1
_chemical_formula_structural   Zr6Sc16CoOs7
_chemical_formula_sum   'Zr6 Sc16 Co1 Os7'
_cell_volume   600.88848060
_cell_formula_units_Z   1
loop_
 _symmetry_equiv_pos_site_id
 _symmetry_equiv_pos_as_xyz
  1  'x, y, z'
loop_
 _atom_site_type_symbol
 _atom_site_label
 _atom_site_symmetry_multiplicity
 _atom_site_fract_x
 _atom_site_fract_y
 _atom_site_fract_z
 _atom_site_occupancy
  Zr  Zr0  1  0.842460  0.842316  0.842316  1
  Zr  Zr1  1  0.527091  0.157684  0.157684  1
  Zr  Zr2  1  0.159184  0.156527  0.527157  1
  Zr  Zr3  1  0.159184  0.527157  0.156527  1
  Zr  Zr4  1  0.842869  0.843473  0.472843  1
  Zr  Zr5  1  0.842869  0.472843  0.843473  1
  Sc  Sc6  1  0.470299  0.844307  0.844307  1
  Sc  Sc7  1  0.158912  0.155693  0.155693  1
  Sc  Sc8  1  0.197375  0.802756  0.197244  1
  Sc  Sc9  1  0.197948  0.801319  0.801319  1
  Sc  Sc10  1  0.800587  0.198681  0.198681  1
  Sc  Sc11  1  0.800020  0.800908  0.199092  1
  Sc  Sc12  1  0.197375  0.197244  0.802756  1
  Sc  Sc13  1  0.800020  0.199092  0.800908  1
  Sc  Sc14  1  0.385215  0.384754  0.384754  1
  Sc  Sc15  1  0.154724  0.615246  0.615246  1
  Sc  Sc16  1  0.613985  0.152599  0.617308  1
  Sc  Sc17  1  0.613985  0.617308  0.152599  1
  Sc  Sc18  1  0.383890  0.847401  0.382692  1
  Sc  Sc19  1  0.383890  0.382692  0.847401  1
  Sc  Sc20  1  0.847400  0.383330  0.383330  1
  Sc  Sc21  1  0.614060  0.616670  0.616670  1
  Co  Co22  1  0.500880  0.500000  0.500000  1
  Os  Os23  1  0.501009  0.497620  0.001268  1
  Os  Os24  1  0.999896  0.998732  0.502380  1
  Os  Os25  1  0.501009  0.001268  0.497620  1
  Os  Os26  1  0.001228  0.500000  0.500000  1
  Os  Os27  1  0.504667  0.000000  0.000000  1
  Os  Os28  1  0.999896  0.502380  0.998732  1
  Os  Os29  1  0.998072  0.000000  0.000000  1
