# generated using pymatgen
data_TbY3Co16(P3Ru)4
_symmetry_space_group_name_H-M   'P 1'
_cell_length_a   3.69316600
_cell_length_b   10.40818703
_cell_length_c   11.78039203
_cell_angle_alpha   89.99164942
_cell_angle_beta   90.00000000
_cell_angle_gamma   90.00000000
_symmetry_Int_Tables_number   1
_chemical_formula_structural   TbY3Co16(P3Ru)4
_chemical_formula_sum   'Tb1 Y3 Co16 P12 Ru4'
_cell_volume   452.82839823
_cell_formula_units_Z   1
loop_
 _symmetry_equiv_pos_site_id
 _symmetry_equiv_pos_as_xyz
  1  'x, y, z'
loop_
 _atom_site_type_symbol
 _atom_site_label
 _atom_site_symmetry_multiplicity
 _atom_site_fract_x
 _atom_site_fract_y
 _atom_site_fract_z
 _atom_site_occupancy
  Tb  Tb0  1  0.750000  0.086089  0.795915  1
  Y  Y1  1  0.250000  0.586181  0.704084  1
  Y  Y2  1  0.250000  0.913845  0.204088  1
  Y  Y3  1  0.750000  0.413850  0.295919  1
  Co  Co4  1  0.250000  0.408578  0.489768  1
  Co  Co5  1  0.250000  0.091420  0.989812  1
  Co  Co6  1  0.750000  0.591425  0.510222  1
  Co  Co7  1  0.750000  0.908573  0.010229  1
  Co  Co8  1  0.250000  0.221273  0.176588  1
  Co  Co9  1  0.250000  0.278796  0.676552  1
  Co  Co10  1  0.750000  0.778736  0.823412  1
  Co  Co11  1  0.750000  0.721272  0.323418  1
  Co  Co12  1  0.250000  0.887084  0.702257  1
  Co  Co13  1  0.250000  0.612873  0.202306  1
  Co  Co14  1  0.750000  0.112863  0.297704  1
  Co  Co15  1  0.750000  0.387144  0.797713  1
  Co  Co16  1  0.250000  0.465192  0.930862  1
  Co  Co17  1  0.250000  0.034817  0.430850  1
  Co  Co18  1  0.750000  0.534813  0.069150  1
  Co  Co19  1  0.750000  0.965164  0.569117  1
  P  P20  1  0.250000  0.419804  0.111826  1
  P  P21  1  0.250000  0.080167  0.611748  1
  P  P22  1  0.750000  0.580203  0.888167  1
  P  P23  1  0.750000  0.919801  0.388170  1
  P  P24  1  0.250000  0.272239  0.867015  1
  P  P25  1  0.250000  0.227872  0.366975  1
  P  P26  1  0.750000  0.727881  0.133026  1
  P  P27  1  0.750000  0.772135  0.633023  1
  P  P28  1  0.250000  0.596136  0.390317  1
  P  P29  1  0.250000  0.903778  0.890359  1
  P  P30  1  0.750000  0.403859  0.609689  1
  P  P31  1  0.750000  0.096138  0.109670  1
  Ru  Ru32  1  0.250000  0.716528  0.992138  1
  Ru  Ru33  1  0.250000  0.783477  0.492148  1
  Ru  Ru34  1  0.750000  0.283486  0.007879  1
  Ru  Ru35  1  0.750000  0.216508  0.507885  1
