# generated using pymatgen
data_Dy4Lu2Al17Si7Os8
_symmetry_space_group_name_H-M   'P 1'
_cell_length_a   8.69626019
_cell_length_b   8.68711966
_cell_length_c   9.48025100
_cell_angle_alpha   90.00000000
_cell_angle_beta   90.00000000
_cell_angle_gamma   120.11312767
_symmetry_Int_Tables_number   1
_chemical_formula_structural   Dy4Lu2Al17Si7Os8
_chemical_formula_sum   'Dy4 Lu2 Al17 Si7 Os8'
_cell_volume   619.53035962
_cell_formula_units_Z   1
loop_
 _symmetry_equiv_pos_site_id
 _symmetry_equiv_pos_as_xyz
  1  'x, y, z'
loop_
 _atom_site_type_symbol
 _atom_site_label
 _atom_site_symmetry_multiplicity
 _atom_site_fract_x
 _atom_site_fract_y
 _atom_site_fract_z
 _atom_site_occupancy
  Dy  Dy0  1  0.611795  0.807740  0.250000  1
  Dy  Dy1  1  0.387152  0.190876  0.750000  1
  Dy  Dy2  1  0.195366  0.805733  0.250000  1
  Dy  Dy3  1  0.802902  0.191406  0.750000  1
  Lu  Lu4  1  0.194350  0.391690  0.250000  1
  Lu  Lu5  1  0.804903  0.610796  0.750000  1
  Al  Al6  1  0.164535  0.329855  0.577606  1
  Al  Al7  1  0.834084  0.670688  0.421753  1
  Al  Al8  1  0.671443  0.834682  0.578149  1
  Al  Al9  1  0.834084  0.670688  0.078247  1
  Al  Al10  1  0.329754  0.166476  0.422023  1
  Al  Al11  1  0.164535  0.329855  0.922394  1
  Al  Al12  1  0.163126  0.833886  0.577152  1
  Al  Al13  1  0.329754  0.166476  0.077977  1
  Al  Al14  1  0.836005  0.164523  0.421329  1
  Al  Al15  1  0.671443  0.834682  0.921851  1
  Al  Al16  1  0.836005  0.164523  0.078671  1
  Al  Al17  1  0.163126  0.833886  0.922848  1
  Al  Al18  1  0.125081  0.565650  0.750000  1
  Al  Al19  1  0.563884  0.435019  0.250000  1
  Al  Al20  1  0.439068  0.566481  0.750000  1
  Al  Al21  1  0.001102  0.002193  0.250000  1
  Al  Al22  1  0.998463  0.998349  0.750000  1
  Si  Si23  1  0.333150  0.664010  0.039715  1
  Si  Si24  1  0.666875  0.336292  0.959514  1
  Si  Si25  1  0.666875  0.336292  0.540486  1
  Si  Si26  1  0.333150  0.664010  0.460285  1
  Si  Si27  1  0.565374  0.125534  0.250000  1
  Si  Si28  1  0.435807  0.872233  0.750000  1
  Si  Si29  1  0.875152  0.434102  0.250000  1
  Os  Os30  1  0.500984  0.001044  0.001077  1
  Os  Os31  1  0.998562  0.499267  0.006662  1
  Os  Os32  1  0.500984  0.001044  0.498923  1
  Os  Os33  1  0.500700  0.500207  0.000323  1
  Os  Os34  1  0.998562  0.499267  0.493338  1
  Os  Os35  1  0.500700  0.500207  0.499677  1
  Os  Os36  1  0.000584  0.000171  0.000166  1
  Os  Os37  1  0.000584  0.000171  0.499834  1
