# generated using pymatgen
data_KVIO6
_symmetry_space_group_name_H-M   'P 1'
_cell_length_a   5.21431087
_cell_length_b   5.21474739
_cell_length_c   24.16835996
_cell_angle_alpha   90.01155864
_cell_angle_beta   89.98636118
_cell_angle_gamma   119.99692307
_symmetry_Int_Tables_number   1
_chemical_formula_structural   KVIO6
_chemical_formula_sum   'K4 V4 I4 O24'
_cell_volume   569.14307633
_cell_formula_units_Z   4
loop_
 _symmetry_equiv_pos_site_id
 _symmetry_equiv_pos_as_xyz
  1  'x, y, z'
loop_
 _atom_site_type_symbol
 _atom_site_label
 _atom_site_symmetry_multiplicity
 _atom_site_fract_x
 _atom_site_fract_y
 _atom_site_fract_z
 _atom_site_occupancy
  K  K0  1  0.666728  0.333327  0.124992  1
  K  K1  1  0.666828  0.333512  0.375024  1
  K  K2  1  0.666466  0.333077  0.625010  1
  K  K3  1  0.666701  0.333329  0.874979  1
  V  V4  1  0.333076  0.666708  0.500061  1
  V  V5  1  0.333260  0.666541  0.749949  1
  V  V6  1  0.333199  0.666849  0.999944  1
  V  V7  1  0.333439  0.666618  0.250070  1
  I  I8  1  0.000054  0.999991  0.999972  1
  I  I9  1  0.000158  0.000014  0.249997  1
  I  I10  1  0.999915  0.000053  0.500000  1
  I  I11  1  0.999961  0.999926  0.750022  1
  O  O12  1  0.057656  0.326495  0.204586  1
  O  O13  1  0.057518  0.326532  0.454570  1
  O  O14  1  0.057434  0.326446  0.704585  1
  O  O15  1  0.057510  0.326528  0.954540  1
  O  O16  1  0.269138  0.942376  0.204575  1
  O  O17  1  0.269322  0.942862  0.454645  1
  O  O18  1  0.269024  0.942351  0.704572  1
  O  O19  1  0.269029  0.942376  0.954530  1
  O  O20  1  0.269084  0.326550  0.045379  1
  O  O21  1  0.269295  0.326596  0.295426  1
  O  O22  1  0.268719  0.326717  0.545471  1
  O  O23  1  0.269051  0.326484  0.795420  1
  O  O24  1  0.673642  0.730852  0.204599  1
  O  O25  1  0.673318  0.731146  0.454564  1
  O  O26  1  0.673456  0.730724  0.704597  1
  O  O27  1  0.673527  0.730862  0.954554  1
  O  O28  1  0.673405  0.942589  0.045387  1
  O  O29  1  0.673569  0.942653  0.295428  1
  O  O30  1  0.673341  0.942544  0.545453  1
  O  O31  1  0.673407  0.942491  0.795423  1
  O  O32  1  0.057546  0.731090  0.045397  1
  O  O33  1  0.057669  0.731022  0.295447  1
  O  O34  1  0.056963  0.730721  0.545391  1
  O  O35  1  0.057589  0.731052  0.795445  1
