# generated using pymatgen
data_LiY8Lu4Co4Sn
_symmetry_space_group_name_H-M   'P 1'
_cell_length_a   8.31387576
_cell_length_b   8.31380962
_cell_length_c   8.31387671
_cell_angle_alpha   111.05915481
_cell_angle_beta   110.51346984
_cell_angle_gamma   106.87268521
_symmetry_Int_Tables_number   1
_chemical_formula_structural   LiY8Lu4Co4Sn
_chemical_formula_sum   'Li1 Y8 Lu4 Co4 Sn1'
_cell_volume   441.67877942
_cell_formula_units_Z   1
loop_
 _symmetry_equiv_pos_site_id
 _symmetry_equiv_pos_as_xyz
  1  'x, y, z'
loop_
 _atom_site_type_symbol
 _atom_site_label
 _atom_site_symmetry_multiplicity
 _atom_site_fract_x
 _atom_site_fract_y
 _atom_site_fract_z
 _atom_site_occupancy
  Li  Li0  1  0.000000  0.000000  0.000000  1
  Y  Y1  1  0.423655  0.222554  0.201120  1
  Y  Y2  1  0.576345  0.777446  0.798880  1
  Y  Y3  1  0.021433  0.222554  0.798898  1
  Y  Y4  1  0.978567  0.777446  0.201102  1
  Y  Y5  1  0.187587  0.291071  0.478670  1
  Y  Y6  1  0.812413  0.708929  0.521330  1
  Y  Y7  1  0.187600  0.708929  0.896517  1
  Y  Y8  1  0.812400  0.291071  0.103483  1
  Lu  Lu9  1  0.314544  0.623665  0.309122  1
  Lu  Lu10  1  0.685456  0.376335  0.690878  1
  Lu  Lu11  1  0.314500  0.005367  0.690867  1
  Lu  Lu12  1  0.685500  0.994633  0.309133  1
  Co  Co13  1  0.377973  0.000000  0.377973  1
  Co  Co14  1  0.622027  0.000000  0.622027  1
  Co  Co15  1  0.113684  0.613683  0.499999  1
  Co  Co16  1  0.886316  0.386317  0.500001  1
  Sn  Sn17  1  0.500000  0.500000  0.000000  1
