# generated using pymatgen
data_Tb3Th11Os6
_symmetry_space_group_name_H-M   'P 1'
_cell_length_a   9.92004978
_cell_length_b   9.98229571
_cell_length_c   6.37304716
_cell_angle_alpha   89.98757653
_cell_angle_beta   90.06693793
_cell_angle_gamma   120.07505050
_symmetry_Int_Tables_number   1
_chemical_formula_structural   Tb3Th11Os6
_chemical_formula_sum   'Tb3 Th11 Os6'
_cell_volume   546.12590157
_cell_formula_units_Z   1
loop_
 _symmetry_equiv_pos_site_id
 _symmetry_equiv_pos_as_xyz
  1  'x, y, z'
loop_
 _atom_site_type_symbol
 _atom_site_label
 _atom_site_symmetry_multiplicity
 _atom_site_fract_x
 _atom_site_fract_y
 _atom_site_fract_z
 _atom_site_occupancy
  Tb  Tb0  1  0.461435  0.536496  0.298497  1
  Tb  Tb1  1  0.073252  0.536160  0.299648  1
  Tb  Tb2  1  0.927499  0.463008  0.798797  1
  Th  Th3  1  0.252379  0.127990  0.510127  1
  Th  Th4  1  0.540802  0.079764  0.796403  1
  Th  Th5  1  0.745724  0.872050  0.012465  1
  Th  Th6  1  0.666782  0.333732  0.274318  1
  Th  Th7  1  0.126365  0.870405  0.008219  1
  Th  Th8  1  0.460560  0.919075  0.297285  1
  Th  Th9  1  0.537729  0.465137  0.800955  1
  Th  Th10  1  0.874469  0.129348  0.510687  1
  Th  Th11  1  0.125450  0.254480  0.013130  1
  Th  Th12  1  0.873708  0.746611  0.509216  1
  Th  Th13  1  0.333002  0.665635  0.771078  1
  Os  Os14  1  0.812129  0.628740  0.047468  1
  Os  Os15  1  0.813009  0.182837  0.047597  1
  Os  Os16  1  0.630219  0.815154  0.547015  1
  Os  Os17  1  0.371719  0.186759  0.042269  1
  Os  Os18  1  0.185784  0.368877  0.553901  1
  Os  Os19  1  0.187984  0.817742  0.544922  1
