# generated using pymatgen
data_Zr6Zn21CoNi2
_symmetry_space_group_name_H-M   'P 1'
_cell_length_a   8.73322147
_cell_length_b   8.69747870
_cell_length_c   8.69747974
_cell_angle_alpha   59.77678338
_cell_angle_beta   59.86396077
_cell_angle_gamma   59.86396668
_symmetry_Int_Tables_number   1
_chemical_formula_structural   Zr6Zn21CoNi2
_chemical_formula_sum   'Zr6 Zn21 Co1 Ni2'
_cell_volume   465.38806023
_cell_formula_units_Z   1
loop_
 _symmetry_equiv_pos_site_id
 _symmetry_equiv_pos_as_xyz
  1  'x, y, z'
loop_
 _atom_site_type_symbol
 _atom_site_label
 _atom_site_symmetry_multiplicity
 _atom_site_fract_x
 _atom_site_fract_y
 _atom_site_fract_z
 _atom_site_occupancy
  Zr  Zr0  1  0.703369  0.296631  0.296631  1
  Zr  Zr1  1  0.296631  0.703369  0.703369  1
  Zr  Zr2  1  0.297231  0.700709  0.299291  1
  Zr  Zr3  1  0.702769  0.299291  0.700709  1
  Zr  Zr4  1  0.297231  0.299291  0.700709  1
  Zr  Zr5  1  0.702769  0.700709  0.299291  1
  Zn  Zn6  1  0.116402  0.118396  0.118396  1
  Zn  Zn7  1  0.883598  0.881604  0.881604  1
  Zn  Zn8  1  0.113258  0.129039  0.644446  1
  Zn  Zn9  1  0.113258  0.644446  0.129039  1
  Zn  Zn10  1  0.886742  0.870961  0.355554  1
  Zn  Zn11  1  0.886742  0.355554  0.870961  1
  Zn  Zn12  1  0.646809  0.118396  0.118396  1
  Zn  Zn13  1  0.353191  0.881604  0.881604  1
  Zn  Zn14  1  0.500000  0.000000  0.000000  1
  Zn  Zn15  1  0.000000  0.500000  0.000000  1
  Zn  Zn16  1  0.500000  0.000000  0.500000  1
  Zn  Zn17  1  0.000000  0.000000  0.500000  1
  Zn  Zn18  1  0.500000  0.500000  0.000000  1
  Zn  Zn19  1  0.324287  0.335739  0.335739  1
  Zn  Zn20  1  0.675713  0.664261  0.664261  1
  Zn  Zn21  1  0.332512  0.332373  0.002604  1
  Zn  Zn22  1  0.332512  0.002604  0.332373  1
  Zn  Zn23  1  0.667488  0.667627  0.997396  1
  Zn  Zn24  1  0.667488  0.997396  0.667627  1
  Zn  Zn25  1  0.004236  0.335739  0.335739  1
  Zn  Zn26  1  0.995764  0.664261  0.664261  1
  Co  Co27  1  0.500000  0.500000  0.500000  1
  Ni  Ni28  1  0.000000  0.500000  0.500000  1
  Ni  Ni29  1  0.000000  0.000000  0.000000  1
