# generated using pymatgen
data_Ti16Co7Os
_symmetry_space_group_name_H-M   'P 1'
_cell_length_a   8.01927902
_cell_length_b   7.95550826
_cell_length_c   7.95441201
_cell_angle_alpha   60.00462129
_cell_angle_beta   60.27184138
_cell_angle_gamma   60.27890856
_symmetry_Int_Tables_number   1
_chemical_formula_structural   Ti16Co7Os
_chemical_formula_sum   'Ti16 Co7 Os1'
_cell_volume   360.33529393
_cell_formula_units_Z   1
loop_
 _symmetry_equiv_pos_site_id
 _symmetry_equiv_pos_as_xyz
  1  'x, y, z'
loop_
 _atom_site_type_symbol
 _atom_site_label
 _atom_site_symmetry_multiplicity
 _atom_site_fract_x
 _atom_site_fract_y
 _atom_site_fract_z
 _atom_site_occupancy
  Ti  Ti0  1  0.109855  0.629967  0.630076  1
  Ti  Ti1  1  0.633877  0.081822  0.642150  1
  Ti  Ti2  1  0.633990  0.642165  0.081604  1
  Ti  Ti3  1  0.634011  0.642178  0.642253  1
  Ti  Ti4  1  0.805757  0.805874  0.194147  1
  Ti  Ti5  1  0.189695  0.194143  0.808070  1
  Ti  Ti6  1  0.805763  0.194116  0.805911  1
  Ti  Ti7  1  0.189704  0.808025  0.194196  1
  Ti  Ti8  1  0.189616  0.808071  0.808099  1
  Ti  Ti9  1  0.805716  0.194180  0.194199  1
  Ti  Ti10  1  0.433753  0.435310  0.065532  1
  Ti  Ti11  1  0.063723  0.064289  0.436016  1
  Ti  Ti12  1  0.433751  0.065533  0.435310  1
  Ti  Ti13  1  0.063730  0.435991  0.064316  1
  Ti  Ti14  1  0.063797  0.435956  0.435971  1
  Ti  Ti15  1  0.433780  0.065453  0.065457  1
  Co  Co16  1  0.418324  0.754113  0.413739  1
  Co  Co17  1  0.418290  0.413774  0.754111  1
  Co  Co18  1  0.418270  0.413830  0.413796  1
  Co  Co19  1  0.430856  0.856443  0.856371  1
  Co  Co20  1  0.859247  0.446430  0.847182  1
  Co  Co21  1  0.859196  0.847195  0.446596  1
  Co  Co22  1  0.859126  0.847128  0.846991  1
  Os  Os23  1  0.746173  0.418011  0.417905  1
