# generated using pymatgen
data_Ho6Sc2AgAu9
_symmetry_space_group_name_H-M   'P 1'
_cell_length_a   7.90576319
_cell_length_b   7.90576296
_cell_length_c   7.90576066
_cell_angle_alpha   66.17477573
_cell_angle_beta   66.17477514
_cell_angle_gamma   66.17476861
_symmetry_Int_Tables_number   1
_chemical_formula_structural   Ho6Sc2AgAu9
_chemical_formula_sum   'Ho6 Sc2 Ag1 Au9'
_cell_volume   396.00627890
_cell_formula_units_Z   1
loop_
 _symmetry_equiv_pos_site_id
 _symmetry_equiv_pos_as_xyz
  1  'x, y, z'
loop_
 _atom_site_type_symbol
 _atom_site_label
 _atom_site_symmetry_multiplicity
 _atom_site_fract_x
 _atom_site_fract_y
 _atom_site_fract_z
 _atom_site_occupancy
  Ho  Ho0  1  0.892563  0.188192  0.618719  1
  Ho  Ho1  1  0.618719  0.892563  0.188192  1
  Ho  Ho2  1  0.188192  0.618719  0.892563  1
  Ho  Ho3  1  0.107437  0.811808  0.381281  1
  Ho  Ho4  1  0.381281  0.107437  0.811808  1
  Ho  Ho5  1  0.811808  0.381281  0.107437  1
  Sc  Sc6  1  0.659367  0.659367  0.659367  1
  Sc  Sc7  1  0.340633  0.340633  0.340633  1
  Ag  Ag8  1  0.500000  0.500000  0.500000  1
  Au  Au9  1  0.000000  0.000000  0.000000  1
  Au  Au10  1  0.807006  0.807006  0.807006  1
  Au  Au11  1  0.192994  0.192994  0.192994  1
  Au  Au12  1  0.935613  0.551336  0.318404  1
  Au  Au13  1  0.318404  0.935613  0.551336  1
  Au  Au14  1  0.551336  0.318404  0.935613  1
  Au  Au15  1  0.064387  0.448664  0.681596  1
  Au  Au16  1  0.681596  0.064387  0.448664  1
  Au  Au17  1  0.448664  0.681596  0.064387  1
