# generated using pymatgen
data_DyTa8NiS16
_symmetry_space_group_name_H-M   'P 1'
_cell_length_a   6.67893200
_cell_length_b   6.67893182
_cell_length_c   12.90236800
_cell_angle_alpha   90.00000000
_cell_angle_beta   90.00000000
_cell_angle_gamma   120.00001078
_symmetry_Int_Tables_number   1
_chemical_formula_structural   DyTa8NiS16
_chemical_formula_sum   'Dy1 Ta8 Ni1 S16'
_cell_volume   498.44132433
_cell_formula_units_Z   1
loop_
 _symmetry_equiv_pos_site_id
 _symmetry_equiv_pos_as_xyz
  1  'x, y, z'
loop_
 _atom_site_type_symbol
 _atom_site_label
 _atom_site_symmetry_multiplicity
 _atom_site_fract_x
 _atom_site_fract_y
 _atom_site_fract_z
 _atom_site_occupancy
  Dy  Dy0  1  0.000000  0.000000  0.500000  1
  Ta  Ta1  1  0.505097  0.494903  0.769480  1
  Ta  Ta2  1  0.010192  0.505097  0.230520  1
  Ta  Ta3  1  0.494903  0.989808  0.230520  1
  Ta  Ta4  1  0.505097  0.010192  0.769480  1
  Ta  Ta5  1  0.989808  0.494903  0.769480  1
  Ta  Ta6  1  0.494903  0.505097  0.230520  1
  Ta  Ta7  1  0.000000  0.000000  0.768073  1
  Ta  Ta8  1  0.000000  0.000000  0.231927  1
  Ni  Ni9  1  0.000000  0.000000  0.000000  1
  S  S10  1  0.831238  0.168762  0.352975  1
  S  S11  1  0.831238  0.662475  0.352975  1
  S  S12  1  0.337525  0.168762  0.352975  1
  S  S13  1  0.664658  0.832329  0.888470  1
  S  S14  1  0.168762  0.337525  0.647025  1
  S  S15  1  0.167671  0.832329  0.888470  1
  S  S16  1  0.167671  0.335342  0.888470  1
  S  S17  1  0.832329  0.167671  0.111530  1
  S  S18  1  0.335342  0.167671  0.111530  1
  S  S19  1  0.662475  0.831238  0.647025  1
  S  S20  1  0.333333  0.666667  0.107929  1
  S  S21  1  0.666667  0.333333  0.643714  1
  S  S22  1  0.666667  0.333333  0.892071  1
  S  S23  1  0.333333  0.666667  0.356286  1
  S  S24  1  0.832329  0.664658  0.111530  1
  S  S25  1  0.168762  0.831238  0.647025  1
