# generated using pymatgen
data_Tm2PaMnCo
_symmetry_space_group_name_H-M   'P 1'
_cell_length_a   3.73515975
_cell_length_b   5.71790043
_cell_length_c   5.83488836
_cell_angle_alpha   119.33894077
_cell_angle_beta   108.66724793
_cell_angle_gamma   89.99999876
_symmetry_Int_Tables_number   1
_chemical_formula_structural   Tm2PaMnCo
_chemical_formula_sum   'Tm2 Pa1 Mn1 Co1'
_cell_volume   101.04601014
_cell_formula_units_Z   1
loop_
 _symmetry_equiv_pos_site_id
 _symmetry_equiv_pos_as_xyz
  1  'x, y, z'
loop_
 _atom_site_type_symbol
 _atom_site_label
 _atom_site_symmetry_multiplicity
 _atom_site_fract_x
 _atom_site_fract_y
 _atom_site_fract_z
 _atom_site_occupancy
  Tm  Tm0  1  0.801943  0.306395  0.603886  1
  Tm  Tm1  1  0.198057  0.702509  0.396114  1
  Pa  Pa2  1  0.000000  0.011729  0.000000  1
  Mn  Mn3  1  0.500000  0.282062  0.000000  1
  Co  Co4  1  0.500000  0.697305  0.000000  1
