# generated using pymatgen
data_Nb17(Si4W)3
_symmetry_space_group_name_H-M   'P 1'
_cell_length_a   7.53293925
_cell_length_b   7.53294169
_cell_length_c   14.20256500
_cell_angle_alpha   90.00000000
_cell_angle_beta   90.00000000
_cell_angle_gamma   140.69423744
_symmetry_Int_Tables_number   1
_chemical_formula_structural   Nb17(Si4W)3
_chemical_formula_sum   'Nb17 Si12 W3'
_cell_volume   510.52164554
_cell_formula_units_Z   1
loop_
 _symmetry_equiv_pos_site_id
 _symmetry_equiv_pos_as_xyz
  1  'x, y, z'
loop_
 _atom_site_type_symbol
 _atom_site_label
 _atom_site_symmetry_multiplicity
 _atom_site_fract_x
 _atom_site_fract_y
 _atom_site_fract_z
 _atom_site_occupancy
  Nb  Nb0  1  0.070791  0.428517  0.398470  1
  Nb  Nb1  1  0.571759  0.928985  0.899853  1
  Nb  Nb2  1  0.428518  0.070793  0.601530  1
  Nb  Nb3  1  0.928985  0.571758  0.100147  1
  Nb  Nb4  1  0.850991  0.648366  0.679314  1
  Nb  Nb5  1  0.350834  0.149392  0.177735  1
  Nb  Nb6  1  0.648366  0.850991  0.320686  1
  Nb  Nb7  1  0.149392  0.350833  0.822265  1
  Nb  Nb8  1  0.648366  0.850991  0.679314  1
  Nb  Nb9  1  0.149392  0.350833  0.177735  1
  Nb  Nb10  1  0.850991  0.648366  0.320686  1
  Nb  Nb11  1  0.350834  0.149392  0.822265  1
  Nb  Nb12  1  0.428518  0.070793  0.398470  1
  Nb  Nb13  1  0.928985  0.571758  0.899853  1
  Nb  Nb14  1  0.070791  0.428517  0.601530  1
  Nb  Nb15  1  0.571759  0.928985  0.100147  1
  Nb  Nb16  1  0.999726  0.999728  0.500000  1
  Si  Si17  1  0.249978  0.749975  0.750657  1
  Si  Si18  1  0.749975  0.249980  0.249342  1
  Si  Si19  1  0.749975  0.249980  0.750658  1
  Si  Si20  1  0.249978  0.749975  0.249343  1
  Si  Si21  1  0.252857  0.252857  0.663751  1
  Si  Si22  1  0.751016  0.751015  0.162130  1
  Si  Si23  1  0.252857  0.252857  0.336249  1
  Si  Si24  1  0.751016  0.751015  0.837870  1
  Si  Si25  1  0.582590  0.909532  0.500000  1
  Si  Si26  1  0.088159  0.412594  0.000000  1
  Si  Si27  1  0.909531  0.582591  0.500000  1
  Si  Si28  1  0.412595  0.088159  0.000000  1
  W  W29  1  0.500744  0.500742  0.000000  1
  W  W30  1  0.499553  0.499557  0.500000  1
  W  W31  1  0.000175  0.000173  0.000000  1
