# generated using pymatgen
data_Hf3VBi4F28
_symmetry_space_group_name_H-M   'P 1'
_cell_length_a   5.76342320
_cell_length_b   9.29709835
_cell_length_c   12.39236600
_cell_angle_alpha   61.87884903
_cell_angle_beta   89.98493897
_cell_angle_gamma   89.89582533
_symmetry_Int_Tables_number   1
_chemical_formula_structural   Hf3VBi4F28
_chemical_formula_sum   'Hf3 V1 Bi4 F28'
_cell_volume   585.63464123
_cell_formula_units_Z   1
loop_
 _symmetry_equiv_pos_site_id
 _symmetry_equiv_pos_as_xyz
  1  'x, y, z'
loop_
 _atom_site_type_symbol
 _atom_site_label
 _atom_site_symmetry_multiplicity
 _atom_site_fract_x
 _atom_site_fract_y
 _atom_site_fract_z
 _atom_site_occupancy
  Hf  Hf0  1  0.756373  0.275899  0.956119  1
  Hf  Hf1  1  0.255954  0.725023  0.542948  1
  Hf  Hf2  1  0.244575  0.727387  0.042829  1
  V  V3  1  0.742511  0.271300  0.456973  1
  Bi  Bi4  1  0.758626  0.816682  0.763773  1
  Bi  Bi5  1  0.259093  0.185937  0.729535  1
  Bi  Bi6  1  0.242582  0.188466  0.242912  1
  Bi  Bi7  1  0.742296  0.821981  0.262707  1
  F  F8  1  0.453762  0.710423  0.920121  1
  F  F9  1  0.936822  0.283795  0.576114  1
  F  F10  1  0.543670  0.289508  0.078702  1
  F  F11  1  0.049497  0.711854  0.418376  1
  F  F12  1  0.465929  0.275927  0.543480  1
  F  F13  1  0.953870  0.722332  0.952086  1
  F  F14  1  0.546970  0.718882  0.454265  1
  F  F15  1  0.040500  0.278006  0.050490  1
  F  F16  1  0.771722  0.518283  0.860396  1
  F  F17  1  0.268442  0.483034  0.638188  1
  F  F18  1  0.226058  0.485204  0.140374  1
  F  F19  1  0.731540  0.492265  0.368856  1
  F  F20  1  0.759619  0.029085  0.058983  1
  F  F21  1  0.262225  0.970634  0.444847  1
  F  F22  1  0.238693  0.971357  0.939343  1
  F  F23  1  0.737948  0.045398  0.547455  1
  F  F24  1  0.979298  0.736140  0.637195  1
  F  F25  1  0.487439  0.264801  0.857253  1
  F  F26  1  0.008066  0.262478  0.368177  1
  F  F27  1  0.517427  0.733734  0.140261  1
  F  F28  1  0.044480  0.750537  0.167212  1
  F  F29  1  0.550469  0.252391  0.336045  1
  F  F30  1  0.962095  0.253252  0.833023  1
  F  F31  1  0.456160  0.747425  0.668100  1
  F  F32  1  0.415272  0.973384  0.233281  1
  F  F33  1  0.911564  0.029418  0.272505  1
  F  F34  1  0.587815  0.029769  0.770220  1
  F  F35  1  0.090637  0.968011  0.726858  1
