# generated using pymatgen
data_Nd4GeAsPd28
_symmetry_space_group_name_H-M   'P 1'
_cell_length_a   9.01084500
_cell_length_b   9.01084500
_cell_length_c   7.22381600
_cell_angle_alpha   90.00000000
_cell_angle_beta   90.00000000
_cell_angle_gamma   90.00000000
_symmetry_Int_Tables_number   1
_chemical_formula_structural   Nd4GeAsPd28
_chemical_formula_sum   'Nd4 Ge1 As1 Pd28'
_cell_volume   586.54010674
_cell_formula_units_Z   1
loop_
 _symmetry_equiv_pos_site_id
 _symmetry_equiv_pos_as_xyz
  1  'x, y, z'
loop_
 _atom_site_type_symbol
 _atom_site_label
 _atom_site_symmetry_multiplicity
 _atom_site_fract_x
 _atom_site_fract_y
 _atom_site_fract_z
 _atom_site_occupancy
  Nd  Nd0  1  0.500000  0.000000  0.936090  1
  Nd  Nd1  1  0.000000  0.500000  0.064467  1
  Nd  Nd2  1  0.000000  0.000000  0.499916  1
  Nd  Nd3  1  0.500000  0.500000  0.499916  1
  Ge  Ge4  1  0.000000  0.500000  0.549763  1
  As  As5  1  0.500000  0.000000  0.449588  1
  Pd  Pd6  1  0.330883  0.830883  0.621605  1
  Pd  Pd7  1  0.330883  0.169117  0.621605  1
  Pd  Pd8  1  0.669117  0.830883  0.621605  1
  Pd  Pd9  1  0.669117  0.169117  0.621605  1
  Pd  Pd10  1  0.169342  0.669342  0.378490  1
  Pd  Pd11  1  0.169342  0.330658  0.378490  1
  Pd  Pd12  1  0.830658  0.669342  0.378490  1
  Pd  Pd13  1  0.830658  0.330658  0.378490  1
  Pd  Pd14  1  0.500000  0.766621  0.253300  1
  Pd  Pd15  1  0.500000  0.233379  0.253300  1
  Pd  Pd16  1  0.266621  0.000000  0.253300  1
  Pd  Pd17  1  0.733379  0.000000  0.253300  1
  Pd  Pd18  1  0.000000  0.733405  0.746564  1
  Pd  Pd19  1  0.000000  0.266595  0.746564  1
  Pd  Pd20  1  0.233405  0.500000  0.746564  1
  Pd  Pd21  1  0.766595  0.500000  0.746564  1
  Pd  Pd22  1  0.500000  0.348629  0.857010  1
  Pd  Pd23  1  0.500000  0.651371  0.857010  1
  Pd  Pd24  1  0.848629  0.000000  0.857010  1
  Pd  Pd25  1  0.151371  0.000000  0.857010  1
  Pd  Pd26  1  0.000000  0.150915  0.143224  1
  Pd  Pd27  1  0.000000  0.849085  0.143224  1
  Pd  Pd28  1  0.650915  0.500000  0.143224  1
  Pd  Pd29  1  0.349085  0.500000  0.143224  1
  Pd  Pd30  1  0.249614  0.749614  0.999871  1
  Pd  Pd31  1  0.249614  0.250386  0.999871  1
  Pd  Pd32  1  0.750386  0.749614  0.999871  1
  Pd  Pd33  1  0.750386  0.250386  0.999871  1
