# generated using pymatgen
data_DyLu4AlSb2
_symmetry_space_group_name_H-M   'P 1'
_cell_length_a   8.78484700
_cell_length_b   8.76152108
_cell_length_c   6.37021300
_cell_angle_alpha   90.00000000
_cell_angle_beta   90.00000000
_cell_angle_gamma   119.91219988
_symmetry_Int_Tables_number   1
_chemical_formula_structural   DyLu4AlSb2
_chemical_formula_sum   'Dy2 Lu8 Al2 Sb4'
_cell_volume   424.99307418
_cell_formula_units_Z   2
loop_
 _symmetry_equiv_pos_site_id
 _symmetry_equiv_pos_as_xyz
  1  'x, y, z'
loop_
 _atom_site_type_symbol
 _atom_site_label
 _atom_site_symmetry_multiplicity
 _atom_site_fract_x
 _atom_site_fract_y
 _atom_site_fract_z
 _atom_site_occupancy
  Dy  Dy0  1  0.009293  0.766802  0.750000  1
  Dy  Dy1  1  0.009293  0.242490  0.250000  1
  Lu  Lu2  1  0.753548  0.754385  0.250000  1
  Lu  Lu3  1  0.753548  0.999163  0.750000  1
  Lu  Lu4  1  0.244466  0.233764  0.750000  1
  Lu  Lu5  1  0.244466  0.010702  0.250000  1
  Lu  Lu6  1  0.335620  0.667811  0.500000  1
  Lu  Lu7  1  0.654086  0.327043  0.000000  1
  Lu  Lu8  1  0.654086  0.327043  0.500000  1
  Lu  Lu9  1  0.335620  0.667811  0.000000  1
  Al  Al10  1  0.398448  0.997715  0.750000  1
  Al  Al11  1  0.398448  0.400734  0.250000  1
  Sb  Sb12  1  0.998402  0.609129  0.250000  1
  Sb  Sb13  1  0.998402  0.389273  0.750000  1
  Sb  Sb14  1  0.606138  0.606419  0.750000  1
  Sb  Sb15  1  0.606138  0.999719  0.250000  1
