# generated using pymatgen
data_Y3Zr2Rh3O
_symmetry_space_group_name_H-M   'P 1'
_cell_length_a   8.25329300
_cell_length_b   8.25329240
_cell_length_c   5.85927300
_cell_angle_alpha   90.00000000
_cell_angle_beta   90.00000000
_cell_angle_gamma   119.99999839
_symmetry_Int_Tables_number   1
_chemical_formula_structural   Y3Zr2Rh3O
_chemical_formula_sum   'Y6 Zr4 Rh6 O2'
_cell_volume   345.64387649
_cell_formula_units_Z   2
loop_
 _symmetry_equiv_pos_site_id
 _symmetry_equiv_pos_as_xyz
  1  'x, y, z'
loop_
 _atom_site_type_symbol
 _atom_site_label
 _atom_site_symmetry_multiplicity
 _atom_site_fract_x
 _atom_site_fract_y
 _atom_site_fract_z
 _atom_site_occupancy
  Y  Y0  1  0.761551  0.761551  0.750000  1
  Y  Y1  1  0.238449  0.000000  0.750000  1
  Y  Y2  1  0.000000  0.238449  0.750000  1
  Y  Y3  1  0.238449  0.238449  0.250000  1
  Y  Y4  1  0.761551  0.000000  0.250000  1
  Y  Y5  1  0.000000  0.761551  0.250000  1
  Zr  Zr6  1  0.666667  0.333333  0.000000  1
  Zr  Zr7  1  0.333333  0.666667  0.000000  1
  Zr  Zr8  1  0.333333  0.666667  0.500000  1
  Zr  Zr9  1  0.666667  0.333333  0.500000  1
  Rh  Rh10  1  0.417416  0.417416  0.750000  1
  Rh  Rh11  1  0.582584  0.000000  0.750000  1
  Rh  Rh12  1  0.000000  0.582584  0.750000  1
  Rh  Rh13  1  0.582584  0.582584  0.250000  1
  Rh  Rh14  1  0.417416  0.000000  0.250000  1
  Rh  Rh15  1  0.000000  0.417416  0.250000  1
  O  O16  1  0.000000  0.000000  0.000000  1
  O  O17  1  0.000000  0.000000  0.500000  1
