# generated using pymatgen
data_Yb6Si24IrOs7
_symmetry_space_group_name_H-M   'P 1'
_cell_length_a   10.16291493
_cell_length_b   10.16291418
_cell_length_c   8.17866810
_cell_angle_alpha   89.90851183
_cell_angle_beta   89.90851097
_cell_angle_gamma   132.57284114
_symmetry_Int_Tables_number   1
_chemical_formula_structural   Yb6Si24IrOs7
_chemical_formula_sum   'Yb6 Si24 Ir1 Os7'
_cell_volume   622.07108867
_cell_formula_units_Z   1
loop_
 _symmetry_equiv_pos_site_id
 _symmetry_equiv_pos_as_xyz
  1  'x, y, z'
loop_
 _atom_site_type_symbol
 _atom_site_label
 _atom_site_symmetry_multiplicity
 _atom_site_fract_x
 _atom_site_fract_y
 _atom_site_fract_z
 _atom_site_occupancy
  Yb  Yb0  1  0.500799  0.000224  0.749782  1
  Yb  Yb1  1  0.999370  0.499059  0.250666  1
  Yb  Yb2  1  0.499059  0.999370  0.250666  1
  Yb  Yb3  1  0.000224  0.500799  0.749782  1
  Yb  Yb4  1  0.000626  0.000626  0.000957  1
  Yb  Yb5  1  0.499171  0.499171  0.499347  1
  Si  Si6  1  0.794443  0.205337  0.499817  1
  Si  Si7  1  0.705244  0.294286  0.000215  1
  Si  Si8  1  0.205337  0.794443  0.499817  1
  Si  Si9  1  0.294286  0.705244  0.000215  1
  Si  Si10  1  0.666896  0.666896  0.169207  1
  Si  Si11  1  0.167373  0.167373  0.331104  1
  Si  Si12  1  0.834751  0.834751  0.666281  1
  Si  Si13  1  0.332306  0.332306  0.831324  1
  Si  Si14  1  0.847636  0.611775  0.994658  1
  Si  Si15  1  0.113028  0.347151  0.507128  1
  Si  Si16  1  0.652998  0.886687  0.492826  1
  Si  Si17  1  0.387726  0.153094  0.008020  1
  Si  Si18  1  0.153094  0.387726  0.008020  1
  Si  Si19  1  0.886687  0.652998  0.492826  1
  Si  Si20  1  0.124203  0.890347  0.730390  1
  Si  Si21  1  0.388441  0.623515  0.769939  1
  Si  Si22  1  0.375165  0.609061  0.229793  1
  Si  Si23  1  0.109891  0.875802  0.269678  1
  Si  Si24  1  0.875802  0.109891  0.269678  1
  Si  Si25  1  0.609061  0.375165  0.229793  1
  Si  Si26  1  0.623515  0.388441  0.769939  1
  Si  Si27  1  0.890347  0.124203  0.730390  1
  Si  Si28  1  0.611775  0.847636  0.994658  1
  Si  Si29  1  0.347151  0.113028  0.507128  1
  Ir  Ir30  1  0.628456  0.628456  0.874095  1
  Os  Os31  1  0.126886  0.126886  0.624997  1
  Os  Os32  1  0.373760  0.373760  0.123524  1
  Os  Os33  1  0.873978  0.873978  0.373846  1
  Os  Os34  1  0.169719  0.830640  0.999842  1
  Os  Os35  1  0.330664  0.669490  0.499905  1
  Os  Os36  1  0.830640  0.169719  0.999842  1
  Os  Os37  1  0.669490  0.330664  0.499905  1
