# generated using pymatgen
data_Sr2Li2Si2Sb
_symmetry_space_group_name_H-M   'P 1'
_cell_length_a   10.16177417
_cell_length_b   10.16177359
_cell_length_c   7.15089800
_cell_angle_alpha   90.00000000
_cell_angle_beta   90.00000000
_cell_angle_gamma   153.01117369
_symmetry_Int_Tables_number   1
_chemical_formula_structural   Sr2Li2Si2Sb
_chemical_formula_sum   'Sr4 Li4 Si4 Sb2'
_cell_volume   335.10440614
_cell_formula_units_Z   2
loop_
 _symmetry_equiv_pos_site_id
 _symmetry_equiv_pos_as_xyz
  1  'x, y, z'
loop_
 _atom_site_type_symbol
 _atom_site_label
 _atom_site_symmetry_multiplicity
 _atom_site_fract_x
 _atom_site_fract_y
 _atom_site_fract_z
 _atom_site_occupancy
  Sr  Sr0  1  0.551478  0.448522  0.750000  1
  Sr  Sr1  1  0.448522  0.551478  0.250000  1
  Sr  Sr2  1  0.344403  0.655597  0.750000  1
  Sr  Sr3  1  0.655597  0.344403  0.250000  1
  Li  Li4  1  0.815549  0.184451  0.443998  1
  Li  Li5  1  0.184451  0.815549  0.556002  1
  Li  Li6  1  0.815549  0.184451  0.056002  1
  Li  Li7  1  0.184451  0.815549  0.943998  1
  Si  Si8  1  0.947309  0.052691  0.917296  1
  Si  Si9  1  0.052691  0.947309  0.082704  1
  Si  Si10  1  0.947309  0.052691  0.582704  1
  Si  Si11  1  0.052691  0.947309  0.417296  1
  Sb  Sb12  1  0.718679  0.281321  0.750000  1
  Sb  Sb13  1  0.281321  0.718679  0.250000  1
