# generated using pymatgen
data_La4Tb12Cd4CoNi3
_symmetry_space_group_name_H-M   'P 1'
_cell_length_a   9.69730505
_cell_length_b   9.69730406
_cell_length_c   9.69730395
_cell_angle_alpha   59.90996157
_cell_angle_beta   59.90996284
_cell_angle_gamma   59.90995918
_symmetry_Int_Tables_number   1
_chemical_formula_structural   La4Tb12Cd4CoNi3
_chemical_formula_sum   'La4 Tb12 Cd4 Co1 Ni3'
_cell_volume   643.50229831
_cell_formula_units_Z   1
loop_
 _symmetry_equiv_pos_site_id
 _symmetry_equiv_pos_as_xyz
  1  'x, y, z'
loop_
 _atom_site_type_symbol
 _atom_site_label
 _atom_site_symmetry_multiplicity
 _atom_site_fract_x
 _atom_site_fract_y
 _atom_site_fract_z
 _atom_site_occupancy
  La  La0  1  0.349270  0.349270  0.349270  1
  La  La1  1  0.348256  0.348256  0.951289  1
  La  La2  1  0.348256  0.951289  0.348256  1
  La  La3  1  0.951289  0.348256  0.348256  1
  Tb  Tb4  1  0.817794  0.186437  0.186437  1
  Tb  Tb5  1  0.185658  0.813890  0.813890  1
  Tb  Tb6  1  0.186437  0.817794  0.186437  1
  Tb  Tb7  1  0.813890  0.185658  0.813890  1
  Tb  Tb8  1  0.186437  0.186437  0.817794  1
  Tb  Tb9  1  0.813890  0.813890  0.185658  1
  Tb  Tb10  1  0.935817  0.565539  0.565539  1
  Tb  Tb11  1  0.563246  0.935008  0.935008  1
  Tb  Tb12  1  0.565539  0.935817  0.565539  1
  Tb  Tb13  1  0.935008  0.563246  0.935008  1
  Tb  Tb14  1  0.565539  0.565539  0.935817  1
  Tb  Tb15  1  0.935008  0.935008  0.563246  1
  Cd  Cd16  1  0.580909  0.580909  0.580909  1
  Cd  Cd17  1  0.581245  0.581245  0.253376  1
  Cd  Cd18  1  0.581245  0.253376  0.581245  1
  Cd  Cd19  1  0.253376  0.581245  0.581245  1
  Co  Co20  1  0.142355  0.142355  0.142355  1
  Ni  Ni21  1  0.140583  0.140583  0.578370  1
  Ni  Ni22  1  0.140583  0.578370  0.140583  1
  Ni  Ni23  1  0.578370  0.140583  0.140583  1
