# generated using pymatgen
data_AcCu3NiIr
_symmetry_space_group_name_H-M   'P 1'
_cell_length_a   5.15785800
_cell_length_b   5.28668383
_cell_length_c   4.11162300
_cell_angle_alpha   90.00000000
_cell_angle_beta   90.00000000
_cell_angle_gamma   119.19713489
_symmetry_Int_Tables_number   1
_chemical_formula_structural   AcCu3NiIr
_chemical_formula_sum   'Ac1 Cu3 Ni1 Ir1'
_cell_volume   97.87090874
_cell_formula_units_Z   1
loop_
 _symmetry_equiv_pos_site_id
 _symmetry_equiv_pos_as_xyz
  1  'x, y, z'
loop_
 _atom_site_type_symbol
 _atom_site_label
 _atom_site_symmetry_multiplicity
 _atom_site_fract_x
 _atom_site_fract_y
 _atom_site_fract_z
 _atom_site_occupancy
  Ac  Ac0  1  0.001030  0.002060  0.000000  1
  Cu  Cu1  1  0.670068  0.340136  0.000000  1
  Cu  Cu2  1  0.999377  0.495153  0.500000  1
  Cu  Cu3  1  0.495776  0.495153  0.500000  1
  Ni  Ni4  1  0.337428  0.674857  0.000000  1
  Ir  Ir5  1  0.496321  0.992642  0.500000  1
