# generated using pymatgen
data_Er4Sc4B24IrRu3
_symmetry_space_group_name_H-M   'P 1'
_cell_length_a   3.54572700
_cell_length_b   8.95841838
_cell_length_c   11.32590823
_cell_angle_alpha   90.00529147
_cell_angle_beta   90.00000000
_cell_angle_gamma   90.00000000
_symmetry_Int_Tables_number   1
_chemical_formula_structural   Er4Sc4B24IrRu3
_chemical_formula_sum   'Er4 Sc4 B24 Ir1 Ru3'
_cell_volume   359.75734735
_cell_formula_units_Z   1
loop_
 _symmetry_equiv_pos_site_id
 _symmetry_equiv_pos_as_xyz
  1  'x, y, z'
loop_
 _atom_site_type_symbol
 _atom_site_label
 _atom_site_symmetry_multiplicity
 _atom_site_fract_x
 _atom_site_fract_y
 _atom_site_fract_z
 _atom_site_occupancy
  Er  Er0  1  0.500000  0.317354  0.414423  1
  Er  Er1  1  0.500000  0.680678  0.588911  1
  Er  Er2  1  0.500000  0.180273  0.913158  1
  Er  Er3  1  0.500000  0.821550  0.084273  1
  Sc  Sc4  1  0.500000  0.442447  0.124271  1
  Sc  Sc5  1  0.500000  0.555394  0.874289  1
  Sc  Sc6  1  0.500000  0.055548  0.625860  1
  Sc  Sc7  1  0.500000  0.946753  0.374564  1
  B  B8  1  0.000000  0.100272  0.472609  1
  B  B9  1  0.000000  0.899194  0.527396  1
  B  B10  1  0.000000  0.399258  0.972479  1
  B  B11  1  0.000000  0.600792  0.027589  1
  B  B12  1  0.000000  0.129070  0.317235  1
  B  B13  1  0.000000  0.870863  0.683214  1
  B  B14  1  0.000000  0.370901  0.816887  1
  B  B15  1  0.000000  0.629266  0.181503  1
  B  B16  1  0.000000  0.054722  0.066450  1
  B  B17  1  0.000000  0.945709  0.933157  1
  B  B18  1  0.000000  0.445214  0.566681  1
  B  B19  1  0.000000  0.554291  0.434143  1
  B  B20  1  0.000000  0.480807  0.285644  1
  B  B21  1  0.000000  0.518541  0.714223  1
  B  B22  1  0.000000  0.018642  0.785914  1
  B  B23  1  0.000000  0.981565  0.214047  1
  B  B24  1  0.000000  0.252865  0.080406  1
  B  B25  1  0.000000  0.747198  0.919388  1
  B  B26  1  0.000000  0.246622  0.580720  1
  B  B27  1  0.000000  0.754062  0.420550  1
  B  B28  1  0.000000  0.293485  0.234690  1
  B  B29  1  0.000000  0.706326  0.765704  1
  B  B30  1  0.000000  0.206414  0.734365  1
  B  B31  1  0.000000  0.794069  0.264947  1
  Ir  Ir32  1  0.500000  0.639504  0.319693  1
  Ru  Ru33  1  0.500000  0.139801  0.180945  1
  Ru  Ru34  1  0.500000  0.860092  0.819223  1
  Ru  Ru35  1  0.500000  0.360458  0.680448  1
