# generated using pymatgen
data_Tb3Sn3PtRhAu
_symmetry_space_group_name_H-M   'P 1'
_cell_length_a   7.65452100
_cell_length_b   7.65451970
_cell_length_c   3.94500400
_cell_angle_alpha   90.00000000
_cell_angle_beta   90.00000000
_cell_angle_gamma   119.99999267
_symmetry_Int_Tables_number   1
_chemical_formula_structural   Tb3Sn3PtRhAu
_chemical_formula_sum   'Tb3 Sn3 Pt1 Rh1 Au1'
_cell_volume   200.17695349
_cell_formula_units_Z   1
loop_
 _symmetry_equiv_pos_site_id
 _symmetry_equiv_pos_as_xyz
  1  'x, y, z'
loop_
 _atom_site_type_symbol
 _atom_site_label
 _atom_site_symmetry_multiplicity
 _atom_site_fract_x
 _atom_site_fract_y
 _atom_site_fract_z
 _atom_site_occupancy
  Tb  Tb0  1  0.406029  0.008755  0.500000  1
  Tb  Tb1  1  0.991245  0.397274  0.500000  1
  Tb  Tb2  1  0.602726  0.593971  0.500000  1
  Sn  Sn3  1  0.746352  0.999781  0.000000  1
  Sn  Sn4  1  0.000219  0.746570  0.000000  1
  Sn  Sn5  1  0.253430  0.253648  0.000000  1
  Pt  Pt6  1  0.666667  0.333333  0.000000  1
  Rh  Rh7  1  0.000000  0.000000  0.500000  1
  Au  Au8  1  0.333333  0.666667  0.000000  1
