# generated using pymatgen
data_Th5Co19Si11P
_symmetry_space_group_name_H-M   'P 1'
_cell_length_a   12.33400012
_cell_length_b   12.36373337
_cell_length_c   3.83810400
_cell_angle_alpha   90.00000000
_cell_angle_beta   90.00000000
_cell_angle_gamma   120.07977413
_symmetry_Int_Tables_number   1
_chemical_formula_structural   Th5Co19Si11P
_chemical_formula_sum   'Th5 Co19 Si11 P1'
_cell_volume   506.46714434
_cell_formula_units_Z   1
loop_
 _symmetry_equiv_pos_site_id
 _symmetry_equiv_pos_as_xyz
  1  'x, y, z'
loop_
 _atom_site_type_symbol
 _atom_site_label
 _atom_site_symmetry_multiplicity
 _atom_site_fract_x
 _atom_site_fract_y
 _atom_site_fract_z
 _atom_site_occupancy
  Th  Th0  1  0.668063  0.334068  0.000000  1
  Th  Th1  1  0.331937  0.666006  0.000000  1
  Th  Th2  1  0.191258  0.191702  0.500000  1
  Th  Th3  1  0.808742  0.000443  0.500000  1
  Th  Th4  1  0.000000  0.808003  0.500000  1
  Co  Co5  1  0.822221  0.196003  0.000000  1
  Co  Co6  1  0.804084  0.622576  0.000000  1
  Co  Co7  1  0.378312  0.182161  0.000000  1
  Co  Co8  1  0.195916  0.818493  0.000000  1
  Co  Co9  1  0.621688  0.803850  0.000000  1
  Co  Co10  1  0.177779  0.373783  0.000000  1
  Co  Co11  1  0.565762  0.565710  0.000000  1
  Co  Co12  1  0.434238  0.999948  0.000000  1
  Co  Co13  1  0.000000  0.434512  0.000000  1
  Co  Co14  1  0.640650  0.123882  0.500000  1
  Co  Co15  1  0.877227  0.516296  0.500000  1
  Co  Co16  1  0.483385  0.361285  0.500000  1
  Co  Co17  1  0.122773  0.639069  0.500000  1
  Co  Co18  1  0.516615  0.877900  0.500000  1
  Co  Co19  1  0.359350  0.483233  0.500000  1
  Co  Co20  1  0.719554  0.719905  0.500000  1
  Co  Co21  1  0.280446  0.000351  0.500000  1
  Co  Co22  1  0.000000  0.276242  0.500000  1
  Co  Co23  1  0.000000  0.002870  0.000000  1
  Si  Si24  1  0.381027  0.381493  0.000000  1
  Si  Si25  1  0.618973  0.000466  0.000000  1
  Si  Si26  1  0.000000  0.618492  0.000000  1
  Si  Si27  1  0.841810  0.313979  0.500000  1
  Si  Si28  1  0.686479  0.527372  0.500000  1
  Si  Si29  1  0.473593  0.160372  0.500000  1
  Si  Si30  1  0.313521  0.840894  0.500000  1
  Si  Si31  1  0.526407  0.686779  0.500000  1
  Si  Si32  1  0.158190  0.472169  0.500000  1
  Si  Si33  1  0.812675  0.813252  0.000000  1
  Si  Si34  1  0.187325  0.000577  0.000000  1
  P  P35  1  0.000000  0.185863  0.000000  1
