# generated using pymatgen
data_Y15Tm(InNi)4
_symmetry_space_group_name_H-M   'P 1'
_cell_length_a   9.62909531
_cell_length_b   9.62909596
_cell_length_c   9.64515100
_cell_angle_alpha   59.94482585
_cell_angle_beta   59.94482360
_cell_angle_gamma   59.86252489
_symmetry_Int_Tables_number   1
_chemical_formula_structural   Y15Tm(InNi)4
_chemical_formula_sum   'Y15 Tm1 In4 Ni4'
_cell_volume   631.17507644
_cell_formula_units_Z   1
loop_
 _symmetry_equiv_pos_site_id
 _symmetry_equiv_pos_as_xyz
  1  'x, y, z'
loop_
 _atom_site_type_symbol
 _atom_site_label
 _atom_site_symmetry_multiplicity
 _atom_site_fract_x
 _atom_site_fract_y
 _atom_site_fract_z
 _atom_site_occupancy
  Y  Y0  1  0.347903  0.347903  0.348851  1
  Y  Y1  1  0.347903  0.347903  0.955341  1
  Y  Y2  1  0.347048  0.954870  0.349041  1
  Y  Y3  1  0.954870  0.347048  0.349041  1
  Y  Y4  1  0.812169  0.188173  0.188804  1
  Y  Y5  1  0.188173  0.812169  0.810854  1
  Y  Y6  1  0.188173  0.812169  0.188804  1
  Y  Y7  1  0.812169  0.188173  0.810854  1
  Y  Y8  1  0.188330  0.188330  0.811670  1
  Y  Y9  1  0.811423  0.811423  0.188577  1
  Y  Y10  1  0.937463  0.563085  0.562196  1
  Y  Y11  1  0.563085  0.937463  0.937256  1
  Y  Y12  1  0.563085  0.937463  0.562196  1
  Y  Y13  1  0.937463  0.563085  0.937256  1
  Y  Y14  1  0.562459  0.562459  0.937541  1
  Tm  Tm15  1  0.938377  0.938377  0.561623  1
  In  In16  1  0.582531  0.582531  0.582606  1
  In  In17  1  0.582531  0.582531  0.252332  1
  In  In18  1  0.582856  0.252451  0.582346  1
  In  In19  1  0.252451  0.582856  0.582346  1
  Ni  Ni20  1  0.142183  0.142183  0.143119  1
  Ni  Ni21  1  0.142183  0.142183  0.572517  1
  Ni  Ni22  1  0.142089  0.573084  0.142414  1
  Ni  Ni23  1  0.573084  0.142089  0.142414  1
