# generated using pymatgen
data_SmDy3Ho(FeB3)2
_symmetry_space_group_name_H-M   'P 1'
_cell_length_a   5.42218089
_cell_length_b   5.42218100
_cell_length_c   8.26816008
_cell_angle_alpha   70.85892162
_cell_angle_beta   70.85892482
_cell_angle_gamma   59.99998550
_symmetry_Int_Tables_number   1
_chemical_formula_structural   SmDy3Ho(FeB3)2
_chemical_formula_sum   'Sm1 Dy3 Ho1 Fe2 B6'
_cell_volume   194.84453222
_cell_formula_units_Z   1
loop_
 _symmetry_equiv_pos_site_id
 _symmetry_equiv_pos_as_xyz
  1  'x, y, z'
loop_
 _atom_site_type_symbol
 _atom_site_label
 _atom_site_symmetry_multiplicity
 _atom_site_fract_x
 _atom_site_fract_y
 _atom_site_fract_z
 _atom_site_occupancy
  Sm  Sm0  1  0.999939  0.999939  0.000183  1
  Dy  Dy1  1  0.749146  0.749146  0.752561  1
  Dy  Dy2  1  0.416702  0.416702  0.749893  1
  Dy  Dy3  1  0.583301  0.583301  0.250097  1
  Ho  Ho4  1  0.250531  0.250531  0.248406  1
  Fe  Fe5  1  0.117298  0.117298  0.648108  1
  Fe  Fe6  1  0.882711  0.882711  0.351867  1
  B  B7  1  0.167846  0.832518  0.499814  1
  B  B8  1  0.832518  0.499822  0.499814  1
  B  B9  1  0.499822  0.167846  0.499814  1
  B  B10  1  0.167846  0.499822  0.499814  1
  B  B11  1  0.499822  0.832518  0.499814  1
  B  B12  1  0.832518  0.167846  0.499814  1
