# generated using pymatgen
data_Ho2ErAg(Pt2O7)2
_symmetry_space_group_name_H-M   'P 1'
_cell_length_a   7.30763843
_cell_length_b   7.30826000
_cell_length_c   7.17652451
_cell_angle_alpha   59.40909668
_cell_angle_beta   59.39376919
_cell_angle_gamma   60.00281623
_symmetry_Int_Tables_number   1
_chemical_formula_structural   Ho2ErAg(Pt2O7)2
_chemical_formula_sum   'Ho2 Er1 Ag1 Pt4 O14'
_cell_volume   268.54077215
_cell_formula_units_Z   1
loop_
 _symmetry_equiv_pos_site_id
 _symmetry_equiv_pos_as_xyz
  1  'x, y, z'
loop_
 _atom_site_type_symbol
 _atom_site_label
 _atom_site_symmetry_multiplicity
 _atom_site_fract_x
 _atom_site_fract_y
 _atom_site_fract_z
 _atom_site_occupancy
  Ho  Ho0  1  0.625000  0.625000  0.625000  1
  Ho  Ho1  1  0.125000  0.625000  0.625000  1
  Er  Er2  1  0.625000  0.125000  0.625000  1
  Ag  Ag3  1  0.625000  0.625000  0.125000  1
  Pt  Pt4  1  0.625000  0.125000  0.125000  1
  Pt  Pt5  1  0.125000  0.125000  0.125000  1
  Pt  Pt6  1  0.125000  0.625000  0.125000  1
  Pt  Pt7  1  0.125000  0.125000  0.625000  1
  O  O8  1  0.031461  0.465699  0.471379  1
  O  O9  1  0.792335  0.792385  0.219669  1
  O  O10  1  0.792066  0.195234  0.220634  1
  O  O11  1  0.745037  0.747141  0.762784  1
  O  O12  1  0.054388  0.457615  0.030331  1
  O  O13  1  0.465904  0.031903  0.471469  1
  O  O14  1  0.030723  0.031903  0.471469  1
  O  O15  1  0.504963  0.502859  0.487216  1
  O  O16  1  0.219277  0.218097  0.778531  1
  O  O17  1  0.195612  0.792385  0.219669  1
  O  O18  1  0.784096  0.218097  0.778531  1
  O  O19  1  0.457934  0.054766  0.029366  1
  O  O20  1  0.457665  0.457615  0.030331  1
  O  O21  1  0.218539  0.784301  0.778621  1
