# generated using pymatgen
data_La7Nd5Ir3RhBr12
_symmetry_space_group_name_H-M   'P 1'
_cell_length_a   10.61347862
_cell_length_b   10.63269527
_cell_length_c   10.59290073
_cell_angle_alpha   108.73258659
_cell_angle_beta   110.50453272
_cell_angle_gamma   109.16468101
_symmetry_Int_Tables_number   1
_chemical_formula_structural   La7Nd5Ir3RhBr12
_chemical_formula_sum   'La7 Nd5 Ir3 Rh1 Br12'
_cell_volume   920.17980073
_cell_formula_units_Z   1
loop_
 _symmetry_equiv_pos_site_id
 _symmetry_equiv_pos_as_xyz
  1  'x, y, z'
loop_
 _atom_site_type_symbol
 _atom_site_label
 _atom_site_symmetry_multiplicity
 _atom_site_fract_x
 _atom_site_fract_y
 _atom_site_fract_z
 _atom_site_occupancy
  La  La0  1  0.020463  0.485467  0.757172  1
  La  La1  1  0.478000  0.239744  0.467971  1
  La  La2  1  0.270697  0.012954  0.032666  1
  La  La3  1  0.754024  0.236615  0.266186  1
  La  La4  1  0.746187  0.015561  0.481604  1
  La  La5  1  0.466359  0.487971  0.228459  1
  La  La6  1  0.035773  0.263251  0.020700  1
  Nd  Nd7  1  0.267011  0.751096  0.235997  1
  Nd  Nd8  1  0.481034  0.745828  0.014868  1
  Nd  Nd9  1  0.230821  0.464501  0.484619  1
  Nd  Nd10  1  0.015650  0.034049  0.268244  1
  Nd  Nd11  1  0.230804  0.263603  0.744620  1
  Ir  Ir12  1  0.249658  0.499122  0.000742  1
  Ir  Ir13  1  0.994906  0.248353  0.498074  1
  Ir  Ir14  1  0.252078  0.249460  0.249191  1
  Rh  Rh15  1  0.500843  0.003006  0.250851  1
  Br  Br16  1  0.245340  0.993149  0.499757  1
  Br  Br17  1  0.505170  0.505322  0.756037  1
  Br  Br18  1  0.256280  0.750992  0.744958  1
  Br  Br19  1  0.995493  0.749244  0.005031  1
  Br  Br20  1  0.004638  0.510650  0.255364  1
  Br  Br21  1  0.745018  0.989836  0.993134  1
  Br  Br22  1  0.754756  0.748631  0.244663  1
  Br  Br23  1  0.496337  0.751547  0.506254  1
  Br  Br24  1  0.500293  0.249332  0.990520  1
  Br  Br25  1  0.753660  0.507336  0.502609  1
  Br  Br26  1  0.746526  0.249150  0.754178  1
  Br  Br27  1  0.002178  0.994230  0.745531  1
