# generated using pymatgen
data_Zr9Nb10Si16Mo
_symmetry_space_group_name_H-M   'P 1'
_cell_length_a   6.90326243
_cell_length_b   6.90196355
_cell_length_c   12.77285171
_cell_angle_alpha   89.90583020
_cell_angle_beta   89.99142682
_cell_angle_gamma   90.02286554
_symmetry_Int_Tables_number   1
_chemical_formula_structural   Zr9Nb10Si16Mo
_chemical_formula_sum   'Zr9 Nb10 Si16 Mo1'
_cell_volume   608.57525380
_cell_formula_units_Z   1
loop_
 _symmetry_equiv_pos_site_id
 _symmetry_equiv_pos_as_xyz
  1  'x, y, z'
loop_
 _atom_site_type_symbol
 _atom_site_label
 _atom_site_symmetry_multiplicity
 _atom_site_fract_x
 _atom_site_fract_y
 _atom_site_fract_z
 _atom_site_occupancy
  Zr  Zr0  1  0.000769  0.659901  0.031491  1
  Zr  Zr1  1  0.999243  0.341549  0.530484  1
  Zr  Zr2  1  0.659897  0.999473  0.969593  1
  Zr  Zr3  1  0.157909  0.500827  0.780603  1
  Zr  Zr4  1  0.841552  0.501871  0.283240  1
  Zr  Zr5  1  0.500240  0.156978  0.218945  1
  Zr  Zr6  1  0.501336  0.841250  0.717209  1
  Zr  Zr7  1  0.340821  0.997981  0.468377  1
  Zr  Zr8  1  0.330344  0.330724  0.000945  1
  Nb  Nb9  1  0.347295  0.503572  0.377376  1
  Nb  Nb10  1  0.844971  0.995786  0.372612  1
  Nb  Nb11  1  0.003987  0.153496  0.128265  1
  Nb  Nb12  1  0.996835  0.846988  0.626319  1
  Nb  Nb13  1  0.652532  0.496617  0.874990  1
  Nb  Nb14  1  0.504985  0.347383  0.622863  1
  Nb  Nb15  1  0.498055  0.652518  0.124675  1
  Nb  Nb16  1  0.152032  0.002648  0.873017  1
  Nb  Nb17  1  0.669407  0.670547  0.498886  1
  Nb  Nb18  1  0.831646  0.167772  0.748975  1
  Si  Si19  1  0.046289  0.704877  0.435561  1
  Si  Si20  1  0.951964  0.296932  0.936617  1
  Si  Si21  1  0.703136  0.044567  0.562164  1
  Si  Si22  1  0.200390  0.461875  0.190267  1
  Si  Si23  1  0.797892  0.544074  0.686350  1
  Si  Si24  1  0.457503  0.200118  0.811391  1
  Si  Si25  1  0.539827  0.797588  0.311847  1
  Si  Si26  1  0.295043  0.950010  0.065731  1
  Si  Si27  1  0.865212  0.791154  0.822657  1
  Si  Si28  1  0.134558  0.206767  0.322327  1
  Si  Si29  1  0.793948  0.865257  0.178255  1
  Si  Si30  1  0.291043  0.634158  0.572586  1
  Si  Si31  1  0.711777  0.366621  0.073239  1
  Si  Si32  1  0.633879  0.290495  0.427032  1
  Si  Si33  1  0.366584  0.711349  0.927233  1
  Si  Si34  1  0.209390  0.134744  0.676697  1
  Mo  Mo35  1  0.167705  0.831531  0.251180  1
