# generated using pymatgen
data_Tb8In2PdRu
_symmetry_space_group_name_H-M   'P 1'
_cell_length_a   9.73624814
_cell_length_b   9.73624846
_cell_length_c   9.74653500
_cell_angle_alpha   59.96504104
_cell_angle_beta   59.96503994
_cell_angle_gamma   59.89609425
_symmetry_Int_Tables_number   1
_chemical_formula_structural   Tb8In2PdRu
_chemical_formula_sum   'Tb16 In4 Pd2 Ru2'
_cell_volume   652.44965176
_cell_formula_units_Z   2
loop_
 _symmetry_equiv_pos_site_id
 _symmetry_equiv_pos_as_xyz
  1  'x, y, z'
loop_
 _atom_site_type_symbol
 _atom_site_label
 _atom_site_symmetry_multiplicity
 _atom_site_fract_x
 _atom_site_fract_y
 _atom_site_fract_z
 _atom_site_occupancy
  Tb  Tb0  1  0.348897  0.348897  0.355520  1
  Tb  Tb1  1  0.348897  0.348897  0.946688  1
  Tb  Tb2  1  0.345841  0.952290  0.350935  1
  Tb  Tb3  1  0.952290  0.345841  0.350935  1
  Tb  Tb4  1  0.816537  0.188167  0.190602  1
  Tb  Tb5  1  0.188167  0.816537  0.804694  1
  Tb  Tb6  1  0.188167  0.816537  0.190602  1
  Tb  Tb7  1  0.816537  0.188167  0.804694  1
  Tb  Tb8  1  0.189057  0.189057  0.810943  1
  Tb  Tb9  1  0.809117  0.809117  0.190883  1
  Tb  Tb10  1  0.937076  0.558330  0.565841  1
  Tb  Tb11  1  0.558330  0.937076  0.938753  1
  Tb  Tb12  1  0.558330  0.937076  0.565841  1
  Tb  Tb13  1  0.937076  0.558330  0.938753  1
  Tb  Tb14  1  0.562578  0.562578  0.937422  1
  Tb  Tb15  1  0.939110  0.939110  0.560890  1
  In  In16  1  0.582060  0.582060  0.583053  1
  In  In17  1  0.582060  0.582060  0.252825  1
  In  In18  1  0.582784  0.251838  0.582688  1
  In  In19  1  0.251838  0.582784  0.582688  1
  Pd  Pd20  1  0.145372  0.571669  0.141479  1
  Pd  Pd21  1  0.571669  0.145372  0.141479  1
  Ru  Ru22  1  0.144105  0.144105  0.139095  1
  Ru  Ru23  1  0.144105  0.144105  0.572694  1
