# generated using pymatgen
data_Nd8Si12Pd3Au
_symmetry_space_group_name_H-M   'P 1'
_cell_length_a   8.27654100
_cell_length_b   8.27654269
_cell_length_c   8.56635600
_cell_angle_alpha   89.99998394
_cell_angle_beta   90.00001361
_cell_angle_gamma   119.99998925
_symmetry_Int_Tables_number   1
_chemical_formula_structural   Nd8Si12Pd3Au
_chemical_formula_sum   'Nd8 Si12 Pd3 Au1'
_cell_volume   508.18825978
_cell_formula_units_Z   1
loop_
 _symmetry_equiv_pos_site_id
 _symmetry_equiv_pos_as_xyz
  1  'x, y, z'
loop_
 _atom_site_type_symbol
 _atom_site_label
 _atom_site_symmetry_multiplicity
 _atom_site_fract_x
 _atom_site_fract_y
 _atom_site_fract_z
 _atom_site_occupancy
  Nd  Nd0  1  0.498541  0.501459  0.747497  1
  Nd  Nd1  1  0.499894  0.500106  0.252416  1
  Nd  Nd2  1  0.002918  0.501459  0.747497  1
  Nd  Nd3  1  0.000212  0.500106  0.252416  1
  Nd  Nd4  1  0.498541  0.997081  0.747497  1
  Nd  Nd5  1  0.499894  0.999788  0.252416  1
  Nd  Nd6  1  0.000000  0.000000  0.747984  1
  Nd  Nd7  1  0.000000  0.000000  0.252293  1
  Si  Si8  1  0.837880  0.162120  0.999545  1
  Si  Si9  1  0.167321  0.832679  0.000919  1
  Si  Si10  1  0.324241  0.162121  0.999545  1
  Si  Si11  1  0.165589  0.834411  0.498909  1
  Si  Si12  1  0.665359  0.832679  0.000919  1
  Si  Si13  1  0.834070  0.165930  0.501173  1
  Si  Si14  1  0.837880  0.675759  0.999545  1
  Si  Si15  1  0.668823  0.834411  0.498909  1
  Si  Si16  1  0.167321  0.334641  0.000919  1
  Si  Si17  1  0.331860  0.165930  0.501173  1
  Si  Si18  1  0.165589  0.331177  0.498909  1
  Si  Si19  1  0.834070  0.668140  0.501173  1
  Pd  Pd20  1  0.333333  0.666667  0.000851  1
  Pd  Pd21  1  0.333333  0.666667  0.498898  1
  Pd  Pd22  1  0.666667  0.333333  0.500976  1
  Au  Au23  1  0.666667  0.333333  0.997622  1
