# generated using pymatgen
data_Dy3U5(TcB6)4
_symmetry_space_group_name_H-M   'P 1'
_cell_length_a   3.63764500
_cell_length_b   9.29872304
_cell_length_c   11.40085405
_cell_angle_alpha   89.98974626
_cell_angle_beta   90.00000000
_cell_angle_gamma   90.00000000
_symmetry_Int_Tables_number   1
_chemical_formula_structural   Dy3U5(TcB6)4
_chemical_formula_sum   'Dy3 U5 Tc4 B24'
_cell_volume   385.63905064
_cell_formula_units_Z   1
loop_
 _symmetry_equiv_pos_site_id
 _symmetry_equiv_pos_as_xyz
  1  'x, y, z'
loop_
 _atom_site_type_symbol
 _atom_site_label
 _atom_site_symmetry_multiplicity
 _atom_site_fract_x
 _atom_site_fract_y
 _atom_site_fract_z
 _atom_site_occupancy
  Dy  Dy0  1  0.000000  0.337342  0.407558  1
  Dy  Dy1  1  0.000000  0.662998  0.591978  1
  Dy  Dy2  1  0.000000  0.835884  0.093113  1
  U  U3  1  0.000000  0.162855  0.907060  1
  U  U4  1  0.000000  0.956246  0.396986  1
  U  U5  1  0.000000  0.043016  0.603633  1
  U  U6  1  0.000000  0.457389  0.103757  1
  U  U7  1  0.000000  0.543441  0.896958  1
  Tc  Tc8  1  0.000000  0.645555  0.318991  1
  Tc  Tc9  1  0.000000  0.352638  0.683512  1
  Tc  Tc10  1  0.000000  0.146049  0.178142  1
  Tc  Tc11  1  0.000000  0.857535  0.819605  1
  B  B12  1  0.500000  0.551686  0.431149  1
  B  B13  1  0.500000  0.447794  0.569607  1
  B  B14  1  0.500000  0.052388  0.067743  1
  B  B15  1  0.500000  0.950129  0.930564  1
  B  B16  1  0.500000  0.742855  0.423136  1
  B  B17  1  0.500000  0.257287  0.576831  1
  B  B18  1  0.500000  0.242377  0.075868  1
  B  B19  1  0.500000  0.756800  0.922683  1
  B  B20  1  0.500000  0.802087  0.275073  1
  B  B21  1  0.500000  0.196816  0.726288  1
  B  B22  1  0.500000  0.302166  0.224932  1
  B  B23  1  0.500000  0.698122  0.774864  1
  B  B24  1  0.500000  0.643764  0.188788  1
  B  B25  1  0.500000  0.354795  0.811868  1
  B  B26  1  0.500000  0.144192  0.310874  1
  B  B27  1  0.500000  0.855411  0.688583  1
  B  B28  1  0.500000  0.989190  0.219405  1
  B  B29  1  0.500000  0.013201  0.781166  1
  B  B30  1  0.500000  0.488658  0.280779  1
  B  B31  1  0.500000  0.511300  0.719482  1
  B  B32  1  0.500000  0.641162  0.038958  1
  B  B33  1  0.500000  0.356649  0.960245  1
  B  B34  1  0.500000  0.140706  0.460718  1
  B  B35  1  0.500000  0.859515  0.539102  1
