# generated using pymatgen
data_Tb7Dy9Cd4Co3Os
_symmetry_space_group_name_H-M   'P 1'
_cell_length_a   9.60339926
_cell_length_b   9.60171843
_cell_length_c   9.59817182
_cell_angle_alpha   59.42842928
_cell_angle_beta   59.44166647
_cell_angle_gamma   59.44983298
_symmetry_Int_Tables_number   1
_chemical_formula_structural   Tb7Dy9Cd4Co3Os
_chemical_formula_sum   'Tb7 Dy9 Cd4 Co3 Os1'
_cell_volume   617.84354318
_cell_formula_units_Z   1
loop_
 _symmetry_equiv_pos_site_id
 _symmetry_equiv_pos_as_xyz
  1  'x, y, z'
loop_
 _atom_site_type_symbol
 _atom_site_label
 _atom_site_symmetry_multiplicity
 _atom_site_fract_x
 _atom_site_fract_y
 _atom_site_fract_z
 _atom_site_occupancy
  Tb  Tb0  1  0.211554  0.600251  0.600001  1
  Tb  Tb1  1  0.805757  0.190069  0.190330  1
  Tb  Tb2  1  0.057551  0.437208  0.437575  1
  Tb  Tb3  1  0.189931  0.806260  0.189802  1
  Tb  Tb4  1  0.599928  0.600147  0.211326  1
  Tb  Tb5  1  0.190299  0.189914  0.805900  1
  Tb  Tb6  1  0.061668  0.435592  0.061275  1
  Dy  Dy7  1  0.437809  0.437051  0.057584  1
  Dy  Dy8  1  0.595884  0.595829  0.596190  1
  Dy  Dy9  1  0.187088  0.813315  0.812868  1
  Dy  Dy10  1  0.061284  0.061109  0.436085  1
  Dy  Dy11  1  0.436169  0.061429  0.061354  1
  Dy  Dy12  1  0.812801  0.187174  0.813063  1
  Dy  Dy13  1  0.437583  0.057676  0.437209  1
  Dy  Dy14  1  0.600116  0.211506  0.599988  1
  Dy  Dy15  1  0.812703  0.813419  0.187084  1
  Cd  Cd16  1  0.829245  0.829782  0.508187  1
  Cd  Cd17  1  0.829800  0.830520  0.829789  1
  Cd  Cd18  1  0.508100  0.829656  0.829400  1
  Cd  Cd19  1  0.829231  0.508186  0.829512  1
  Co  Co20  1  0.829229  0.391766  0.392635  1
  Co  Co21  1  0.392129  0.829843  0.392264  1
  Co  Co22  1  0.392594  0.391896  0.829395  1
  Os  Os23  1  0.391549  0.390404  0.391183  1
