# generated using pymatgen
data_RbNpAuSe3
_symmetry_space_group_name_H-M   'P 1'
_cell_length_a   8.04165662
_cell_length_b   8.04165707
_cell_length_c   10.71995100
_cell_angle_alpha   90.00000000
_cell_angle_beta   90.00000000
_cell_angle_gamma   149.43014390
_symmetry_Int_Tables_number   1
_chemical_formula_structural   RbNpAuSe3
_chemical_formula_sum   'Rb2 Np2 Au2 Se6'
_cell_volume   352.57410316
_cell_formula_units_Z   2
loop_
 _symmetry_equiv_pos_site_id
 _symmetry_equiv_pos_as_xyz
  1  'x, y, z'
loop_
 _atom_site_type_symbol
 _atom_site_label
 _atom_site_symmetry_multiplicity
 _atom_site_fract_x
 _atom_site_fract_y
 _atom_site_fract_z
 _atom_site_occupancy
  Rb  Rb0  1  0.752516  0.247485  0.250000  1
  Rb  Rb1  1  0.247485  0.752516  0.750000  1
  Np  Np2  1  0.000000  0.000000  0.000000  1
  Np  Np3  1  0.000000  0.000000  0.500000  1
  Au  Au4  1  0.462218  0.537783  0.250000  1
  Au  Au5  1  0.537783  0.462218  0.750000  1
  Se  Se6  1  0.378391  0.621610  0.041725  1
  Se  Se7  1  0.068287  0.931714  0.250000  1
  Se  Se8  1  0.378391  0.621610  0.458275  1
  Se  Se9  1  0.621610  0.378391  0.541725  1
  Se  Se10  1  0.931714  0.068287  0.750000  1
  Se  Se11  1  0.621610  0.378391  0.958275  1
