# generated using pymatgen
data_La5Pr4HoC4I15
_symmetry_space_group_name_H-M   'P 1'
_cell_length_a   9.86787182
_cell_length_b   10.77277386
_cell_length_c   11.87318050
_cell_angle_alpha   93.53372983
_cell_angle_beta   114.24800729
_cell_angle_gamma   109.49363252
_symmetry_Int_Tables_number   1
_chemical_formula_structural   La5Pr4HoC4I15
_chemical_formula_sum   'La5 Pr4 Ho1 C4 I15'
_cell_volume   1055.46900755
_cell_formula_units_Z   1
loop_
 _symmetry_equiv_pos_site_id
 _symmetry_equiv_pos_as_xyz
  1  'x, y, z'
loop_
 _atom_site_type_symbol
 _atom_site_label
 _atom_site_symmetry_multiplicity
 _atom_site_fract_x
 _atom_site_fract_y
 _atom_site_fract_z
 _atom_site_occupancy
  La  La0  1  0.400426  0.457321  0.653701  1
  La  La1  1  0.472581  0.816190  0.897523  1
  La  La2  1  0.706472  0.568247  0.045972  1
  La  La3  1  0.293957  0.432018  0.956116  1
  La  La4  1  0.658380  0.253994  0.832715  1
  Pr  Pr5  1  0.345251  0.746300  0.163823  1
  Pr  Pr6  1  0.775761  0.882462  0.257532  1
  Pr  Pr7  1  0.528127  0.186769  0.102030  1
  Pr  Pr8  1  0.225532  0.115752  0.746057  1
  Ho  Ho9  1  0.592895  0.546160  0.333118  1
  C  C10  1  0.484319  0.302222  0.937468  1
  C  C11  1  0.518181  0.698895  0.061754  1
  C  C12  1  0.453702  0.362380  0.832875  1
  C  C13  1  0.546061  0.636071  0.164817  1
  I  I14  1  0.206764  0.908446  0.940282  1
  I  I15  1  0.100837  0.183010  0.469953  1
  I  I16  1  0.150488  0.555741  0.703314  1
  I  I17  1  0.401161  0.967963  0.644430  1
  I  I18  1  0.715115  0.734535  0.821006  1
  I  I19  1  0.300564  0.274888  0.189574  1
  I  I20  1  0.836061  0.446094  0.303581  1
  I  I21  1  0.881115  0.797296  0.524539  1
  I  I22  1  0.369402  0.628408  0.410545  1
  I  I23  1  0.054952  0.833089  0.223075  1
  I  I24  1  0.795644  0.097361  0.066908  1
  I  I25  1  0.643838  0.375556  0.582591  1
  I  I26  1  0.945621  0.163690  0.779936  1
  I  I27  1  0.593740  0.028796  0.350819  1
  I  I28  1  0.003052  0.500346  0.003947  1
