# generated using pymatgen
data_PaH5
_symmetry_space_group_name_H-M   'P 1'
_cell_length_a   3.50434689
_cell_length_b   4.27262142
_cell_length_c   4.02193890
_cell_angle_alpha   57.83271976
_cell_angle_beta   64.22383545
_cell_angle_gamma   89.93524755
_symmetry_Int_Tables_number   1
_chemical_formula_structural   PaH5
_chemical_formula_sum   'Pa1 H5'
_cell_volume   43.75679705
_cell_formula_units_Z   1
loop_
 _symmetry_equiv_pos_site_id
 _symmetry_equiv_pos_as_xyz
  1  'x, y, z'
loop_
 _atom_site_type_symbol
 _atom_site_label
 _atom_site_symmetry_multiplicity
 _atom_site_fract_x
 _atom_site_fract_y
 _atom_site_fract_z
 _atom_site_occupancy
  Pa  Pa0  1  0.963555  0.393611  0.692227  1
  H  H1  1  0.299803  0.471646  0.020624  1
  H  H2  1  0.629473  0.314583  0.364062  1
  H  H3  1  0.627618  0.796515  0.363245  1
  H  H4  1  0.296946  0.988387  0.024509  1
  H  H5  1  0.965025  0.891968  0.696015  1
