# generated using pymatgen
data_Y5Co19(Si5P)2
_symmetry_space_group_name_H-M   'P 1'
_cell_length_a   12.14660241
_cell_length_b   12.12182888
_cell_length_c   3.71344700
_cell_angle_alpha   90.00000000
_cell_angle_beta   90.00000000
_cell_angle_gamma   119.93255834
_symmetry_Int_Tables_number   1
_chemical_formula_structural   Y5Co19(Si5P)2
_chemical_formula_sum   'Y5 Co19 Si10 P2'
_cell_volume   473.83328658
_cell_formula_units_Z   1
loop_
 _symmetry_equiv_pos_site_id
 _symmetry_equiv_pos_as_xyz
  1  'x, y, z'
loop_
 _atom_site_type_symbol
 _atom_site_label
 _atom_site_symmetry_multiplicity
 _atom_site_fract_x
 _atom_site_fract_y
 _atom_site_fract_z
 _atom_site_occupancy
  Y  Y0  1  0.333701  0.666413  0.500000  1
  Y  Y1  1  0.666299  0.332710  0.500000  1
  Y  Y2  1  0.000000  0.185378  0.000000  1
  Y  Y3  1  0.814191  0.815147  0.000000  1
  Y  Y4  1  0.185809  0.000956  0.000000  1
  Co  Co5  1  0.626148  0.823812  0.500000  1
  Co  Co6  1  0.180140  0.802634  0.500000  1
  Co  Co7  1  0.197439  0.373732  0.500000  1
  Co  Co8  1  0.373852  0.197664  0.500000  1
  Co  Co9  1  0.819860  0.622494  0.500000  1
  Co  Co10  1  0.802561  0.176293  0.500000  1
  Co  Co11  1  0.000000  0.558956  0.500000  1
  Co  Co12  1  0.440988  0.441515  0.500000  1
  Co  Co13  1  0.559012  0.000526  0.500000  1
  Co  Co14  1  0.520965  0.644272  0.000000  1
  Co  Co15  1  0.357065  0.877647  0.000000  1
  Co  Co16  1  0.123144  0.478587  0.000000  1
  Co  Co17  1  0.479035  0.123307  0.000000  1
  Co  Co18  1  0.642935  0.520582  0.000000  1
  Co  Co19  1  0.876856  0.355443  0.000000  1
  Co  Co20  1  0.000000  0.718406  0.000000  1
  Co  Co21  1  0.278202  0.278083  0.000000  1
  Co  Co22  1  0.721798  0.999881  0.000000  1
  Co  Co23  1  0.000000  0.004509  0.500000  1
  Si  Si24  1  0.000000  0.371419  0.500000  1
  Si  Si25  1  0.628548  0.628823  0.500000  1
  Si  Si26  1  0.371452  0.000275  0.500000  1
  Si  Si27  1  0.522348  0.840405  0.000000  1
  Si  Si28  1  0.160697  0.682517  0.000000  1
  Si  Si29  1  0.318066  0.477811  0.000000  1
  Si  Si30  1  0.477652  0.318058  0.000000  1
  Si  Si31  1  0.839303  0.521820  0.000000  1
  Si  Si32  1  0.681934  0.159745  0.000000  1
  Si  Si33  1  0.000000  0.817294  0.500000  1
  P  P34  1  0.182956  0.182921  0.500000  1
  P  P35  1  0.817044  0.999965  0.500000  1
