# generated using pymatgen
data_LiLu2AlB8
_symmetry_space_group_name_H-M   'P 1'
_cell_length_a   5.90169649
_cell_length_b   5.90169643
_cell_length_c   3.44890500
_cell_angle_alpha   90.00000000
_cell_angle_beta   90.00000000
_cell_angle_gamma   103.96454075
_symmetry_Int_Tables_number   1
_chemical_formula_structural   LiLu2AlB8
_chemical_formula_sum   'Li1 Lu2 Al1 B8'
_cell_volume   116.57515812
_cell_formula_units_Z   1
loop_
 _symmetry_equiv_pos_site_id
 _symmetry_equiv_pos_as_xyz
  1  'x, y, z'
loop_
 _atom_site_type_symbol
 _atom_site_label
 _atom_site_symmetry_multiplicity
 _atom_site_fract_x
 _atom_site_fract_y
 _atom_site_fract_z
 _atom_site_occupancy
  Li  Li0  1  0.677136  0.677136  0.000000  1
  Lu  Lu1  1  0.196368  0.800556  0.000000  1
  Lu  Lu2  1  0.800556  0.196368  0.000000  1
  Al  Al3  1  0.328228  0.328228  0.000000  1
  B  B4  1  0.881327  0.564348  0.500000  1
  B  B5  1  0.409473  0.593763  0.500000  1
  B  B6  1  0.876756  0.876756  0.500000  1
  B  B7  1  0.564348  0.881327  0.500000  1
  B  B8  1  0.438068  0.115782  0.500000  1
  B  B9  1  0.118195  0.118195  0.500000  1
  B  B10  1  0.593763  0.409473  0.500000  1
  B  B11  1  0.115782  0.438068  0.500000  1
