# generated using pymatgen
data_TbTm7Sc12Si15Ru
_symmetry_space_group_name_H-M   'P 1'
_cell_length_a   7.03181202
_cell_length_b   7.40816898
_cell_length_c   13.86997890
_cell_angle_alpha   90.04086674
_cell_angle_beta   90.00623043
_cell_angle_gamma   90.20793916
_symmetry_Int_Tables_number   1
_chemical_formula_structural   TbTm7Sc12Si15Ru
_chemical_formula_sum   'Tb1 Tm7 Sc12 Si15 Ru1'
_cell_volume   722.52180738
_cell_formula_units_Z   1
loop_
 _symmetry_equiv_pos_site_id
 _symmetry_equiv_pos_as_xyz
  1  'x, y, z'
loop_
 _atom_site_type_symbol
 _atom_site_label
 _atom_site_symmetry_multiplicity
 _atom_site_fract_x
 _atom_site_fract_y
 _atom_site_fract_z
 _atom_site_occupancy
  Tb  Tb0  1  0.010726  0.178813  0.095098  1
  Tm  Tm1  1  0.991314  0.826413  0.904922  1
  Tm  Tm2  1  0.489570  0.678006  0.904612  1
  Tm  Tm3  1  0.991424  0.826602  0.594889  1
  Tm  Tm4  1  0.510758  0.321941  0.095771  1
  Tm  Tm5  1  0.011143  0.179642  0.404145  1
  Tm  Tm6  1  0.510973  0.321818  0.404368  1
  Tm  Tm7  1  0.489414  0.677923  0.595232  1
  Sc  Sc8  1  0.158550  0.504618  0.750038  1
  Sc  Sc9  1  0.837679  0.494713  0.250255  1
  Sc  Sc10  1  0.339337  0.006144  0.250190  1
  Sc  Sc11  1  0.670201  0.997191  0.750054  1
  Sc  Sc12  1  0.315989  0.171819  0.627998  1
  Sc  Sc13  1  0.671513  0.825452  0.374191  1
  Sc  Sc14  1  0.171102  0.677801  0.374243  1
  Sc  Sc15  1  0.671480  0.825241  0.125961  1
  Sc  Sc16  1  0.838129  0.319878  0.627719  1
  Sc  Sc17  1  0.316389  0.171677  0.871756  1
  Sc  Sc18  1  0.837758  0.320339  0.872038  1
  Sc  Sc19  1  0.171221  0.677769  0.125972  1
  Si  Si20  1  0.968662  0.886377  0.250387  1
  Si  Si21  1  0.469506  0.611849  0.250124  1
  Si  Si22  1  0.529328  0.390087  0.749935  1
  Si  Si23  1  0.286651  0.864670  0.749942  1
  Si  Si24  1  0.712726  0.131397  0.250679  1
  Si  Si25  1  0.214881  0.369800  0.250693  1
  Si  Si26  1  0.779806  0.629051  0.749941  1
  Si  Si27  1  0.161453  0.468656  0.537356  1
  Si  Si28  1  0.842182  0.535055  0.461586  1
  Si  Si29  1  0.342674  0.966508  0.460306  1
  Si  Si30  1  0.841724  0.536248  0.038060  1
  Si  Si31  1  0.657147  0.034482  0.538762  1
  Si  Si32  1  0.161680  0.469730  0.962237  1
  Si  Si33  1  0.656751  0.034261  0.961046  1
  Si  Si34  1  0.344287  0.965674  0.039432  1
  Ru  Ru35  1  0.025869  0.102359  0.750065  1
