# generated using pymatgen
data_TbSc(NbSe2)8
_symmetry_space_group_name_H-M   'P 1'
_cell_length_a   7.01412700
_cell_length_b   7.01412661
_cell_length_c   14.07621500
_cell_angle_alpha   90.00000000
_cell_angle_beta   90.00000000
_cell_angle_gamma   119.99999715
_symmetry_Int_Tables_number   1
_chemical_formula_structural   TbSc(NbSe2)8
_chemical_formula_sum   'Tb1 Sc1 Nb8 Se16'
_cell_volume   599.74103049
_cell_formula_units_Z   1
loop_
 _symmetry_equiv_pos_site_id
 _symmetry_equiv_pos_as_xyz
  1  'x, y, z'
loop_
 _atom_site_type_symbol
 _atom_site_label
 _atom_site_symmetry_multiplicity
 _atom_site_fract_x
 _atom_site_fract_y
 _atom_site_fract_z
 _atom_site_occupancy
  Tb  Tb0  1  0.000000  0.000000  0.000000  1
  Sc  Sc1  1  0.000000  0.000000  0.500000  1
  Nb  Nb2  1  0.985543  0.492771  0.256492  1
  Nb  Nb3  1  0.014457  0.507229  0.743508  1
  Nb  Nb4  1  0.492771  0.507229  0.743508  1
  Nb  Nb5  1  0.507229  0.014457  0.256492  1
  Nb  Nb6  1  0.000000  0.000000  0.744175  1
  Nb  Nb7  1  0.000000  0.000000  0.255825  1
  Nb  Nb8  1  0.507229  0.492771  0.256492  1
  Nb  Nb9  1  0.492771  0.985543  0.743508  1
  Se  Se10  1  0.333333  0.666667  0.620902  1
  Se  Se11  1  0.666667  0.333333  0.133406  1
  Se  Se12  1  0.666667  0.333333  0.379098  1
  Se  Se13  1  0.333333  0.666667  0.866594  1
  Se  Se14  1  0.168511  0.337024  0.374476  1
  Se  Se15  1  0.829955  0.170045  0.861714  1
  Se  Se16  1  0.340092  0.170045  0.861714  1
  Se  Se17  1  0.662976  0.831489  0.374476  1
  Se  Se18  1  0.168511  0.831489  0.374476  1
  Se  Se19  1  0.829955  0.659908  0.861714  1
  Se  Se20  1  0.170045  0.340092  0.138286  1
  Se  Se21  1  0.831489  0.168511  0.625524  1
  Se  Se22  1  0.337024  0.168511  0.625524  1
  Se  Se23  1  0.659908  0.829955  0.138286  1
  Se  Se24  1  0.170045  0.829955  0.138286  1
  Se  Se25  1  0.831489  0.662976  0.625524  1
