# generated using pymatgen
data_Ba2Sb4PdAu3
_symmetry_space_group_name_H-M   'P 1'
_cell_length_a   4.92021900
_cell_length_b   4.92021900
_cell_length_c   11.08569900
_cell_angle_alpha   90.00000000
_cell_angle_beta   90.00000000
_cell_angle_gamma   90.00000000
_symmetry_Int_Tables_number   1
_chemical_formula_structural   Ba2Sb4PdAu3
_chemical_formula_sum   'Ba2 Sb4 Pd1 Au3'
_cell_volume   268.36875404
_cell_formula_units_Z   1
loop_
 _symmetry_equiv_pos_site_id
 _symmetry_equiv_pos_as_xyz
  1  'x, y, z'
loop_
 _atom_site_type_symbol
 _atom_site_label
 _atom_site_symmetry_multiplicity
 _atom_site_fract_x
 _atom_site_fract_y
 _atom_site_fract_z
 _atom_site_occupancy
  Ba  Ba0  1  0.000000  0.500000  0.244220  1
  Ba  Ba1  1  0.500000  0.000000  0.750336  1
  Sb  Sb2  1  0.000000  0.000000  0.492858  1
  Sb  Sb3  1  0.500000  0.500000  0.492858  1
  Sb  Sb4  1  0.000000  0.500000  0.871783  1
  Sb  Sb5  1  0.500000  0.000000  0.136208  1
  Pd  Pd6  1  0.500000  0.000000  0.382808  1
  Au  Au7  1  0.000000  0.000000  0.001503  1
  Au  Au8  1  0.500000  0.500000  0.001503  1
  Au  Au9  1  0.000000  0.500000  0.625922  1
