# generated using pymatgen
data_K3LuV2O8
_symmetry_space_group_name_H-M   'P 1'
_cell_length_a   5.94778100
_cell_length_b   5.94778173
_cell_length_c   7.66694500
_cell_angle_alpha   90.00000000
_cell_angle_beta   90.00000000
_cell_angle_gamma   120.00000148
_symmetry_Int_Tables_number   1
_chemical_formula_structural   K3LuV2O8
_chemical_formula_sum   'K3 Lu1 V2 O8'
_cell_volume   234.88915468
_cell_formula_units_Z   1
loop_
 _symmetry_equiv_pos_site_id
 _symmetry_equiv_pos_as_xyz
  1  'x, y, z'
loop_
 _atom_site_type_symbol
 _atom_site_label
 _atom_site_symmetry_multiplicity
 _atom_site_fract_x
 _atom_site_fract_y
 _atom_site_fract_z
 _atom_site_occupancy
  K  K0  1  0.333333  0.666667  0.693422  1
  K  K1  1  0.666667  0.333333  0.306578  1
  K  K2  1  0.000000  0.000000  0.000000  1
  Lu  Lu3  1  0.000000  0.000000  0.500000  1
  V  V4  1  0.333333  0.666667  0.250555  1
  V  V5  1  0.666667  0.333333  0.749445  1
  O  O6  1  0.333333  0.666667  0.031373  1
  O  O7  1  0.666667  0.333333  0.968627  1
  O  O8  1  0.172336  0.827664  0.330055  1
  O  O9  1  0.655327  0.827664  0.330055  1
  O  O10  1  0.172336  0.344673  0.330055  1
  O  O11  1  0.827664  0.172336  0.669945  1
  O  O12  1  0.344673  0.172336  0.669945  1
  O  O13  1  0.827664  0.655327  0.669945  1
