# generated using pymatgen
data_Tb2CeCo2Si7
_symmetry_space_group_name_H-M   'P 1'
_cell_length_a   12.46991811
_cell_length_b   12.46991852
_cell_length_c   4.05144000
_cell_angle_alpha   90.00000000
_cell_angle_beta   90.00000000
_cell_angle_gamma   161.06996101
_symmetry_Int_Tables_number   1
_chemical_formula_structural   Tb2CeCo2Si7
_chemical_formula_sum   'Tb2 Ce1 Co2 Si7'
_cell_volume   204.37858849
_cell_formula_units_Z   1
loop_
 _symmetry_equiv_pos_site_id
 _symmetry_equiv_pos_as_xyz
  1  'x, y, z'
loop_
 _atom_site_type_symbol
 _atom_site_label
 _atom_site_symmetry_multiplicity
 _atom_site_fract_x
 _atom_site_fract_y
 _atom_site_fract_z
 _atom_site_occupancy
  Tb  Tb0  1  0.902535  0.097465  0.500000  1
  Tb  Tb1  1  0.533569  0.466431  0.500000  1
  Ce  Ce2  1  0.217886  0.782114  0.000000  1
  Co  Co3  1  0.348194  0.651806  0.000000  1
  Co  Co4  1  0.088327  0.911673  0.000000  1
  Si  Si5  1  0.628845  0.371155  0.000000  1
  Si  Si6  1  0.440891  0.559109  0.000000  1
  Si  Si7  1  0.129934  0.870066  0.500000  1
  Si  Si8  1  0.995020  0.004980  0.000000  1
  Si  Si9  1  0.806822  0.193178  0.000000  1
  Si  Si10  1  0.704711  0.295289  0.500000  1
  Si  Si11  1  0.306566  0.693434  0.500000  1
