# generated using pymatgen
data_Tm6ScCr(Co4P3)4
_symmetry_space_group_name_H-M   'P 1'
_cell_length_a   3.66570100
_cell_length_b   10.50280200
_cell_length_c   12.16616700
_cell_angle_alpha   90.00000000
_cell_angle_beta   90.00000000
_cell_angle_gamma   90.00000000
_symmetry_Int_Tables_number   1
_chemical_formula_structural   Tm6ScCr(Co4P3)4
_chemical_formula_sum   'Tm6 Sc1 Cr1 Co16 P12'
_cell_volume   468.39903293
_cell_formula_units_Z   1
loop_
 _symmetry_equiv_pos_site_id
 _symmetry_equiv_pos_as_xyz
  1  'x, y, z'
loop_
 _atom_site_type_symbol
 _atom_site_label
 _atom_site_symmetry_multiplicity
 _atom_site_fract_x
 _atom_site_fract_y
 _atom_site_fract_z
 _atom_site_occupancy
  Tm  Tm0  1  0.000000  0.500000  0.523542  1
  Tm  Tm1  1  0.500000  0.000000  0.471549  1
  Tm  Tm2  1  0.500000  0.818531  0.204295  1
  Tm  Tm3  1  0.500000  0.181469  0.204295  1
  Tm  Tm4  1  0.000000  0.677417  0.794452  1
  Tm  Tm5  1  0.000000  0.322583  0.794452  1
  Sc  Sc6  1  0.000000  0.000000  0.845055  1
  Cr  Cr7  1  0.500000  0.500000  0.159420  1
  Co  Co8  1  0.500000  0.500000  0.703664  1
  Co  Co9  1  0.000000  0.000000  0.296476  1
  Co  Co10  1  0.000000  0.500000  0.990502  1
  Co  Co11  1  0.500000  0.000000  0.014884  1
  Co  Co12  1  0.500000  0.336604  0.997444  1
  Co  Co13  1  0.500000  0.663396  0.997444  1
  Co  Co14  1  0.000000  0.173453  0.009828  1
  Co  Co15  1  0.000000  0.826547  0.009828  1
  Co  Co16  1  0.500000  0.297386  0.429981  1
  Co  Co17  1  0.500000  0.702614  0.429981  1
  Co  Co18  1  0.000000  0.205635  0.565526  1
  Co  Co19  1  0.000000  0.794365  0.565526  1
  Co  Co20  1  0.500000  0.876294  0.703049  1
  Co  Co21  1  0.500000  0.123706  0.703049  1
  Co  Co22  1  0.000000  0.620323  0.293788  1
  Co  Co23  1  0.000000  0.379677  0.293788  1
  P  P24  1  0.500000  0.500000  0.883577  1
  P  P25  1  0.000000  0.000000  0.116919  1
  P  P26  1  0.500000  0.500000  0.347249  1
  P  P27  1  0.000000  0.000000  0.639624  1
  P  P28  1  0.500000  0.312780  0.614991  1
  P  P29  1  0.500000  0.687220  0.614991  1
  P  P30  1  0.000000  0.188859  0.381901  1
  P  P31  1  0.000000  0.811141  0.381901  1
  P  P32  1  0.500000  0.836771  0.895027  1
  P  P33  1  0.500000  0.163229  0.895027  1
  P  P34  1  0.000000  0.650743  0.113489  1
  P  P35  1  0.000000  0.349257  0.113489  1
