# generated using pymatgen
data_Ce3Lu(B4Ru)4
_symmetry_space_group_name_H-M   'P 1'
_cell_length_a   3.60091300
_cell_length_b   5.97648979
_cell_length_c   11.59344287
_cell_angle_alpha   89.87496288
_cell_angle_beta   90.00000000
_cell_angle_gamma   90.00000000
_symmetry_Int_Tables_number   1
_chemical_formula_structural   Ce3Lu(B4Ru)4
_chemical_formula_sum   'Ce3 Lu1 B16 Ru4'
_cell_volume   249.49980049
_cell_formula_units_Z   1
loop_
 _symmetry_equiv_pos_site_id
 _symmetry_equiv_pos_as_xyz
  1  'x, y, z'
loop_
 _atom_site_type_symbol
 _atom_site_label
 _atom_site_symmetry_multiplicity
 _atom_site_fract_x
 _atom_site_fract_y
 _atom_site_fract_z
 _atom_site_occupancy
  Ce  Ce0  1  0.500000  0.371301  0.851673  1
  Ce  Ce1  1  0.500000  0.128944  0.348860  1
  Ce  Ce2  1  0.500000  0.871111  0.649745  1
  Lu  Lu3  1  0.500000  0.628409  0.149194  1
  B  B4  1  0.000000  0.972838  0.190602  1
  B  B5  1  0.000000  0.025580  0.810636  1
  B  B6  1  0.000000  0.476926  0.306739  1
  B  B7  1  0.000000  0.524467  0.690772  1
  B  B8  1  0.000000  0.785438  0.312380  1
  B  B9  1  0.000000  0.214235  0.686156  1
  B  B10  1  0.000000  0.289978  0.185012  1
  B  B11  1  0.000000  0.713135  0.815781  1
  B  B12  1  0.000000  0.862529  0.467905  1
  B  B13  1  0.000000  0.137900  0.530735  1
  B  B14  1  0.000000  0.363902  0.032786  1
  B  B15  1  0.000000  0.636024  0.970475  1
  B  B16  1  0.000000  0.885213  0.047946  1
  B  B17  1  0.000000  0.110894  0.955923  1
  B  B18  1  0.000000  0.389500  0.452518  1
  B  B19  1  0.000000  0.611549  0.545199  1
  Ru  Ru20  1  0.500000  0.639756  0.404698  1
  Ru  Ru21  1  0.500000  0.359864  0.593371  1
  Ru  Ru22  1  0.500000  0.140966  0.093561  1
  Ru  Ru23  1  0.500000  0.859542  0.907332  1
