# generated using pymatgen
data_Rb2HgS2
_symmetry_space_group_name_H-M   'P 1'
_cell_length_a   7.76259200
_cell_length_b   8.32224600
_cell_length_c   11.40512200
_cell_angle_alpha   90.00000000
_cell_angle_beta   90.00000000
_cell_angle_gamma   90.00000000
_symmetry_Int_Tables_number   1
_chemical_formula_structural   Rb2HgS2
_chemical_formula_sum   'Rb8 Hg4 S8'
_cell_volume   736.79597500
_cell_formula_units_Z   4
loop_
 _symmetry_equiv_pos_site_id
 _symmetry_equiv_pos_as_xyz
  1  'x, y, z'
loop_
 _atom_site_type_symbol
 _atom_site_label
 _atom_site_symmetry_multiplicity
 _atom_site_fract_x
 _atom_site_fract_y
 _atom_site_fract_z
 _atom_site_occupancy
  Rb  Rb0  1  0.750000  0.951311  0.888176  1
  Rb  Rb1  1  0.250000  0.548689  0.888176  1
  Rb  Rb2  1  0.500000  0.250000  0.398927  1
  Rb  Rb3  1  0.000000  0.250000  0.398927  1
  Rb  Rb4  1  0.500000  0.750000  0.601073  1
  Rb  Rb5  1  0.000000  0.750000  0.601073  1
  Rb  Rb6  1  0.250000  0.048689  0.111824  1
  Rb  Rb7  1  0.750000  0.451311  0.111824  1
  Hg  Hg8  1  0.750000  0.835538  0.283472  1
  Hg  Hg9  1  0.750000  0.335538  0.716528  1
  Hg  Hg10  1  0.250000  0.664462  0.283472  1
  Hg  Hg11  1  0.250000  0.164462  0.716528  1
  S  S12  1  0.750000  0.069508  0.167699  1
  S  S13  1  0.250000  0.407191  0.611449  1
  S  S14  1  0.750000  0.592809  0.388551  1
  S  S15  1  0.250000  0.430492  0.167699  1
  S  S16  1  0.250000  0.907191  0.388551  1
  S  S17  1  0.750000  0.569508  0.832301  1
  S  S18  1  0.250000  0.930492  0.832301  1
  S  S19  1  0.750000  0.092809  0.611449  1
