# generated using pymatgen
data_Dy8ReB24IrRu2
_symmetry_space_group_name_H-M   'P 1'
_cell_length_a   3.67020400
_cell_length_b   9.16090368
_cell_length_c   11.53869897
_cell_angle_alpha   90.18567044
_cell_angle_beta   90.00000000
_cell_angle_gamma   90.00000000
_symmetry_Int_Tables_number   1
_chemical_formula_structural   Dy8ReB24IrRu2
_chemical_formula_sum   'Dy8 Re1 B24 Ir1 Ru2'
_cell_volume   387.95654609
_cell_formula_units_Z   1
loop_
 _symmetry_equiv_pos_site_id
 _symmetry_equiv_pos_as_xyz
  1  'x, y, z'
loop_
 _atom_site_type_symbol
 _atom_site_label
 _atom_site_symmetry_multiplicity
 _atom_site_fract_x
 _atom_site_fract_y
 _atom_site_fract_z
 _atom_site_occupancy
  Dy  Dy0  1  0.000000  0.320573  0.416214  1
  Dy  Dy1  1  0.000000  0.680265  0.591718  1
  Dy  Dy2  1  0.000000  0.824627  0.081195  1
  Dy  Dy3  1  0.000000  0.175548  0.912802  1
  Dy  Dy4  1  0.000000  0.945551  0.371363  1
  Dy  Dy5  1  0.000000  0.055663  0.627441  1
  Dy  Dy6  1  0.000000  0.440804  0.126988  1
  Dy  Dy7  1  0.000000  0.556039  0.872824  1
  Re  Re8  1  0.000000  0.862075  0.820958  1
  B  B9  1  0.500000  0.554623  0.434009  1
  B  B10  1  0.500000  0.446184  0.567008  1
  B  B11  1  0.500000  0.054373  0.067207  1
  B  B12  1  0.500000  0.946819  0.933142  1
  B  B13  1  0.500000  0.749252  0.420918  1
  B  B14  1  0.500000  0.252339  0.580142  1
  B  B15  1  0.500000  0.247133  0.080486  1
  B  B16  1  0.500000  0.752068  0.919436  1
  B  B17  1  0.500000  0.790747  0.265487  1
  B  B18  1  0.500000  0.209429  0.733139  1
  B  B19  1  0.500000  0.290856  0.234374  1
  B  B20  1  0.500000  0.708163  0.766306  1
  B  B21  1  0.500000  0.631589  0.183876  1
  B  B22  1  0.500000  0.367995  0.814076  1
  B  B23  1  0.500000  0.132157  0.314962  1
  B  B24  1  0.500000  0.868343  0.685745  1
  B  B25  1  0.500000  0.984110  0.212606  1
  B  B26  1  0.500000  0.017111  0.786991  1
  B  B27  1  0.500000  0.482897  0.287315  1
  B  B28  1  0.500000  0.516456  0.712639  1
  B  B29  1  0.500000  0.606966  0.030714  1
  B  B30  1  0.500000  0.391309  0.970498  1
  B  B31  1  0.500000  0.108476  0.469452  1
  B  B32  1  0.500000  0.891773  0.528796  1
  Ir  Ir33  1  0.000000  0.636793  0.321796  1
  Ru  Ru34  1  0.000000  0.362744  0.678021  1
  Ru  Ru35  1  0.000000  0.138149  0.179356  1
