# generated using pymatgen
data_PrTh(GaRu)2
_symmetry_space_group_name_H-M   'P 1'
_cell_length_a   4.68591100
_cell_length_b   7.29934690
_cell_length_c   7.29213865
_cell_angle_alpha   85.63384110
_cell_angle_beta   90.00000000
_cell_angle_gamma   90.00000000
_symmetry_Int_Tables_number   1
_chemical_formula_structural   PrTh(GaRu)2
_chemical_formula_sum   'Pr2 Th2 Ga4 Ru4'
_cell_volume   248.69711969
_cell_formula_units_Z   2
loop_
 _symmetry_equiv_pos_site_id
 _symmetry_equiv_pos_as_xyz
  1  'x, y, z'
loop_
 _atom_site_type_symbol
 _atom_site_label
 _atom_site_symmetry_multiplicity
 _atom_site_fract_x
 _atom_site_fract_y
 _atom_site_fract_z
 _atom_site_occupancy
  Pr  Pr0  1  0.750000  0.305118  0.031116  1
  Pr  Pr1  1  0.250000  0.694882  0.968884  1
  Th  Th2  1  0.250000  0.800470  0.471561  1
  Th  Th3  1  0.750000  0.199530  0.528439  1
  Ga  Ga4  1  0.750000  0.599548  0.698931  1
  Ga  Ga5  1  0.750000  0.888119  0.173735  1
  Ga  Ga6  1  0.250000  0.111881  0.826265  1
  Ga  Ga7  1  0.250000  0.400452  0.301069  1
  Ru  Ru8  1  0.750000  0.551251  0.351656  1
  Ru  Ru9  1  0.750000  0.944631  0.791453  1
  Ru  Ru10  1  0.250000  0.055369  0.208547  1
  Ru  Ru11  1  0.250000  0.448749  0.648344  1
