# generated using pymatgen
data_CsNa2Cu3P2
_symmetry_space_group_name_H-M   'P 1'
_cell_length_a   7.58403288
_cell_length_b   7.58403244
_cell_length_c   7.58403410
_cell_angle_alpha   41.97851975
_cell_angle_beta   41.97852079
_cell_angle_gamma   41.97852764
_symmetry_Int_Tables_number   1
_chemical_formula_structural   CsNa2Cu3P2
_chemical_formula_sum   'Cs1 Na2 Cu3 P2'
_cell_volume   176.51614423
_cell_formula_units_Z   1
loop_
 _symmetry_equiv_pos_site_id
 _symmetry_equiv_pos_as_xyz
  1  'x, y, z'
loop_
 _atom_site_type_symbol
 _atom_site_label
 _atom_site_symmetry_multiplicity
 _atom_site_fract_x
 _atom_site_fract_y
 _atom_site_fract_z
 _atom_site_occupancy
  Cs  Cs0  1  0.500000  0.500000  0.500000  1
  Na  Na1  1  0.082429  0.082429  0.082429  1
  Na  Na2  1  0.917571  0.917571  0.917571  1
  Cu  Cu3  1  0.500000  0.500000  0.000000  1
  Cu  Cu4  1  0.500000  0.000000  0.500000  1
  Cu  Cu5  1  0.000000  0.500000  0.500000  1
  P  P6  1  0.745253  0.745253  0.745253  1
  P  P7  1  0.254747  0.254747  0.254747  1
