# generated using pymatgen
data_Lu4Si3Sn3Ir7
_symmetry_space_group_name_H-M   'P 1'
_cell_length_a   7.28933807
_cell_length_b   7.28933851
_cell_length_c   7.39922000
_cell_angle_alpha   109.77687444
_cell_angle_beta   109.77687569
_cell_angle_gamma   109.16384249
_symmetry_Int_Tables_number   1
_chemical_formula_structural   Lu4Si3Sn3Ir7
_chemical_formula_sum   'Lu4 Si3 Sn3 Ir7'
_cell_volume   301.50055093
_cell_formula_units_Z   1
loop_
 _symmetry_equiv_pos_site_id
 _symmetry_equiv_pos_as_xyz
  1  'x, y, z'
loop_
 _atom_site_type_symbol
 _atom_site_label
 _atom_site_symmetry_multiplicity
 _atom_site_fract_x
 _atom_site_fract_y
 _atom_site_fract_z
 _atom_site_occupancy
  Lu  Lu0  1  0.000000  0.000000  0.556004  1
  Lu  Lu1  1  0.000000  0.470111  0.988017  1
  Lu  Lu2  1  0.470111  0.000000  0.988017  1
  Lu  Lu3  1  0.529889  0.529889  0.517906  1
  Si  Si4  1  0.339531  0.339531  0.006277  1
  Si  Si5  1  0.660469  0.000000  0.666746  1
  Si  Si6  1  0.000000  0.660469  0.666746  1
  Sn  Sn7  1  0.711451  0.711451  0.016003  1
  Sn  Sn8  1  0.288549  0.000000  0.304551  1
  Sn  Sn9  1  0.000000  0.288549  0.304551  1
  Ir  Ir10  1  0.748462  0.250312  0.506464  1
  Ir  Ir11  1  0.749688  0.498150  0.256150  1
  Ir  Ir12  1  0.501850  0.251538  0.758000  1
  Ir  Ir13  1  0.251538  0.501850  0.758000  1
  Ir  Ir14  1  0.250312  0.748462  0.506464  1
  Ir  Ir15  1  0.498150  0.749688  0.256150  1
  Ir  Ir16  1  0.000000  0.000000  0.943954  1
