# generated using pymatgen
data_Tm4Ni(AsRu)6
_symmetry_space_group_name_H-M   'P 1'
_cell_length_a   7.16585279
_cell_length_b   7.16585524
_cell_length_c   7.16585310
_cell_angle_alpha   109.37520481
_cell_angle_beta   109.66361109
_cell_angle_gamma   109.37519915
_symmetry_Int_Tables_number   1
_chemical_formula_structural   Tm4Ni(AsRu)6
_chemical_formula_sum   'Tm4 Ni1 As6 Ru6'
_cell_volume   283.25479901
_cell_formula_units_Z   1
loop_
 _symmetry_equiv_pos_site_id
 _symmetry_equiv_pos_as_xyz
  1  'x, y, z'
loop_
 _atom_site_type_symbol
 _atom_site_label
 _atom_site_symmetry_multiplicity
 _atom_site_fract_x
 _atom_site_fract_y
 _atom_site_fract_z
 _atom_site_occupancy
  Tm  Tm0  1  0.000100  0.000211  0.500105  1
  Tm  Tm1  1  0.499895  0.999789  0.999900  1
  Tm  Tm2  1  0.000107  0.500000  0.999893  1
  Tm  Tm3  1  0.499897  0.500000  0.500103  1
  Ni  Ni4  1  0.750000  0.500000  0.250000  1
  As  As5  1  0.315911  0.000000  0.315914  1
  As  As6  1  0.999052  0.317205  0.316256  1
  As  As7  1  0.999052  0.682795  0.681847  1
  As  As8  1  0.318153  0.317205  0.000948  1
  As  As9  1  0.683744  0.682795  0.000948  1
  As  As10  1  0.684086  0.000000  0.684089  1
  Ru  Ru11  1  0.500550  0.749060  0.249607  1
  Ru  Ru12  1  0.500548  0.250943  0.751489  1
  Ru  Ru13  1  0.750393  0.250940  0.499450  1
  Ru  Ru14  1  0.248511  0.749057  0.499452  1
  Ru  Ru15  1  0.249999  0.500000  0.750001  1
  Ru  Ru16  1  0.000001  0.000000  0.999999  1
