# generated using pymatgen
data_Ho10SnBi5P2
_symmetry_space_group_name_H-M   'P 1'
_cell_length_a   9.16400107
_cell_length_b   9.16600992
_cell_length_c   6.66056700
_cell_angle_alpha   90.00000000
_cell_angle_beta   90.00000000
_cell_angle_gamma   120.00723944
_symmetry_Int_Tables_number   1
_chemical_formula_structural   Ho10SnBi5P2
_chemical_formula_sum   'Ho10 Sn1 Bi5 P2'
_cell_volume   484.47971872
_cell_formula_units_Z   1
loop_
 _symmetry_equiv_pos_site_id
 _symmetry_equiv_pos_as_xyz
  1  'x, y, z'
loop_
 _atom_site_type_symbol
 _atom_site_label
 _atom_site_symmetry_multiplicity
 _atom_site_fract_x
 _atom_site_fract_y
 _atom_site_fract_z
 _atom_site_occupancy
  Ho  Ho0  1  0.670561  0.334070  0.002061  1
  Ho  Ho1  1  0.329439  0.663510  0.002061  1
  Ho  Ho2  1  0.329439  0.663510  0.497939  1
  Ho  Ho3  1  0.670561  0.334070  0.497939  1
  Ho  Ho4  1  0.763509  0.763648  0.750000  1
  Ho  Ho5  1  0.236491  0.000138  0.750000  1
  Ho  Ho6  1  0.000000  0.237610  0.750000  1
  Ho  Ho7  1  0.233034  0.239167  0.250000  1
  Ho  Ho8  1  0.766966  0.006134  0.250000  1
  Ho  Ho9  1  0.000000  0.760998  0.250000  1
  Sn  Sn10  1  0.000000  0.400293  0.250000  1
  Bi  Bi11  1  0.399999  0.398872  0.750000  1
  Bi  Bi12  1  0.600001  0.998873  0.750000  1
  Bi  Bi13  1  0.000000  0.599499  0.750000  1
  Bi  Bi14  1  0.601429  0.601541  0.250000  1
  Bi  Bi15  1  0.398571  0.000113  0.250000  1
  P  P16  1  0.000000  0.998977  0.999799  1
  P  P17  1  0.000000  0.998977  0.500201  1
