# generated using pymatgen
data_Er2Th2B3C4
_symmetry_space_group_name_H-M   'P 1'
_cell_length_a   3.59518541
_cell_length_b   3.74370033
_cell_length_c   11.86018487
_cell_angle_alpha   94.00643396
_cell_angle_beta   96.16624618
_cell_angle_gamma   90.24170197
_symmetry_Int_Tables_number   1
_chemical_formula_structural   Er2Th2B3C4
_chemical_formula_sum   'Er2 Th2 B3 C4'
_cell_volume   158.30729175
_cell_formula_units_Z   1
loop_
 _symmetry_equiv_pos_site_id
 _symmetry_equiv_pos_as_xyz
  1  'x, y, z'
loop_
 _atom_site_type_symbol
 _atom_site_label
 _atom_site_symmetry_multiplicity
 _atom_site_fract_x
 _atom_site_fract_y
 _atom_site_fract_z
 _atom_site_occupancy
  Er  Er0  1  0.385322  0.575257  0.864021  1
  Er  Er1  1  0.614678  0.424743  0.135979  1
  Th  Th2  1  0.802483  0.030793  0.647875  1
  Th  Th3  1  0.197517  0.969207  0.352125  1
  B  B4  1  0.000000  0.000000  0.000000  1
  B  B5  1  0.261997  0.508085  0.538805  1
  B  B6  1  0.738003  0.491915  0.461195  1
  C  C7  1  0.880999  0.088247  0.882905  1
  C  C8  1  0.119001  0.911753  0.117095  1
  C  C9  1  0.312942  0.535186  0.672455  1
  C  C10  1  0.687058  0.464814  0.327545  1
