# generated using pymatgen
data_Tb2YbZn11
_symmetry_space_group_name_H-M   'P 1'
_cell_length_a   8.17865953
_cell_length_b   8.17865860
_cell_length_c   8.17865934
_cell_angle_alpha   148.23614730
_cell_angle_beta   115.90677624
_cell_angle_gamma   73.31360317
_symmetry_Int_Tables_number   1
_chemical_formula_structural   Tb2YbZn11
_chemical_formula_sum   'Tb2 Yb1 Zn11'
_cell_volume   254.90735608
_cell_formula_units_Z   1
loop_
 _symmetry_equiv_pos_site_id
 _symmetry_equiv_pos_as_xyz
  1  'x, y, z'
loop_
 _atom_site_type_symbol
 _atom_site_label
 _atom_site_symmetry_multiplicity
 _atom_site_fract_x
 _atom_site_fract_y
 _atom_site_fract_z
 _atom_site_occupancy
  Tb  Tb0  1  0.298445  0.298445  0.000000  1
  Tb  Tb1  1  0.701555  0.701555  0.000000  1
  Yb  Yb2  1  0.000000  0.000000  0.000000  1
  Zn  Zn3  1  0.500000  0.000000  0.500000  1
  Zn  Zn4  1  0.678885  0.500000  0.178885  1
  Zn  Zn5  1  0.321115  0.500000  0.821115  1
  Zn  Zn6  1  0.695492  0.338906  0.356586  1
  Zn  Zn7  1  0.304508  0.661094  0.643414  1
  Zn  Zn8  1  0.982320  0.338906  0.643414  1
  Zn  Zn9  1  0.017680  0.661094  0.356586  1
  Zn  Zn10  1  0.419953  0.136754  0.283198  1
  Zn  Zn11  1  0.580047  0.863246  0.716802  1
  Zn  Zn12  1  0.853556  0.136754  0.716802  1
  Zn  Zn13  1  0.146444  0.863246  0.283198  1
