# generated using pymatgen
data_Hf5Mn6Si12Mo
_symmetry_space_group_name_H-M   'P 1'
_cell_length_a   9.71974126
_cell_length_b   9.69852811
_cell_length_c   9.69852813
_cell_angle_alpha   149.56091891
_cell_angle_beta   132.64641343
_cell_angle_gamma   57.32037021
_symmetry_Int_Tables_number   1
_chemical_formula_structural   Hf5Mn6Si12Mo
_chemical_formula_sum   'Hf5 Mn6 Si12 Mo1'
_cell_volume   338.29182829
_cell_formula_units_Z   1
loop_
 _symmetry_equiv_pos_site_id
 _symmetry_equiv_pos_as_xyz
  1  'x, y, z'
loop_
 _atom_site_type_symbol
 _atom_site_label
 _atom_site_symmetry_multiplicity
 _atom_site_fract_x
 _atom_site_fract_y
 _atom_site_fract_z
 _atom_site_occupancy
  Hf  Hf0  1  0.145530  0.407115  0.738415  1
  Hf  Hf1  1  0.666904  0.407510  0.259395  1
  Hf  Hf2  1  0.332821  0.594525  0.738296  1
  Hf  Hf3  1  0.137681  0.141196  0.996485  1
  Hf  Hf4  1  0.856808  0.857183  0.999625  1
  Mn  Mn5  1  0.747313  0.999255  0.748058  1
  Mn  Mn6  1  0.999531  0.002013  0.500628  1
  Mn  Mn7  1  0.498436  0.500717  0.502427  1
  Mn  Mn8  1  0.498436  0.996008  0.997719  1
  Mn  Mn9  1  0.252338  0.001818  0.250519  1
  Mn  Mn10  1  0.999531  0.498903  0.997519  1
  Si  Si11  1  0.487182  0.136748  0.350434  1
  Si  Si12  1  0.512175  0.862962  0.649213  1
  Si  Si13  1  0.213935  0.864281  0.349656  1
  Si  Si14  1  0.784712  0.133676  0.651035  1
  Si  Si15  1  0.705622  0.696611  0.009011  1
  Si  Si16  1  0.300840  0.299340  0.001499  1
  Si  Si17  1  0.506015  0.744509  0.246841  1
  Si  Si18  1  0.506015  0.259174  0.761506  1
  Si  Si19  1  0.996449  0.257125  0.252212  1
  Si  Si20  1  0.204858  0.709793  0.495066  1
  Si  Si21  1  0.996449  0.744236  0.739323  1
  Si  Si22  1  0.786982  0.289301  0.497681  1
  Mo  Mo23  1  0.863435  0.596000  0.267436  1
