# generated using pymatgen
data_Zr11U(TcRu)6
_symmetry_space_group_name_H-M   'P 1'
_cell_length_a   4.66307200
_cell_length_b   6.57552300
_cell_length_c   14.00407800
_cell_angle_alpha   90.00000000
_cell_angle_beta   90.00023747
_cell_angle_gamma   90.00000000
_symmetry_Int_Tables_number   1
_chemical_formula_structural   Zr11U(TcRu)6
_chemical_formula_sum   'Zr11 U1 Tc6 Ru6'
_cell_volume   429.39496081
_cell_formula_units_Z   1
loop_
 _symmetry_equiv_pos_site_id
 _symmetry_equiv_pos_as_xyz
  1  'x, y, z'
loop_
 _atom_site_type_symbol
 _atom_site_label
 _atom_site_symmetry_multiplicity
 _atom_site_fract_x
 _atom_site_fract_y
 _atom_site_fract_z
 _atom_site_occupancy
  Zr  Zr0  1  0.500001  0.749282  0.000000  1
  Zr  Zr1  1  0.999986  0.250523  0.172813  1
  Zr  Zr2  1  0.999987  0.749784  0.168686  1
  Zr  Zr3  1  0.499988  0.250323  0.336449  1
  Zr  Zr4  1  0.499988  0.750413  0.334215  1
  Zr  Zr5  1  0.000000  0.250284  0.500000  1
  Zr  Zr6  1  0.000000  0.750624  0.500000  1
  Zr  Zr7  1  0.500012  0.250323  0.663552  1
  Zr  Zr8  1  0.500012  0.750413  0.665786  1
  Zr  Zr9  1  0.000014  0.250523  0.827187  1
  Zr  Zr10  1  0.000013  0.749784  0.831314  1
  U  U11  1  0.500001  0.249458  0.000000  1
  Tc  Tc12  1  0.000000  0.486511  0.000000  1
  Tc  Tc13  1  0.499986  0.005774  0.161640  1
  Tc  Tc14  1  0.999985  0.500836  0.332632  1
  Tc  Tc15  1  0.499999  0.999289  0.500000  1
  Tc  Tc16  1  0.000015  0.500836  0.667369  1
  Tc  Tc17  1  0.500015  0.005774  0.838361  1
  Ru  Ru18  1  0.000000  0.005913  0.000000  1
  Ru  Ru19  1  0.499983  0.495653  0.163333  1
  Ru  Ru20  1  0.999990  0.000432  0.332158  1
  Ru  Ru21  1  0.499999  0.501164  0.500000  1
  Ru  Ru22  1  0.000010  0.000432  0.667842  1
  Ru  Ru23  1  0.500018  0.495653  0.836667  1
