# generated using pymatgen
data_Y2HoCo8P6Os
_symmetry_space_group_name_H-M   'P 1'
_cell_length_a   3.71504800
_cell_length_b   10.51536400
_cell_length_c   12.24309700
_cell_angle_alpha   90.00000000
_cell_angle_beta   90.00000000
_cell_angle_gamma   90.00000000
_symmetry_Int_Tables_number   1
_chemical_formula_structural   Y2HoCo8P6Os
_chemical_formula_sum   'Y4 Ho2 Co16 P12 Os2'
_cell_volume   478.27758821
_cell_formula_units_Z   2
loop_
 _symmetry_equiv_pos_site_id
 _symmetry_equiv_pos_as_xyz
  1  'x, y, z'
loop_
 _atom_site_type_symbol
 _atom_site_label
 _atom_site_symmetry_multiplicity
 _atom_site_fract_x
 _atom_site_fract_y
 _atom_site_fract_z
 _atom_site_occupancy
  Y  Y0  1  0.000000  0.500000  0.524390  1
  Y  Y1  1  0.500000  0.000000  0.475538  1
  Y  Y2  1  0.000000  0.683019  0.793224  1
  Y  Y3  1  0.000000  0.316981  0.793224  1
  Ho  Ho4  1  0.500000  0.817063  0.206858  1
  Ho  Ho5  1  0.500000  0.182937  0.206858  1
  Co  Co6  1  0.500000  0.500000  0.703466  1
  Co  Co7  1  0.000000  0.000000  0.296057  1
  Co  Co8  1  0.000000  0.500000  0.987003  1
  Co  Co9  1  0.500000  0.000000  0.013349  1
  Co  Co10  1  0.500000  0.332446  0.990219  1
  Co  Co11  1  0.500000  0.667554  0.990219  1
  Co  Co12  1  0.000000  0.167424  0.010205  1
  Co  Co13  1  0.000000  0.832576  0.010205  1
  Co  Co14  1  0.500000  0.297220  0.430678  1
  Co  Co15  1  0.500000  0.702780  0.430678  1
  Co  Co16  1  0.000000  0.202639  0.569072  1
  Co  Co17  1  0.000000  0.797361  0.569072  1
  Co  Co18  1  0.500000  0.879540  0.708909  1
  Co  Co19  1  0.500000  0.120460  0.708909  1
  Co  Co20  1  0.000000  0.620869  0.290891  1
  Co  Co21  1  0.000000  0.379131  0.290891  1
  P  P22  1  0.500000  0.500000  0.881152  1
  P  P23  1  0.000000  0.000000  0.119290  1
  P  P24  1  0.500000  0.500000  0.350194  1
  P  P25  1  0.000000  0.000000  0.649833  1
  P  P26  1  0.500000  0.311403  0.615997  1
  P  P27  1  0.500000  0.688597  0.615997  1
  P  P28  1  0.000000  0.188573  0.383522  1
  P  P29  1  0.000000  0.811427  0.383522  1
  P  P30  1  0.500000  0.846690  0.893341  1
  P  P31  1  0.500000  0.153310  0.893341  1
  P  P32  1  0.000000  0.653755  0.106908  1
  P  P33  1  0.000000  0.346245  0.106908  1
  Os  Os34  1  0.500000  0.500000  0.158771  1
  Os  Os35  1  0.000000  0.000000  0.841311  1
