# generated using pymatgen
data_SrYb5(OsO6)2
_symmetry_space_group_name_H-M   'P 1'
_cell_length_a   5.83350659
_cell_length_b   5.53886229
_cell_length_c   9.72520216
_cell_angle_alpha   55.25196540
_cell_angle_beta   89.73283715
_cell_angle_gamma   89.75718537
_symmetry_Int_Tables_number   1
_chemical_formula_structural   SrYb5(OsO6)2
_chemical_formula_sum   'Sr1 Yb5 Os2 O12'
_cell_volume   258.18972171
_cell_formula_units_Z   1
loop_
 _symmetry_equiv_pos_site_id
 _symmetry_equiv_pos_as_xyz
  1  'x, y, z'
loop_
 _atom_site_type_symbol
 _atom_site_label
 _atom_site_symmetry_multiplicity
 _atom_site_fract_x
 _atom_site_fract_y
 _atom_site_fract_z
 _atom_site_occupancy
  Sr  Sr0  1  0.055022  0.264884  0.748415  1
  Yb  Yb1  1  0.496657  0.497890  0.498920  1
  Yb  Yb2  1  0.930444  0.725246  0.257430  1
  Yb  Yb3  1  0.436542  0.274974  0.246399  1
  Yb  Yb4  1  0.999702  0.499836  0.003244  1
  Yb  Yb5  1  0.561502  0.720245  0.754863  1
  Os  Os6  1  0.500152  0.998494  0.005764  1
  Os  Os7  1  0.000208  0.002881  0.493296  1
  O  O8  1  0.471029  0.107641  0.775822  1
  O  O9  1  0.222230  0.758860  0.071252  1
  O  O10  1  0.178140  0.342014  0.440993  1
  O  O11  1  0.685543  0.661541  0.062942  1
  O  O12  1  0.724634  0.246841  0.427255  1
  O  O13  1  0.947518  0.859230  0.725717  1
  O  O14  1  0.054313  0.112518  0.268424  1
  O  O15  1  0.285659  0.774185  0.561126  1
  O  O16  1  0.322081  0.341674  0.948831  1
  O  O17  1  0.815272  0.676580  0.535936  1
  O  O18  1  0.769813  0.246224  0.941643  1
  O  O19  1  0.543539  0.888242  0.231728  1
