# generated using pymatgen
data_Tb7Dy9(AlCo)4
_symmetry_space_group_name_H-M   'P 1'
_cell_length_a   9.44734061
_cell_length_b   9.44602305
_cell_length_c   9.44547504
_cell_angle_alpha   60.01113869
_cell_angle_beta   60.00377977
_cell_angle_gamma   59.99153875
_symmetry_Int_Tables_number   1
_chemical_formula_structural   Tb7Dy9(AlCo)4
_chemical_formula_sum   'Tb7 Dy9 Al4 Co4'
_cell_volume   596.05803734
_cell_formula_units_Z   1
loop_
 _symmetry_equiv_pos_site_id
 _symmetry_equiv_pos_as_xyz
  1  'x, y, z'
loop_
 _atom_site_type_symbol
 _atom_site_label
 _atom_site_symmetry_multiplicity
 _atom_site_fract_x
 _atom_site_fract_y
 _atom_site_fract_z
 _atom_site_occupancy
  Tb  Tb0  1  0.937810  0.562189  0.937811  1
  Tb  Tb1  1  0.562265  0.562537  0.937463  1
  Tb  Tb2  1  0.937462  0.937735  0.562265  1
  Tb  Tb3  1  0.349269  0.349277  0.349379  1
  Tb  Tb4  1  0.349335  0.349226  0.952107  1
  Tb  Tb5  1  0.349379  0.952073  0.349269  1
  Tb  Tb6  1  0.952107  0.349330  0.349335  1
  Dy  Dy7  1  0.807650  0.192136  0.192446  1
  Dy  Dy8  1  0.192446  0.807768  0.807650  1
  Dy  Dy9  1  0.192318  0.807682  0.192318  1
  Dy  Dy10  1  0.807730  0.192270  0.807730  1
  Dy  Dy11  1  0.192437  0.192119  0.807661  1
  Dy  Dy12  1  0.807661  0.807783  0.192437  1
  Dy  Dy13  1  0.938066  0.561929  0.561668  1
  Dy  Dy14  1  0.561667  0.938336  0.938067  1
  Dy  Dy15  1  0.561981  0.938019  0.561981  1
  Al  Al16  1  0.576984  0.576900  0.576771  1
  Al  Al17  1  0.576768  0.576903  0.269647  1
  Al  Al18  1  0.576771  0.269345  0.576984  1
  Al  Al19  1  0.269647  0.576681  0.576768  1
  Co  Co20  1  0.140688  0.140251  0.140225  1
  Co  Co21  1  0.140559  0.140567  0.578773  1
  Co  Co22  1  0.140225  0.578837  0.140688  1
  Co  Co23  1  0.578773  0.140102  0.140559  1
