# generated using pymatgen
data_NaHf2MnF11
_symmetry_space_group_name_H-M   'P 1'
_cell_length_a   5.77580167
_cell_length_b   5.77580195
_cell_length_c   7.83675103
_cell_angle_alpha   69.51996498
_cell_angle_beta   69.51996450
_cell_angle_gamma   73.13433956
_symmetry_Int_Tables_number   1
_chemical_formula_structural   NaHf2MnF11
_chemical_formula_sum   'Na1 Hf2 Mn1 F11'
_cell_volume   225.20079809
_cell_formula_units_Z   1
loop_
 _symmetry_equiv_pos_site_id
 _symmetry_equiv_pos_as_xyz
  1  'x, y, z'
loop_
 _atom_site_type_symbol
 _atom_site_label
 _atom_site_symmetry_multiplicity
 _atom_site_fract_x
 _atom_site_fract_y
 _atom_site_fract_z
 _atom_site_occupancy
  Na  Na0  1  0.000000  0.000000  0.000000  1
  Hf  Hf1  1  0.496929  0.496929  0.233537  1
  Hf  Hf2  1  0.503071  0.503071  0.766463  1
  Mn  Mn3  1  0.000000  0.000000  0.500000  1
  F  F4  1  0.199504  0.775336  0.305836  1
  F  F5  1  0.224664  0.800496  0.694164  1
  F  F6  1  0.800496  0.224664  0.694164  1
  F  F7  1  0.775336  0.199504  0.305836  1
  F  F8  1  0.500000  0.500000  0.500000  1
  F  F9  1  0.667119  0.332881  0.000000  1
  F  F10  1  0.332881  0.667119  0.000000  1
  F  F11  1  0.744473  0.744473  0.649453  1
  F  F12  1  0.255527  0.255527  0.350547  1
  F  F13  1  0.731046  0.731046  0.111792  1
  F  F14  1  0.268954  0.268954  0.888208  1
