# generated using pymatgen
data_LaTb7(AlRu)8
_symmetry_space_group_name_H-M   'P 1'
_cell_length_a   4.09899300
_cell_length_b   7.06773627
_cell_length_c   16.04638970
_cell_angle_alpha   89.97917281
_cell_angle_beta   90.00000000
_cell_angle_gamma   90.00000000
_symmetry_Int_Tables_number   1
_chemical_formula_structural   LaTb7(AlRu)8
_chemical_formula_sum   'La1 Tb7 Al8 Ru8'
_cell_volume   464.87353095
_cell_formula_units_Z   1
loop_
 _symmetry_equiv_pos_site_id
 _symmetry_equiv_pos_as_xyz
  1  'x, y, z'
loop_
 _atom_site_type_symbol
 _atom_site_label
 _atom_site_symmetry_multiplicity
 _atom_site_fract_x
 _atom_site_fract_y
 _atom_site_fract_z
 _atom_site_occupancy
  La  La0  1  0.250000  0.159619  0.937507  1
  Tb  Tb1  1  0.250000  0.526988  0.778556  1
  Tb  Tb2  1  0.750000  0.472789  0.221150  1
  Tb  Tb3  1  0.750000  0.972603  0.281180  1
  Tb  Tb4  1  0.250000  0.027005  0.717152  1
  Tb  Tb5  1  0.250000  0.655584  0.561720  1
  Tb  Tb6  1  0.750000  0.342772  0.437552  1
  Tb  Tb7  1  0.750000  0.841370  0.065123  1
  Al  Al8  1  0.250000  0.642260  0.349620  1
  Al  Al9  1  0.750000  0.357875  0.650005  1
  Al  Al10  1  0.750000  0.850494  0.845306  1
  Al  Al11  1  0.250000  0.144075  0.153325  1
  Al  Al12  1  0.250000  0.507199  0.067501  1
  Al  Al13  1  0.750000  0.503612  0.935311  1
  Al  Al14  1  0.750000  0.997195  0.563908  1
  Al  Al15  1  0.250000  0.001365  0.434990  1
  Ru  Ru16  1  0.250000  0.762334  0.188758  1
  Ru  Ru17  1  0.750000  0.236479  0.810787  1
  Ru  Ru18  1  0.750000  0.740178  0.685707  1
  Ru  Ru19  1  0.250000  0.258335  0.313776  1
  Ru  Ru20  1  0.250000  0.728528  0.934900  1
  Ru  Ru21  1  0.750000  0.272573  0.066810  1
  Ru  Ru22  1  0.750000  0.767244  0.435899  1
  Ru  Ru23  1  0.250000  0.231525  0.563458  1
