# generated using pymatgen
data_Li3Mg(SiPd)4
_symmetry_space_group_name_H-M   'P 1'
_cell_length_a   6.67664449
_cell_length_b   4.06673000
_cell_length_c   6.96027906
_cell_angle_alpha   90.00000000
_cell_angle_beta   89.46826663
_cell_angle_gamma   90.00000000
_symmetry_Int_Tables_number   1
_chemical_formula_structural   Li3Mg(SiPd)4
_chemical_formula_sum   'Li3 Mg1 Si4 Pd4'
_cell_volume   188.97812726
_cell_formula_units_Z   1
loop_
 _symmetry_equiv_pos_site_id
 _symmetry_equiv_pos_as_xyz
  1  'x, y, z'
loop_
 _atom_site_type_symbol
 _atom_site_label
 _atom_site_symmetry_multiplicity
 _atom_site_fract_x
 _atom_site_fract_y
 _atom_site_fract_z
 _atom_site_occupancy
  Li  Li0  1  0.507914  0.249999  0.180292  1
  Li  Li1  1  0.003288  0.249999  0.323085  1
  Li  Li2  1  0.992450  0.750000  0.670892  1
  Mg  Mg3  1  0.492009  0.750000  0.830562  1
  Si  Si4  1  0.208564  0.750000  0.130723  1
  Si  Si5  1  0.711483  0.750000  0.374083  1
  Si  Si6  1  0.280553  0.249999  0.617359  1
  Si  Si7  1  0.796024  0.249999  0.872608  1
  Pd  Pd8  1  0.851301  0.750000  0.055121  1
  Pd  Pd9  1  0.351927  0.750000  0.444424  1
  Pd  Pd10  1  0.648366  0.249999  0.556868  1
  Pd  Pd11  1  0.156118  0.249999  0.943985  1
