# generated using pymatgen
data_BaSr4(AuO4)2
_symmetry_space_group_name_H-M   'P 1'
_cell_length_a   6.90915568
_cell_length_b   6.90915620
_cell_length_c   6.90915606
_cell_angle_alpha   103.48517469
_cell_angle_beta   103.48517588
_cell_angle_gamma   122.24985894
_symmetry_Int_Tables_number   1
_chemical_formula_structural   BaSr4(AuO4)2
_chemical_formula_sum   'Ba1 Sr4 Au2 O8'
_cell_volume   244.25817455
_cell_formula_units_Z   1
loop_
 _symmetry_equiv_pos_site_id
 _symmetry_equiv_pos_as_xyz
  1  'x, y, z'
loop_
 _atom_site_type_symbol
 _atom_site_label
 _atom_site_symmetry_multiplicity
 _atom_site_fract_x
 _atom_site_fract_y
 _atom_site_fract_z
 _atom_site_occupancy
  Ba  Ba0  1  0.000000  0.000000  0.000000  1
  Sr  Sr1  1  0.279908  0.279908  0.559816  1
  Sr  Sr2  1  0.720092  0.720092  0.440184  1
  Sr  Sr3  1  0.720092  0.279908  0.000000  1
  Sr  Sr4  1  0.279908  0.720092  0.000000  1
  Au  Au5  1  0.250000  0.750000  0.500000  1
  Au  Au6  1  0.750000  0.250000  0.500000  1
  O  O7  1  0.496511  0.755841  0.740670  1
  O  O8  1  0.015171  0.755841  0.259330  1
  O  O9  1  0.244159  0.503489  0.259330  1
  O  O10  1  0.244159  0.984829  0.740670  1
  O  O11  1  0.755841  0.496511  0.740670  1
  O  O12  1  0.755841  0.015171  0.259330  1
  O  O13  1  0.503489  0.244159  0.259330  1
  O  O14  1  0.984829  0.244159  0.740670  1
