# generated using pymatgen
data_Ba2NiSn4Au
_symmetry_space_group_name_H-M   'P 1'
_cell_length_a   10.05802233
_cell_length_b   10.05802234
_cell_length_c   4.71792500
_cell_angle_alpha   90.00000000
_cell_angle_beta   90.00000000
_cell_angle_gamma   151.63196747
_symmetry_Int_Tables_number   1
_chemical_formula_structural   Ba2NiSn4Au
_chemical_formula_sum   'Ba2 Ni1 Sn4 Au1'
_cell_volume   226.77320369
_cell_formula_units_Z   1
loop_
 _symmetry_equiv_pos_site_id
 _symmetry_equiv_pos_as_xyz
  1  'x, y, z'
loop_
 _atom_site_type_symbol
 _atom_site_label
 _atom_site_symmetry_multiplicity
 _atom_site_fract_x
 _atom_site_fract_y
 _atom_site_fract_z
 _atom_site_occupancy
  Ba  Ba0  1  0.607234  0.392766  0.750000  1
  Ba  Ba1  1  0.389536  0.610464  0.250000  1
  Ni  Ni2  1  0.183230  0.816770  0.250000  1
  Sn  Sn3  1  0.741125  0.258875  0.250000  1
  Sn  Sn4  1  0.049791  0.950209  0.250000  1
  Sn  Sn5  1  0.243453  0.756547  0.750000  1
  Sn  Sn6  1  0.963273  0.036727  0.750000  1
  Au  Au7  1  0.822359  0.177641  0.750000  1
