# generated using pymatgen
data_Tb2Pr2PBr6
_symmetry_space_group_name_H-M   'P 1'
_cell_length_a   4.10846300
_cell_length_b   13.52274800
_cell_length_c   14.19242100
_cell_angle_alpha   90.00000000
_cell_angle_beta   90.00000000
_cell_angle_gamma   90.00000000
_symmetry_Int_Tables_number   1
_chemical_formula_structural   Tb2Pr2PBr6
_chemical_formula_sum   'Tb4 Pr4 P2 Br12'
_cell_volume   788.49840751
_cell_formula_units_Z   2
loop_
 _symmetry_equiv_pos_site_id
 _symmetry_equiv_pos_as_xyz
  1  'x, y, z'
loop_
 _atom_site_type_symbol
 _atom_site_label
 _atom_site_symmetry_multiplicity
 _atom_site_fract_x
 _atom_site_fract_y
 _atom_site_fract_z
 _atom_site_occupancy
  Tb  Tb0  1  0.500000  0.115923  0.344339  1
  Tb  Tb1  1  0.500000  0.884077  0.655661  1
  Tb  Tb2  1  0.500000  0.615923  0.155661  1
  Tb  Tb3  1  0.500000  0.384077  0.844339  1
  Pr  Pr4  1  0.000000  0.118468  0.579279  1
  Pr  Pr5  1  0.000000  0.881532  0.420721  1
  Pr  Pr6  1  0.000000  0.618468  0.920721  1
  Pr  Pr7  1  0.000000  0.381532  0.079279  1
  P  P8  1  0.500000  0.000000  0.500000  1
  P  P9  1  0.500000  0.500000  0.000000  1
  Br  Br10  1  0.500000  0.236989  0.168501  1
  Br  Br11  1  0.500000  0.763011  0.831499  1
  Br  Br12  1  0.500000  0.736989  0.331499  1
  Br  Br13  1  0.500000  0.263011  0.668501  1
  Br  Br14  1  0.000000  0.253002  0.406360  1
  Br  Br15  1  0.000000  0.746998  0.593640  1
  Br  Br16  1  0.000000  0.753002  0.093640  1
  Br  Br17  1  0.000000  0.246998  0.906360  1
  Br  Br18  1  0.000000  0.007500  0.242907  1
  Br  Br19  1  0.000000  0.992500  0.757093  1
  Br  Br20  1  0.000000  0.507500  0.257093  1
  Br  Br21  1  0.000000  0.492500  0.742907  1
