# generated using pymatgen
data_Tm4TcB16Mo3
_symmetry_space_group_name_H-M   'P 1'
_cell_length_a   3.59274600
_cell_length_b   5.98211208
_cell_length_c   11.56957025
_cell_angle_alpha   90.07036028
_cell_angle_beta   90.00000000
_cell_angle_gamma   90.00000000
_symmetry_Int_Tables_number   1
_chemical_formula_structural   Tm4TcB16Mo3
_chemical_formula_sum   'Tm4 Tc1 B16 Mo3'
_cell_volume   248.65543727
_cell_formula_units_Z   1
loop_
 _symmetry_equiv_pos_site_id
 _symmetry_equiv_pos_as_xyz
  1  'x, y, z'
loop_
 _atom_site_type_symbol
 _atom_site_label
 _atom_site_symmetry_multiplicity
 _atom_site_fract_x
 _atom_site_fract_y
 _atom_site_fract_z
 _atom_site_occupancy
  Tm  Tm0  1  0.000000  0.627824  0.350102  1
  Tm  Tm1  1  0.000000  0.373804  0.649944  1
  Tm  Tm2  1  0.000000  0.127322  0.149786  1
  Tm  Tm3  1  0.000000  0.872940  0.849697  1
  Tc  Tc4  1  0.000000  0.868030  0.585194  1
  B  B5  1  0.500000  0.789366  0.186585  1
  B  B6  1  0.500000  0.209795  0.812651  1
  B  B7  1  0.500000  0.288543  0.314080  1
  B  B8  1  0.500000  0.713488  0.684983  1
  B  B9  1  0.500000  0.867980  0.031783  1
  B  B10  1  0.500000  0.132031  0.967462  1
  B  B11  1  0.500000  0.367422  0.469436  1
  B  B12  1  0.500000  0.634895  0.532612  1
  B  B13  1  0.500000  0.883626  0.453516  1
  B  B14  1  0.500000  0.112879  0.549257  1
  B  B15  1  0.500000  0.384287  0.047457  1
  B  B16  1  0.500000  0.615177  0.951639  1
  B  B17  1  0.500000  0.976190  0.306669  1
  B  B18  1  0.500000  0.021466  0.693090  1
  B  B19  1  0.500000  0.476658  0.194424  1
  B  B20  1  0.500000  0.524270  0.804861  1
  Mo  Mo21  1  0.000000  0.630085  0.084172  1
  Mo  Mo22  1  0.000000  0.369856  0.914508  1
  Mo  Mo23  1  0.000000  0.132069  0.416092  1
