# generated using pymatgen
data_BeV6Si5Os12
_symmetry_space_group_name_H-M   'P 1'
_cell_length_a   4.21585000
_cell_length_b   5.96371300
_cell_length_c   12.63720700
_cell_angle_alpha   90.00000000
_cell_angle_beta   90.00022207
_cell_angle_gamma   90.00000000
_symmetry_Int_Tables_number   1
_chemical_formula_structural   BeV6Si5Os12
_chemical_formula_sum   'Be1 V6 Si5 Os12'
_cell_volume   317.72616792
_cell_formula_units_Z   1
loop_
 _symmetry_equiv_pos_site_id
 _symmetry_equiv_pos_as_xyz
  1  'x, y, z'
loop_
 _atom_site_type_symbol
 _atom_site_label
 _atom_site_symmetry_multiplicity
 _atom_site_fract_x
 _atom_site_fract_y
 _atom_site_fract_z
 _atom_site_occupancy
  Be  Be0  1  0.500206  0.000000  0.833313  1
  V  V1  1  0.999994  0.000000  0.993734  1
  V  V2  1  0.499818  0.500000  0.163692  1
  V  V3  1  0.999834  0.000000  0.333339  1
  V  V4  1  0.500009  0.500000  0.503043  1
  V  V5  1  0.000183  0.000000  0.672904  1
  V  V6  1  0.500207  0.500000  0.833304  1
  Si  Si7  1  0.999981  0.500000  0.999393  1
  Si  Si8  1  0.499790  0.000000  0.166057  1
  Si  Si9  1  0.999805  0.500000  0.333361  1
  Si  Si10  1  0.499997  0.000000  0.500633  1
  Si  Si11  1  0.000202  0.500000  0.667247  1
  Os  Os12  1  0.499990  0.247865  0.999407  1
  Os  Os13  1  0.499990  0.752133  0.999407  1
  Os  Os14  1  0.999848  0.249517  0.166577  1
  Os  Os15  1  0.999848  0.750483  0.166577  1
  Os  Os16  1  0.499857  0.249928  0.333335  1
  Os  Os17  1  0.499857  0.750072  0.333335  1
  Os  Os18  1  0.000000  0.249369  0.500105  1
  Os  Os19  1  0.000000  0.750632  0.500105  1
  Os  Os20  1  0.500150  0.247781  0.667260  1
  Os  Os21  1  0.500150  0.752219  0.667260  1
  Os  Os22  1  0.000143  0.249128  0.833306  1
  Os  Os23  1  0.000143  0.750872  0.833306  1
