# generated using pymatgen
data_Ho2Er3Si3P9Ir19
_symmetry_space_group_name_H-M   'P 1'
_cell_length_a   12.79956500
_cell_length_b   12.69533463
_cell_length_c   3.95409000
_cell_angle_alpha   90.00000000
_cell_angle_beta   90.00000000
_cell_angle_gamma   119.89733823
_symmetry_Int_Tables_number   1
_chemical_formula_structural   Ho2Er3Si3P9Ir19
_chemical_formula_sum   'Ho2 Er3 Si3 P9 Ir19'
_cell_volume   557.01243200
_cell_formula_units_Z   1
loop_
 _symmetry_equiv_pos_site_id
 _symmetry_equiv_pos_as_xyz
  1  'x, y, z'
loop_
 _atom_site_type_symbol
 _atom_site_label
 _atom_site_symmetry_multiplicity
 _atom_site_fract_x
 _atom_site_fract_y
 _atom_site_fract_z
 _atom_site_occupancy
  Ho  Ho0  1  0.662898  0.332357  0.000000  1
  Ho  Ho1  1  0.335187  0.667410  0.000000  1
  Er  Er2  1  0.819620  0.817504  0.500000  1
  Er  Er3  1  0.181447  0.999447  0.500000  1
  Er  Er4  1  0.997461  0.182929  0.500000  1
  Si  Si5  1  0.677884  0.162065  0.500000  1
  Si  Si6  1  0.641220  0.640037  0.000000  1
  Si  Si7  1  0.360205  0.998762  0.000000  1
  P  P8  1  0.832814  0.516948  0.500000  1
  P  P9  1  0.480935  0.321402  0.500000  1
  P  P10  1  0.180822  0.695860  0.500000  1
  P  P11  1  0.517361  0.823337  0.500000  1
  P  P12  1  0.307479  0.483549  0.500000  1
  P  P13  1  0.998053  0.356517  0.000000  1
  P  P14  1  0.173187  0.180540  0.000000  1
  P  P15  1  0.819881  0.996162  0.000000  1
  P  P16  1  0.003621  0.822338  0.000000  1
  Ir  Ir17  1  0.811199  0.179833  0.000000  1
  Ir  Ir18  1  0.825046  0.627938  0.000000  1
  Ir  Ir19  1  0.360475  0.187090  0.000000  1
  Ir  Ir20  1  0.180253  0.797903  0.000000  1
  Ir  Ir21  1  0.620130  0.818073  0.000000  1
  Ir  Ir22  1  0.190694  0.378171  0.000000  1
  Ir  Ir23  1  0.469745  0.442873  0.000000  1
  Ir  Ir24  1  0.558870  0.027163  0.000000  1
  Ir  Ir25  1  0.991454  0.533039  0.000000  1
  Ir  Ir26  1  0.282520  0.286711  0.500000  1
  Ir  Ir27  1  0.717406  0.996539  0.500000  1
  Ir  Ir28  1  0.002244  0.715927  0.500000  1
  Ir  Ir29  1  0.862187  0.355202  0.500000  1
  Ir  Ir30  1  0.648949  0.514123  0.500000  1
  Ir  Ir31  1  0.482162  0.137941  0.500000  1
  Ir  Ir32  1  0.370429  0.878071  0.500000  1
  Ir  Ir33  1  0.506836  0.629866  0.500000  1
  Ir  Ir34  1  0.130058  0.497364  0.500000  1
  Ir  Ir35  1  0.999266  0.999009  0.000000  1
