# generated using pymatgen
data_Y8Ga(CuPd11)2
_symmetry_space_group_name_H-M   'P 1'
_cell_length_a   8.39736900
_cell_length_b   8.29453103
_cell_length_c   8.35447603
_cell_angle_alpha   90.01017264
_cell_angle_beta   90.00000000
_cell_angle_gamma   90.00000000
_symmetry_Int_Tables_number   1
_chemical_formula_structural   Y8Ga(CuPd11)2
_chemical_formula_sum   'Y8 Ga1 Cu2 Pd22'
_cell_volume   581.90794186
_cell_formula_units_Z   1
loop_
 _symmetry_equiv_pos_site_id
 _symmetry_equiv_pos_as_xyz
  1  'x, y, z'
loop_
 _atom_site_type_symbol
 _atom_site_label
 _atom_site_symmetry_multiplicity
 _atom_site_fract_x
 _atom_site_fract_y
 _atom_site_fract_z
 _atom_site_occupancy
  Y  Y0  1  0.253162  0.249708  0.744663  1
  Y  Y1  1  0.251111  0.747982  0.250566  1
  Y  Y2  1  0.751898  0.252046  0.255624  1
  Y  Y3  1  0.743966  0.750497  0.749528  1
  Y  Y4  1  0.748889  0.747982  0.250566  1
  Y  Y5  1  0.746838  0.249708  0.744663  1
  Y  Y6  1  0.256034  0.750497  0.749528  1
  Y  Y7  1  0.248102  0.252046  0.255624  1
  Ga  Ga8  1  0.000000  0.996048  0.003682  1
  Cu  Cu9  1  0.000000  0.500301  0.732369  1
  Cu  Cu10  1  0.500000  0.264808  0.001864  1
  Pd  Pd11  1  0.500000  0.496217  0.749033  1
  Pd  Pd12  1  0.500000  0.253570  0.498976  1
  Pd  Pd13  1  0.252896  0.500933  0.503683  1
  Pd  Pd14  1  0.500000  0.495958  0.251151  1
  Pd  Pd15  1  0.500000  0.745740  0.498962  1
  Pd  Pd16  1  0.747104  0.500933  0.503683  1
  Pd  Pd17  1  0.000000  0.998972  0.710810  1
  Pd  Pd18  1  0.000000  0.294779  0.988901  1
  Pd  Pd19  1  0.293889  0.010947  0.000968  1
  Pd  Pd20  1  0.000000  0.998883  0.296070  1
  Pd  Pd21  1  0.000000  0.698252  0.988144  1
  Pd  Pd22  1  0.706111  0.010947  0.000968  1
  Pd  Pd23  1  0.260985  0.998423  0.500118  1
  Pd  Pd24  1  0.000000  0.264005  0.506122  1
  Pd  Pd25  1  0.500000  0.002529  0.740537  1
  Pd  Pd26  1  0.266138  0.493861  0.998349  1
  Pd  Pd27  1  0.000000  0.500208  0.258074  1
  Pd  Pd28  1  0.500000  0.743121  0.001674  1
  Pd  Pd29  1  0.000000  0.735284  0.506325  1
  Pd  Pd30  1  0.500000  0.002530  0.260305  1
  Pd  Pd31  1  0.739015  0.998423  0.500118  1
  Pd  Pd32  1  0.733862  0.493861  0.998349  1
