# generated using pymatgen
data_Be8AlCr2Fe
_symmetry_space_group_name_H-M   'P 1'
_cell_length_a   4.22582803
_cell_length_b   4.22580778
_cell_length_c   6.91949901
_cell_angle_alpha   90.00007398
_cell_angle_beta   90.00001765
_cell_angle_gamma   60.00019357
_symmetry_Int_Tables_number   1
_chemical_formula_structural   Be8AlCr2Fe
_chemical_formula_sum   'Be8 Al1 Cr2 Fe1'
_cell_volume   107.01081888
_cell_formula_units_Z   1
loop_
 _symmetry_equiv_pos_site_id
 _symmetry_equiv_pos_as_xyz
  1  'x, y, z'
loop_
 _atom_site_type_symbol
 _atom_site_label
 _atom_site_symmetry_multiplicity
 _atom_site_fract_x
 _atom_site_fract_y
 _atom_site_fract_z
 _atom_site_occupancy
  Be  Be0  1  0.999997  0.000001  0.503402  1
  Be  Be1  1  0.000003  0.999999  0.004509  1
  Be  Be2  1  0.831353  0.337307  0.749801  1
  Be  Be3  1  0.337319  0.831341  0.749797  1
  Be  Be4  1  0.831351  0.831340  0.749798  1
  Be  Be5  1  0.170653  0.658681  0.248777  1
  Be  Be6  1  0.658668  0.170667  0.248778  1
  Be  Be7  1  0.170655  0.170666  0.248778  1
  Al  Al8  1  0.666662  0.666668  0.437866  1
  Cr  Cr9  1  0.666675  0.666663  0.047884  1
  Cr  Cr10  1  0.333331  0.333333  0.937348  1
  Fe  Fe11  1  0.333331  0.333333  0.573263  1
