# generated using pymatgen
data_Nb4Al6CoOs
_symmetry_space_group_name_H-M   'P 1'
_cell_length_a   5.16395900
_cell_length_b   5.16395903
_cell_length_c   7.93568200
_cell_angle_alpha   90.00000000
_cell_angle_beta   90.00000000
_cell_angle_gamma   119.99999341
_symmetry_Int_Tables_number   1
_chemical_formula_structural   Nb4Al6CoOs
_chemical_formula_sum   'Nb4 Al6 Co1 Os1'
_cell_volume   183.26540471
_cell_formula_units_Z   1
loop_
 _symmetry_equiv_pos_site_id
 _symmetry_equiv_pos_as_xyz
  1  'x, y, z'
loop_
 _atom_site_type_symbol
 _atom_site_label
 _atom_site_symmetry_multiplicity
 _atom_site_fract_x
 _atom_site_fract_y
 _atom_site_fract_z
 _atom_site_occupancy
  Nb  Nb0  1  0.666667  0.333334  0.069960  1
  Nb  Nb1  1  0.666667  0.333334  0.427661  1
  Nb  Nb2  1  0.333334  0.666668  0.572339  1
  Nb  Nb3  1  0.333334  0.666668  0.930040  1
  Al  Al4  1  0.167512  0.335024  0.241537  1
  Al  Al5  1  0.167512  0.832487  0.241537  1
  Al  Al6  1  0.664976  0.832487  0.241537  1
  Al  Al7  1  0.335023  0.167512  0.758463  1
  Al  Al8  1  0.832487  0.167512  0.758463  1
  Al  Al9  1  0.832487  0.664975  0.758463  1
  Co  Co10  1  0.000000  0.000000  0.000000  1
  Os  Os11  1  0.000000  0.000000  0.500000  1
