# generated using pymatgen
data_Pr2Y3(GaSn)2
_symmetry_space_group_name_H-M   'P 1'
_cell_length_a   7.77075700
_cell_length_b   8.29984200
_cell_length_c   15.62313200
_cell_angle_alpha   90.00000000
_cell_angle_beta   90.00000000
_cell_angle_gamma   90.00000000
_symmetry_Int_Tables_number   1
_chemical_formula_structural   Pr2Y3(GaSn)2
_chemical_formula_sum   'Pr8 Y12 Ga8 Sn8'
_cell_volume   1007.63038575
_cell_formula_units_Z   4
loop_
 _symmetry_equiv_pos_site_id
 _symmetry_equiv_pos_as_xyz
  1  'x, y, z'
loop_
 _atom_site_type_symbol
 _atom_site_label
 _atom_site_symmetry_multiplicity
 _atom_site_fract_x
 _atom_site_fract_y
 _atom_site_fract_z
 _atom_site_occupancy
  Pr  Pr0  1  0.498814  0.318334  0.902068  1
  Pr  Pr1  1  0.998814  0.181666  0.597932  1
  Pr  Pr2  1  0.501186  0.681666  0.402068  1
  Pr  Pr3  1  0.001186  0.818334  0.097932  1
  Pr  Pr4  1  0.501186  0.681666  0.097932  1
  Pr  Pr5  1  0.001186  0.818334  0.402068  1
  Pr  Pr6  1  0.498814  0.318334  0.597932  1
  Pr  Pr7  1  0.998814  0.181666  0.902068  1
  Y  Y8  1  0.335357  0.827115  0.868511  1
  Y  Y9  1  0.835357  0.672885  0.631489  1
  Y  Y10  1  0.664643  0.172885  0.368511  1
  Y  Y11  1  0.164643  0.327115  0.131489  1
  Y  Y12  1  0.664643  0.172885  0.131489  1
  Y  Y13  1  0.164643  0.327115  0.368511  1
  Y  Y14  1  0.335357  0.827115  0.631489  1
  Y  Y15  1  0.835357  0.672885  0.868511  1
  Y  Y16  1  0.177831  0.479906  0.750000  1
  Y  Y17  1  0.677831  0.020094  0.750000  1
  Y  Y18  1  0.822169  0.520094  0.250000  1
  Y  Y19  1  0.322169  0.979906  0.250000  1
  Ga  Ga20  1  0.538035  0.606758  0.750000  1
  Ga  Ga21  1  0.038035  0.893242  0.750000  1
  Ga  Ga22  1  0.461965  0.393242  0.250000  1
  Ga  Ga23  1  0.961965  0.106758  0.250000  1
  Ga  Ga24  1  0.287585  0.122745  0.750000  1
  Ga  Ga25  1  0.787585  0.377255  0.750000  1
  Ga  Ga26  1  0.712415  0.877255  0.250000  1
  Ga  Ga27  1  0.212415  0.622745  0.250000  1
  Sn  Sn28  1  0.325068  0.038025  0.038403  1
  Sn  Sn29  1  0.825068  0.461975  0.461597  1
  Sn  Sn30  1  0.674932  0.961975  0.538403  1
  Sn  Sn31  1  0.174932  0.538025  0.961597  1
  Sn  Sn32  1  0.674932  0.961975  0.961597  1
  Sn  Sn33  1  0.174932  0.538025  0.538403  1
  Sn  Sn34  1  0.325068  0.038025  0.461597  1
  Sn  Sn35  1  0.825068  0.461975  0.038403  1
