# generated using pymatgen
data_Zr4Pd9Pt2Rh
_symmetry_space_group_name_H-M   'P 1'
_cell_length_a   5.68668800
_cell_length_b   5.71406752
_cell_length_c   9.33289931
_cell_angle_alpha   90.54114216
_cell_angle_beta   90.00000000
_cell_angle_gamma   119.84160981
_symmetry_Int_Tables_number   1
_chemical_formula_structural   Zr4Pd9Pt2Rh
_chemical_formula_sum   'Zr4 Pd9 Pt2 Rh1'
_cell_volume   263.03720367
_cell_formula_units_Z   1
loop_
 _symmetry_equiv_pos_site_id
 _symmetry_equiv_pos_as_xyz
  1  'x, y, z'
loop_
 _atom_site_type_symbol
 _atom_site_label
 _atom_site_symmetry_multiplicity
 _atom_site_fract_x
 _atom_site_fract_y
 _atom_site_fract_z
 _atom_site_occupancy
  Zr  Zr0  1  0.000000  0.000000  0.500000  1
  Zr  Zr1  1  0.000000  0.000000  0.000000  1
  Zr  Zr2  1  0.337008  0.674016  0.255210  1
  Zr  Zr3  1  0.662992  0.325984  0.744790  1
  Pd  Pd4  1  0.500000  0.500000  0.000000  1
  Pd  Pd5  1  0.500000  0.000000  0.000000  1
  Pd  Pd6  1  0.000000  0.500000  0.000000  1
  Pd  Pd7  1  0.831632  0.172110  0.248403  1
  Pd  Pd8  1  0.831342  0.662684  0.248440  1
  Pd  Pd9  1  0.340478  0.172110  0.248403  1
  Pd  Pd10  1  0.168368  0.827890  0.751597  1
  Pd  Pd11  1  0.168658  0.337316  0.751560  1
  Pd  Pd12  1  0.659522  0.827890  0.751597  1
  Pt  Pt13  1  0.500000  0.500000  0.500000  1
  Pt  Pt14  1  0.000000  0.500000  0.500000  1
  Rh  Rh15  1  0.500000  0.000000  0.500000  1
