# generated using pymatgen
data_Sr3Ca2V3O12
_symmetry_space_group_name_H-M   'P 1'
_cell_length_a   11.55279507
_cell_length_b   11.55268124
_cell_length_c   11.55282002
_cell_angle_alpha   109.62713100
_cell_angle_beta   109.11815372
_cell_angle_gamma   109.67030247
_symmetry_Int_Tables_number   1
_chemical_formula_structural   Sr3Ca2V3O12
_chemical_formula_sum   'Sr12 Ca8 V12 O48'
_cell_volume   1186.90596989
_cell_formula_units_Z   4
loop_
 _symmetry_equiv_pos_site_id
 _symmetry_equiv_pos_as_xyz
  1  'x, y, z'
loop_
 _atom_site_type_symbol
 _atom_site_label
 _atom_site_symmetry_multiplicity
 _atom_site_fract_x
 _atom_site_fract_y
 _atom_site_fract_z
 _atom_site_occupancy
  Sr  Sr0  1  0.002857  0.502854  0.500008  1
  Sr  Sr1  1  0.247155  0.247153  0.000010  1
  Sr  Sr2  1  0.502845  0.002847  0.499990  1
  Sr  Sr3  1  0.747143  0.747146  0.999992  1
  Sr  Sr4  1  0.125006  0.002140  0.377137  1
  Sr  Sr5  1  0.000657  0.374990  0.125654  1
  Sr  Sr6  1  0.500670  0.374999  0.625668  1
  Sr  Sr7  1  0.125004  0.502133  0.877132  1
  Sr  Sr8  1  0.249330  0.875001  0.874332  1
  Sr  Sr9  1  0.624996  0.747867  0.622868  1
  Sr  Sr10  1  0.749343  0.875010  0.374346  1
  Sr  Sr11  1  0.624994  0.247860  0.122863  1
  Ca  Ca12  1  0.875000  0.625000  0.250000  1
  Ca  Ca13  1  0.875000  0.625000  0.750000  1
  Ca  Ca14  1  0.375000  0.125000  0.750000  1
  Ca  Ca15  1  0.375000  0.625000  0.750000  1
  Ca  Ca16  1  0.375000  0.625000  0.250000  1
  Ca  Ca17  1  0.375000  0.125000  0.250000  1
  Ca  Ca18  1  0.875000  0.125000  0.250000  1
  Ca  Ca19  1  0.875000  0.125000  0.750000  1
  V  V20  1  0.997818  0.997854  0.000002  1
  V  V21  1  0.999195  0.875013  0.624199  1
  V  V22  1  0.250793  0.375009  0.375815  1
  V  V23  1  0.124991  0.751311  0.126347  1
  V  V24  1  0.125014  0.251341  0.626317  1
  V  V25  1  0.252142  0.752140  0.499952  1
  V  V26  1  0.497858  0.497860  0.000048  1
  V  V27  1  0.625009  0.498689  0.373653  1
  V  V28  1  0.499207  0.874991  0.124185  1
  V  V29  1  0.624986  0.998659  0.873683  1
  V  V30  1  0.750805  0.374987  0.875801  1
  V  V31  1  0.752182  0.252146  0.499998  1
  O  O32  1  0.983902  0.747127  0.154927  1
  O  O33  1  0.992562  0.132292  0.964671  1
  O  O34  1  0.897676  0.343016  0.877962  1
  O  O35  1  0.969303  0.001891  0.141102  1
  O  O36  1  0.965053  0.843027  0.445355  1
  O  O37  1  0.985128  0.116980  0.456616  1
  O  O38  1  0.071811  0.343044  0.341348  1
  O  O39  1  0.284948  0.230298  0.377981  1
  O  O40  1  0.248292  0.406951  0.228784  1
  O  O41  1  0.160355  0.616962  0.131847  1
  O  O42  1  0.178190  0.019535  0.771240  1
  O  O43  1  0.889235  0.421779  0.641104  1
  O  O44  1  0.082369  0.617692  0.360261  1
  O  O45  1  0.092214  0.247127  0.763186  1
  O  O46  1  0.264877  0.221511  0.631838  1
  O  O47  1  0.167557  0.027899  0.035315  1
  O  O48  1  0.157808  0.421020  0.654921  1
  O  O49  1  0.001707  0.730482  0.658664  1
  O  O50  1  0.266071  0.920982  0.263200  1
  O  O51  1  0.397687  0.519713  0.554673  1
  O  O52  1  0.389217  0.748109  0.467420  1
  O  O53  1  0.257423  0.722097  0.639655  1
  O  O54  1  0.469321  0.328231  0.967451  1
  O  O55  1  0.089668  0.721506  0.956654  1
  O  O56  1  0.660332  0.528494  0.543346  1
  O  O57  1  0.280679  0.921769  0.532549  1
  O  O58  1  0.492577  0.527903  0.860345  1
  O  O59  1  0.360783  0.501891  0.032580  1
  O  O60  1  0.352313  0.730287  0.945327  1
  O  O61  1  0.483929  0.329018  0.236800  1
  O  O62  1  0.748293  0.519518  0.841336  1
  O  O63  1  0.592192  0.828980  0.845079  1
  O  O64  1  0.582443  0.222101  0.464685  1
  O  O65  1  0.485123  0.028489  0.868162  1
  O  O66  1  0.657786  0.002873  0.736814  1
  O  O67  1  0.667631  0.632308  0.139739  1
  O  O68  1  0.860765  0.828221  0.858896  1
  O  O69  1  0.571810  0.230465  0.728760  1
  O  O70  1  0.501708  0.843049  0.271216  1
  O  O71  1  0.589645  0.633038  0.368153  1
  O  O72  1  0.465052  0.019702  0.122019  1
  O  O73  1  0.678189  0.906956  0.158652  1
  O  O74  1  0.764872  0.133020  0.043384  1
  O  O75  1  0.784947  0.406973  0.054645  1
  O  O76  1  0.780697  0.248109  0.358898  1
  O  O77  1  0.852324  0.906984  0.622038  1
  O  O78  1  0.757438  0.117708  0.535329  1
  O  O79  1  0.766098  0.502873  0.345073  1
