# generated using pymatgen
data_Pa4F15
_symmetry_space_group_name_H-M   'P 1'
_cell_length_a   8.83044834
_cell_length_b   8.83044924
_cell_length_c   8.83044860
_cell_angle_alpha   99.97224975
_cell_angle_beta   99.97224743
_cell_angle_gamma   99.97225063
_symmetry_Int_Tables_number   1
_chemical_formula_structural   Pa4F15
_chemical_formula_sum   'Pa8 F30'
_cell_volume   653.10781077
_cell_formula_units_Z   2
loop_
 _symmetry_equiv_pos_site_id
 _symmetry_equiv_pos_as_xyz
  1  'x, y, z'
loop_
 _atom_site_type_symbol
 _atom_site_label
 _atom_site_symmetry_multiplicity
 _atom_site_fract_x
 _atom_site_fract_y
 _atom_site_fract_z
 _atom_site_occupancy
  Pa  Pa0  1  0.250000  0.250000  0.250000  1
  Pa  Pa1  1  0.179321  0.750000  0.320679  1
  Pa  Pa2  1  0.250000  0.679321  0.820679  1
  Pa  Pa3  1  0.679321  0.820679  0.250000  1
  Pa  Pa4  1  0.750000  0.750000  0.750000  1
  Pa  Pa5  1  0.320679  0.179321  0.750000  1
  Pa  Pa6  1  0.750000  0.320679  0.179321  1
  Pa  Pa7  1  0.820679  0.250000  0.679321  1
  F  F8  1  0.963417  0.536583  0.250000  1
  F  F9  1  0.814243  0.346157  0.449539  1
  F  F10  1  0.489260  0.726872  0.723359  1
  F  F11  1  0.346157  0.449539  0.814243  1
  F  F12  1  0.010740  0.776641  0.773128  1
  F  F13  1  0.750000  0.036583  0.463417  1
  F  F14  1  0.949539  0.846157  0.314243  1
  F  F15  1  0.223359  0.226872  0.989260  1
  F  F16  1  0.773128  0.010740  0.776641  1
  F  F17  1  0.314243  0.949539  0.846157  1
  F  F18  1  0.273128  0.276641  0.510740  1
  F  F19  1  0.449539  0.814243  0.346157  1
  F  F20  1  0.536583  0.250000  0.963417  1
  F  F21  1  0.276641  0.510740  0.273128  1
  F  F22  1  0.153843  0.685757  0.050461  1
  F  F23  1  0.846157  0.314243  0.949539  1
  F  F24  1  0.723359  0.489260  0.726872  1
  F  F25  1  0.463417  0.750000  0.036583  1
  F  F26  1  0.550461  0.185757  0.653843  1
  F  F27  1  0.726872  0.723359  0.489260  1
  F  F28  1  0.685757  0.050461  0.153843  1
  F  F29  1  0.226872  0.989260  0.223359  1
  F  F30  1  0.776641  0.773128  0.010740  1
  F  F31  1  0.050461  0.153843  0.685757  1
  F  F32  1  0.250000  0.963417  0.536583  1
  F  F33  1  0.989260  0.223359  0.226872  1
  F  F34  1  0.653843  0.550461  0.185757  1
  F  F35  1  0.510740  0.273128  0.276641  1
  F  F36  1  0.185757  0.653843  0.550461  1
  F  F37  1  0.036583  0.463417  0.750000  1
