# generated using pymatgen
data_NdHoB6Ru
_symmetry_space_group_name_H-M   'P 1'
_cell_length_a   3.70985300
_cell_length_b   9.22097600
_cell_length_c   11.64110700
_cell_angle_alpha   90.00000000
_cell_angle_beta   90.00000000
_cell_angle_gamma   90.00000000
_symmetry_Int_Tables_number   1
_chemical_formula_structural   NdHoB6Ru
_chemical_formula_sum   'Nd4 Ho4 B24 Ru4'
_cell_volume   398.22440692
_cell_formula_units_Z   4
loop_
 _symmetry_equiv_pos_site_id
 _symmetry_equiv_pos_as_xyz
  1  'x, y, z'
loop_
 _atom_site_type_symbol
 _atom_site_label
 _atom_site_symmetry_multiplicity
 _atom_site_fract_x
 _atom_site_fract_y
 _atom_site_fract_z
 _atom_site_occupancy
  Nd  Nd0  1  0.000000  0.323295  0.414025  1
  Nd  Nd1  1  0.000000  0.676705  0.585975  1
  Nd  Nd2  1  0.000000  0.823295  0.085975  1
  Nd  Nd3  1  0.000000  0.176705  0.914025  1
  Ho  Ho4  1  0.000000  0.944034  0.371858  1
  Ho  Ho5  1  0.000000  0.055966  0.628142  1
  Ho  Ho6  1  0.000000  0.444034  0.128142  1
  Ho  Ho7  1  0.000000  0.555966  0.871858  1
  B  B8  1  0.500000  0.556231  0.430581  1
  B  B9  1  0.500000  0.443769  0.569419  1
  B  B10  1  0.500000  0.056231  0.069419  1
  B  B11  1  0.500000  0.943769  0.930581  1
  B  B12  1  0.500000  0.749356  0.417782  1
  B  B13  1  0.500000  0.250644  0.582218  1
  B  B14  1  0.500000  0.249356  0.082218  1
  B  B15  1  0.500000  0.750644  0.917782  1
  B  B16  1  0.500000  0.790563  0.267124  1
  B  B17  1  0.500000  0.209437  0.732876  1
  B  B18  1  0.500000  0.290563  0.232876  1
  B  B19  1  0.500000  0.709437  0.767124  1
  B  B20  1  0.500000  0.631069  0.185366  1
  B  B21  1  0.500000  0.368931  0.814634  1
  B  B22  1  0.500000  0.131069  0.314634  1
  B  B23  1  0.500000  0.868931  0.685366  1
  B  B24  1  0.500000  0.985839  0.214104  1
  B  B25  1  0.500000  0.014161  0.785896  1
  B  B26  1  0.500000  0.485839  0.285896  1
  B  B27  1  0.500000  0.514161  0.714104  1
  B  B28  1  0.500000  0.603647  0.028461  1
  B  B29  1  0.500000  0.396353  0.971539  1
  B  B30  1  0.500000  0.103647  0.471539  1
  B  B31  1  0.500000  0.896353  0.528461  1
  Ru  Ru32  1  0.000000  0.639469  0.319629  1
  Ru  Ru33  1  0.000000  0.360531  0.680371  1
  Ru  Ru34  1  0.000000  0.139469  0.180371  1
  Ru  Ru35  1  0.000000  0.860531  0.819629  1
