# generated using pymatgen
data_Be2V12ZnGa5N4
_symmetry_space_group_name_H-M   'P 1'
_cell_length_a   6.52179431
_cell_length_b   6.53201366
_cell_length_c   6.52366879
_cell_angle_alpha   90.07077903
_cell_angle_beta   90.10564818
_cell_angle_gamma   90.09704197
_symmetry_Int_Tables_number   1
_chemical_formula_structural   Be2V12ZnGa5N4
_chemical_formula_sum   'Be2 V12 Zn1 Ga5 N4'
_cell_volume   277.91013857
_cell_formula_units_Z   1
loop_
 _symmetry_equiv_pos_site_id
 _symmetry_equiv_pos_as_xyz
  1  'x, y, z'
loop_
 _atom_site_type_symbol
 _atom_site_label
 _atom_site_symmetry_multiplicity
 _atom_site_fract_x
 _atom_site_fract_y
 _atom_site_fract_z
 _atom_site_occupancy
  Be  Be0  1  0.321103  0.178379  0.825783  1
  Be  Be1  1  0.823512  0.320511  0.175232  1
  V  V2  1  0.790496  0.962617  0.371759  1
  V  V3  1  0.707295  0.041626  0.876670  1
  V  V4  1  0.207323  0.457182  0.122511  1
  V  V5  1  0.292133  0.537035  0.629512  1
  V  V6  1  0.961920  0.371906  0.793192  1
  V  V7  1  0.041884  0.877174  0.710454  1
  V  V8  1  0.462732  0.128559  0.206678  1
  V  V9  1  0.543466  0.622919  0.290848  1
  V  V10  1  0.374526  0.793579  0.957261  1
  V  V11  1  0.872644  0.705428  0.040467  1
  V  V12  1  0.125557  0.210036  0.461684  1
  V  V13  1  0.626395  0.291502  0.538971  1
  Zn  Zn14  1  0.180065  0.821351  0.318535  1
  Ga  Ga15  1  0.679118  0.678853  0.679419  1
  Ga  Ga16  1  0.570857  0.413893  0.935622  1
  Ga  Ga17  1  0.420909  0.942280  0.579531  1
  Ga  Ga18  1  0.928771  0.561171  0.416176  1
  Ga  Ga19  1  0.071295  0.082516  0.068276  1
  N  N20  1  0.875298  0.124369  0.624715  1
  N  N21  1  0.623432  0.875184  0.125095  1
  N  N22  1  0.124097  0.625420  0.876234  1
  N  N23  1  0.375173  0.376512  0.375376  1
