# generated using pymatgen
data_Sm2Cd3In(Ga2Ni)2
_symmetry_space_group_name_H-M   'P 1'
_cell_length_a   4.12747093
_cell_length_b   6.80100800
_cell_length_c   8.61706346
_cell_angle_alpha   90.00000000
_cell_angle_beta   103.85669798
_cell_angle_gamma   90.00000000
_symmetry_Int_Tables_number   1
_chemical_formula_structural   Sm2Cd3In(Ga2Ni)2
_chemical_formula_sum   'Sm2 Cd3 In1 Ga4 Ni2'
_cell_volume   234.84974833
_cell_formula_units_Z   1
loop_
 _symmetry_equiv_pos_site_id
 _symmetry_equiv_pos_as_xyz
  1  'x, y, z'
loop_
 _atom_site_type_symbol
 _atom_site_label
 _atom_site_symmetry_multiplicity
 _atom_site_fract_x
 _atom_site_fract_y
 _atom_site_fract_z
 _atom_site_occupancy
  Sm  Sm0  1  0.870544  0.750000  0.741087  1
  Sm  Sm1  1  0.128530  0.250000  0.257061  1
  Cd  Cd2  1  0.501059  0.506642  0.002119  1
  Cd  Cd3  1  0.501059  0.993358  0.002119  1
  Cd  Cd4  1  0.076316  0.750000  0.152633  1
  In  In5  1  0.924981  0.250000  0.849960  1
  Ga  Ga6  1  0.690972  0.553201  0.381944  1
  Ga  Ga7  1  0.306646  0.446863  0.613292  1
  Ga  Ga8  1  0.690972  0.946799  0.381944  1
  Ga  Ga9  1  0.306646  0.053137  0.613292  1
  Ni  Ni10  1  0.231291  0.750000  0.462583  1
  Ni  Ni11  1  0.770983  0.250000  0.541965  1
