# generated using pymatgen
data_HoEr(FeOs)2
_symmetry_space_group_name_H-M   'P 1'
_cell_length_a   5.20287066
_cell_length_b   5.26068339
_cell_length_c   5.26068210
_cell_angle_alpha   59.81218485
_cell_angle_beta   60.36286091
_cell_angle_gamma   60.36287034
_symmetry_Int_Tables_number   1
_chemical_formula_structural   HoEr(FeOs)2
_chemical_formula_sum   'Ho1 Er1 Fe2 Os2'
_cell_volume   102.22231481
_cell_formula_units_Z   1
loop_
 _symmetry_equiv_pos_site_id
 _symmetry_equiv_pos_as_xyz
  1  'x, y, z'
loop_
 _atom_site_type_symbol
 _atom_site_label
 _atom_site_symmetry_multiplicity
 _atom_site_fract_x
 _atom_site_fract_y
 _atom_site_fract_z
 _atom_site_occupancy
  Ho  Ho0  1  0.252260  0.247740  0.247740  1
  Er  Er1  1  0.997782  0.002218  0.002218  1
  Fe  Fe2  1  0.125274  0.624974  0.624974  1
  Fe  Fe3  1  0.624778  0.624974  0.624974  1
  Os  Os4  1  0.624953  0.625148  0.124945  1
  Os  Os5  1  0.624953  0.124945  0.625148  1
