# generated using pymatgen
data_Nd10CuSi(BiPb2)2
_symmetry_space_group_name_H-M   'P 1'
_cell_length_a   9.60602601
_cell_length_b   9.60602475
_cell_length_c   6.88030700
_cell_angle_alpha   89.99692228
_cell_angle_beta   89.99692228
_cell_angle_gamma   119.99676021
_symmetry_Int_Tables_number   1
_chemical_formula_structural   Nd10CuSi(BiPb2)2
_chemical_formula_sum   'Nd10 Cu1 Si1 Bi2 Pb4'
_cell_volume   549.84475034
_cell_formula_units_Z   1
loop_
 _symmetry_equiv_pos_site_id
 _symmetry_equiv_pos_as_xyz
  1  'x, y, z'
loop_
 _atom_site_type_symbol
 _atom_site_label
 _atom_site_symmetry_multiplicity
 _atom_site_fract_x
 _atom_site_fract_y
 _atom_site_fract_z
 _atom_site_occupancy
  Nd  Nd0  1  0.666903  0.334035  0.998598  1
  Nd  Nd1  1  0.334035  0.666903  0.998598  1
  Nd  Nd2  1  0.336624  0.666489  0.501922  1
  Nd  Nd3  1  0.666489  0.336624  0.501922  1
  Nd  Nd4  1  0.749130  0.749130  0.759200  1
  Nd  Nd5  1  0.250165  0.999974  0.757675  1
  Nd  Nd6  1  0.999974  0.250165  0.757675  1
  Nd  Nd7  1  0.248543  0.248543  0.242433  1
  Nd  Nd8  1  0.750674  0.997870  0.241680  1
  Nd  Nd9  1  0.997870  0.750674  0.241680  1
  Cu  Cu10  1  0.999220  0.999220  0.504259  1
  Si  Si11  1  0.000301  0.000301  0.998180  1
  Bi  Bi12  1  0.391799  0.000398  0.249480  1
  Bi  Bi13  1  0.000398  0.391799  0.249480  1
  Pb  Pb14  1  0.389981  0.389981  0.748773  1
  Pb  Pb15  1  0.610359  0.001290  0.749634  1
  Pb  Pb16  1  0.001290  0.610359  0.749634  1
  Pb  Pb17  1  0.606245  0.606245  0.249172  1
