# generated using pymatgen
data_NdHoIrRhO7
_symmetry_space_group_name_H-M   'P 1'
_cell_length_a   7.30307862
_cell_length_b   7.25943096
_cell_length_c   7.30307899
_cell_angle_alpha   60.19751402
_cell_angle_beta   60.46164331
_cell_angle_gamma   60.19751283
_symmetry_Int_Tables_number   1
_chemical_formula_structural   NdHoIrRhO7
_chemical_formula_sum   'Nd2 Ho2 Ir2 Rh2 O14'
_cell_volume   275.54406050
_cell_formula_units_Z   2
loop_
 _symmetry_equiv_pos_site_id
 _symmetry_equiv_pos_as_xyz
  1  'x, y, z'
loop_
 _atom_site_type_symbol
 _atom_site_label
 _atom_site_symmetry_multiplicity
 _atom_site_fract_x
 _atom_site_fract_y
 _atom_site_fract_z
 _atom_site_occupancy
  Nd  Nd0  1  0.625000  0.125000  0.125000  1
  Nd  Nd1  1  0.125000  0.125000  0.625000  1
  Ho  Ho2  1  0.125000  0.625000  0.125000  1
  Ho  Ho3  1  0.125000  0.125000  0.125000  1
  Ir  Ir4  1  0.125000  0.625000  0.625000  1
  Ir  Ir5  1  0.625000  0.625000  0.125000  1
  Rh  Rh6  1  0.625000  0.125000  0.625000  1
  Rh  Rh7  1  0.625000  0.625000  0.625000  1
  O  O8  1  0.720583  0.699386  0.286895  1
  O  O9  1  0.286895  0.293136  0.720583  1
  O  O10  1  0.712531  0.287469  0.712531  1
  O  O11  1  0.292801  0.707199  0.292801  1
  O  O12  1  0.286895  0.699386  0.720583  1
  O  O13  1  0.720583  0.293136  0.286895  1
  O  O14  1  0.529417  0.550614  0.963105  1
  O  O15  1  0.963105  0.956864  0.529417  1
  O  O16  1  0.537469  0.962531  0.537469  1
  O  O17  1  0.957199  0.542801  0.957199  1
  O  O18  1  0.963105  0.550614  0.529417  1
  O  O19  1  0.529417  0.956864  0.963105  1
  O  O20  1  0.241210  0.258790  0.241210  1
  O  O21  1  0.008790  0.991210  0.008790  1
