# generated using pymatgen
data_Er2Ga10Tc2Ir
_symmetry_space_group_name_H-M   'P 1'
_cell_length_a   8.99122000
_cell_length_b   8.99122000
_cell_length_c   6.31020000
_cell_angle_alpha   90.00000000
_cell_angle_beta   90.00000000
_cell_angle_gamma   90.00000000
_symmetry_Int_Tables_number   1
_chemical_formula_structural   Er2Ga10Tc2Ir
_chemical_formula_sum   'Er4 Ga20 Tc4 Ir2'
_cell_volume   510.12942244
_cell_formula_units_Z   2
loop_
 _symmetry_equiv_pos_site_id
 _symmetry_equiv_pos_as_xyz
  1  'x, y, z'
loop_
 _atom_site_type_symbol
 _atom_site_label
 _atom_site_symmetry_multiplicity
 _atom_site_fract_x
 _atom_site_fract_y
 _atom_site_fract_z
 _atom_site_occupancy
  Er  Er0  1  0.683046  0.183046  0.000000  1
  Er  Er1  1  0.316954  0.816954  0.000000  1
  Er  Er2  1  0.816954  0.683046  0.000000  1
  Er  Er3  1  0.183046  0.316954  0.000000  1
  Ga  Ga4  1  0.939876  0.207190  0.293427  1
  Ga  Ga5  1  0.707190  0.439876  0.293427  1
  Ga  Ga6  1  0.500000  0.000000  0.283475  1
  Ga  Ga7  1  0.560124  0.707190  0.706573  1
  Ga  Ga8  1  0.292810  0.560124  0.706573  1
  Ga  Ga9  1  0.792810  0.939876  0.293427  1
  Ga  Ga10  1  0.939876  0.207190  0.706573  1
  Ga  Ga11  1  0.292810  0.560124  0.293427  1
  Ga  Ga12  1  0.060124  0.792810  0.293427  1
  Ga  Ga13  1  0.707190  0.439876  0.706573  1
  Ga  Ga14  1  0.439876  0.292810  0.706573  1
  Ga  Ga15  1  0.060124  0.792810  0.706573  1
  Ga  Ga16  1  0.207190  0.060124  0.706573  1
  Ga  Ga17  1  0.792810  0.939876  0.706573  1
  Ga  Ga18  1  0.207190  0.060124  0.293427  1
  Ga  Ga19  1  0.000000  0.500000  0.716525  1
  Ga  Ga20  1  0.000000  0.500000  0.283475  1
  Ga  Ga21  1  0.560124  0.707190  0.293427  1
  Ga  Ga22  1  0.439876  0.292810  0.293427  1
  Ga  Ga23  1  0.500000  0.000000  0.716525  1
  Tc  Tc24  1  0.679098  0.179098  0.500000  1
  Tc  Tc25  1  0.820902  0.679098  0.500000  1
  Tc  Tc26  1  0.179098  0.320902  0.500000  1
  Tc  Tc27  1  0.320902  0.820902  0.500000  1
  Ir  Ir28  1  0.000000  0.000000  0.000000  1
  Ir  Ir29  1  0.500000  0.500000  0.000000  1
