# generated using pymatgen
data_Lu4AlTc3Ru4
_symmetry_space_group_name_H-M   'P 1'
_cell_length_a   5.27435102
_cell_length_b   5.18045494
_cell_length_c   8.88803300
_cell_angle_alpha   90.00000000
_cell_angle_beta   90.00000000
_cell_angle_gamma   118.85277849
_symmetry_Int_Tables_number   1
_chemical_formula_structural   Lu4AlTc3Ru4
_chemical_formula_sum   'Lu4 Al1 Tc3 Ru4'
_cell_volume   212.70541191
_cell_formula_units_Z   1
loop_
 _symmetry_equiv_pos_site_id
 _symmetry_equiv_pos_as_xyz
  1  'x, y, z'
loop_
 _atom_site_type_symbol
 _atom_site_label
 _atom_site_symmetry_multiplicity
 _atom_site_fract_x
 _atom_site_fract_y
 _atom_site_fract_z
 _atom_site_occupancy
  Lu  Lu0  1  0.332229  0.668158  0.438719  1
  Lu  Lu1  1  0.671533  0.332960  0.565623  1
  Lu  Lu2  1  0.671533  0.332960  0.934377  1
  Lu  Lu3  1  0.332229  0.668158  0.061281  1
  Al  Al4  1  0.828600  0.669445  0.250000  1
  Tc  Tc5  1  0.161737  0.321741  0.750000  1
  Tc  Tc6  1  0.166167  0.815429  0.750000  1
  Tc  Tc7  1  0.335954  0.167745  0.250000  1
  Ru  Ru8  1  0.646858  0.819864  0.750000  1
  Ru  Ru9  1  0.020961  0.017243  0.001769  1
  Ru  Ru10  1  0.811235  0.169055  0.250000  1
  Ru  Ru11  1  0.020961  0.017243  0.498231  1
