# generated using pymatgen
data_Nd7Pa(CdOs)2
_symmetry_space_group_name_H-M   'P 1'
_cell_length_a   9.89506625
_cell_length_b   9.89529745
_cell_length_c   10.08634370
_cell_angle_alpha   59.61139027
_cell_angle_beta   59.61788282
_cell_angle_gamma   59.59467486
_symmetry_Int_Tables_number   1
_chemical_formula_structural   Nd7Pa(CdOs)2
_chemical_formula_sum   'Nd14 Pa2 Cd4 Os4'
_cell_volume   692.11701829
_cell_formula_units_Z   2
loop_
 _symmetry_equiv_pos_site_id
 _symmetry_equiv_pos_as_xyz
  1  'x, y, z'
loop_
 _atom_site_type_symbol
 _atom_site_label
 _atom_site_symmetry_multiplicity
 _atom_site_fract_x
 _atom_site_fract_y
 _atom_site_fract_z
 _atom_site_occupancy
  Nd  Nd0  1  0.349128  0.952258  0.348583  1
  Nd  Nd1  1  0.952277  0.349108  0.348609  1
  Nd  Nd2  1  0.808772  0.192362  0.190640  1
  Nd  Nd3  1  0.191921  0.808592  0.806396  1
  Nd  Nd4  1  0.192363  0.808775  0.190675  1
  Nd  Nd5  1  0.808564  0.191900  0.806413  1
  Nd  Nd6  1  0.193257  0.193259  0.808427  1
  Nd  Nd7  1  0.807147  0.807156  0.194646  1
  Nd  Nd8  1  0.946603  0.554074  0.561261  1
  Nd  Nd9  1  0.555843  0.946231  0.939436  1
  Nd  Nd10  1  0.554074  0.946637  0.561245  1
  Nd  Nd11  1  0.946267  0.555844  0.939444  1
  Nd  Nd12  1  0.556476  0.556470  0.945833  1
  Nd  Nd13  1  0.938677  0.938675  0.559364  1
  Pa  Pa14  1  0.337267  0.337276  0.340610  1
  Pa  Pa15  1  0.338464  0.338450  0.981527  1
  Cd  Cd16  1  0.576090  0.576060  0.586038  1
  Cd  Cd17  1  0.576526  0.576553  0.259467  1
  Cd  Cd18  1  0.574666  0.261017  0.582397  1
  Cd  Cd19  1  0.260983  0.574697  0.582418  1
  Os  Os20  1  0.153379  0.153447  0.126714  1
  Os  Os21  1  0.155535  0.155478  0.566928  1
  Os  Os22  1  0.161805  0.563895  0.136477  1
  Os  Os23  1  0.563913  0.161785  0.136450  1
