# generated using pymatgen
data_Dy8Tm4Co3Si8Ni
_symmetry_space_group_name_H-M   'P 1'
_cell_length_a   4.08617200
_cell_length_b   11.14589498
_cell_length_c   11.32363038
_cell_angle_alpha   89.72788110
_cell_angle_beta   90.00000000
_cell_angle_gamma   90.00000000
_symmetry_Int_Tables_number   1
_chemical_formula_structural   Dy8Tm4Co3Si8Ni
_chemical_formula_sum   'Dy8 Tm4 Co3 Si8 Ni1'
_cell_volume   515.71810382
_cell_formula_units_Z   1
loop_
 _symmetry_equiv_pos_site_id
 _symmetry_equiv_pos_as_xyz
  1  'x, y, z'
loop_
 _atom_site_type_symbol
 _atom_site_label
 _atom_site_symmetry_multiplicity
 _atom_site_fract_x
 _atom_site_fract_y
 _atom_site_fract_z
 _atom_site_occupancy
  Dy  Dy0  1  0.250000  0.126703  0.556617  1
  Dy  Dy1  1  0.250000  0.371374  0.056862  1
  Dy  Dy2  1  0.750000  0.871742  0.442911  1
  Dy  Dy3  1  0.750000  0.625234  0.944330  1
  Dy  Dy4  1  0.250000  0.803211  0.716944  1
  Dy  Dy5  1  0.250000  0.700013  0.220286  1
  Dy  Dy6  1  0.750000  0.200479  0.279953  1
  Dy  Dy7  1  0.750000  0.299418  0.780649  1
  Tm  Tm8  1  0.250000  0.058217  0.882397  1
  Tm  Tm9  1  0.250000  0.443110  0.383305  1
  Tm  Tm10  1  0.750000  0.943338  0.117774  1
  Tm  Tm11  1  0.750000  0.557367  0.617853  1
  Co  Co12  1  0.250000  0.368301  0.629127  1
  Co  Co13  1  0.250000  0.131840  0.128485  1
  Co  Co14  1  0.750000  0.630393  0.371423  1
  Si  Si15  1  0.250000  0.816529  0.977276  1
  Si  Si16  1  0.250000  0.682853  0.477753  1
  Si  Si17  1  0.750000  0.182060  0.021887  1
  Si  Si18  1  0.750000  0.317504  0.522873  1
  Si  Si19  1  0.250000  0.496871  0.800357  1
  Si  Si20  1  0.250000  0.003150  0.300324  1
  Si  Si21  1  0.750000  0.503187  0.199450  1
  Si  Si22  1  0.750000  0.998515  0.698541  1
  Ni  Ni23  1  0.750000  0.868593  0.872624  1
