# generated using pymatgen
data_Ba3DyInWO9
_symmetry_space_group_name_H-M   'P 1'
_cell_length_a   10.49584105
_cell_length_b   10.49584221
_cell_length_c   10.49584125
_cell_angle_alpha   146.39131202
_cell_angle_beta   132.10373578
_cell_angle_gamma   59.78061485
_symmetry_Int_Tables_number   1
_chemical_formula_structural   Ba3DyInWO9
_chemical_formula_sum   'Ba6 Dy2 In2 W2 O18'
_cell_volume   470.54943007
_cell_formula_units_Z   2
loop_
 _symmetry_equiv_pos_site_id
 _symmetry_equiv_pos_as_xyz
  1  'x, y, z'
loop_
 _atom_site_type_symbol
 _atom_site_label
 _atom_site_symmetry_multiplicity
 _atom_site_fract_x
 _atom_site_fract_y
 _atom_site_fract_z
 _atom_site_occupancy
  Ba  Ba0  1  0.584510  0.841043  0.743466  1
  Ba  Ba1  1  0.262783  0.500000  0.762783  1
  Ba  Ba2  1  0.902422  0.158957  0.743466  1
  Ba  Ba3  1  0.097578  0.841043  0.256534  1
  Ba  Ba4  1  0.737217  0.500000  0.237217  1
  Ba  Ba5  1  0.415490  0.158957  0.256534  1
  Dy  Dy6  1  0.331001  0.331001  0.000000  1
  Dy  Dy7  1  0.668999  0.668999  0.000000  1
  In  In8  1  0.000000  0.000000  0.000000  1
  In  In9  1  0.500000  0.000000  0.500000  1
  W  W10  1  0.166382  0.666382  0.500000  1
  W  W11  1  0.833618  0.333618  0.500000  1
  O  O12  1  0.599756  0.330630  0.269125  1
  O  O13  1  0.239932  0.000000  0.239932  1
  O  O14  1  0.938495  0.669370  0.269125  1
  O  O15  1  0.909680  0.638981  0.729302  1
  O  O16  1  0.585448  0.332981  0.747533  1
  O  O17  1  0.242098  0.972048  0.729950  1
  O  O18  1  0.757902  0.487854  0.729950  1
  O  O19  1  0.414552  0.162085  0.747533  1
  O  O20  1  0.090320  0.819622  0.729302  1
  O  O21  1  0.061505  0.330630  0.730875  1
  O  O22  1  0.760068  0.000000  0.760068  1
  O  O23  1  0.400244  0.669370  0.730875  1
  O  O24  1  0.757902  0.027952  0.270050  1
  O  O25  1  0.414552  0.667019  0.252467  1
  O  O26  1  0.090320  0.361019  0.270698  1
  O  O27  1  0.909680  0.180378  0.270698  1
  O  O28  1  0.585448  0.837915  0.252467  1
  O  O29  1  0.242098  0.512146  0.270050  1
