# generated using pymatgen
data_Hf9TiRe3P
_symmetry_space_group_name_H-M   'P 1'
_cell_length_a   8.60235100
_cell_length_b   8.60235168
_cell_length_c   8.56026100
_cell_angle_alpha   90.00000000
_cell_angle_beta   90.00000000
_cell_angle_gamma   120.00000121
_symmetry_Int_Tables_number   1
_chemical_formula_structural   Hf9TiRe3P
_chemical_formula_sum   'Hf18 Ti2 Re6 P2'
_cell_volume   548.59517725
_cell_formula_units_Z   2
loop_
 _symmetry_equiv_pos_site_id
 _symmetry_equiv_pos_as_xyz
  1  'x, y, z'
loop_
 _atom_site_type_symbol
 _atom_site_label
 _atom_site_symmetry_multiplicity
 _atom_site_fract_x
 _atom_site_fract_y
 _atom_site_fract_z
 _atom_site_occupancy
  Hf  Hf0  1  0.196614  0.803386  0.450644  1
  Hf  Hf1  1  0.196614  0.393226  0.450644  1
  Hf  Hf2  1  0.606774  0.803386  0.450644  1
  Hf  Hf3  1  0.803386  0.196614  0.549356  1
  Hf  Hf4  1  0.803386  0.606774  0.549356  1
  Hf  Hf5  1  0.393226  0.196614  0.549356  1
  Hf  Hf6  1  0.803386  0.196614  0.950644  1
  Hf  Hf7  1  0.803386  0.606774  0.950644  1
  Hf  Hf8  1  0.393226  0.196614  0.950644  1
  Hf  Hf9  1  0.196614  0.803386  0.049356  1
  Hf  Hf10  1  0.196614  0.393226  0.049356  1
  Hf  Hf11  1  0.606774  0.803386  0.049356  1
  Hf  Hf12  1  0.539823  0.460177  0.250000  1
  Hf  Hf13  1  0.539823  0.079646  0.250000  1
  Hf  Hf14  1  0.920354  0.460177  0.250000  1
  Hf  Hf15  1  0.460177  0.539823  0.750000  1
  Hf  Hf16  1  0.460177  0.920354  0.750000  1
  Hf  Hf17  1  0.079646  0.539823  0.750000  1
  Ti  Ti18  1  0.000000  0.000000  0.500000  1
  Ti  Ti19  1  0.000000  0.000000  0.000000  1
  Re  Re20  1  0.888313  0.111687  0.250000  1
  Re  Re21  1  0.888313  0.776625  0.250000  1
  Re  Re22  1  0.223375  0.111687  0.250000  1
  Re  Re23  1  0.111687  0.888313  0.750000  1
  Re  Re24  1  0.111687  0.223375  0.750000  1
  Re  Re25  1  0.776625  0.888313  0.750000  1
  P  P26  1  0.333333  0.666667  0.250000  1
  P  P27  1  0.666667  0.333333  0.750000  1
