# generated using pymatgen
data_Hf3Sc(VP)4
_symmetry_space_group_name_H-M   'P 1'
_cell_length_a   3.47670200
_cell_length_b   6.60412177
_cell_length_c   7.87498578
_cell_angle_alpha   90.20667118
_cell_angle_beta   90.00000000
_cell_angle_gamma   90.00000000
_symmetry_Int_Tables_number   1
_chemical_formula_structural   Hf3Sc(VP)4
_chemical_formula_sum   'Hf3 Sc1 V4 P4'
_cell_volume   180.81293355
_cell_formula_units_Z   1
loop_
 _symmetry_equiv_pos_site_id
 _symmetry_equiv_pos_as_xyz
  1  'x, y, z'
loop_
 _atom_site_type_symbol
 _atom_site_label
 _atom_site_symmetry_multiplicity
 _atom_site_fract_x
 _atom_site_fract_y
 _atom_site_fract_z
 _atom_site_occupancy
  Hf  Hf0  1  0.250000  0.539950  0.667907  1
  Hf  Hf1  1  0.750000  0.959737  0.169075  1
  Hf  Hf2  1  0.750000  0.460108  0.331232  1
  Sc  Sc3  1  0.250000  0.039767  0.832123  1
  V  V4  1  0.250000  0.132247  0.440595  1
  V  V5  1  0.250000  0.628844  0.058578  1
  V  V6  1  0.750000  0.868663  0.557407  1
  V  V7  1  0.750000  0.371561  0.942235  1
  P  P8  1  0.250000  0.761943  0.363540  1
  P  P9  1  0.250000  0.261008  0.136476  1
  P  P10  1  0.750000  0.236860  0.638146  1
  P  P11  1  0.750000  0.739311  0.862685  1
