# generated using pymatgen
data_TmLuGaB2Rh5
_symmetry_space_group_name_H-M   'P 1'
_cell_length_a   9.42922500
_cell_length_b   9.42913100
_cell_length_c   3.18227900
_cell_angle_alpha   90.00000000
_cell_angle_beta   90.00000000
_cell_angle_gamma   90.00000000
_symmetry_Int_Tables_number   1
_chemical_formula_structural   TmLuGaB2Rh5
_chemical_formula_sum   'Tm2 Lu2 Ga2 B4 Rh10'
_cell_volume   282.93450937
_cell_formula_units_Z   2
loop_
 _symmetry_equiv_pos_site_id
 _symmetry_equiv_pos_as_xyz
  1  'x, y, z'
loop_
 _atom_site_type_symbol
 _atom_site_label
 _atom_site_symmetry_multiplicity
 _atom_site_fract_x
 _atom_site_fract_y
 _atom_site_fract_z
 _atom_site_occupancy
  Tm  Tm0  1  0.825479  0.325542  0.000000  1
  Tm  Tm1  1  0.325479  0.174458  0.000000  1
  Lu  Lu2  1  0.674622  0.825319  0.000000  1
  Lu  Lu3  1  0.174622  0.674681  0.000000  1
  Ga  Ga4  1  0.000026  0.000014  0.000000  1
  Ga  Ga5  1  0.500026  0.499986  0.000000  1
  B  B6  1  0.623166  0.122693  0.000000  1
  B  B7  1  0.123166  0.377307  0.000000  1
  B  B8  1  0.876826  0.623646  0.000000  1
  B  B9  1  0.376826  0.876354  0.000000  1
  Rh  Rh10  1  0.070612  0.218225  0.500000  1
  Rh  Rh11  1  0.217960  0.928677  0.500000  1
  Rh  Rh12  1  0.781795  0.070044  0.500000  1
  Rh  Rh13  1  0.929261  0.782049  0.500000  1
  Rh  Rh14  1  0.429261  0.717951  0.500000  1
  Rh  Rh15  1  0.570612  0.281775  0.500000  1
  Rh  Rh16  1  0.717960  0.571323  0.500000  1
  Rh  Rh17  1  0.281795  0.429956  0.500000  1
  Rh  Rh18  1  0.500253  0.999590  0.500000  1
  Rh  Rh19  1  0.000253  0.500410  0.500000  1
