# generated using pymatgen
data_Er8Sc12Ga15Sb
_symmetry_space_group_name_H-M   'P 1'
_cell_length_a   7.25834247
_cell_length_b   7.56366913
_cell_length_c   14.48243775
_cell_angle_alpha   90.13622014
_cell_angle_beta   89.84295229
_cell_angle_gamma   89.90254421
_symmetry_Int_Tables_number   1
_chemical_formula_structural   Er8Sc12Ga15Sb
_chemical_formula_sum   'Er8 Sc12 Ga15 Sb1'
_cell_volume   795.07510710
_cell_formula_units_Z   1
loop_
 _symmetry_equiv_pos_site_id
 _symmetry_equiv_pos_as_xyz
  1  'x, y, z'
loop_
 _atom_site_type_symbol
 _atom_site_label
 _atom_site_symmetry_multiplicity
 _atom_site_fract_x
 _atom_site_fract_y
 _atom_site_fract_z
 _atom_site_occupancy
  Er  Er0  1  0.011481  0.180354  0.094425  1
  Er  Er1  1  0.990256  0.820139  0.905850  1
  Er  Er2  1  0.488847  0.677970  0.906128  1
  Er  Er3  1  0.985824  0.826664  0.595412  1
  Er  Er4  1  0.511122  0.320852  0.094603  1
  Er  Er5  1  0.004935  0.175189  0.401614  1
  Er  Er6  1  0.513124  0.315144  0.403494  1
  Er  Er7  1  0.500773  0.687061  0.597613  1
  Sc  Sc8  1  0.165136  0.503833  0.754487  1
  Sc  Sc9  1  0.837159  0.496094  0.248424  1
  Sc  Sc10  1  0.335044  0.006468  0.249456  1
  Sc  Sc11  1  0.667113  0.997121  0.752173  1
  Sc  Sc12  1  0.336868  0.158159  0.628077  1
  Sc  Sc13  1  0.667779  0.832595  0.374188  1
  Sc  Sc14  1  0.167365  0.679681  0.371288  1
  Sc  Sc15  1  0.668849  0.827326  0.123742  1
  Sc  Sc16  1  0.822291  0.325783  0.625104  1
  Sc  Sc17  1  0.329391  0.172106  0.876467  1
  Sc  Sc18  1  0.830660  0.328077  0.875812  1
  Sc  Sc19  1  0.173254  0.671651  0.124691  1
  Ga  Ga20  1  0.032215  0.117562  0.749294  1
  Ga  Ga21  1  0.966119  0.884497  0.247096  1
  Ga  Ga22  1  0.469477  0.615082  0.251566  1
  Ga  Ga23  1  0.531058  0.383215  0.751315  1
  Ga  Ga24  1  0.284937  0.866893  0.751213  1
  Ga  Ga25  1  0.714126  0.129705  0.248425  1
  Ga  Ga26  1  0.214482  0.371224  0.251339  1
  Ga  Ga27  1  0.786960  0.629675  0.749913  1
  Ga  Ga28  1  0.825264  0.538301  0.456425  1
  Ga  Ga29  1  0.335756  0.965129  0.459314  1
  Ga  Ga30  1  0.837927  0.532778  0.040890  1
  Ga  Ga31  1  0.661612  0.037129  0.539740  1
  Ga  Ga32  1  0.161427  0.465751  0.960223  1
  Ga  Ga33  1  0.662074  0.034666  0.959284  1
  Ga  Ga34  1  0.338638  0.963954  0.040705  1
  Sb  Sb35  1  0.170656  0.462169  0.540210  1
