# generated using pymatgen
data_Pr3Os2PbO12
_symmetry_space_group_name_H-M   'P 1'
_cell_length_a   5.45052885
_cell_length_b   9.39562629
_cell_length_c   10.24080000
_cell_angle_alpha   89.77417335
_cell_angle_beta   89.93187193
_cell_angle_gamma   90.01436089
_symmetry_Int_Tables_number   1
_chemical_formula_structural   Pr3Os2PbO12
_chemical_formula_sum   'Pr6 Os4 Pb2 O24'
_cell_volume   524.43850087
_cell_formula_units_Z   2
loop_
 _symmetry_equiv_pos_site_id
 _symmetry_equiv_pos_as_xyz
  1  'x, y, z'
loop_
 _atom_site_type_symbol
 _atom_site_label
 _atom_site_symmetry_multiplicity
 _atom_site_fract_x
 _atom_site_fract_y
 _atom_site_fract_z
 _atom_site_occupancy
  Pr  Pr0  1  0.028434  0.395755  0.037507  1
  Pr  Pr1  1  0.033144  0.284366  0.633300  1
  Pr  Pr2  1  0.465258  0.716197  0.128724  1
  Pr  Pr3  1  0.467506  0.602537  0.535674  1
  Pr  Pr4  1  0.525379  0.104304  0.963199  1
  Pr  Pr5  1  0.532451  0.218218  0.367817  1
  Os  Os6  1  0.043164  0.001904  0.146481  1
  Os  Os7  1  0.458167  0.998187  0.645332  1
  Os  Os8  1  0.547818  0.499444  0.854259  1
  Os  Os9  1  0.950807  0.503605  0.353966  1
  Pb  Pb10  1  0.977481  0.786545  0.858505  1
  Pb  Pb11  1  0.974023  0.896547  0.462941  1
  O  O12  1  0.056347  0.645329  0.478101  1
  O  O13  1  0.159662  0.559589  0.212879  1
  O  O14  1  0.204541  0.860527  0.671111  1
  O  O15  1  0.183010  0.866683  0.257348  1
  O  O16  1  0.220729  0.389567  0.430524  1
  O  O17  1  0.252239  0.089527  0.511234  1
  O  O18  1  0.251423  0.911337  0.008647  1
  O  O19  1  0.285592  0.605429  0.933123  1
  O  O20  1  0.304394  0.129824  0.760555  1
  O  O21  1  0.309174  0.135184  0.179512  1
  O  O22  1  0.337188  0.442238  0.713473  1
  O  O23  1  0.433530  0.348627  0.974680  1
  O  O24  1  0.573720  0.853695  0.527993  1
  O  O25  1  0.661786  0.951205  0.787458  1
  O  O26  1  0.680271  0.629334  0.319067  1
  O  O27  1  0.677826  0.634292  0.740211  1
  O  O28  1  0.716310  0.115448  0.572559  1
  O  O29  1  0.741949  0.409871  0.492947  1
  O  O30  1  0.750605  0.585383  0.992348  1
  O  O31  1  0.775631  0.895236  0.077899  1
  O  O32  1  0.823649  0.359537  0.241554  1
  O  O33  1  0.809227  0.365543  0.822851  1
  O  O34  1  0.845590  0.061763  0.285941  1
  O  O35  1  0.941975  0.147219  0.020281  1
