# generated using pymatgen
data_Pr12Pd2RuRh
_symmetry_space_group_name_H-M   'P 1'
_cell_length_a   6.58327730
_cell_length_b   7.42524607
_cell_length_c   10.13358200
_cell_angle_alpha   90.00000000
_cell_angle_beta   90.00000000
_cell_angle_gamma   90.17970044
_symmetry_Int_Tables_number   1
_chemical_formula_structural   Pr12Pd2RuRh
_chemical_formula_sum   'Pr12 Pd2 Ru1 Rh1'
_cell_volume   495.35191876
_cell_formula_units_Z   1
loop_
 _symmetry_equiv_pos_site_id
 _symmetry_equiv_pos_as_xyz
  1  'x, y, z'
loop_
 _atom_site_type_symbol
 _atom_site_label
 _atom_site_symmetry_multiplicity
 _atom_site_fract_x
 _atom_site_fract_y
 _atom_site_fract_z
 _atom_site_occupancy
  Pr  Pr0  1  0.329897  0.681106  0.061187  1
  Pr  Pr1  1  0.161562  0.171133  0.434349  1
  Pr  Pr2  1  0.661958  0.329990  0.567236  1
  Pr  Pr3  1  0.827109  0.817719  0.935710  1
  Pr  Pr4  1  0.661958  0.329990  0.932764  1
  Pr  Pr5  1  0.827109  0.817719  0.564290  1
  Pr  Pr6  1  0.329897  0.681106  0.438813  1
  Pr  Pr7  1  0.161562  0.171133  0.065651  1
  Pr  Pr8  1  0.865648  0.536534  0.250000  1
  Pr  Pr9  1  0.647616  0.028513  0.250000  1
  Pr  Pr10  1  0.148841  0.473215  0.750000  1
  Pr  Pr11  1  0.367218  0.960251  0.750000  1
  Pd  Pd12  1  0.429584  0.385232  0.250000  1
  Pd  Pd13  1  0.932358  0.116002  0.750000  1
  Ru  Ru14  1  0.572323  0.619326  0.750000  1
  Rh  Rh15  1  0.075362  0.881029  0.250000  1
