# generated using pymatgen
data_Ba10CrReN10
_symmetry_space_group_name_H-M   'P 1'
_cell_length_a   8.06991417
_cell_length_b   8.06991440
_cell_length_c   9.57841422
_cell_angle_alpha   76.20121326
_cell_angle_beta   76.20121717
_cell_angle_gamma   96.72170089
_symmetry_Int_Tables_number   1
_chemical_formula_structural   Ba10CrReN10
_chemical_formula_sum   'Ba10 Cr1 Re1 N10'
_cell_volume   578.20270315
_cell_formula_units_Z   1
loop_
 _symmetry_equiv_pos_site_id
 _symmetry_equiv_pos_as_xyz
  1  'x, y, z'
loop_
 _atom_site_type_symbol
 _atom_site_label
 _atom_site_symmetry_multiplicity
 _atom_site_fract_x
 _atom_site_fract_y
 _atom_site_fract_z
 _atom_site_occupancy
  Ba  Ba0  1  0.384751  0.388466  0.387549  1
  Ba  Ba1  1  0.611534  0.615249  0.612451  1
  Ba  Ba2  1  0.662962  0.667867  0.009615  1
  Ba  Ba3  1  0.332133  0.337038  0.990385  1
  Ba  Ba4  1  0.928554  0.915990  0.206376  1
  Ba  Ba5  1  0.084010  0.071446  0.793624  1
  Ba  Ba6  1  0.556556  0.088677  0.752129  1
  Ba  Ba7  1  0.911323  0.443444  0.247871  1
  Ba  Ba8  1  0.426101  0.896498  0.248133  1
  Ba  Ba9  1  0.103502  0.573899  0.751867  1
  Cr  Cr10  1  0.243274  0.756726  0.000000  1
  Re  Re11  1  0.756657  0.243343  0.000000  1
  N  N12  1  0.652811  0.651797  0.307531  1
  N  N13  1  0.348203  0.347189  0.692469  1
  N  N14  1  0.714039  0.017522  0.989883  1
  N  N15  1  0.982478  0.285961  0.010117  1
  N  N16  1  0.285149  0.974915  0.006939  1
  N  N17  1  0.025085  0.714851  0.993061  1
  N  N18  1  0.385265  0.729671  0.839454  1
  N  N19  1  0.270329  0.614735  0.160545  1
  N  N20  1  0.605546  0.270264  0.166578  1
  N  N21  1  0.729736  0.394454  0.833421  1
