# generated using pymatgen
data_Dy7Y3(Bi2Os)2
_symmetry_space_group_name_H-M   'P 1'
_cell_length_a   7.96906768
_cell_length_b   9.03920000
_cell_length_c   12.54339563
_cell_angle_alpha   90.00000000
_cell_angle_beta   90.07435119
_cell_angle_gamma   90.00000000
_symmetry_Int_Tables_number   1
_chemical_formula_structural   Dy7Y3(Bi2Os)2
_chemical_formula_sum   'Dy14 Y6 Bi8 Os4'
_cell_volume   903.55015751
_cell_formula_units_Z   2
loop_
 _symmetry_equiv_pos_site_id
 _symmetry_equiv_pos_as_xyz
  1  'x, y, z'
loop_
 _atom_site_type_symbol
 _atom_site_label
 _atom_site_symmetry_multiplicity
 _atom_site_fract_x
 _atom_site_fract_y
 _atom_site_fract_z
 _atom_site_occupancy
  Dy  Dy0  1  0.874955  0.250000  0.807548  1
  Dy  Dy1  1  0.125045  0.750000  0.192452  1
  Dy  Dy2  1  0.942541  0.750000  0.504375  1
  Dy  Dy3  1  0.057459  0.250000  0.495625  1
  Dy  Dy4  1  0.442590  0.250000  0.995780  1
  Dy  Dy5  1  0.557410  0.750000  0.004220  1
  Dy  Dy6  1  0.674416  0.042003  0.563899  1
  Dy  Dy7  1  0.325584  0.957997  0.436101  1
  Dy  Dy8  1  0.174323  0.958031  0.936248  1
  Dy  Dy9  1  0.325584  0.542003  0.436101  1
  Dy  Dy10  1  0.825677  0.041969  0.063752  1
  Dy  Dy11  1  0.674416  0.457997  0.563899  1
  Dy  Dy12  1  0.825677  0.458031  0.063752  1
  Dy  Dy13  1  0.174323  0.541969  0.936248  1
  Y  Y14  1  0.840871  0.750000  0.791201  1
  Y  Y15  1  0.159129  0.250000  0.208799  1
  Y  Y16  1  0.340771  0.250000  0.708759  1
  Y  Y17  1  0.659229  0.750000  0.291241  1
  Y  Y18  1  0.374190  0.750000  0.693064  1
  Y  Y19  1  0.625810  0.250000  0.306936  1
  Bi  Bi20  1  0.568186  0.493195  0.828014  1
  Bi  Bi21  1  0.431814  0.506805  0.171986  1
  Bi  Bi22  1  0.068078  0.506734  0.672075  1
  Bi  Bi23  1  0.431814  0.993195  0.171986  1
  Bi  Bi24  1  0.931922  0.493266  0.327925  1
  Bi  Bi25  1  0.568186  0.006805  0.828014  1
  Bi  Bi26  1  0.931922  0.006734  0.327925  1
  Bi  Bi27  1  0.068078  0.993266  0.672075  1
  Os  Os28  1  0.575908  0.750000  0.510695  1
  Os  Os29  1  0.424092  0.250000  0.489305  1
  Os  Os30  1  0.075229  0.250000  0.988684  1
  Os  Os31  1  0.924771  0.750000  0.011316  1
