# generated using pymatgen
data_TbPr8YIr4
_symmetry_space_group_name_H-M   'P 1'
_cell_length_a   6.71966425
_cell_length_b   7.32256667
_cell_length_c   8.99461714
_cell_angle_alpha   96.25491584
_cell_angle_beta   111.93399076
_cell_angle_gamma   89.99999613
_symmetry_Int_Tables_number   1
_chemical_formula_structural   TbPr8YIr4
_chemical_formula_sum   'Tb1 Pr8 Y1 Ir4'
_cell_volume   407.70380556
_cell_formula_units_Z   1
loop_
 _symmetry_equiv_pos_site_id
 _symmetry_equiv_pos_as_xyz
  1  'x, y, z'
loop_
 _atom_site_type_symbol
 _atom_site_label
 _atom_site_symmetry_multiplicity
 _atom_site_fract_x
 _atom_site_fract_y
 _atom_site_fract_z
 _atom_site_occupancy
  Tb  Tb0  1  0.437048  0.750000  0.000000  1
  Pr  Pr1  1  0.976552  0.922195  0.181657  1
  Pr  Pr2  1  0.794893  0.577805  0.818343  1
  Pr  Pr3  1  0.023358  0.077832  0.818379  1
  Pr  Pr4  1  0.204980  0.422168  0.181621  1
  Pr  Pr5  1  0.647580  0.813065  0.431450  1
  Pr  Pr6  1  0.216130  0.686935  0.568550  1
  Pr  Pr7  1  0.352538  0.186915  0.568605  1
  Pr  Pr8  1  0.783934  0.313085  0.431395  1
  Y  Y9  1  0.563132  0.250000  0.000000  1
  Ir  Ir10  1  0.811208  0.570775  0.211641  1
  Ir  Ir11  1  0.599566  0.929225  0.788359  1
  Ir  Ir12  1  0.188714  0.429421  0.788349  1
  Ir  Ir13  1  0.400367  0.070579  0.211651  1
