# generated using pymatgen
data_Y2Ho18CoBi8Ru3
_symmetry_space_group_name_H-M   'P 1'
_cell_length_a   7.97744104
_cell_length_b   8.98386800
_cell_length_c   12.43976775
_cell_angle_alpha   90.00000000
_cell_angle_beta   89.73821869
_cell_angle_gamma   90.00000000
_symmetry_Int_Tables_number   1
_chemical_formula_structural   Y2Ho18CoBi8Ru3
_chemical_formula_sum   'Y2 Ho18 Co1 Bi8 Ru3'
_cell_volume   891.52741936
_cell_formula_units_Z   1
loop_
 _symmetry_equiv_pos_site_id
 _symmetry_equiv_pos_as_xyz
  1  'x, y, z'
loop_
 _atom_site_type_symbol
 _atom_site_label
 _atom_site_symmetry_multiplicity
 _atom_site_fract_x
 _atom_site_fract_y
 _atom_site_fract_z
 _atom_site_occupancy
  Y  Y0  1  0.344158  0.750000  0.702620  1
  Y  Y1  1  0.657520  0.250000  0.292269  1
  Ho  Ho2  1  0.843084  0.250000  0.792545  1
  Ho  Ho3  1  0.155478  0.750000  0.205744  1
  Ho  Ho4  1  0.879435  0.750000  0.806719  1
  Ho  Ho5  1  0.119917  0.250000  0.192696  1
  Ho  Ho6  1  0.379303  0.250000  0.692196  1
  Ho  Ho7  1  0.616519  0.750000  0.312177  1
  Ho  Ho8  1  0.675690  0.543729  0.563542  1
  Ho  Ho9  1  0.325437  0.462251  0.437298  1
  Ho  Ho10  1  0.175213  0.458080  0.935939  1
  Ho  Ho11  1  0.325437  0.037749  0.437298  1
  Ho  Ho12  1  0.824299  0.542948  0.064301  1
  Ho  Ho13  1  0.675690  0.956271  0.563542  1
  Ho  Ho14  1  0.824299  0.957052  0.064301  1
  Ho  Ho15  1  0.175213  0.041920  0.935939  1
  Ho  Ho16  1  0.054760  0.750000  0.496933  1
  Ho  Ho17  1  0.947109  0.250000  0.503190  1
  Ho  Ho18  1  0.555087  0.250000  0.003214  1
  Ho  Ho19  1  0.444946  0.750000  0.996087  1
  Co  Co20  1  0.429328  0.750000  0.489803  1
  Bi  Bi21  1  0.571040  0.508191  0.827270  1
  Bi  Bi22  1  0.428533  0.492397  0.172751  1
  Bi  Bi23  1  0.071352  0.491540  0.671889  1
  Bi  Bi24  1  0.428533  0.007603  0.172751  1
  Bi  Bi25  1  0.929191  0.508866  0.328478  1
  Bi  Bi26  1  0.571040  0.991809  0.827270  1
  Bi  Bi27  1  0.929191  0.991134  0.328478  1
  Bi  Bi28  1  0.071352  0.008460  0.671889  1
  Ru  Ru29  1  0.073745  0.750000  0.988853  1
  Ru  Ru30  1  0.925063  0.250000  0.010734  1
  Ru  Ru31  1  0.573039  0.250000  0.511285  1
