# generated using pymatgen
data_Ni3SnSb11Os
_symmetry_space_group_name_H-M   'P 1'
_cell_length_a   8.03334269
_cell_length_b   8.02885651
_cell_length_c   8.04767099
_cell_angle_alpha   109.58657708
_cell_angle_beta   109.32748599
_cell_angle_gamma   109.50928828
_symmetry_Int_Tables_number   1
_chemical_formula_structural   Ni3SnSb11Os
_chemical_formula_sum   'Ni3 Sn1 Sb11 Os1'
_cell_volume   399.52560116
_cell_formula_units_Z   1
loop_
 _symmetry_equiv_pos_site_id
 _symmetry_equiv_pos_as_xyz
  1  'x, y, z'
loop_
 _atom_site_type_symbol
 _atom_site_label
 _atom_site_symmetry_multiplicity
 _atom_site_fract_x
 _atom_site_fract_y
 _atom_site_fract_z
 _atom_site_occupancy
  Ni  Ni0  1  0.998437  0.002326  0.497927  1
  Ni  Ni1  1  0.504479  0.002204  0.004236  1
  Ni  Ni2  1  0.498997  0.497492  0.499116  1
  Sn  Sn3  1  0.161173  0.825233  0.665177  1
  Sb  Sb4  1  0.841943  0.180169  0.337519  1
  Sb  Sb5  1  0.842582  0.507894  0.659456  1
  Sb  Sb6  1  0.159247  0.496291  0.342493  1
  Sb  Sb7  1  0.818773  0.666003  0.159267  1
  Sb  Sb8  1  0.181471  0.332776  0.841330  1
  Sb  Sb9  1  0.503072  0.663101  0.839380  1
  Sb  Sb10  1  0.496049  0.336356  0.160310  1
  Sb  Sb11  1  0.657782  0.150269  0.817249  1
  Sb  Sb12  1  0.338498  0.845926  0.179552  1
  Sb  Sb13  1  0.662675  0.839067  0.501324  1
  Sb  Sb14  1  0.336647  0.157831  0.497745  1
  Os  Os15  1  0.998174  0.497061  0.997919  1
