# generated using pymatgen
data_DyNiAsH
_symmetry_space_group_name_H-M   'P 1'
_cell_length_a   4.00815800
_cell_length_b   8.13779000
_cell_length_c   6.99549800
_cell_angle_alpha   90.00000000
_cell_angle_beta   90.00000000
_cell_angle_gamma   90.00000000
_symmetry_Int_Tables_number   1
_chemical_formula_structural   DyNiAsH
_chemical_formula_sum   'Dy4 Ni4 As4 H4'
_cell_volume   228.17599243
_cell_formula_units_Z   4
loop_
 _symmetry_equiv_pos_site_id
 _symmetry_equiv_pos_as_xyz
  1  'x, y, z'
loop_
 _atom_site_type_symbol
 _atom_site_label
 _atom_site_symmetry_multiplicity
 _atom_site_fract_x
 _atom_site_fract_y
 _atom_site_fract_z
 _atom_site_occupancy
  Dy  Dy0  1  0.750000  0.506579  0.757384  1
  Dy  Dy1  1  0.250000  0.493421  0.242616  1
  Dy  Dy2  1  0.250000  0.993421  0.257384  1
  Dy  Dy3  1  0.750000  0.006579  0.742616  1
  Ni  Ni4  1  0.750000  0.234741  0.412443  1
  Ni  Ni5  1  0.250000  0.765259  0.587557  1
  Ni  Ni6  1  0.250000  0.265259  0.912443  1
  Ni  Ni7  1  0.750000  0.734741  0.087557  1
  As  As8  1  0.750000  0.233486  0.078164  1
  As  As9  1  0.250000  0.766514  0.921836  1
  As  As10  1  0.250000  0.266514  0.578164  1
  As  As11  1  0.750000  0.733486  0.421836  1
  H  H12  1  0.250000  0.959436  0.583237  1
  H  H13  1  0.750000  0.040564  0.416763  1
  H  H14  1  0.750000  0.540564  0.083237  1
  H  H15  1  0.250000  0.459436  0.916763  1
