# generated using pymatgen
data_Ac3Cd2HgPt2Au
_symmetry_space_group_name_H-M   'P 1'
_cell_length_a   8.23748600
_cell_length_b   8.16078008
_cell_length_c   4.12399600
_cell_angle_alpha   90.00000000
_cell_angle_beta   90.00000000
_cell_angle_gamma   120.31142583
_symmetry_Int_Tables_number   1
_chemical_formula_structural   Ac3Cd2HgPt2Au
_chemical_formula_sum   'Ac3 Cd2 Hg1 Pt2 Au1'
_cell_volume   239.33366179
_cell_formula_units_Z   1
loop_
 _symmetry_equiv_pos_site_id
 _symmetry_equiv_pos_as_xyz
  1  'x, y, z'
loop_
 _atom_site_type_symbol
 _atom_site_label
 _atom_site_symmetry_multiplicity
 _atom_site_fract_x
 _atom_site_fract_y
 _atom_site_fract_z
 _atom_site_occupancy
  Ac  Ac0  1  0.584092  0.000000  0.000000  1
  Ac  Ac1  1  0.003949  0.594232  0.000000  1
  Ac  Ac2  1  0.409716  0.405768  0.000000  1
  Cd  Cd3  1  0.998626  0.254936  0.500000  1
  Cd  Cd4  1  0.743690  0.745064  0.500000  1
  Hg  Hg5  1  0.257215  0.000000  0.500000  1
  Pt  Pt6  1  0.335688  0.658398  0.500000  1
  Pt  Pt7  1  0.677290  0.341602  0.500000  1
  Au  Au8  1  0.989733  0.000000  0.000000  1
