# generated using pymatgen
data_Zn12Mo12CN3
_symmetry_space_group_name_H-M   'P 1'
_cell_length_a   8.05976998
_cell_length_b   8.04314254
_cell_length_c   8.04314400
_cell_angle_alpha   60.00000221
_cell_angle_beta   60.06822281
_cell_angle_gamma   60.06822644
_symmetry_Int_Tables_number   1
_chemical_formula_structural   Zn12Mo12CN3
_chemical_formula_sum   'Zn12 Mo12 C1 N3'
_cell_volume   369.06796335
_cell_formula_units_Z   1
loop_
 _symmetry_equiv_pos_site_id
 _symmetry_equiv_pos_as_xyz
  1  'x, y, z'
loop_
 _atom_site_type_symbol
 _atom_site_label
 _atom_site_symmetry_multiplicity
 _atom_site_fract_x
 _atom_site_fract_y
 _atom_site_fract_z
 _atom_site_occupancy
  Zn  Zn0  1  0.834690  0.834981  0.495350  1
  Zn  Zn1  1  0.834690  0.495350  0.834981  1
  Zn  Zn2  1  0.495074  0.834976  0.834976  1
  Zn  Zn3  1  0.834690  0.834981  0.834981  1
  Zn  Zn4  1  0.415310  0.415019  0.754650  1
  Zn  Zn5  1  0.415310  0.754650  0.415019  1
  Zn  Zn6  1  0.754926  0.415024  0.415024  1
  Zn  Zn7  1  0.415310  0.415019  0.415019  1
  Zn  Zn8  1  0.625000  0.625000  0.125000  1
  Zn  Zn9  1  0.625000  0.125000  0.625000  1
  Zn  Zn10  1  0.125000  0.625000  0.625000  1
  Zn  Zn11  1  0.625000  0.625000  0.625000  1
  Mo  Mo12  1  0.439761  0.440145  0.060047  1
  Mo  Mo13  1  0.061278  0.439091  0.060540  1
  Mo  Mo14  1  0.439761  0.060047  0.060047  1
  Mo  Mo15  1  0.061278  0.060540  0.439091  1
  Mo  Mo16  1  0.439761  0.060047  0.440145  1
  Mo  Mo17  1  0.061278  0.439091  0.439091  1
  Mo  Mo18  1  0.810239  0.809855  0.189953  1
  Mo  Mo19  1  0.188722  0.810909  0.189460  1
  Mo  Mo20  1  0.810239  0.189953  0.189953  1
  Mo  Mo21  1  0.188722  0.189460  0.810909  1
  Mo  Mo22  1  0.810239  0.189953  0.809855  1
  Mo  Mo23  1  0.188722  0.810909  0.810909  1
  C  C24  1  0.625000  0.125000  0.125000  1
  N  N25  1  0.125000  0.125000  0.625000  1
  N  N26  1  0.125000  0.625000  0.125000  1
  N  N27  1  0.125000  0.125000  0.125000  1
