# generated using pymatgen
data_Zr12Al7ZnPtAu3N4
_symmetry_space_group_name_H-M   'P 1'
_cell_length_a   8.63220677
_cell_length_b   8.66917399
_cell_length_c   8.63220600
_cell_angle_alpha   60.14095445
_cell_angle_beta   59.99999529
_cell_angle_gamma   60.14095161
_symmetry_Int_Tables_number   1
_chemical_formula_structural   Zr12Al7ZnPtAu3N4
_chemical_formula_sum   'Zr12 Al7 Zn1 Pt1 Au3 N4'
_cell_volume   457.74997036
_cell_formula_units_Z   1
loop_
 _symmetry_equiv_pos_site_id
 _symmetry_equiv_pos_as_xyz
  1  'x, y, z'
loop_
 _atom_site_type_symbol
 _atom_site_label
 _atom_site_symmetry_multiplicity
 _atom_site_fract_x
 _atom_site_fract_y
 _atom_site_fract_z
 _atom_site_occupancy
  Zr  Zr0  1  0.813416  0.184060  0.189109  1
  Zr  Zr1  1  0.184869  0.815099  0.184869  1
  Zr  Zr2  1  0.815164  0.815099  0.184869  1
  Zr  Zr3  1  0.184869  0.815099  0.815164  1
  Zr  Zr4  1  0.813416  0.184060  0.813416  1
  Zr  Zr5  1  0.189109  0.184060  0.813416  1
  Zr  Zr6  1  0.435982  0.065912  0.062124  1
  Zr  Zr7  1  0.063962  0.436240  0.063962  1
  Zr  Zr8  1  0.435836  0.436240  0.063962  1
  Zr  Zr9  1  0.063962  0.436240  0.435836  1
  Zr  Zr10  1  0.435982  0.065912  0.435982  1
  Zr  Zr11  1  0.062124  0.065912  0.435982  1
  Al  Al12  1  0.420247  0.413403  0.746103  1
  Al  Al13  1  0.420247  0.413403  0.420247  1
  Al  Al14  1  0.746103  0.413403  0.420247  1
  Al  Al15  1  0.416632  0.750104  0.416632  1
  Al  Al16  1  0.830028  0.834244  0.505700  1
  Al  Al17  1  0.830028  0.834244  0.830028  1
  Al  Al18  1  0.505700  0.834244  0.830028  1
  Zn  Zn19  1  0.834636  0.496092  0.834636  1
  Pt  Pt20  1  0.625143  0.124570  0.625143  1
  Au  Au21  1  0.622992  0.626438  0.127578  1
  Au  Au22  1  0.622992  0.626438  0.622992  1
  Au  Au23  1  0.127578  0.626438  0.622992  1
  N  N24  1  0.124022  0.126247  0.625709  1
  N  N25  1  0.124022  0.126247  0.124022  1
  N  N26  1  0.625709  0.126247  0.124022  1
  N  N27  1  0.125232  0.624304  0.125232  1
