# generated using pymatgen
data_Tb2YReB7
_symmetry_space_group_name_H-M   'P 1'
_cell_length_a   8.11948015
_cell_length_b   8.11947925
_cell_length_c   9.37203900
_cell_angle_alpha   90.00000000
_cell_angle_beta   90.00000000
_cell_angle_gamma   154.78363487
_symmetry_Int_Tables_number   1
_chemical_formula_structural   Tb2YReB7
_chemical_formula_sum   'Tb4 Y2 Re2 B14'
_cell_volume   263.23191013
_cell_formula_units_Z   2
loop_
 _symmetry_equiv_pos_site_id
 _symmetry_equiv_pos_as_xyz
  1  'x, y, z'
loop_
 _atom_site_type_symbol
 _atom_site_label
 _atom_site_symmetry_multiplicity
 _atom_site_fract_x
 _atom_site_fract_y
 _atom_site_fract_z
 _atom_site_occupancy
  Tb  Tb0  1  0.894762  0.105238  0.939493  1
  Tb  Tb1  1  0.105238  0.894762  0.060507  1
  Tb  Tb2  1  0.894762  0.105238  0.560507  1
  Tb  Tb3  1  0.105238  0.894762  0.439493  1
  Y  Y4  1  0.757946  0.242054  0.250000  1
  Y  Y5  1  0.242054  0.757946  0.750000  1
  Re  Re6  1  0.052869  0.947131  0.750000  1
  Re  Re7  1  0.947131  0.052869  0.250000  1
  B  B8  1  0.541824  0.458176  0.250000  1
  B  B9  1  0.458176  0.541824  0.750000  1
  B  B10  1  0.521037  0.478963  0.904363  1
  B  B11  1  0.478963  0.521037  0.095637  1
  B  B12  1  0.478963  0.521037  0.404363  1
  B  B13  1  0.521037  0.478963  0.595637  1
  B  B14  1  0.631700  0.368300  0.849105  1
  B  B15  1  0.368300  0.631700  0.150895  1
  B  B16  1  0.727029  0.272971  0.966395  1
  B  B17  1  0.272971  0.727029  0.033605  1
  B  B18  1  0.272971  0.727029  0.466395  1
  B  B19  1  0.727029  0.272971  0.533605  1
  B  B20  1  0.631700  0.368300  0.650895  1
  B  B21  1  0.368300  0.631700  0.349105  1
