# generated using pymatgen
data_La2ThBi3
_symmetry_space_group_name_H-M   'P 1'
_cell_length_a   8.07105792
_cell_length_b   8.07105787
_cell_length_c   8.07105788
_cell_angle_alpha   146.40461702
_cell_angle_beta   131.95179613
_cell_angle_gamma   59.90263863
_symmetry_Int_Tables_number   1
_chemical_formula_structural   La2ThBi3
_chemical_formula_sum   'La2 Th1 Bi3'
_cell_volume   214.39067736
_cell_formula_units_Z   1
loop_
 _symmetry_equiv_pos_site_id
 _symmetry_equiv_pos_as_xyz
  1  'x, y, z'
loop_
 _atom_site_type_symbol
 _atom_site_label
 _atom_site_symmetry_multiplicity
 _atom_site_fract_x
 _atom_site_fract_y
 _atom_site_fract_z
 _atom_site_occupancy
  La  La0  1  0.668278  0.668278  0.000000  1
  La  La1  1  0.331722  0.331722  0.000000  1
  Th  Th2  1  0.000000  0.000000  0.000000  1
  Bi  Bi3  1  0.500000  0.000000  0.500000  1
  Bi  Bi4  1  0.162844  0.662844  0.500000  1
  Bi  Bi5  1  0.837156  0.337156  0.500000  1
