# generated using pymatgen
data_Yb3SmDyRu2
_symmetry_space_group_name_H-M   'P 1'
_cell_length_a   8.52824138
_cell_length_b   8.52824134
_cell_length_c   7.45268235
_cell_angle_alpha   83.30299728
_cell_angle_beta   83.30299029
_cell_angle_gamma   43.82780832
_symmetry_Int_Tables_number   1
_chemical_formula_structural   Yb3SmDyRu2
_chemical_formula_sum   'Yb6 Sm2 Dy2 Ru4'
_cell_volume   372.38202855
_cell_formula_units_Z   2
loop_
 _symmetry_equiv_pos_site_id
 _symmetry_equiv_pos_as_xyz
  1  'x, y, z'
loop_
 _atom_site_type_symbol
 _atom_site_label
 _atom_site_symmetry_multiplicity
 _atom_site_fract_x
 _atom_site_fract_y
 _atom_site_fract_z
 _atom_site_occupancy
  Yb  Yb0  1  0.202772  0.974643  0.583815  1
  Yb  Yb1  1  0.025357  0.797228  0.916185  1
  Yb  Yb2  1  0.202235  0.365609  0.317088  1
  Yb  Yb3  1  0.634391  0.797765  0.182912  1
  Yb  Yb4  1  0.804449  0.628008  0.678349  1
  Yb  Yb5  1  0.371992  0.195551  0.821651  1
  Sm  Sm6  1  0.969379  0.202756  0.078861  1
  Sm  Sm7  1  0.797244  0.030621  0.421139  1
  Dy  Dy8  1  0.562803  0.437197  0.750000  1
  Dy  Dy9  1  0.417851  0.582149  0.250000  1
  Ru  Ru10  1  0.179609  0.601880  0.574211  1
  Ru  Ru11  1  0.398120  0.820391  0.925789  1
  Ru  Ru12  1  0.816321  0.382524  0.419438  1
  Ru  Ru13  1  0.617476  0.183679  0.080562  1
