# generated using pymatgen
data_LiHo(Si7Rh3)2
_symmetry_space_group_name_H-M   'P 1'
_cell_length_a   7.95107601
_cell_length_b   7.95107621
_cell_length_c   7.95107610
_cell_angle_alpha   57.15817598
_cell_angle_beta   57.15817400
_cell_angle_gamma   57.15817476
_symmetry_Int_Tables_number   1
_chemical_formula_structural   LiHo(Si7Rh3)2
_chemical_formula_sum   'Li1 Ho1 Si14 Rh6'
_cell_volume   332.16507329
_cell_formula_units_Z   1
loop_
 _symmetry_equiv_pos_site_id
 _symmetry_equiv_pos_as_xyz
  1  'x, y, z'
loop_
 _atom_site_type_symbol
 _atom_site_label
 _atom_site_symmetry_multiplicity
 _atom_site_fract_x
 _atom_site_fract_y
 _atom_site_fract_z
 _atom_site_occupancy
  Li  Li0  1  0.500000  0.500000  0.500000  1
  Ho  Ho1  1  0.000000  0.000000  0.000000  1
  Si  Si2  1  0.750448  0.750448  0.750448  1
  Si  Si3  1  0.249552  0.249552  0.249552  1
  Si  Si4  1  0.848741  0.069597  0.670129  1
  Si  Si5  1  0.670129  0.848741  0.069597  1
  Si  Si6  1  0.069597  0.670129  0.848741  1
  Si  Si7  1  0.647441  0.824838  0.434225  1
  Si  Si8  1  0.434225  0.647441  0.824838  1
  Si  Si9  1  0.824838  0.434225  0.647441  1
  Si  Si10  1  0.175162  0.565775  0.352559  1
  Si  Si11  1  0.565775  0.352559  0.175162  1
  Si  Si12  1  0.352559  0.175162  0.565775  1
  Si  Si13  1  0.930403  0.329871  0.151259  1
  Si  Si14  1  0.329871  0.151259  0.930403  1
  Si  Si15  1  0.151259  0.930403  0.329871  1
  Rh  Rh16  1  0.069477  0.427401  0.751427  1
  Rh  Rh17  1  0.248573  0.930523  0.572599  1
  Rh  Rh18  1  0.572599  0.248573  0.930523  1
  Rh  Rh19  1  0.930523  0.572599  0.248573  1
  Rh  Rh20  1  0.427401  0.751427  0.069477  1
  Rh  Rh21  1  0.751427  0.069477  0.427401  1
