# generated using pymatgen
data_Lu8Ta6Nb5Si16Mo
_symmetry_space_group_name_H-M   'P 1'
_cell_length_a   6.78877129
_cell_length_b   6.99361118
_cell_length_c   13.25484214
_cell_angle_alpha   90.02822950
_cell_angle_beta   89.97203919
_cell_angle_gamma   89.94526929
_symmetry_Int_Tables_number   1
_chemical_formula_structural   Lu8Ta6Nb5Si16Mo
_chemical_formula_sum   'Lu8 Ta6 Nb5 Si16 Mo1'
_cell_volume   629.31331161
_cell_formula_units_Z   1
loop_
 _symmetry_equiv_pos_site_id
 _symmetry_equiv_pos_as_xyz
  1  'x, y, z'
loop_
 _atom_site_type_symbol
 _atom_site_label
 _atom_site_symmetry_multiplicity
 _atom_site_fract_x
 _atom_site_fract_y
 _atom_site_fract_z
 _atom_site_occupancy
  Lu  Lu0  1  0.502466  0.328183  0.095309  1
  Lu  Lu1  1  0.000794  0.172985  0.404690  1
  Lu  Lu2  1  0.497584  0.673182  0.595026  1
  Lu  Lu3  1  0.998549  0.828252  0.904519  1
  Lu  Lu4  1  0.498027  0.672076  0.904140  1
  Lu  Lu5  1  0.998887  0.827735  0.595306  1
  Lu  Lu6  1  0.501950  0.327758  0.405908  1
  Lu  Lu7  1  0.002088  0.172760  0.095411  1
  Ta  Ta8  1  0.663607  0.826036  0.125436  1
  Ta  Ta9  1  0.836416  0.325845  0.873325  1
  Ta  Ta10  1  0.660939  0.007922  0.749102  1
  Ta  Ta11  1  0.160186  0.492254  0.749435  1
  Ta  Ta12  1  0.339323  0.993869  0.250311  1
  Ta  Ta13  1  0.838491  0.507318  0.250085  1
  Nb  Nb14  1  0.837655  0.326082  0.624543  1
  Nb  Nb15  1  0.337006  0.174149  0.873760  1
  Nb  Nb16  1  0.164122  0.673868  0.125212  1
  Nb  Nb17  1  0.661951  0.827192  0.375387  1
  Nb  Nb18  1  0.166077  0.673804  0.376304  1
  Si  Si19  1  0.661670  0.036026  0.542209  1
  Si  Si20  1  0.164592  0.464831  0.958437  1
  Si  Si21  1  0.335229  0.965391  0.041122  1
  Si  Si22  1  0.835361  0.535377  0.458783  1
  Si  Si23  1  0.333287  0.966534  0.461151  1
  Si  Si24  1  0.834387  0.535010  0.040570  1
  Si  Si25  1  0.665350  0.035117  0.959240  1
  Si  Si26  1  0.167196  0.460158  0.542447  1
  Si  Si27  1  0.537409  0.378890  0.747752  1
  Si  Si28  1  0.041727  0.119734  0.748765  1
  Si  Si29  1  0.461445  0.619193  0.250344  1
  Si  Si30  1  0.960994  0.879810  0.250428  1
  Si  Si31  1  0.793435  0.632946  0.749866  1
  Si  Si32  1  0.295702  0.867604  0.749645  1
  Si  Si33  1  0.205671  0.366914  0.250366  1
  Si  Si34  1  0.704827  0.133660  0.249823  1
  Mo  Mo35  1  0.335601  0.171530  0.625843  1
