# generated using pymatgen
data_LuMg2PaNi8
_symmetry_space_group_name_H-M   'P 1'
_cell_length_a   4.87498500
_cell_length_b   4.87501958
_cell_length_c   8.47664100
_cell_angle_alpha   73.28792744
_cell_angle_beta   90.00039960
_cell_angle_gamma   119.99983699
_symmetry_Int_Tables_number   1
_chemical_formula_structural   LuMg2PaNi8
_chemical_formula_sum   'Lu1 Mg2 Pa1 Ni8'
_cell_volume   164.56520970
_cell_formula_units_Z   1
loop_
 _symmetry_equiv_pos_site_id
 _symmetry_equiv_pos_as_xyz
  1  'x, y, z'
loop_
 _atom_site_type_symbol
 _atom_site_label
 _atom_site_symmetry_multiplicity
 _atom_site_fract_x
 _atom_site_fract_y
 _atom_site_fract_z
 _atom_site_occupancy
  Lu  Lu0  1  0.500845  0.001694  0.497557  1
  Mg  Mg1  1  0.871721  0.743431  0.384790  1
  Mg  Mg2  1  0.378997  0.757998  0.863039  1
  Pa  Pa3  1  0.999579  0.999176  0.001625  1
  Ni  Ni4  1  0.435610  0.377020  0.187354  1
  Ni  Ni5  1  0.936299  0.374165  0.689369  1
  Ni  Ni6  1  0.435557  0.871131  0.187323  1
  Ni  Ni7  1  0.936374  0.872731  0.689459  1
  Ni  Ni8  1  0.187694  0.375409  0.436904  1
  Ni  Ni9  1  0.688030  0.376076  0.935855  1
  Ni  Ni10  1  0.941419  0.377011  0.187356  1
  Ni  Ni11  1  0.437874  0.374160  0.689367  1
