# generated using pymatgen
data_La2Nd2Y2OsI10
_symmetry_space_group_name_H-M   'P 1'
_cell_length_a   7.95994144
_cell_length_b   10.09949951
_cell_length_c   9.92669248
_cell_angle_alpha   106.90331680
_cell_angle_beta   95.62141834
_cell_angle_gamma   105.26759507
_symmetry_Int_Tables_number   1
_chemical_formula_structural   La2Nd2Y2OsI10
_chemical_formula_sum   'La2 Nd2 Y2 Os1 I10'
_cell_volume   723.30981595
_cell_formula_units_Z   1
loop_
 _symmetry_equiv_pos_site_id
 _symmetry_equiv_pos_as_xyz
  1  'x, y, z'
loop_
 _atom_site_type_symbol
 _atom_site_label
 _atom_site_symmetry_multiplicity
 _atom_site_fract_x
 _atom_site_fract_y
 _atom_site_fract_z
 _atom_site_occupancy
  La  La0  1  0.113785  0.042152  0.769834  1
  La  La1  1  0.886215  0.957848  0.230166  1
  Nd  Nd2  1  0.967933  0.292345  0.088918  1
  Nd  Nd3  1  0.032067  0.707655  0.911082  1
  Y  Y4  1  0.351861  0.127802  0.167211  1
  Y  Y5  1  0.648139  0.872198  0.832789  1
  Os  Os6  1  0.000000  0.000000  0.000000  1
  I  I7  1  0.353598  0.443509  0.270078  1
  I  I8  1  0.646402  0.556491  0.729922  1
  I  I9  1  0.265383  0.087773  0.451201  1
  I  I10  1  0.734617  0.912227  0.548799  1
  I  I11  1  0.085915  0.372562  0.819273  1
  I  I12  1  0.914085  0.627438  0.180727  1
  I  I13  1  0.453923  0.823104  0.089198  1
  I  I14  1  0.546077  0.176896  0.910802  1
  I  I15  1  0.767302  0.256602  0.343620  1
  I  I16  1  0.232698  0.743398  0.656380  1
