# generated using pymatgen
data_Nd3Dy(AsPt)4
_symmetry_space_group_name_H-M   'P 1'
_cell_length_a   4.31700600
_cell_length_b   4.31700612
_cell_length_c   16.13229100
_cell_angle_alpha   90.00000000
_cell_angle_beta   90.00000000
_cell_angle_gamma   119.99999910
_symmetry_Int_Tables_number   1
_chemical_formula_structural   Nd3Dy(AsPt)4
_chemical_formula_sum   'Nd3 Dy1 As4 Pt4'
_cell_volume   260.37063325
_cell_formula_units_Z   1
loop_
 _symmetry_equiv_pos_site_id
 _symmetry_equiv_pos_as_xyz
  1  'x, y, z'
loop_
 _atom_site_type_symbol
 _atom_site_label
 _atom_site_symmetry_multiplicity
 _atom_site_fract_x
 _atom_site_fract_y
 _atom_site_fract_z
 _atom_site_occupancy
  Nd  Nd0  1  0.000000  0.000000  0.506402  1
  Nd  Nd1  1  0.000000  0.000000  0.993598  1
  Nd  Nd2  1  0.000000  0.000000  0.250000  1
  Dy  Dy3  1  0.000000  0.000000  0.750000  1
  As  As4  1  0.333333  0.666667  0.878092  1
  As  As5  1  0.666667  0.333333  0.119308  1
  As  As6  1  0.666667  0.333333  0.380692  1
  As  As7  1  0.333333  0.666667  0.621908  1
  Pt  Pt8  1  0.333333  0.666667  0.374797  1
  Pt  Pt9  1  0.666667  0.333333  0.645154  1
  Pt  Pt10  1  0.666667  0.333333  0.854846  1
  Pt  Pt11  1  0.333333  0.666667  0.125203  1
