# generated using pymatgen
data_Ho4Lu(CoTe)2
_symmetry_space_group_name_H-M   'P 1'
_cell_length_a   7.76108800
_cell_length_b   7.76108772
_cell_length_c   14.92102200
_cell_angle_alpha   90.00000000
_cell_angle_beta   90.00000000
_cell_angle_gamma   150.38612688
_symmetry_Int_Tables_number   1
_chemical_formula_structural   Ho4Lu(CoTe)2
_chemical_formula_sum   'Ho8 Lu2 Co4 Te4'
_cell_volume   444.12443252
_cell_formula_units_Z   2
loop_
 _symmetry_equiv_pos_site_id
 _symmetry_equiv_pos_as_xyz
  1  'x, y, z'
loop_
 _atom_site_type_symbol
 _atom_site_label
 _atom_site_symmetry_multiplicity
 _atom_site_fract_x
 _atom_site_fract_y
 _atom_site_fract_z
 _atom_site_occupancy
  Ho  Ho0  1  0.960848  0.039152  0.127064  1
  Ho  Ho1  1  0.039152  0.960848  0.872936  1
  Ho  Ho2  1  0.039152  0.960848  0.627064  1
  Ho  Ho3  1  0.960848  0.039152  0.372936  1
  Ho  Ho4  1  0.742176  0.257824  0.631537  1
  Ho  Ho5  1  0.257824  0.742176  0.368463  1
  Ho  Ho6  1  0.257824  0.742176  0.131537  1
  Ho  Ho7  1  0.742176  0.257824  0.868463  1
  Lu  Lu8  1  0.605216  0.394784  0.250000  1
  Lu  Lu9  1  0.394784  0.605216  0.750000  1
  Co  Co10  1  0.412176  0.587824  0.250000  1
  Co  Co11  1  0.587824  0.412176  0.750000  1
  Co  Co12  1  0.818494  0.181506  0.250000  1
  Co  Co13  1  0.181506  0.818494  0.750000  1
  Te  Te14  1  0.617909  0.382091  0.038851  1
  Te  Te15  1  0.382091  0.617909  0.961149  1
  Te  Te16  1  0.382091  0.617909  0.538851  1
  Te  Te17  1  0.617909  0.382091  0.461149  1
