# generated using pymatgen
data_LaTbCe2(SnRu)4
_symmetry_space_group_name_H-M   'P 1'
_cell_length_a   6.32019257
_cell_length_b   6.32019217
_cell_length_c   10.21550286
_cell_angle_alpha   77.89813362
_cell_angle_beta   77.89813534
_cell_angle_gamma   44.85029955
_symmetry_Int_Tables_number   1
_chemical_formula_structural   LaTbCe2(SnRu)4
_chemical_formula_sum   'La1 Tb1 Ce2 Sn4 Ru4'
_cell_volume   280.28530311
_cell_formula_units_Z   1
loop_
 _symmetry_equiv_pos_site_id
 _symmetry_equiv_pos_as_xyz
  1  'x, y, z'
loop_
 _atom_site_type_symbol
 _atom_site_label
 _atom_site_symmetry_multiplicity
 _atom_site_fract_x
 _atom_site_fract_y
 _atom_site_fract_z
 _atom_site_occupancy
  La  La0  1  0.125648  0.125648  0.590993  1
  Tb  Tb1  1  0.879362  0.879362  0.403677  1
  Ce  Ce2  1  0.859714  0.859714  0.913979  1
  Ce  Ce3  1  0.138238  0.138238  0.086822  1
  Sn  Sn4  1  0.422235  0.422235  0.158762  1
  Sn  Sn5  1  0.406325  0.406325  0.645963  1
  Sn  Sn6  1  0.575967  0.575967  0.846567  1
  Sn  Sn7  1  0.593281  0.593281  0.349062  1
  Ru  Ru8  1  0.815852  0.815852  0.150260  1
  Ru  Ru9  1  0.193893  0.193893  0.306372  1
  Ru  Ru10  1  0.184503  0.184503  0.850512  1
  Ru  Ru11  1  0.804981  0.804981  0.697032  1
