# generated using pymatgen
data_CaTb4Rh5
_symmetry_space_group_name_H-M   'P 1'
_cell_length_a   3.43155400
_cell_length_b   3.43155400
_cell_length_c   17.34215800
_cell_angle_alpha   90.00000000
_cell_angle_beta   90.00000000
_cell_angle_gamma   90.00000000
_symmetry_Int_Tables_number   1
_chemical_formula_structural   CaTb4Rh5
_chemical_formula_sum   'Ca1 Tb4 Rh5'
_cell_volume   204.21367157
_cell_formula_units_Z   1
loop_
 _symmetry_equiv_pos_site_id
 _symmetry_equiv_pos_as_xyz
  1  'x, y, z'
loop_
 _atom_site_type_symbol
 _atom_site_label
 _atom_site_symmetry_multiplicity
 _atom_site_fract_x
 _atom_site_fract_y
 _atom_site_fract_z
 _atom_site_occupancy
  Ca  Ca0  1  0.000000  0.000000  0.000000  1
  Tb  Tb1  1  0.000000  0.000000  0.198014  1
  Tb  Tb2  1  0.000000  0.000000  0.399218  1
  Tb  Tb3  1  0.000000  0.000000  0.600782  1
  Tb  Tb4  1  0.000000  0.000000  0.801986  1
  Rh  Rh5  1  0.500000  0.500000  0.107278  1
  Rh  Rh6  1  0.500000  0.500000  0.300709  1
  Rh  Rh7  1  0.500000  0.500000  0.500000  1
  Rh  Rh8  1  0.500000  0.500000  0.699291  1
  Rh  Rh9  1  0.500000  0.500000  0.892722  1
