# generated using pymatgen
data_YbEr9(In2Pt)4
_symmetry_space_group_name_H-M   'P 1'
_cell_length_a   3.62676500
_cell_length_b   8.09235174
_cell_length_c   18.14859606
_cell_angle_alpha   89.90601489
_cell_angle_beta   90.00000000
_cell_angle_gamma   90.00000000
_symmetry_Int_Tables_number   1
_chemical_formula_structural   YbEr9(In2Pt)4
_chemical_formula_sum   'Yb1 Er9 In8 Pt4'
_cell_volume   532.64348294
_cell_formula_units_Z   1
loop_
 _symmetry_equiv_pos_site_id
 _symmetry_equiv_pos_as_xyz
  1  'x, y, z'
loop_
 _atom_site_type_symbol
 _atom_site_label
 _atom_site_symmetry_multiplicity
 _atom_site_fract_x
 _atom_site_fract_y
 _atom_site_fract_z
 _atom_site_occupancy
  Yb  Yb0  1  0.000000  0.000000  0.000000  1
  Er  Er1  1  0.000000  0.116835  0.413953  1
  Er  Er2  1  0.000000  0.883165  0.586047  1
  Er  Er3  1  0.000000  0.381905  0.913948  1
  Er  Er4  1  0.000000  0.618095  0.086052  1
  Er  Er5  1  0.000000  0.243247  0.220965  1
  Er  Er6  1  0.000000  0.756753  0.779035  1
  Er  Er7  1  0.000000  0.256747  0.721001  1
  Er  Er8  1  0.000000  0.743253  0.278999  1
  Er  Er9  1  0.000000  0.500000  0.500000  1
  In  In10  1  0.500000  0.424356  0.352097  1
  In  In11  1  0.500000  0.575644  0.647903  1
  In  In12  1  0.500000  0.074080  0.851470  1
  In  In13  1  0.500000  0.925920  0.148530  1
  In  In14  1  0.500000  0.293492  0.067051  1
  In  In15  1  0.500000  0.706508  0.932949  1
  In  In16  1  0.500000  0.208471  0.566342  1
  In  In17  1  0.500000  0.791529  0.433658  1
  Pt  Pt18  1  0.500000  0.024300  0.304053  1
  Pt  Pt19  1  0.500000  0.975700  0.695947  1
  Pt  Pt20  1  0.500000  0.477225  0.803166  1
  Pt  Pt21  1  0.500000  0.522775  0.196834  1
