# generated using pymatgen
data_Y4Er8Co5Bi
_symmetry_space_group_name_H-M   'P 1'
_cell_length_a   8.27789818
_cell_length_b   8.27789682
_cell_length_c   8.27789755
_cell_angle_alpha   110.93184241
_cell_angle_beta   110.58571482
_cell_angle_gamma   106.92589764
_symmetry_Int_Tables_number   1
_chemical_formula_structural   Y4Er8Co5Bi
_chemical_formula_sum   'Y4 Er8 Co5 Bi1'
_cell_volume   436.00792353
_cell_formula_units_Z   1
loop_
 _symmetry_equiv_pos_site_id
 _symmetry_equiv_pos_as_xyz
  1  'x, y, z'
loop_
 _atom_site_type_symbol
 _atom_site_label
 _atom_site_symmetry_multiplicity
 _atom_site_fract_x
 _atom_site_fract_y
 _atom_site_fract_z
 _atom_site_occupancy
  Y  Y0  1  0.287111  0.185040  0.472151  1
  Y  Y1  1  0.712889  0.814960  0.527849  1
  Y  Y2  1  0.287111  0.814960  0.102071  1
  Y  Y3  1  0.712889  0.185040  0.897929  1
  Er  Er4  1  0.622069  0.311560  0.310509  1
  Er  Er5  1  0.377931  0.688440  0.689491  1
  Er  Er6  1  0.001051  0.311560  0.689491  1
  Er  Er7  1  0.998949  0.688440  0.310509  1
  Er  Er8  1  0.208363  0.402951  0.194587  1
  Er  Er9  1  0.791637  0.597049  0.805413  1
  Er  Er10  1  0.208363  0.013776  0.805413  1
  Er  Er11  1  0.791637  0.986224  0.194587  1
  Co  Co12  1  0.000000  0.375348  0.375348  1
  Co  Co13  1  0.000000  0.624652  0.624652  1
  Co  Co14  1  0.388166  0.888166  0.500000  1
  Co  Co15  1  0.611834  0.111834  0.500000  1
  Co  Co16  1  0.000000  0.000000  0.000000  1
  Bi  Bi17  1  0.500000  0.500000  0.000000  1
