# generated using pymatgen
data_Tb3Y(CI)2
_symmetry_space_group_name_H-M   'P 1'
_cell_length_a   3.77947900
_cell_length_b   3.77947853
_cell_length_c   14.83177800
_cell_angle_alpha   90.00000000
_cell_angle_beta   90.00000000
_cell_angle_gamma   120.00001283
_symmetry_Int_Tables_number   1
_chemical_formula_structural   Tb3Y(CI)2
_chemical_formula_sum   'Tb3 Y1 C2 I2'
_cell_volume   183.47952686
_cell_formula_units_Z   1
loop_
 _symmetry_equiv_pos_site_id
 _symmetry_equiv_pos_as_xyz
  1  'x, y, z'
loop_
 _atom_site_type_symbol
 _atom_site_label
 _atom_site_symmetry_multiplicity
 _atom_site_fract_x
 _atom_site_fract_y
 _atom_site_fract_z
 _atom_site_occupancy
  Tb  Tb0  1  0.666667  0.333333  0.414446  1
  Tb  Tb1  1  0.666667  0.333333  0.085910  1
  Tb  Tb2  1  0.333333  0.666667  0.914117  1
  Y  Y3  1  0.333333  0.666667  0.585621  1
  C  C4  1  0.000000  0.000000  0.999992  1
  C  C5  1  0.000000  0.000000  0.500230  1
  I  I6  1  0.333333  0.666667  0.250081  1
  I  I7  1  0.666667  0.333333  0.749602  1
