# generated using pymatgen
data_GaCu2SbRh4
_symmetry_space_group_name_H-M   'P 1'
_cell_length_a   4.31857617
_cell_length_b   6.11940100
_cell_length_c   12.98985848
_cell_angle_alpha   90.00000000
_cell_angle_beta   90.13860231
_cell_angle_gamma   90.00000000
_symmetry_Int_Tables_number   1
_chemical_formula_structural   GaCu2SbRh4
_chemical_formula_sum   'Ga3 Cu6 Sb3 Rh12'
_cell_volume   343.28327565
_cell_formula_units_Z   3
loop_
 _symmetry_equiv_pos_site_id
 _symmetry_equiv_pos_as_xyz
  1  'x, y, z'
loop_
 _atom_site_type_symbol
 _atom_site_label
 _atom_site_symmetry_multiplicity
 _atom_site_fract_x
 _atom_site_fract_y
 _atom_site_fract_z
 _atom_site_occupancy
  Ga  Ga0  1  0.999876  0.500000  0.004895  1
  Ga  Ga1  1  0.499994  0.000000  0.166782  1
  Ga  Ga2  1  0.999986  0.500000  0.328495  1
  Cu  Cu3  1  0.001045  0.000000  0.006361  1
  Cu  Cu4  1  0.500718  0.500000  0.166921  1
  Cu  Cu5  1  0.998546  0.000000  0.327049  1
  Cu  Cu6  1  0.500930  0.500000  0.493712  1
  Cu  Cu7  1  0.999940  0.000000  0.666350  1
  Cu  Cu8  1  0.499066  0.500000  0.839581  1
  Sb  Sb9  1  0.499986  0.000000  0.493282  1
  Sb  Sb10  1  0.999865  0.500000  0.666629  1
  Sb  Sb11  1  0.500015  0.000000  0.840075  1
  Rh  Rh12  1  0.500141  0.253687  0.003602  1
  Rh  Rh13  1  0.500141  0.746314  0.003602  1
  Rh  Rh14  1  0.000364  0.250915  0.166686  1
  Rh  Rh15  1  0.000364  0.749085  0.166686  1
  Rh  Rh16  1  0.499580  0.253549  0.329813  1
  Rh  Rh17  1  0.499580  0.746450  0.329813  1
  Rh  Rh18  1  0.000225  0.252141  0.497337  1
  Rh  Rh19  1  0.000225  0.747858  0.497337  1
  Rh  Rh20  1  0.499937  0.249649  0.666660  1
  Rh  Rh21  1  0.499937  0.750350  0.666660  1
  Rh  Rh22  1  0.999765  0.251971  0.835840  1
  Rh  Rh23  1  0.999765  0.748029  0.835840  1
