# generated using pymatgen
data_Tb16In4IrPd3
_symmetry_space_group_name_H-M   'P 1'
_cell_length_a   9.75381699
_cell_length_b   9.78153157
_cell_length_c   9.75381600
_cell_angle_alpha   60.09367915
_cell_angle_beta   59.99999656
_cell_angle_gamma   60.09367639
_symmetry_Int_Tables_number   1
_chemical_formula_structural   Tb16In4IrPd3
_chemical_formula_sum   'Tb16 In4 Ir1 Pd3'
_cell_volume   658.95308954
_cell_formula_units_Z   1
loop_
 _symmetry_equiv_pos_site_id
 _symmetry_equiv_pos_as_xyz
  1  'x, y, z'
loop_
 _atom_site_type_symbol
 _atom_site_label
 _atom_site_symmetry_multiplicity
 _atom_site_fract_x
 _atom_site_fract_y
 _atom_site_fract_z
 _atom_site_occupancy
  Tb  Tb0  1  0.102680  0.691961  0.102680  1
  Tb  Tb1  1  0.940181  0.940006  0.559906  1
  Tb  Tb2  1  0.939508  0.555835  0.939508  1
  Tb  Tb3  1  0.312129  0.689271  0.312129  1
  Tb  Tb4  1  0.939508  0.555835  0.565148  1
  Tb  Tb5  1  0.308740  0.313383  0.688938  1
  Tb  Tb6  1  0.099106  0.105957  0.099106  1
  Tb  Tb7  1  0.565148  0.555835  0.939508  1
  Tb  Tb8  1  0.099106  0.105957  0.695832  1
  Tb  Tb9  1  0.688938  0.313383  0.688938  1
  Tb  Tb10  1  0.686471  0.689271  0.312129  1
  Tb  Tb11  1  0.688938  0.313383  0.308740  1
  Tb  Tb12  1  0.312129  0.689271  0.686471  1
  Tb  Tb13  1  0.559906  0.940006  0.559906  1
  Tb  Tb14  1  0.695832  0.105957  0.099106  1
  Tb  Tb15  1  0.559906  0.940006  0.940181  1
  In  In16  1  0.332854  0.333120  0.332854  1
  In  In17  1  0.001172  0.333120  0.332854  1
  In  In18  1  0.333380  0.999859  0.333380  1
  In  In19  1  0.332854  0.333120  0.001172  1
  Ir  Ir20  1  0.893474  0.319579  0.893474  1
  Pd  Pd21  1  0.894456  0.891961  0.894456  1
  Pd  Pd22  1  0.894456  0.891961  0.319126  1
  Pd  Pd23  1  0.319126  0.891961  0.894456  1
