# generated using pymatgen
data_K2Ce3Dy3F20
_symmetry_space_group_name_H-M   'P 1'
_cell_length_a   8.42078564
_cell_length_b   8.57224162
_cell_length_c   8.49680000
_cell_angle_alpha   59.11829334
_cell_angle_beta   60.88736079
_cell_angle_gamma   59.99434379
_symmetry_Int_Tables_number   1
_chemical_formula_structural   K2Ce3Dy3F20
_chemical_formula_sum   'K2 Ce3 Dy3 F20'
_cell_volume   433.49118436
_cell_formula_units_Z   1
loop_
 _symmetry_equiv_pos_site_id
 _symmetry_equiv_pos_as_xyz
  1  'x, y, z'
loop_
 _atom_site_type_symbol
 _atom_site_label
 _atom_site_symmetry_multiplicity
 _atom_site_fract_x
 _atom_site_fract_y
 _atom_site_fract_z
 _atom_site_occupancy
  K  K0  1  0.247970  0.247970  0.252030  1
  K  K1  1  0.747970  0.747970  0.752030  1
  Ce  Ce2  1  0.759239  0.759239  0.240761  1
  Ce  Ce3  1  0.756630  0.241372  0.243370  1
  Ce  Ce4  1  0.241372  0.756630  0.758628  1
  Dy  Dy5  1  0.237957  0.759964  0.240036  1
  Dy  Dy6  1  0.239428  0.239428  0.760572  1
  Dy  Dy7  1  0.759964  0.237957  0.762043  1
  F  F8  1  0.881504  0.897364  0.882648  1
  F  F9  1  0.661516  0.117352  0.102636  1
  F  F10  1  0.105627  0.120263  0.667188  1
  F  F11  1  0.117352  0.661516  0.118496  1
  F  F12  1  0.897364  0.881504  0.338484  1
  F  F13  1  0.893079  0.332812  0.879737  1
  F  F14  1  0.332812  0.893079  0.894373  1
  F  F15  1  0.120263  0.105627  0.106921  1
  F  F16  1  0.489935  0.167993  0.510065  1
  F  F17  1  0.179286  0.500166  0.499834  1
  F  F18  1  0.500166  0.179286  0.820714  1
  F  F19  1  0.840413  0.500983  0.159587  1
  F  F20  1  0.167993  0.489935  0.832007  1
  F  F21  1  0.491369  0.510776  0.169958  1
  F  F22  1  0.830042  0.172103  0.508631  1
  F  F23  1  0.491324  0.825564  0.174436  1
  F  F24  1  0.510776  0.491369  0.827897  1
  F  F25  1  0.172103  0.830042  0.489224  1
  F  F26  1  0.825564  0.491324  0.508676  1
  F  F27  1  0.500983  0.840413  0.499017  1
