# generated using pymatgen
data_Lu5In4CuPt
_symmetry_space_group_name_H-M   'P 1'
_cell_length_a   3.58401100
_cell_length_b   7.96245066
_cell_length_c   17.84862136
_cell_angle_alpha   90.12373270
_cell_angle_beta   90.00000000
_cell_angle_gamma   90.00000000
_symmetry_Int_Tables_number   1
_chemical_formula_structural   Lu5In4CuPt
_chemical_formula_sum   'Lu10 In8 Cu2 Pt2'
_cell_volume   509.35403637
_cell_formula_units_Z   2
loop_
 _symmetry_equiv_pos_site_id
 _symmetry_equiv_pos_as_xyz
  1  'x, y, z'
loop_
 _atom_site_type_symbol
 _atom_site_label
 _atom_site_symmetry_multiplicity
 _atom_site_fract_x
 _atom_site_fract_y
 _atom_site_fract_z
 _atom_site_occupancy
  Lu  Lu0  1  0.000000  0.117271  0.414982  1
  Lu  Lu1  1  0.000000  0.882729  0.585018  1
  Lu  Lu2  1  0.000000  0.383527  0.915555  1
  Lu  Lu3  1  0.000000  0.616473  0.084445  1
  Lu  Lu4  1  0.000000  0.246959  0.220501  1
  Lu  Lu5  1  0.000000  0.753041  0.779499  1
  Lu  Lu6  1  0.000000  0.259135  0.720824  1
  Lu  Lu7  1  0.000000  0.740865  0.279176  1
  Lu  Lu8  1  0.000000  0.000000  0.000000  1
  Lu  Lu9  1  0.000000  0.500000  0.500000  1
  In  In10  1  0.500000  0.423028  0.352815  1
  In  In11  1  0.500000  0.576972  0.647185  1
  In  In12  1  0.500000  0.074195  0.850703  1
  In  In13  1  0.500000  0.925805  0.149297  1
  In  In14  1  0.500000  0.291553  0.065662  1
  In  In15  1  0.500000  0.708447  0.934338  1
  In  In16  1  0.500000  0.207323  0.566540  1
  In  In17  1  0.500000  0.792677  0.433460  1
  Cu  Cu18  1  0.500000  0.026270  0.303079  1
  Cu  Cu19  1  0.500000  0.973730  0.696921  1
  Pt  Pt20  1  0.500000  0.473014  0.803041  1
  Pt  Pt21  1  0.500000  0.526986  0.196959  1
