# generated using pymatgen
data_Rb6Na2Ti6BBr20
_symmetry_space_group_name_H-M   'P 1'
_cell_length_a   11.49017997
_cell_length_b   11.49017920
_cell_length_c   11.49017779
_cell_angle_alpha   61.26812315
_cell_angle_beta   61.26812388
_cell_angle_gamma   61.26812071
_symmetry_Int_Tables_number   1
_chemical_formula_structural   Rb6Na2Ti6BBr20
_chemical_formula_sum   'Rb6 Na2 Ti6 B1 Br20'
_cell_volume   1103.25208510
_cell_formula_units_Z   1
loop_
 _symmetry_equiv_pos_site_id
 _symmetry_equiv_pos_as_xyz
  1  'x, y, z'
loop_
 _atom_site_type_symbol
 _atom_site_label
 _atom_site_symmetry_multiplicity
 _atom_site_fract_x
 _atom_site_fract_y
 _atom_site_fract_z
 _atom_site_occupancy
  Rb  Rb0  1  0.358075  0.358075  0.934167  1
  Rb  Rb1  1  0.358075  0.934167  0.358075  1
  Rb  Rb2  1  0.641925  0.641925  0.065833  1
  Rb  Rb3  1  0.641925  0.065833  0.641925  1
  Rb  Rb4  1  0.934167  0.358075  0.358075  1
  Rb  Rb5  1  0.065833  0.641925  0.641925  1
  Na  Na6  1  0.378209  0.378209  0.378209  1
  Na  Na7  1  0.621791  0.621791  0.621791  1
  Ti  Ti8  1  0.867747  0.133296  0.133296  1
  Ti  Ti9  1  0.132253  0.866704  0.866704  1
  Ti  Ti10  1  0.133296  0.867747  0.133296  1
  Ti  Ti11  1  0.866704  0.132253  0.866704  1
  Ti  Ti12  1  0.133296  0.133296  0.867747  1
  Ti  Ti13  1  0.866704  0.866704  0.132253  1
  B  B14  1  0.000000  0.000000  0.000000  1
  Br  Br15  1  0.314766  0.002881  0.002881  1
  Br  Br16  1  0.685234  0.997119  0.997119  1
  Br  Br17  1  0.000000  0.308370  0.691630  1
  Br  Br18  1  0.000000  0.691630  0.308370  1
  Br  Br19  1  0.002881  0.314766  0.002881  1
  Br  Br20  1  0.691630  0.000000  0.308370  1
  Br  Br21  1  0.997119  0.685234  0.997119  1
  Br  Br22  1  0.308370  0.000000  0.691630  1
  Br  Br23  1  0.002881  0.002881  0.314766  1
  Br  Br24  1  0.997119  0.997119  0.685234  1
  Br  Br25  1  0.691630  0.308370  0.000000  1
  Br  Br26  1  0.308370  0.691630  0.000000  1
  Br  Br27  1  0.683638  0.309957  0.309957  1
  Br  Br28  1  0.316362  0.690043  0.690043  1
  Br  Br29  1  0.309957  0.683638  0.309957  1
  Br  Br30  1  0.690043  0.316362  0.690043  1
  Br  Br31  1  0.309957  0.309957  0.683638  1
  Br  Br32  1  0.690043  0.690043  0.316362  1
  Br  Br33  1  0.276607  0.276607  0.276607  1
  Br  Br34  1  0.723393  0.723393  0.723393  1
