# generated using pymatgen
data_Li2La2PdRh
_symmetry_space_group_name_H-M   'P 1'
_cell_length_a   4.10229900
_cell_length_b   7.31141340
_cell_length_c   8.77407737
_cell_angle_alpha   91.38102958
_cell_angle_beta   90.00000000
_cell_angle_gamma   90.00000000
_symmetry_Int_Tables_number   1
_chemical_formula_structural   Li2La2PdRh
_chemical_formula_sum   'Li4 La4 Pd2 Rh2'
_cell_volume   263.08975765
_cell_formula_units_Z   2
loop_
 _symmetry_equiv_pos_site_id
 _symmetry_equiv_pos_as_xyz
  1  'x, y, z'
loop_
 _atom_site_type_symbol
 _atom_site_label
 _atom_site_symmetry_multiplicity
 _atom_site_fract_x
 _atom_site_fract_y
 _atom_site_fract_z
 _atom_site_occupancy
  Li  Li0  1  0.250000  0.627988  0.552587  1
  Li  Li1  1  0.750000  0.372012  0.447413  1
  Li  Li2  1  0.750000  0.870797  0.057087  1
  Li  Li3  1  0.250000  0.129203  0.942913  1
  La  La4  1  0.250000  0.550242  0.194866  1
  La  La5  1  0.750000  0.449758  0.805134  1
  La  La6  1  0.750000  0.959938  0.676516  1
  La  La7  1  0.250000  0.040062  0.323484  1
  Pd  Pd8  1  0.250000  0.747891  0.880737  1
  Pd  Pd9  1  0.750000  0.252109  0.119263  1
  Rh  Rh10  1  0.750000  0.758093  0.373796  1
  Rh  Rh11  1  0.250000  0.241907  0.626204  1
