# generated using pymatgen
data_Li6NiGe2Pd
_symmetry_space_group_name_H-M   'P 1'
_cell_length_a   6.63504497
_cell_length_b   6.63042730
_cell_length_c   6.62815200
_cell_angle_alpha   90.00000000
_cell_angle_beta   90.00000000
_cell_angle_gamma   90.70670666
_symmetry_Int_Tables_number   1
_chemical_formula_structural   Li6NiGe2Pd
_chemical_formula_sum   'Li12 Ni2 Ge4 Pd2'
_cell_volume   291.57132518
_cell_formula_units_Z   2
loop_
 _symmetry_equiv_pos_site_id
 _symmetry_equiv_pos_as_xyz
  1  'x, y, z'
loop_
 _atom_site_type_symbol
 _atom_site_label
 _atom_site_symmetry_multiplicity
 _atom_site_fract_x
 _atom_site_fract_y
 _atom_site_fract_z
 _atom_site_occupancy
  Li  Li0  1  0.125923  0.199441  0.453076  1
  Li  Li1  1  0.374077  0.800559  0.953076  1
  Li  Li2  1  0.876501  0.700256  0.048871  1
  Li  Li3  1  0.450275  0.123480  0.199369  1
  Li  Li4  1  0.623499  0.299744  0.548871  1
  Li  Li5  1  0.954237  0.373943  0.799885  1
  Li  Li6  1  0.049725  0.876520  0.699369  1
  Li  Li7  1  0.545763  0.626057  0.299885  1
  Li  Li8  1  0.200150  0.452450  0.124783  1
  Li  Li9  1  0.699022  0.047933  0.874929  1
  Li  Li10  1  0.299850  0.547550  0.624783  1
  Li  Li11  1  0.800978  0.952067  0.374929  1
  Ni  Ni12  1  0.316840  0.180396  0.817401  1
  Ni  Ni13  1  0.183160  0.819604  0.317401  1
  Ge  Ge14  1  0.075146  0.055490  0.061112  1
  Ge  Ge15  1  0.424854  0.944510  0.561112  1
  Ge  Ge16  1  0.950233  0.570613  0.435395  1
  Ge  Ge17  1  0.549767  0.429387  0.935395  1
  Pd  Pd18  1  0.684960  0.687395  0.685178  1
  Pd  Pd19  1  0.815040  0.312605  0.185178  1
