# generated using pymatgen
data_Sr21Ga8Si6I
_symmetry_space_group_name_H-M   'P 1'
_cell_length_a   11.85589813
_cell_length_b   11.85589868
_cell_length_c   11.85589800
_cell_angle_alpha   60.00000191
_cell_angle_beta   60.00000036
_cell_angle_gamma   60.00000179
_symmetry_Int_Tables_number   1
_chemical_formula_structural   Sr21Ga8Si6I
_chemical_formula_sum   'Sr21 Ga8 Si6 I1'
_cell_volume   1178.38826246
_cell_formula_units_Z   1
loop_
 _symmetry_equiv_pos_site_id
 _symmetry_equiv_pos_as_xyz
  1  'x, y, z'
loop_
 _atom_site_type_symbol
 _atom_site_label
 _atom_site_symmetry_multiplicity
 _atom_site_fract_x
 _atom_site_fract_y
 _atom_site_fract_z
 _atom_site_occupancy
  Sr  Sr0  1  0.873131  0.873131  0.380607  1
  Sr  Sr1  1  0.619393  0.126869  0.126869  1
  Sr  Sr2  1  0.873131  0.380607  0.873131  1
  Sr  Sr3  1  0.126869  0.126869  0.126869  1
  Sr  Sr4  1  0.380607  0.873131  0.873131  1
  Sr  Sr5  1  0.873131  0.873131  0.873131  1
  Sr  Sr6  1  0.169847  0.830153  0.500000  1
  Sr  Sr7  1  0.830153  0.500000  0.500000  1
  Sr  Sr8  1  0.126869  0.126869  0.619393  1
  Sr  Sr9  1  0.830153  0.169847  0.500000  1
  Sr  Sr10  1  0.169847  0.500000  0.500000  1
  Sr  Sr11  1  0.126869  0.619393  0.126869  1
  Sr  Sr12  1  0.500000  0.500000  0.169847  1
  Sr  Sr13  1  0.500000  0.169847  0.830153  1
  Sr  Sr14  1  0.500000  0.830153  0.169847  1
  Sr  Sr15  1  0.500000  0.500000  0.830153  1
  Sr  Sr16  1  0.500000  0.169847  0.500000  1
  Sr  Sr17  1  0.169847  0.500000  0.830153  1
  Sr  Sr18  1  0.000000  0.000000  0.000000  1
  Sr  Sr19  1  0.500000  0.830153  0.500000  1
  Sr  Sr20  1  0.830153  0.500000  0.169847  1
  Ga  Ga21  1  0.692814  0.921561  0.692814  1
  Ga  Ga22  1  0.692814  0.692814  0.921561  1
  Ga  Ga23  1  0.692814  0.692814  0.692814  1
  Ga  Ga24  1  0.307186  0.078439  0.307186  1
  Ga  Ga25  1  0.921561  0.692814  0.692814  1
  Ga  Ga26  1  0.307186  0.307186  0.078439  1
  Ga  Ga27  1  0.078439  0.307186  0.307186  1
  Ga  Ga28  1  0.307186  0.307186  0.307186  1
  Si  Si29  1  0.783710  0.216290  0.783710  1
  Si  Si30  1  0.783710  0.216290  0.216290  1
  Si  Si31  1  0.216290  0.783710  0.216290  1
  Si  Si32  1  0.216290  0.783710  0.783710  1
  Si  Si33  1  0.783710  0.783710  0.216290  1
  Si  Si34  1  0.216290  0.216290  0.783710  1
  I  I35  1  0.500000  0.500000  0.500000  1
