# generated using pymatgen
data_Tb4Bi5AsRh7
_symmetry_space_group_name_H-M   'P 1'
_cell_length_a   7.74213174
_cell_length_b   7.74213289
_cell_length_c   7.74213261
_cell_angle_alpha   110.86943574
_cell_angle_beta   110.86943192
_cell_angle_gamma   106.70959487
_symmetry_Int_Tables_number   1
_chemical_formula_structural   Tb4Bi5AsRh7
_chemical_formula_sum   'Tb4 Bi5 As1 Rh7'
_cell_volume   356.62117092
_cell_formula_units_Z   1
loop_
 _symmetry_equiv_pos_site_id
 _symmetry_equiv_pos_as_xyz
  1  'x, y, z'
loop_
 _atom_site_type_symbol
 _atom_site_label
 _atom_site_symmetry_multiplicity
 _atom_site_fract_x
 _atom_site_fract_y
 _atom_site_fract_z
 _atom_site_occupancy
  Tb  Tb0  1  0.469197  0.012907  0.000000  1
  Tb  Tb1  1  0.012907  0.469197  0.000000  1
  Tb  Tb2  1  0.012907  0.012907  0.543711  1
  Tb  Tb3  1  0.469197  0.469197  0.456289  1
  Bi  Bi4  1  0.983572  0.295104  0.311533  1
  Bi  Bi5  1  0.672039  0.983572  0.688467  1
  Bi  Bi6  1  0.700422  0.700422  0.000000  1
  Bi  Bi7  1  0.983572  0.672039  0.688467  1
  Bi  Bi8  1  0.295104  0.983572  0.311533  1
  As  As9  1  0.357415  0.357415  0.000000  1
  Rh  Rh10  1  0.089224  0.089224  0.000000  1
  Rh  Rh11  1  0.495074  0.739869  0.244795  1
  Rh  Rh12  1  0.739869  0.495074  0.244795  1
  Rh  Rh13  1  0.237074  0.737074  0.500000  1
  Rh  Rh14  1  0.250279  0.495074  0.755205  1
  Rh  Rh15  1  0.495074  0.250279  0.755205  1
  Rh  Rh16  1  0.737074  0.237074  0.500000  1
