# generated using pymatgen
data_Yb6Dy4SnPb7
_symmetry_space_group_name_H-M   'P 1'
_cell_length_a   7.94061000
_cell_length_b   8.55585100
_cell_length_c   16.21303300
_cell_angle_alpha   90.00000000
_cell_angle_beta   90.00000000
_cell_angle_gamma   90.00000000
_symmetry_Int_Tables_number   1
_chemical_formula_structural   Yb6Dy4SnPb7
_chemical_formula_sum   'Yb12 Dy8 Sn2 Pb14'
_cell_volume   1101.49199611
_cell_formula_units_Z   2
loop_
 _symmetry_equiv_pos_site_id
 _symmetry_equiv_pos_as_xyz
  1  'x, y, z'
loop_
 _atom_site_type_symbol
 _atom_site_label
 _atom_site_symmetry_multiplicity
 _atom_site_fract_x
 _atom_site_fract_y
 _atom_site_fract_z
 _atom_site_occupancy
  Yb  Yb0  1  0.503783  0.688406  0.591777  1
  Yb  Yb1  1  0.003783  0.811594  0.908223  1
  Yb  Yb2  1  0.495930  0.310370  0.093668  1
  Yb  Yb3  1  0.995930  0.189630  0.406332  1
  Yb  Yb4  1  0.495930  0.310370  0.406332  1
  Yb  Yb5  1  0.995930  0.189630  0.093668  1
  Yb  Yb6  1  0.503783  0.688406  0.908223  1
  Yb  Yb7  1  0.003783  0.811594  0.591777  1
  Yb  Yb8  1  0.835956  0.510829  0.750000  1
  Yb  Yb9  1  0.335956  0.989171  0.750000  1
  Yb  Yb10  1  0.163254  0.485995  0.250000  1
  Yb  Yb11  1  0.663254  0.014005  0.250000  1
  Dy  Dy12  1  0.673952  0.163612  0.621270  1
  Dy  Dy13  1  0.173952  0.336388  0.878730  1
  Dy  Dy14  1  0.327172  0.837710  0.122204  1
  Dy  Dy15  1  0.827172  0.662290  0.377796  1
  Dy  Dy16  1  0.327172  0.837710  0.377796  1
  Dy  Dy17  1  0.827172  0.662290  0.122204  1
  Dy  Dy18  1  0.673952  0.163612  0.878730  1
  Dy  Dy19  1  0.173952  0.336388  0.621270  1
  Sn  Sn20  1  0.284138  0.128959  0.250000  1
  Sn  Sn21  1  0.784138  0.371041  0.250000  1
  Pb  Pb22  1  0.677704  0.963084  0.457941  1
  Pb  Pb23  1  0.177704  0.536916  0.042059  1
  Pb  Pb24  1  0.322746  0.036043  0.958416  1
  Pb  Pb25  1  0.822746  0.463957  0.541584  1
  Pb  Pb26  1  0.322746  0.036043  0.541584  1
  Pb  Pb27  1  0.822746  0.463957  0.958416  1
  Pb  Pb28  1  0.677704  0.963084  0.042059  1
  Pb  Pb29  1  0.177704  0.536916  0.457941  1
  Pb  Pb30  1  0.475095  0.371775  0.750000  1
  Pb  Pb31  1  0.975095  0.128225  0.750000  1
  Pb  Pb32  1  0.525614  0.625606  0.250000  1
  Pb  Pb33  1  0.025614  0.874394  0.250000  1
  Pb  Pb34  1  0.713368  0.866503  0.750000  1
  Pb  Pb35  1  0.213368  0.633497  0.750000  1
