# generated using pymatgen
data_Lu2ScFe2Si3
_symmetry_space_group_name_H-M   'P 1'
_cell_length_a   5.47260224
_cell_length_b   5.47260129
_cell_length_c   13.13067500
_cell_angle_alpha   90.00000000
_cell_angle_beta   90.00000000
_cell_angle_gamma   136.80868813
_symmetry_Int_Tables_number   1
_chemical_formula_structural   Lu2ScFe2Si3
_chemical_formula_sum   'Lu4 Sc2 Fe4 Si6'
_cell_volume   269.15840371
_cell_formula_units_Z   2
loop_
 _symmetry_equiv_pos_site_id
 _symmetry_equiv_pos_as_xyz
  1  'x, y, z'
loop_
 _atom_site_type_symbol
 _atom_site_label
 _atom_site_symmetry_multiplicity
 _atom_site_fract_x
 _atom_site_fract_y
 _atom_site_fract_z
 _atom_site_occupancy
  Lu  Lu0  1  0.920760  0.079240  0.613551  1
  Lu  Lu1  1  0.920760  0.079240  0.886449  1
  Lu  Lu2  1  0.079240  0.920760  0.113551  1
  Lu  Lu3  1  0.079240  0.920760  0.386449  1
  Sc  Sc4  1  0.641162  0.358838  0.750000  1
  Sc  Sc5  1  0.358838  0.641162  0.250000  1
  Fe  Fe6  1  0.786205  0.213795  0.082125  1
  Fe  Fe7  1  0.213795  0.786205  0.582125  1
  Fe  Fe8  1  0.786205  0.213795  0.417875  1
  Fe  Fe9  1  0.213795  0.786205  0.917875  1
  Si  Si10  1  0.677384  0.322616  0.250000  1
  Si  Si11  1  0.378689  0.621311  0.458418  1
  Si  Si12  1  0.378689  0.621311  0.041582  1
  Si  Si13  1  0.621311  0.378689  0.541582  1
  Si  Si14  1  0.322616  0.677384  0.750000  1
  Si  Si15  1  0.621311  0.378689  0.958418  1
