# generated using pymatgen
data_Er4Hf5Si8Mo
_symmetry_space_group_name_H-M   'P 1'
_cell_length_a   7.20588805
_cell_length_b   6.95462274
_cell_length_c   7.17019004
_cell_angle_alpha   71.83589755
_cell_angle_beta   89.84653725
_cell_angle_gamma   89.99383219
_symmetry_Int_Tables_number   1
_chemical_formula_structural   Er4Hf5Si8Mo
_chemical_formula_sum   'Er4 Hf5 Si8 Mo1'
_cell_volume   341.42102620
_cell_formula_units_Z   1
loop_
 _symmetry_equiv_pos_site_id
 _symmetry_equiv_pos_as_xyz
  1  'x, y, z'
loop_
 _atom_site_type_symbol
 _atom_site_label
 _atom_site_symmetry_multiplicity
 _atom_site_fract_x
 _atom_site_fract_y
 _atom_site_fract_z
 _atom_site_occupancy
  Er  Er0  1  0.674169  0.430672  0.191861  1
  Er  Er1  1  0.170223  0.071659  0.807625  1
  Er  Er2  1  0.325831  0.569328  0.808139  1
  Er  Er3  1  0.829777  0.928341  0.192375  1
  Hf  Hf4  1  0.500000  0.000000  0.500000  1
  Hf  Hf5  1  0.176051  0.253135  0.252067  1
  Hf  Hf6  1  0.681078  0.253979  0.746378  1
  Hf  Hf7  1  0.823949  0.746865  0.747933  1
  Hf  Hf8  1  0.318922  0.746021  0.253622  1
  Si  Si9  1  0.468437  0.131447  0.082751  1
  Si  Si10  1  0.968824  0.368458  0.915133  1
  Si  Si11  1  0.531563  0.868553  0.917249  1
  Si  Si12  1  0.031176  0.631542  0.084867  1
  Si  Si13  1  0.877832  0.133943  0.491425  1
  Si  Si14  1  0.373876  0.370288  0.509338  1
  Si  Si15  1  0.122168  0.866057  0.508575  1
  Si  Si16  1  0.626124  0.629712  0.490662  1
  Mo  Mo17  1  0.000000  0.500000  0.500000  1
