# generated using pymatgen
data_Lu10OsRu3
_symmetry_space_group_name_H-M   'P 1'
_cell_length_a   6.18815830
_cell_length_b   7.22391286
_cell_length_c   8.25202310
_cell_angle_alpha   97.03459936
_cell_angle_beta   111.99438927
_cell_angle_gamma   89.95729443
_symmetry_Int_Tables_number   1
_chemical_formula_structural   Lu10OsRu3
_chemical_formula_sum   'Lu10 Os1 Ru3'
_cell_volume   339.05733178
_cell_formula_units_Z   1
loop_
 _symmetry_equiv_pos_site_id
 _symmetry_equiv_pos_as_xyz
  1  'x, y, z'
loop_
 _atom_site_type_symbol
 _atom_site_label
 _atom_site_symmetry_multiplicity
 _atom_site_fract_x
 _atom_site_fract_y
 _atom_site_fract_z
 _atom_site_occupancy
  Lu  Lu0  1  0.522043  0.084263  0.814971  1
  Lu  Lu1  1  0.477481  0.917328  0.185532  1
  Lu  Lu2  1  0.709927  0.416134  0.185382  1
  Lu  Lu3  1  0.293113  0.584247  0.817902  1
  Lu  Lu4  1  0.296890  0.316094  0.435250  1
  Lu  Lu5  1  0.700830  0.683049  0.563784  1
  Lu  Lu6  1  0.862419  0.183943  0.565035  1
  Lu  Lu7  1  0.137864  0.815275  0.434464  1
  Lu  Lu8  1  0.081237  0.250300  0.000233  1
  Lu  Lu9  1  0.919356  0.749577  0.000150  1
  Os  Os10  1  0.321540  0.578151  0.218794  1
  Ru  Ru11  1  0.677490  0.421392  0.779723  1
  Ru  Ru12  1  0.101410  0.922634  0.778285  1
  Ru  Ru13  1  0.898398  0.077612  0.220494  1
