# generated using pymatgen
data_CaYb11(HoSn2)8
_symmetry_space_group_name_H-M   'P 1'
_cell_length_a   7.84051002
_cell_length_b   8.43984216
_cell_length_c   16.05099000
_cell_angle_alpha   90.01027813
_cell_angle_beta   90.00436998
_cell_angle_gamma   90.00473775
_symmetry_Int_Tables_number   1
_chemical_formula_structural   CaYb11(HoSn2)8
_chemical_formula_sum   'Ca1 Yb11 Ho8 Sn16'
_cell_volume   1062.13679381
_cell_formula_units_Z   1
loop_
 _symmetry_equiv_pos_site_id
 _symmetry_equiv_pos_as_xyz
  1  'x, y, z'
loop_
 _atom_site_type_symbol
 _atom_site_label
 _atom_site_symmetry_multiplicity
 _atom_site_fract_x
 _atom_site_fract_y
 _atom_site_fract_z
 _atom_site_occupancy
  Ca  Ca0  1  0.505044  0.688292  0.592542  1
  Yb  Yb1  1  0.005104  0.811362  0.907238  1
  Yb  Yb2  1  0.494897  0.311358  0.092787  1
  Yb  Yb3  1  0.994959  0.188556  0.407160  1
  Yb  Yb4  1  0.494866  0.311372  0.407146  1
  Yb  Yb5  1  0.994937  0.188625  0.092795  1
  Yb  Yb6  1  0.505099  0.688620  0.907226  1
  Yb  Yb7  1  0.005114  0.811481  0.592813  1
  Yb  Yb8  1  0.835947  0.511721  0.750091  1
  Yb  Yb9  1  0.335831  0.988310  0.750118  1
  Yb  Yb10  1  0.164128  0.488154  0.249971  1
  Yb  Yb11  1  0.664110  0.011807  0.249960  1
  Ho  Ho12  1  0.673282  0.166018  0.622086  1
  Ho  Ho13  1  0.173243  0.333982  0.877974  1
  Ho  Ho14  1  0.326729  0.834044  0.122049  1
  Ho  Ho15  1  0.826767  0.665971  0.377889  1
  Ho  Ho16  1  0.326599  0.834165  0.377811  1
  Ho  Ho17  1  0.826713  0.665919  0.122045  1
  Ho  Ho18  1  0.673295  0.165955  0.877983  1
  Ho  Ho19  1  0.173086  0.333873  0.622207  1
  Sn  Sn20  1  0.671508  0.964759  0.458893  1
  Sn  Sn21  1  0.171343  0.535835  0.040835  1
  Sn  Sn22  1  0.328673  0.035863  0.959197  1
  Sn  Sn23  1  0.829628  0.463470  0.540682  1
  Sn  Sn24  1  0.328292  0.036641  0.540599  1
  Sn  Sn25  1  0.828695  0.464161  0.959181  1
  Sn  Sn26  1  0.671330  0.964155  0.040814  1
  Sn  Sn27  1  0.171188  0.535684  0.458993  1
  Sn  Sn28  1  0.471680  0.373755  0.750224  1
  Sn  Sn29  1  0.971954  0.126016  0.749977  1
  Sn  Sn30  1  0.528092  0.625919  0.249984  1
  Sn  Sn31  1  0.028074  0.874089  0.249984  1
  Sn  Sn32  1  0.718631  0.873781  0.750420  1
  Sn  Sn33  1  0.217610  0.626274  0.750327  1
  Sn  Sn34  1  0.281778  0.126423  0.249987  1
  Sn  Sn35  1  0.781776  0.373592  0.250011  1
