# generated using pymatgen
data_TbTm(FeOs)2
_symmetry_space_group_name_H-M   'P 1'
_cell_length_a   5.20850383
_cell_length_b   5.26626232
_cell_length_c   5.26626108
_cell_angle_alpha   59.81338016
_cell_angle_beta   60.36213827
_cell_angle_gamma   60.36214541
_symmetry_Int_Tables_number   1
_chemical_formula_structural   TbTm(FeOs)2
_chemical_formula_sum   'Tb1 Tm1 Fe2 Os2'
_cell_volume   102.55000394
_cell_formula_units_Z   1
loop_
 _symmetry_equiv_pos_site_id
 _symmetry_equiv_pos_as_xyz
  1  'x, y, z'
loop_
 _atom_site_type_symbol
 _atom_site_label
 _atom_site_symmetry_multiplicity
 _atom_site_fract_x
 _atom_site_fract_y
 _atom_site_fract_z
 _atom_site_occupancy
  Tb  Tb0  1  0.997817  0.002183  0.002183  1
  Tm  Tm1  1  0.252294  0.247706  0.247706  1
  Fe  Fe2  1  0.125427  0.624950  0.624950  1
  Fe  Fe3  1  0.624672  0.624950  0.624950  1
  Os  Os4  1  0.624894  0.625165  0.125045  1
  Os  Os5  1  0.624894  0.125045  0.625165  1
