# generated using pymatgen
data_Li3Tm4Lu(B6Os)4
_symmetry_space_group_name_H-M   'P 1'
_cell_length_a   3.53323500
_cell_length_b   8.88436215
_cell_length_c   11.21256445
_cell_angle_alpha   89.94168234
_cell_angle_beta   90.00000000
_cell_angle_gamma   90.00000000
_symmetry_Int_Tables_number   1
_chemical_formula_structural   Li3Tm4Lu(B6Os)4
_chemical_formula_sum   'Li3 Tm4 Lu1 B24 Os4'
_cell_volume   351.96826280
_cell_formula_units_Z   1
loop_
 _symmetry_equiv_pos_site_id
 _symmetry_equiv_pos_as_xyz
  1  'x, y, z'
loop_
 _atom_site_type_symbol
 _atom_site_label
 _atom_site_symmetry_multiplicity
 _atom_site_fract_x
 _atom_site_fract_y
 _atom_site_fract_z
 _atom_site_occupancy
  Li  Li0  1  0.000000  0.943707  0.372395  1
  Li  Li1  1  0.000000  0.054613  0.625151  1
  Li  Li2  1  0.000000  0.442461  0.129874  1
  Tm  Tm3  1  0.000000  0.321712  0.410359  1
  Tm  Tm4  1  0.000000  0.681156  0.581751  1
  Tm  Tm5  1  0.000000  0.824563  0.090786  1
  Tm  Tm6  1  0.000000  0.177705  0.916135  1
  Lu  Lu7  1  0.000000  0.556262  0.871683  1
  B  B8  1  0.500000  0.554927  0.432435  1
  B  B9  1  0.500000  0.444737  0.565389  1
  B  B10  1  0.500000  0.056159  0.068016  1
  B  B11  1  0.500000  0.948043  0.933741  1
  B  B12  1  0.500000  0.758416  0.417706  1
  B  B13  1  0.500000  0.240261  0.580558  1
  B  B14  1  0.500000  0.256634  0.083446  1
  B  B15  1  0.500000  0.749882  0.919993  1
  B  B16  1  0.500000  0.794451  0.264478  1
  B  B17  1  0.500000  0.203090  0.735221  1
  B  B18  1  0.500000  0.294175  0.236672  1
  B  B19  1  0.500000  0.708905  0.762909  1
  B  B20  1  0.500000  0.626578  0.183011  1
  B  B21  1  0.500000  0.367872  0.816198  1
  B  B22  1  0.500000  0.125508  0.318940  1
  B  B23  1  0.500000  0.876029  0.679821  1
  B  B24  1  0.500000  0.979036  0.214389  1
  B  B25  1  0.500000  0.021026  0.785615  1
  B  B26  1  0.500000  0.478535  0.286914  1
  B  B27  1  0.500000  0.518617  0.711337  1
  B  B28  1  0.500000  0.591728  0.031043  1
  B  B29  1  0.500000  0.403854  0.979349  1
  B  B30  1  0.500000  0.093113  0.473637  1
  B  B31  1  0.500000  0.907188  0.524646  1
  Os  Os32  1  0.000000  0.639690  0.318246  1
  Os  Os33  1  0.000000  0.356530  0.678087  1
  Os  Os34  1  0.000000  0.139125  0.182797  1
  Os  Os35  1  0.000000  0.863712  0.817270  1
