# generated using pymatgen
data_Cd2Ga3FeBr16
_symmetry_space_group_name_H-M   'P 1'
_cell_length_a   7.55210811
_cell_length_b   7.66478825
_cell_length_c   14.12624810
_cell_angle_alpha   87.48090443
_cell_angle_beta   90.13140974
_cell_angle_gamma   90.16967563
_symmetry_Int_Tables_number   1
_chemical_formula_structural   Cd2Ga3FeBr16
_chemical_formula_sum   'Cd2 Ga3 Fe1 Br16'
_cell_volume   816.90654237
_cell_formula_units_Z   1
loop_
 _symmetry_equiv_pos_site_id
 _symmetry_equiv_pos_as_xyz
  1  'x, y, z'
loop_
 _atom_site_type_symbol
 _atom_site_label
 _atom_site_symmetry_multiplicity
 _atom_site_fract_x
 _atom_site_fract_y
 _atom_site_fract_z
 _atom_site_occupancy
  Cd  Cd0  1  0.757270  0.078408  0.812473  1
  Cd  Cd1  1  0.244840  0.075513  0.312218  1
  Ga  Ga2  1  0.065989  0.223337  0.077586  1
  Ga  Ga3  1  0.575886  0.638154  0.776098  1
  Ga  Ga4  1  0.424276  0.637429  0.275921  1
  Fe  Fe5  1  0.933142  0.217222  0.580055  1
  Br  Br6  1  0.419319  0.612729  0.637842  1
  Br  Br7  1  0.581234  0.612146  0.138293  1
  Br  Br8  1  0.875647  0.737643  0.760036  1
  Br  Br9  1  0.124351  0.733705  0.259642  1
  Br  Br10  1  0.936618  0.481618  0.498206  1
  Br  Br11  1  0.062184  0.487259  0.994450  1
  Br  Br12  1  0.912560  0.998791  0.996233  1
  Br  Br13  1  0.087806  0.003743  0.493172  1
  Br  Br14  1  0.637793  0.127645  0.618591  1
  Br  Br15  1  0.358894  0.124555  0.119002  1
  Br  Br16  1  0.570467  0.372154  0.874717  1
  Br  Br17  1  0.429823  0.373103  0.375655  1
  Br  Br18  1  0.457273  0.869909  0.867295  1
  Br  Br19  1  0.544902  0.870602  0.366557  1
  Br  Br20  1  0.937565  0.227310  0.234262  1
  Br  Br21  1  0.062161  0.231830  0.736098  1
