# generated using pymatgen
data_Ca6TbY(Si3Pd)4
_symmetry_space_group_name_H-M   'P 1'
_cell_length_a   8.24347200
_cell_length_b   8.24347136
_cell_length_c   8.28343300
_cell_angle_alpha   90.00000000
_cell_angle_beta   90.00000000
_cell_angle_gamma   119.99999456
_symmetry_Int_Tables_number   1
_chemical_formula_structural   Ca6TbY(Si3Pd)4
_chemical_formula_sum   'Ca6 Tb1 Y1 Si12 Pd4'
_cell_volume   487.48507039
_cell_formula_units_Z   1
loop_
 _symmetry_equiv_pos_site_id
 _symmetry_equiv_pos_as_xyz
  1  'x, y, z'
loop_
 _atom_site_type_symbol
 _atom_site_label
 _atom_site_symmetry_multiplicity
 _atom_site_fract_x
 _atom_site_fract_y
 _atom_site_fract_z
 _atom_site_occupancy
  Ca  Ca0  1  0.501192  0.002383  0.250000  1
  Ca  Ca1  1  0.498810  0.997619  0.750000  1
  Ca  Ca2  1  0.997617  0.498808  0.250000  1
  Ca  Ca3  1  0.002381  0.501190  0.750000  1
  Ca  Ca4  1  0.501192  0.498808  0.250000  1
  Ca  Ca5  1  0.498810  0.501190  0.750000  1
  Tb  Tb6  1  0.000000  0.000000  0.250000  1
  Y  Y7  1  0.000000  0.000000  0.750000  1
  Si  Si8  1  0.164477  0.328953  0.001375  1
  Si  Si9  1  0.835524  0.671047  0.998664  1
  Si  Si10  1  0.671047  0.835523  0.001375  1
  Si  Si11  1  0.835524  0.671047  0.501336  1
  Si  Si12  1  0.328953  0.164476  0.998664  1
  Si  Si13  1  0.164477  0.328953  0.498625  1
  Si  Si14  1  0.164477  0.835523  0.001375  1
  Si  Si15  1  0.328953  0.164476  0.501336  1
  Si  Si16  1  0.835524  0.164476  0.998664  1
  Si  Si17  1  0.671047  0.835523  0.498625  1
  Si  Si18  1  0.835524  0.164476  0.501336  1
  Si  Si19  1  0.164477  0.835523  0.498625  1
  Pd  Pd20  1  0.333333  0.666667  0.001472  1
  Pd  Pd21  1  0.666667  0.333333  0.998392  1
  Pd  Pd22  1  0.666667  0.333333  0.501608  1
  Pd  Pd23  1  0.333333  0.666667  0.498528  1
