# generated using pymatgen
data_Ti6GaGeN2
_symmetry_space_group_name_H-M   'P 1'
_cell_length_a   5.55097925
_cell_length_b   5.55097961
_cell_length_c   8.24783500
_cell_angle_alpha   90.00000000
_cell_angle_beta   90.00000000
_cell_angle_gamma   147.30005351
_symmetry_Int_Tables_number   1
_chemical_formula_structural   Ti6GaGeN2
_chemical_formula_sum   'Ti6 Ga1 Ge1 N2'
_cell_volume   137.29842747
_cell_formula_units_Z   1
loop_
 _symmetry_equiv_pos_site_id
 _symmetry_equiv_pos_as_xyz
  1  'x, y, z'
loop_
 _atom_site_type_symbol
 _atom_site_label
 _atom_site_symmetry_multiplicity
 _atom_site_fract_x
 _atom_site_fract_y
 _atom_site_fract_z
 _atom_site_occupancy
  Ti  Ti0  1  0.626226  0.373771  0.043123  1
  Ti  Ti1  1  0.956536  0.043461  0.250000  1
  Ti  Ti2  1  0.626226  0.373771  0.456876  1
  Ti  Ti3  1  0.374977  0.625020  0.541039  1
  Ti  Ti4  1  0.040351  0.959646  0.750000  1
  Ti  Ti5  1  0.374977  0.625020  0.958960  1
  Ga  Ga6  1  0.746869  0.253127  0.750000  1
  Ge  Ge7  1  0.253775  0.746221  0.250000  1
  N  N8  1  0.000024  0.999976  0.000572  1
  N  N9  1  0.000024  0.999976  0.499428  1
