# generated using pymatgen
data_Sb2IrRhS2
_symmetry_space_group_name_H-M   'P 1'
_cell_length_a   6.10369400
_cell_length_b   6.10353106
_cell_length_c   6.10415605
_cell_angle_alpha   90.11470716
_cell_angle_beta   90.00000000
_cell_angle_gamma   90.00000000
_symmetry_Int_Tables_number   1
_chemical_formula_structural   Sb2IrRhS2
_chemical_formula_sum   'Sb4 Ir2 Rh2 S4'
_cell_volume   227.40429840
_cell_formula_units_Z   2
loop_
 _symmetry_equiv_pos_site_id
 _symmetry_equiv_pos_as_xyz
  1  'x, y, z'
loop_
 _atom_site_type_symbol
 _atom_site_label
 _atom_site_symmetry_multiplicity
 _atom_site_fract_x
 _atom_site_fract_y
 _atom_site_fract_z
 _atom_site_occupancy
  Sb  Sb0  1  0.877526  0.377040  0.120188  1
  Sb  Sb1  1  0.377526  0.122960  0.879812  1
  Sb  Sb2  1  0.122397  0.877969  0.375640  1
  Sb  Sb3  1  0.622397  0.622031  0.624360  1
  Ir  Ir4  1  0.512962  0.013587  0.488589  1
  Ir  Ir5  1  0.012962  0.486413  0.511411  1
  Rh  Rh6  1  0.486673  0.513010  0.014619  1
  Rh  Rh7  1  0.986673  0.986990  0.985381  1
  S  S8  1  0.117456  0.614817  0.879814  1
  S  S9  1  0.617456  0.885183  0.120186  1
  S  S10  1  0.882987  0.119055  0.614550  1
  S  S11  1  0.382987  0.380945  0.385450  1
