# generated using pymatgen
data_Dy3In(Co2O5)4
_symmetry_space_group_name_H-M   'P 1'
_cell_length_a   5.64162201
_cell_length_b   7.25478041
_cell_length_c   8.43160900
_cell_angle_alpha   89.98277521
_cell_angle_beta   89.90966318
_cell_angle_gamma   89.99159344
_symmetry_Int_Tables_number   1
_chemical_formula_structural   Dy3In(Co2O5)4
_chemical_formula_sum   'Dy3 In1 Co8 O20'
_cell_volume   345.09459013
_cell_formula_units_Z   1
loop_
 _symmetry_equiv_pos_site_id
 _symmetry_equiv_pos_as_xyz
  1  'x, y, z'
loop_
 _atom_site_type_symbol
 _atom_site_label
 _atom_site_symmetry_multiplicity
 _atom_site_fract_x
 _atom_site_fract_y
 _atom_site_fract_z
 _atom_site_occupancy
  Dy  Dy0  1  0.001559  0.640973  0.327841  1
  Dy  Dy1  1  0.997876  0.358735  0.672545  1
  Dy  Dy2  1  0.999780  0.138432  0.170625  1
  In  In3  1  0.001778  0.857426  0.828080  1
  Co  Co4  1  0.501289  0.907350  0.149199  1
  Co  Co5  1  0.498975  0.087681  0.849353  1
  Co  Co6  1  0.504066  0.412091  0.350612  1
  Co  Co7  1  0.495869  0.593170  0.651759  1
  Co  Co8  1  0.254887  0.499102  0.000496  1
  Co  Co9  1  0.745720  0.997743  0.501031  1
  Co  Co10  1  0.743259  0.502753  0.997976  1
  Co  Co11  1  0.257350  0.001851  0.500891  1
  O  O12  1  0.275094  0.496826  0.503901  1
  O  O13  1  0.726817  0.999180  0.998181  1
  O  O14  1  0.727295  0.502701  0.498599  1
  O  O15  1  0.270601  0.996270  0.996281  1
  O  O16  1  0.002595  0.663725  0.051238  1
  O  O17  1  0.994051  0.338826  0.946650  1
  O  O18  1  0.995747  0.162164  0.446357  1
  O  O19  1  0.005201  0.838919  0.557619  1
  O  O20  1  0.504616  0.653011  0.062222  1
  O  O21  1  0.492631  0.347089  0.933972  1
  O  O22  1  0.492950  0.153016  0.440102  1
  O  O23  1  0.508591  0.846133  0.561251  1
  O  O24  1  0.243993  0.898152  0.290950  1
  O  O25  1  0.242839  0.097314  0.709229  1
  O  O26  1  0.757248  0.399835  0.207777  1
  O  O27  1  0.754878  0.603010  0.792481  1
  O  O28  1  0.758707  0.096437  0.709780  1
  O  O29  1  0.758267  0.900270  0.291531  1
  O  O30  1  0.239715  0.607057  0.792993  1
  O  O31  1  0.245758  0.402762  0.208477  1
