# generated using pymatgen
data_Er7Tm(ReBr4)2
_symmetry_space_group_name_H-M   'P 1'
_cell_length_a   8.90762397
_cell_length_b   8.91626302
_cell_length_c   6.57194427
_cell_angle_alpha   89.40873883
_cell_angle_beta   89.45592637
_cell_angle_gamma   89.32725234
_symmetry_Int_Tables_number   1
_chemical_formula_structural   Er7Tm(ReBr4)2
_chemical_formula_sum   'Er7 Tm1 Re2 Br8'
_cell_volume   521.87496909
_cell_formula_units_Z   1
loop_
 _symmetry_equiv_pos_site_id
 _symmetry_equiv_pos_as_xyz
  1  'x, y, z'
loop_
 _atom_site_type_symbol
 _atom_site_label
 _atom_site_symmetry_multiplicity
 _atom_site_fract_x
 _atom_site_fract_y
 _atom_site_fract_z
 _atom_site_occupancy
  Er  Er0  1  0.752279  0.098380  0.987441  1
  Er  Er1  1  0.098741  0.752345  0.487832  1
  Er  Er2  1  0.901750  0.247472  0.512454  1
  Er  Er3  1  0.753152  0.903133  0.508383  1
  Er  Er4  1  0.247173  0.096495  0.492061  1
  Er  Er5  1  0.097043  0.246731  0.991932  1
  Er  Er6  1  0.903208  0.753110  0.008316  1
  Tm  Tm7  1  0.246185  0.902056  0.013016  1
  Re  Re8  1  0.994124  0.005769  0.250080  1
  Re  Re9  1  0.005986  0.994066  0.750348  1
  Br  Br10  1  0.420101  0.816902  0.407415  1
  Br  Br11  1  0.579949  0.183374  0.591248  1
  Br  Br12  1  0.183712  0.580536  0.091129  1
  Br  Br13  1  0.816864  0.419951  0.908570  1
  Br  Br14  1  0.415467  0.190874  0.093873  1
  Br  Br15  1  0.583747  0.809114  0.905852  1
  Br  Br16  1  0.808780  0.584473  0.405998  1
  Br  Br17  1  0.191741  0.415219  0.594051  1
