# generated using pymatgen
data_Ho10Co4IrPd
_symmetry_space_group_name_H-M   'P 1'
_cell_length_a   7.16517905
_cell_length_b   7.16517817
_cell_length_c   8.66531163
_cell_angle_alpha   114.42113563
_cell_angle_beta   114.42112834
_cell_angle_gamma   89.99999653
_symmetry_Int_Tables_number   1
_chemical_formula_structural   Ho10Co4IrPd
_chemical_formula_sum   'Ho10 Co4 Ir1 Pd1'
_cell_volume   360.90714946
_cell_formula_units_Z   1
loop_
 _symmetry_equiv_pos_site_id
 _symmetry_equiv_pos_as_xyz
  1  'x, y, z'
loop_
 _atom_site_type_symbol
 _atom_site_label
 _atom_site_symmetry_multiplicity
 _atom_site_fract_x
 _atom_site_fract_y
 _atom_site_fract_z
 _atom_site_occupancy
  Ho  Ho0  1  0.990834  0.990834  0.981668  1
  Ho  Ho1  1  0.509166  0.509166  0.018332  1
  Ho  Ho2  1  0.455780  0.307339  0.280080  1
  Ho  Ho3  1  0.972741  0.455780  0.280080  1
  Ho  Ho4  1  0.307339  0.824299  0.280080  1
  Ho  Ho5  1  0.824299  0.972741  0.280080  1
  Ho  Ho6  1  0.192661  0.044220  0.719919  1
  Ho  Ho7  1  0.675699  0.192661  0.719919  1
  Ho  Ho8  1  0.044220  0.527259  0.719919  1
  Ho  Ho9  1  0.527259  0.675699  0.719919  1
  Co  Co10  1  0.613532  0.113532  0.000000  1
  Co  Co11  1  0.113532  0.386469  0.000000  1
  Co  Co12  1  0.886468  0.613532  0.000000  1
  Co  Co13  1  0.386469  0.886468  0.000000  1
  Ir  Ir14  1  0.250000  0.250000  0.500000  1
  Pd  Pd15  1  0.750000  0.750000  0.500000  1
