# generated using pymatgen
data_SrLa(HgBi2)2
_symmetry_space_group_name_H-M   'P 1'
_cell_length_a   10.65537270
_cell_length_b   10.65537325
_cell_length_c   10.65537366
_cell_angle_alpha   153.33524736
_cell_angle_beta   153.33525631
_cell_angle_gamma   38.06653383
_symmetry_Int_Tables_number   1
_chemical_formula_structural   SrLa(HgBi2)2
_chemical_formula_sum   'Sr1 La1 Hg2 Bi4'
_cell_volume   243.25746078
_cell_formula_units_Z   1
loop_
 _symmetry_equiv_pos_site_id
 _symmetry_equiv_pos_as_xyz
  1  'x, y, z'
loop_
 _atom_site_type_symbol
 _atom_site_label
 _atom_site_symmetry_multiplicity
 _atom_site_fract_x
 _atom_site_fract_y
 _atom_site_fract_z
 _atom_site_occupancy
  Sr  Sr0  1  0.875721  0.875721  0.000000  1
  La  La1  1  0.126488  0.126488  0.000000  1
  Hg  Hg2  1  0.749712  0.249713  0.499999  1
  Hg  Hg3  1  0.249713  0.749712  0.499999  1
  Bi  Bi4  1  0.356857  0.356857  0.000000  1
  Bi  Bi5  1  0.636799  0.636799  0.000000  1
  Bi  Bi6  1  0.502353  0.002354  0.499999  1
  Bi  Bi7  1  0.002354  0.502353  0.499999  1
