# generated using pymatgen
data_PrP12Ru3Rh
_symmetry_space_group_name_H-M   'P 1'
_cell_length_a   7.03206872
_cell_length_b   7.03206987
_cell_length_c   7.03206866
_cell_angle_alpha   109.44633995
_cell_angle_beta   109.44634250
_cell_angle_gamma   109.44633220
_symmetry_Int_Tables_number   1
_chemical_formula_structural   PrP12Ru3Rh
_chemical_formula_sum   'Pr1 P12 Ru3 Rh1'
_cell_volume   267.93345491
_cell_formula_units_Z   1
loop_
 _symmetry_equiv_pos_site_id
 _symmetry_equiv_pos_as_xyz
  1  'x, y, z'
loop_
 _atom_site_type_symbol
 _atom_site_label
 _atom_site_symmetry_multiplicity
 _atom_site_fract_x
 _atom_site_fract_y
 _atom_site_fract_z
 _atom_site_occupancy
  Pr  Pr0  1  0.000000  0.000000  0.000000  1
  P  P1  1  0.787601  0.143922  0.644028  1
  P  P2  1  0.212399  0.856078  0.355972  1
  P  P3  1  0.500267  0.859462  0.645235  1
  P  P4  1  0.856078  0.355972  0.212399  1
  P  P5  1  0.645235  0.500267  0.859462  1
  P  P6  1  0.355972  0.212399  0.856078  1
  P  P7  1  0.143922  0.644028  0.787601  1
  P  P8  1  0.644028  0.787601  0.143922  1
  P  P9  1  0.859462  0.645235  0.500267  1
  P  P10  1  0.140538  0.354765  0.499733  1
  P  P11  1  0.499733  0.140538  0.354765  1
  P  P12  1  0.354765  0.499733  0.140538  1
  Ru  Ru13  1  0.000000  0.500000  0.000000  1
  Ru  Ru14  1  0.500000  0.000000  0.000000  1
  Ru  Ru15  1  0.000000  0.000000  0.500000  1
  Rh  Rh16  1  0.500000  0.500000  0.500000  1
