# generated using pymatgen
data_Hf4AlSbRh10
_symmetry_space_group_name_H-M   'P 1'
_cell_length_a   4.12742800
_cell_length_b   5.58360688
_cell_length_c   10.98552956
_cell_angle_alpha   90.34829518
_cell_angle_beta   90.00000000
_cell_angle_gamma   90.00000000
_symmetry_Int_Tables_number   1
_chemical_formula_structural   Hf4AlSbRh10
_chemical_formula_sum   'Hf4 Al1 Sb1 Rh10'
_cell_volume   253.16712683
_cell_formula_units_Z   1
loop_
 _symmetry_equiv_pos_site_id
 _symmetry_equiv_pos_as_xyz
  1  'x, y, z'
loop_
 _atom_site_type_symbol
 _atom_site_label
 _atom_site_symmetry_multiplicity
 _atom_site_fract_x
 _atom_site_fract_y
 _atom_site_fract_z
 _atom_site_occupancy
  Hf  Hf0  1  0.500000  0.180778  0.636668  1
  Hf  Hf1  1  0.500000  0.819222  0.363332  1
  Hf  Hf2  1  0.500000  0.674174  0.852990  1
  Hf  Hf3  1  0.500000  0.325826  0.147010  1
  Al  Al4  1  0.000000  0.500000  0.500000  1
  Sb  Sb5  1  0.000000  0.000000  0.000000  1
  Rh  Rh6  1  0.500000  0.197265  0.886898  1
  Rh  Rh7  1  0.500000  0.802735  0.113102  1
  Rh  Rh8  1  0.500000  0.687549  0.606322  1
  Rh  Rh9  1  0.500000  0.312451  0.393678  1
  Rh  Rh10  1  0.000000  0.432794  0.742410  1
  Rh  Rh11  1  0.000000  0.567206  0.257590  1
  Rh  Rh12  1  0.000000  0.000000  0.500000  1
  Rh  Rh13  1  0.000000  0.500000  0.000000  1
  Rh  Rh14  1  0.000000  0.068784  0.248399  1
  Rh  Rh15  1  0.000000  0.931216  0.751601  1
