# generated using pymatgen
data_Tb4ReTc3B16
_symmetry_space_group_name_H-M   'P 1'
_cell_length_a   3.61233000
_cell_length_b   5.98267556
_cell_length_c   11.58604609
_cell_angle_alpha   89.95021022
_cell_angle_beta   90.00000000
_cell_angle_gamma   90.00000000
_symmetry_Int_Tables_number   1
_chemical_formula_structural   Tb4ReTc3B16
_chemical_formula_sum   'Tb4 Re1 Tc3 B16'
_cell_volume   250.39056373
_cell_formula_units_Z   1
loop_
 _symmetry_equiv_pos_site_id
 _symmetry_equiv_pos_as_xyz
  1  'x, y, z'
loop_
 _atom_site_type_symbol
 _atom_site_label
 _atom_site_symmetry_multiplicity
 _atom_site_fract_x
 _atom_site_fract_y
 _atom_site_fract_z
 _atom_site_occupancy
  Tb  Tb0  1  0.000000  0.626778  0.349772  1
  Tb  Tb1  1  0.000000  0.373122  0.650257  1
  Tb  Tb2  1  0.000000  0.126671  0.149718  1
  Tb  Tb3  1  0.000000  0.873368  0.850456  1
  Re  Re4  1  0.000000  0.866422  0.587525  1
  Tc  Tc5  1  0.000000  0.633322  0.087286  1
  Tc  Tc6  1  0.000000  0.367024  0.912655  1
  Tc  Tc7  1  0.000000  0.133151  0.412738  1
  B  B8  1  0.500000  0.787106  0.184680  1
  B  B9  1  0.500000  0.213252  0.815376  1
  B  B10  1  0.500000  0.286930  0.315303  1
  B  B11  1  0.500000  0.713030  0.684915  1
  B  B12  1  0.500000  0.863442  0.031575  1
  B  B13  1  0.500000  0.136598  0.968495  1
  B  B14  1  0.500000  0.363200  0.468436  1
  B  B15  1  0.500000  0.636815  0.531242  1
  B  B16  1  0.500000  0.886953  0.452726  1
  B  B17  1  0.500000  0.113419  0.546808  1
  B  B18  1  0.500000  0.386754  0.047037  1
  B  B19  1  0.500000  0.613020  0.953101  1
  B  B20  1  0.500000  0.976724  0.307981  1
  B  B21  1  0.500000  0.023448  0.691832  1
  B  B22  1  0.500000  0.476363  0.191945  1
  B  B23  1  0.500000  0.523087  0.808142  1
