# generated using pymatgen
data_Tm7Hf12ScSi16
_symmetry_space_group_name_H-M   'P 1'
_cell_length_a   7.22699009
_cell_length_b   7.22856318
_cell_length_c   13.26362758
_cell_angle_alpha   90.02572802
_cell_angle_beta   90.04627009
_cell_angle_gamma   89.99142313
_symmetry_Int_Tables_number   1
_chemical_formula_structural   Tm7Hf12ScSi16
_chemical_formula_sum   'Tm7 Hf12 Sc1 Si16'
_cell_volume   692.90160798
_cell_formula_units_Z   1
loop_
 _symmetry_equiv_pos_site_id
 _symmetry_equiv_pos_as_xyz
  1  'x, y, z'
loop_
 _atom_site_type_symbol
 _atom_site_label
 _atom_site_symmetry_multiplicity
 _atom_site_fract_x
 _atom_site_fract_y
 _atom_site_fract_z
 _atom_site_occupancy
  Tm  Tm0  1  0.994792  0.343705  0.215889  1
  Tm  Tm1  1  0.003918  0.655435  0.715146  1
  Tm  Tm2  1  0.154988  0.495534  0.464668  1
  Tm  Tm3  1  0.504564  0.845380  0.035317  1
  Tm  Tm4  1  0.844579  0.504311  0.965638  1
  Tm  Tm5  1  0.495976  0.155483  0.534097  1
  Tm  Tm6  1  0.344596  0.995915  0.784691  1
  Hf  Hf7  1  0.175310  0.174789  0.000642  1
  Hf  Hf8  1  0.824517  0.825715  0.499283  1
  Hf  Hf9  1  0.325807  0.675779  0.249957  1
  Hf  Hf10  1  0.674908  0.325053  0.749981  1
  Hf  Hf11  1  0.147435  0.996943  0.374491  1
  Hf  Hf12  1  0.852297  0.003390  0.874748  1
  Hf  Hf13  1  0.503416  0.647988  0.623925  1
  Hf  Hf14  1  0.352322  0.496652  0.875671  1
  Hf  Hf15  1  0.498104  0.352216  0.125322  1
  Hf  Hf16  1  0.647807  0.503492  0.375199  1
  Hf  Hf17  1  0.996195  0.147747  0.624642  1
  Hf  Hf18  1  0.003541  0.853642  0.126197  1
  Sc  Sc19  1  0.652501  0.000777  0.285969  1
  Si  Si20  1  0.361822  0.293202  0.318081  1
  Si  Si21  1  0.639896  0.704795  0.817798  1
  Si  Si22  1  0.205007  0.860030  0.567527  1
  Si  Si23  1  0.140128  0.795266  0.932476  1
  Si  Si24  1  0.794835  0.140148  0.068209  1
  Si  Si25  1  0.856763  0.202173  0.429662  1
  Si  Si26  1  0.295178  0.360017  0.682002  1
  Si  Si27  1  0.704205  0.642690  0.183117  1
  Si  Si28  1  0.300384  0.048172  0.186652  1
  Si  Si29  1  0.702972  0.951198  0.685389  1
  Si  Si30  1  0.453042  0.798983  0.434280  1
  Si  Si31  1  0.203246  0.548768  0.064826  1
  Si  Si32  1  0.548867  0.202969  0.935800  1
  Si  Si33  1  0.797022  0.450907  0.564024  1
  Si  Si34  1  0.048802  0.296902  0.814444  1
  Si  Si35  1  0.950263  0.703836  0.314240  1
