# generated using pymatgen
data_Tm8ReB24Mo2Os
_symmetry_space_group_name_H-M   'P 1'
_cell_length_a   3.62443800
_cell_length_b   9.14616223
_cell_length_c   11.51487514
_cell_angle_alpha   90.05784574
_cell_angle_beta   90.00000000
_cell_angle_gamma   90.00000000
_symmetry_Int_Tables_number   1
_chemical_formula_structural   Tm8ReB24Mo2Os
_chemical_formula_sum   'Tm8 Re1 B24 Mo2 Os1'
_cell_volume   381.71443820
_cell_formula_units_Z   1
loop_
 _symmetry_equiv_pos_site_id
 _symmetry_equiv_pos_as_xyz
  1  'x, y, z'
loop_
 _atom_site_type_symbol
 _atom_site_label
 _atom_site_symmetry_multiplicity
 _atom_site_fract_x
 _atom_site_fract_y
 _atom_site_fract_z
 _atom_site_occupancy
  Tm  Tm0  1  0.000000  0.322343  0.414143  1
  Tm  Tm1  1  0.000000  0.680162  0.587125  1
  Tm  Tm2  1  0.000000  0.821965  0.083949  1
  Tm  Tm3  1  0.000000  0.176253  0.913163  1
  Tm  Tm4  1  0.000000  0.941350  0.371174  1
  Tm  Tm5  1  0.000000  0.055088  0.629064  1
  Tm  Tm6  1  0.000000  0.444556  0.129375  1
  Tm  Tm7  1  0.000000  0.558385  0.871739  1
  Re  Re8  1  0.000000  0.861044  0.820322  1
  B  B9  1  0.500000  0.553816  0.432563  1
  B  B10  1  0.500000  0.448967  0.564391  1
  B  B11  1  0.500000  0.051267  0.064709  1
  B  B12  1  0.500000  0.947038  0.932557  1
  B  B13  1  0.500000  0.748342  0.418993  1
  B  B14  1  0.500000  0.247929  0.578787  1
  B  B15  1  0.500000  0.251633  0.078830  1
  B  B16  1  0.500000  0.751211  0.919176  1
  B  B17  1  0.500000  0.791000  0.265302  1
  B  B18  1  0.500000  0.205503  0.735781  1
  B  B19  1  0.500000  0.294849  0.236542  1
  B  B20  1  0.500000  0.708109  0.765814  1
  B  B21  1  0.500000  0.630675  0.185442  1
  B  B22  1  0.500000  0.369942  0.816650  1
  B  B23  1  0.500000  0.130111  0.317570  1
  B  B24  1  0.500000  0.869302  0.685474  1
  B  B25  1  0.500000  0.977303  0.212172  1
  B  B26  1  0.500000  0.018241  0.787837  1
  B  B27  1  0.500000  0.482609  0.288228  1
  B  B28  1  0.500000  0.522500  0.712446  1
  B  B29  1  0.500000  0.601611  0.028775  1
  B  B30  1  0.500000  0.400181  0.972352  1
  B  B31  1  0.500000  0.099191  0.471977  1
  B  B32  1  0.500000  0.897791  0.528110  1
  Mo  Mo33  1  0.000000  0.362267  0.678701  1
  Mo  Mo34  1  0.000000  0.138583  0.180253  1
  Os  Os35  1  0.000000  0.638882  0.320511  1
