# generated using pymatgen
data_Sm3Cd2Sb3O14
_symmetry_space_group_name_H-M   'P 1'
_cell_length_a   7.38684253
_cell_length_b   7.38684247
_cell_length_c   7.38684017
_cell_angle_alpha   117.87790176
_cell_angle_beta   62.12210337
_cell_angle_gamma   117.87787592
_symmetry_Int_Tables_number   1
_chemical_formula_structural   Sm3Cd2Sb3O14
_chemical_formula_sum   'Sm3 Cd2 Sb3 O14'
_cell_volume   298.52726312
_cell_formula_units_Z   1
loop_
 _symmetry_equiv_pos_site_id
 _symmetry_equiv_pos_as_xyz
  1  'x, y, z'
loop_
 _atom_site_type_symbol
 _atom_site_label
 _atom_site_symmetry_multiplicity
 _atom_site_fract_x
 _atom_site_fract_y
 _atom_site_fract_z
 _atom_site_occupancy
  Sm  Sm0  1  0.000000  0.499999  0.999997  1
  Sm  Sm1  1  0.500000  0.000001  0.000000  1
  Sm  Sm2  1  0.499998  0.500000  0.500000  1
  Cd  Cd3  1  0.500000  0.500002  0.000000  1
  Cd  Cd4  1  0.000001  0.000000  0.500001  1
  Sb  Sb5  1  0.499998  0.000002  0.499996  1
  Sb  Sb6  1  0.000004  0.499996  0.500005  1
  Sb  Sb7  1  0.999997  0.000001  0.999999  1
  O  O8  1  0.621057  0.378944  0.121056  1
  O  O9  1  0.378944  0.621057  0.878943  1
  O  O10  1  0.080508  0.315836  0.184164  1
  O  O11  1  0.684164  0.919492  0.184164  1
  O  O12  1  0.684164  0.315836  0.580510  1
  O  O13  1  0.919494  0.684164  0.815835  1
  O  O14  1  0.315836  0.080506  0.815836  1
  O  O15  1  0.315836  0.684164  0.419494  1
  O  O16  1  0.630702  0.899665  0.600335  1
  O  O17  1  0.100333  0.369302  0.600333  1
  O  O18  1  0.100335  0.899664  0.130701  1
  O  O19  1  0.369303  0.100335  0.399666  1
  O  O20  1  0.899664  0.630701  0.399663  1
  O  O21  1  0.899666  0.100335  0.869302  1
