# generated using pymatgen
data_K6VBrO5
_symmetry_space_group_name_H-M   'P 1'
_cell_length_a   7.70585286
_cell_length_b   7.70585351
_cell_length_c   7.70585400
_cell_angle_alpha   59.99999790
_cell_angle_beta   59.99999509
_cell_angle_gamma   59.99999954
_symmetry_Int_Tables_number   1
_chemical_formula_structural   K6VBrO5
_chemical_formula_sum   'K6 V1 Br1 O5'
_cell_volume   323.55432874
_cell_formula_units_Z   1
loop_
 _symmetry_equiv_pos_site_id
 _symmetry_equiv_pos_as_xyz
  1  'x, y, z'
loop_
 _atom_site_type_symbol
 _atom_site_label
 _atom_site_symmetry_multiplicity
 _atom_site_fract_x
 _atom_site_fract_y
 _atom_site_fract_z
 _atom_site_occupancy
  K  K0  1  0.487734  0.487734  0.012266  1
  K  K1  1  0.487735  0.012265  0.012265  1
  K  K2  1  0.012265  0.487735  0.012265  1
  K  K3  1  0.487734  0.012266  0.487734  1
  K  K4  1  0.012265  0.012265  0.487735  1
  K  K5  1  0.012266  0.487734  0.487734  1
  V  V6  1  0.500000  0.500000  0.500000  1
  Br  Br7  1  0.000000  0.000000  0.000000  1
  O  O8  1  0.593039  0.593039  0.220883  1
  O  O9  1  0.250000  0.250000  0.250000  1
  O  O10  1  0.593039  0.220883  0.593039  1
  O  O11  1  0.220883  0.593039  0.593039  1
  O  O12  1  0.593039  0.593039  0.593039  1
