# generated using pymatgen
data_Er16In4Ru2PtRh
_symmetry_space_group_name_H-M   'P 1'
_cell_length_a   9.61273309
_cell_length_b   9.59527877
_cell_length_c   9.59527906
_cell_angle_alpha   59.92477513
_cell_angle_beta   59.98972247
_cell_angle_gamma   59.98973076
_symmetry_Int_Tables_number   1
_chemical_formula_structural   Er16In4Ru2PtRh
_chemical_formula_sum   'Er16 In4 Ru2 Pt1 Rh1'
_cell_volume   625.36303046
_cell_formula_units_Z   1
loop_
 _symmetry_equiv_pos_site_id
 _symmetry_equiv_pos_as_xyz
  1  'x, y, z'
loop_
 _atom_site_type_symbol
 _atom_site_label
 _atom_site_symmetry_multiplicity
 _atom_site_fract_x
 _atom_site_fract_y
 _atom_site_fract_z
 _atom_site_occupancy
  Er  Er0  1  0.186530  0.196587  0.809868  1
  Er  Er1  1  0.437964  0.062641  0.062641  1
  Er  Er2  1  0.442453  0.060215  0.435818  1
  Er  Er3  1  0.060688  0.437775  0.058987  1
  Er  Er4  1  0.652297  0.048226  0.648150  1
  Er  Er5  1  0.189266  0.808728  0.808728  1
  Er  Er6  1  0.060688  0.058987  0.437775  1
  Er  Er7  1  0.809820  0.191321  0.191321  1
  Er  Er8  1  0.809085  0.809554  0.193631  1
  Er  Er9  1  0.652297  0.648150  0.048226  1
  Er  Er10  1  0.654855  0.649499  0.649499  1
  Er  Er11  1  0.060758  0.439694  0.439694  1
  Er  Er12  1  0.045944  0.649689  0.649689  1
  Er  Er13  1  0.809085  0.193631  0.809554  1
  Er  Er14  1  0.442453  0.435818  0.060215  1
  Er  Er15  1  0.186530  0.809868  0.196587  1
  In  In16  1  0.417527  0.748008  0.417099  1
  In  In17  1  0.417527  0.417099  0.748008  1
  In  In18  1  0.750625  0.415911  0.415911  1
  In  In19  1  0.416247  0.417419  0.417419  1
  Ru  Ru20  1  0.857929  0.423592  0.858833  1
  Ru  Ru21  1  0.857929  0.858833  0.423592  1
  Pt  Pt22  1  0.423221  0.859010  0.859010  1
  Rh  Rh23  1  0.858279  0.859743  0.859743  1
