# generated using pymatgen
data_Ac3Mg3Ag2Os
_symmetry_space_group_name_H-M   'P 1'
_cell_length_a   8.11287000
_cell_length_b   8.11287128
_cell_length_c   4.30470000
_cell_angle_alpha   90.00000000
_cell_angle_beta   90.00000000
_cell_angle_gamma   120.00000183
_symmetry_Int_Tables_number   1
_chemical_formula_structural   Ac3Mg3Ag2Os
_chemical_formula_sum   'Ac3 Mg3 Ag2 Os1'
_cell_volume   245.37065182
_cell_formula_units_Z   1
loop_
 _symmetry_equiv_pos_site_id
 _symmetry_equiv_pos_as_xyz
  1  'x, y, z'
loop_
 _atom_site_type_symbol
 _atom_site_label
 _atom_site_symmetry_multiplicity
 _atom_site_fract_x
 _atom_site_fract_y
 _atom_site_fract_z
 _atom_site_occupancy
  Ac  Ac0  1  0.566308  0.971576  0.000000  1
  Ac  Ac1  1  0.028424  0.594733  0.000000  1
  Ac  Ac2  1  0.405267  0.433692  0.000000  1
  Mg  Mg3  1  0.239326  0.996820  0.500000  1
  Mg  Mg4  1  0.003180  0.242506  0.500000  1
  Mg  Mg5  1  0.757494  0.760674  0.500000  1
  Ag  Ag6  1  0.666667  0.333333  0.500000  1
  Ag  Ag7  1  0.000000  0.000000  0.000000  1
  Os  Os8  1  0.333333  0.666667  0.500000  1
