# generated using pymatgen
data_Er11Tm9(IrPt)6
_symmetry_space_group_name_H-M   'P 1'
_cell_length_a   10.91746741
_cell_length_b   10.91124801
_cell_length_c   6.28815126
_cell_angle_alpha   89.99976542
_cell_angle_beta   90.04054508
_cell_angle_gamma   89.99581095
_symmetry_Int_Tables_number   1
_chemical_formula_structural   Er11Tm9(IrPt)6
_chemical_formula_sum   'Er11 Tm9 Ir6 Pt6'
_cell_volume   749.06447625
_cell_formula_units_Z   1
loop_
 _symmetry_equiv_pos_site_id
 _symmetry_equiv_pos_as_xyz
  1  'x, y, z'
loop_
 _atom_site_type_symbol
 _atom_site_label
 _atom_site_symmetry_multiplicity
 _atom_site_fract_x
 _atom_site_fract_y
 _atom_site_fract_z
 _atom_site_occupancy
  Er  Er0  1  0.295239  0.090329  0.373839  1
  Er  Er1  1  0.295225  0.909677  0.873836  1
  Er  Er2  1  0.704409  0.087037  0.872922  1
  Er  Er3  1  0.704419  0.912952  0.372955  1
  Er  Er4  1  0.583581  0.792120  0.873338  1
  Er  Er5  1  0.583539  0.207830  0.373428  1
  Er  Er6  1  0.410983  0.793203  0.378328  1
  Er  Er7  1  0.410993  0.206799  0.878353  1
  Er  Er8  1  0.209249  0.414438  0.623436  1
  Er  Er9  1  0.209263  0.585546  0.123441  1
  Er  Er10  1  0.795398  0.412733  0.124677  1
  Tm  Tm11  1  0.795598  0.587279  0.624627  1
  Tm  Tm12  1  0.914164  0.704387  0.126352  1
  Tm  Tm13  1  0.914177  0.295665  0.626373  1
  Tm  Tm14  1  0.091092  0.704298  0.626448  1
  Tm  Tm15  1  0.091187  0.295714  0.126437  1
  Tm  Tm16  1  0.999779  0.999716  0.499882  1
  Tm  Tm17  1  0.999760  0.000298  0.999852  1
  Tm  Tm18  1  0.497187  0.499000  0.999988  1
  Tm  Tm19  1  0.497264  0.501050  0.500064  1
  Ir  Ir20  1  0.346570  0.345630  0.250373  1
  Ir  Ir21  1  0.346538  0.654369  0.750374  1
  Ir  Ir22  1  0.500102  0.999803  0.121356  1
  Ir  Ir23  1  0.500106  0.000187  0.621339  1
  Ir  Ir24  1  0.999654  0.500338  0.878590  1
  Ir  Ir25  1  0.999633  0.499800  0.378869  1
  Pt  Pt26  1  0.845393  0.153491  0.251180  1
  Pt  Pt27  1  0.845348  0.846299  0.751089  1
  Pt  Pt28  1  0.152370  0.153890  0.749442  1
  Pt  Pt29  1  0.152356  0.846099  0.249454  1
  Pt  Pt30  1  0.654676  0.346677  0.749468  1
  Pt  Pt31  1  0.654749  0.653346  0.249889  1
