# generated using pymatgen
data_Tb20Zn3Si12Ag
_symmetry_space_group_name_H-M   'P 1'
_cell_length_a   7.31903100
_cell_length_b   7.94296607
_cell_length_c   14.72356500
_cell_angle_alpha   90.00000000
_cell_angle_beta   90.00000000
_cell_angle_gamma   89.93523809
_symmetry_Int_Tables_number   1
_chemical_formula_structural   Tb20Zn3Si12Ag
_chemical_formula_sum   'Tb20 Zn3 Si12 Ag1'
_cell_volume   855.95117956
_cell_formula_units_Z   1
loop_
 _symmetry_equiv_pos_site_id
 _symmetry_equiv_pos_as_xyz
  1  'x, y, z'
loop_
 _atom_site_type_symbol
 _atom_site_label
 _atom_site_symmetry_multiplicity
 _atom_site_fract_x
 _atom_site_fract_y
 _atom_site_fract_z
 _atom_site_occupancy
  Tb  Tb0  1  0.683523  0.173903  0.623421  1
  Tb  Tb1  1  0.183676  0.325351  0.876548  1
  Tb  Tb2  1  0.318056  0.826678  0.122205  1
  Tb  Tb3  1  0.812213  0.670327  0.378362  1
  Tb  Tb4  1  0.318056  0.826678  0.377795  1
  Tb  Tb5  1  0.812213  0.670327  0.121638  1
  Tb  Tb6  1  0.683523  0.173903  0.876579  1
  Tb  Tb7  1  0.183676  0.325351  0.623452  1
  Tb  Tb8  1  0.520395  0.687818  0.587265  1
  Tb  Tb9  1  0.020687  0.810375  0.912755  1
  Tb  Tb10  1  0.479380  0.311822  0.087430  1
  Tb  Tb11  1  0.979859  0.190900  0.413483  1
  Tb  Tb12  1  0.479380  0.311822  0.412570  1
  Tb  Tb13  1  0.979859  0.190900  0.086517  1
  Tb  Tb14  1  0.520395  0.687818  0.912735  1
  Tb  Tb15  1  0.020687  0.810375  0.587245  1
  Tb  Tb16  1  0.844155  0.528332  0.750000  1
  Tb  Tb17  1  0.344406  0.970545  0.750000  1
  Tb  Tb18  1  0.153494  0.473762  0.250000  1
  Tb  Tb19  1  0.654095  0.027249  0.250000  1
  Zn  Zn20  1  0.476347  0.402668  0.750000  1
  Zn  Zn21  1  0.976317  0.095607  0.750000  1
  Zn  Zn22  1  0.522079  0.597760  0.250000  1
  Si  Si23  1  0.656444  0.971460  0.460020  1
  Si  Si24  1  0.154872  0.528314  0.039835  1
  Si  Si25  1  0.345487  0.027699  0.958977  1
  Si  Si26  1  0.846629  0.470973  0.541064  1
  Si  Si27  1  0.345487  0.027699  0.541023  1
  Si  Si28  1  0.846629  0.470973  0.958936  1
  Si  Si29  1  0.656444  0.971460  0.039980  1
  Si  Si30  1  0.154872  0.528314  0.460165  1
  Si  Si31  1  0.731140  0.874884  0.750000  1
  Si  Si32  1  0.230907  0.624375  0.750000  1
  Si  Si33  1  0.275577  0.132437  0.250000  1
  Si  Si34  1  0.767336  0.374988  0.250000  1
  Ag  Ag35  1  0.021701  0.906152  0.250000  1
