# generated using pymatgen
data_La13YPd5Ru
_symmetry_space_group_name_H-M   'P 1'
_cell_length_a   10.32666940
_cell_length_b   10.32666925
_cell_length_c   6.59837419
_cell_angle_alpha   89.96145975
_cell_angle_beta   90.03853913
_cell_angle_gamma   120.41036919
_symmetry_Int_Tables_number   1
_chemical_formula_structural   La13YPd5Ru
_chemical_formula_sum   'La13 Y1 Pd5 Ru1'
_cell_volume   606.84421402
_cell_formula_units_Z   1
loop_
 _symmetry_equiv_pos_site_id
 _symmetry_equiv_pos_as_xyz
  1  'x, y, z'
loop_
 _atom_site_type_symbol
 _atom_site_label
 _atom_site_symmetry_multiplicity
 _atom_site_fract_x
 _atom_site_fract_y
 _atom_site_fract_z
 _atom_site_occupancy
  La  La0  1  0.669568  0.330432  0.965655  1
  La  La1  1  0.128438  0.871562  0.240590  1
  La  La2  1  0.749820  0.884981  0.240906  1
  La  La3  1  0.115019  0.250180  0.240906  1
  La  La4  1  0.873416  0.126584  0.746971  1
  La  La5  1  0.252298  0.125260  0.740962  1
  La  La6  1  0.874740  0.747702  0.740962  1
  La  La7  1  0.535744  0.464256  0.445917  1
  La  La8  1  0.919308  0.452296  0.439410  1
  La  La9  1  0.547704  0.080692  0.439410  1
  La  La10  1  0.460743  0.539257  0.950988  1
  La  La11  1  0.078672  0.537054  0.943759  1
  La  La12  1  0.462946  0.921328  0.943759  1
  Y  Y13  1  0.333096  0.666904  0.452691  1
  Pd  Pd14  1  0.373565  0.188970  0.191198  1
  Pd  Pd15  1  0.811030  0.626435  0.191198  1
  Pd  Pd16  1  0.189759  0.810241  0.689655  1
  Pd  Pd17  1  0.619564  0.807694  0.690169  1
  Pd  Pd18  1  0.192306  0.380436  0.690169  1
  Ru  Ru19  1  0.812264  0.187736  0.200513  1
