# generated using pymatgen
data_Cs6TbNdI12
_symmetry_space_group_name_H-M   'P 1'
_cell_length_a   10.71574535
_cell_length_b   10.73067641
_cell_length_c   8.89697000
_cell_angle_alpha   90.00000000
_cell_angle_beta   90.00000000
_cell_angle_gamma   89.92528091
_symmetry_Int_Tables_number   1
_chemical_formula_structural   Cs6TbNdI12
_chemical_formula_sum   'Cs6 Tb1 Nd1 I12'
_cell_volume   1023.03676233
_cell_formula_units_Z   1
loop_
 _symmetry_equiv_pos_site_id
 _symmetry_equiv_pos_as_xyz
  1  'x, y, z'
loop_
 _atom_site_type_symbol
 _atom_site_label
 _atom_site_symmetry_multiplicity
 _atom_site_fract_x
 _atom_site_fract_y
 _atom_site_fract_z
 _atom_site_occupancy
  Cs  Cs0  1  0.000000  0.000000  0.500000  1
  Cs  Cs1  1  0.000000  0.000000  0.000000  1
  Cs  Cs2  1  0.234856  0.587016  0.500000  1
  Cs  Cs3  1  0.765144  0.412984  0.500000  1
  Cs  Cs4  1  0.412872  0.231496  0.000000  1
  Cs  Cs5  1  0.587128  0.768504  0.000000  1
  Tb  Tb6  1  0.500000  0.000000  0.500000  1
  Nd  Nd7  1  0.000000  0.500000  0.000000  1
  I  I8  1  0.694678  0.058748  0.743800  1
  I  I9  1  0.305322  0.941252  0.743800  1
  I  I10  1  0.939877  0.698615  0.248105  1
  I  I11  1  0.060123  0.301385  0.248105  1
  I  I12  1  0.305322  0.941252  0.256200  1
  I  I13  1  0.694678  0.058748  0.256200  1
  I  I14  1  0.060123  0.301385  0.751895  1
  I  I15  1  0.939877  0.698615  0.751895  1
  I  I16  1  0.570029  0.724232  0.500000  1
  I  I17  1  0.429971  0.275768  0.500000  1
  I  I18  1  0.281545  0.570410  0.000000  1
  I  I19  1  0.718455  0.429590  0.000000  1
