# generated using pymatgen
data_ThAlSi2Rh
_symmetry_space_group_name_H-M   'P 1'
_cell_length_a   6.00259078
_cell_length_b   6.00259053
_cell_length_c   6.00259111
_cell_angle_alpha   140.21219255
_cell_angle_beta   140.21219266
_cell_angle_gamma   57.53125377
_symmetry_Int_Tables_number   1
_chemical_formula_structural   ThAlSi2Rh
_chemical_formula_sum   'Th1 Al1 Si2 Rh1'
_cell_volume   87.81061884
_cell_formula_units_Z   1
loop_
 _symmetry_equiv_pos_site_id
 _symmetry_equiv_pos_as_xyz
  1  'x, y, z'
loop_
 _atom_site_type_symbol
 _atom_site_label
 _atom_site_symmetry_multiplicity
 _atom_site_fract_x
 _atom_site_fract_y
 _atom_site_fract_z
 _atom_site_occupancy
  Th  Th0  1  0.000000  0.000000  0.000000  1
  Al  Al1  1  0.750000  0.250000  0.500000  1
  Si  Si2  1  0.386518  0.386518  0.000000  1
  Si  Si3  1  0.613482  0.613482  0.000000  1
  Rh  Rh4  1  0.250000  0.750000  0.500000  1
