# generated using pymatgen
data_Tb5Mg(Ni7B2)2
_symmetry_space_group_name_H-M   'P 1'
_cell_length_a   5.03281111
_cell_length_b   5.03534769
_cell_length_c   14.29710801
_cell_angle_alpha   89.99687469
_cell_angle_beta   89.99893386
_cell_angle_gamma   120.00236033
_symmetry_Int_Tables_number   1
_chemical_formula_structural   Tb5Mg(Ni7B2)2
_chemical_formula_sum   'Tb5 Mg1 Ni14 B4'
_cell_volume   313.76795959
_cell_formula_units_Z   1
loop_
 _symmetry_equiv_pos_site_id
 _symmetry_equiv_pos_as_xyz
  1  'x, y, z'
loop_
 _atom_site_type_symbol
 _atom_site_label
 _atom_site_symmetry_multiplicity
 _atom_site_fract_x
 _atom_site_fract_y
 _atom_site_fract_z
 _atom_site_occupancy
  Tb  Tb0  1  0.333534  0.666867  0.973496  1
  Tb  Tb1  1  0.333391  0.666715  0.533097  1
  Tb  Tb2  1  0.666644  0.333301  0.465037  1
  Tb  Tb3  1  0.666673  0.333325  0.241842  1
  Tb  Tb4  1  0.333284  0.666620  0.752700  1
  Mg  Mg5  1  0.666678  0.333325  0.029928  1
  Ni  Ni6  1  0.834583  0.669203  0.649536  1
  Ni  Ni7  1  0.834605  0.165348  0.649519  1
  Ni  Ni8  1  0.330694  0.165332  0.649446  1
  Ni  Ni9  1  0.165621  0.331201  0.350042  1
  Ni  Ni10  1  0.165639  0.834388  0.350064  1
  Ni  Ni11  1  0.668742  0.834363  0.350071  1
  Ni  Ni12  1  0.164968  0.329988  0.147025  1
  Ni  Ni13  1  0.165016  0.834892  0.147012  1
  Ni  Ni14  1  0.669742  0.834855  0.146983  1
  Ni  Ni15  1  0.834131  0.668234  0.853450  1
  Ni  Ni16  1  0.834104  0.165946  0.853485  1
  Ni  Ni17  1  0.331843  0.165948  0.853455  1
  Ni  Ni18  1  0.999988  0.999965  0.500077  1
  Ni  Ni19  1  0.000198  0.000269  0.000969  1
  B  B20  1  0.666567  0.333248  0.750799  1
  B  B21  1  0.333404  0.666716  0.249313  1
  B  B22  1  0.000080  0.000085  0.753280  1
  B  B23  1  0.999870  0.999866  0.249373  1
