# generated using pymatgen
data_Tb2Lu8HgBi5
_symmetry_space_group_name_H-M   'P 1'
_cell_length_a   8.11317400
_cell_length_b   9.35305300
_cell_length_c   11.88044700
_cell_angle_alpha   90.00000000
_cell_angle_beta   90.00000000
_cell_angle_gamma   90.00000000
_symmetry_Int_Tables_number   1
_chemical_formula_structural   Tb2Lu8HgBi5
_chemical_formula_sum   'Tb4 Lu16 Hg2 Bi10'
_cell_volume   901.52332315
_cell_formula_units_Z   2
loop_
 _symmetry_equiv_pos_site_id
 _symmetry_equiv_pos_as_xyz
  1  'x, y, z'
loop_
 _atom_site_type_symbol
 _atom_site_label
 _atom_site_symmetry_multiplicity
 _atom_site_fract_x
 _atom_site_fract_y
 _atom_site_fract_z
 _atom_site_occupancy
  Tb  Tb0  1  0.311641  0.250000  0.217128  1
  Tb  Tb1  1  0.811641  0.250000  0.282872  1
  Tb  Tb2  1  0.683172  0.750000  0.785014  1
  Tb  Tb3  1  0.183172  0.750000  0.714986  1
  Lu  Lu4  1  0.352215  0.750000  0.209910  1
  Lu  Lu5  1  0.852215  0.750000  0.290090  1
  Lu  Lu6  1  0.652474  0.250000  0.781756  1
  Lu  Lu7  1  0.152474  0.250000  0.718244  1
  Lu  Lu8  1  0.686330  0.570939  0.058999  1
  Lu  Lu9  1  0.186330  0.929061  0.441001  1
  Lu  Lu10  1  0.307675  0.054881  0.940199  1
  Lu  Lu11  1  0.807675  0.445119  0.559801  1
  Lu  Lu12  1  0.307675  0.445119  0.940199  1
  Lu  Lu13  1  0.807675  0.054881  0.559801  1
  Lu  Lu14  1  0.686330  0.929061  0.058999  1
  Lu  Lu15  1  0.186330  0.570939  0.441001  1
  Lu  Lu16  1  0.480249  0.250000  0.490236  1
  Lu  Lu17  1  0.980249  0.250000  0.009764  1
  Lu  Lu18  1  0.532161  0.750000  0.508616  1
  Lu  Lu19  1  0.032161  0.750000  0.991384  1
  Hg  Hg20  1  0.404258  0.750000  0.960797  1
  Hg  Hg21  1  0.904258  0.750000  0.539203  1
  Bi  Bi22  1  0.597515  0.250000  0.039690  1
  Bi  Bi23  1  0.097515  0.250000  0.460310  1
  Bi  Bi24  1  0.559604  0.995414  0.324789  1
  Bi  Bi25  1  0.059604  0.504586  0.175211  1
  Bi  Bi26  1  0.439548  0.495745  0.675161  1
  Bi  Bi27  1  0.939548  0.004255  0.824839  1
  Bi  Bi28  1  0.439548  0.004255  0.675161  1
  Bi  Bi29  1  0.939548  0.495745  0.824839  1
  Bi  Bi30  1  0.559604  0.504586  0.324789  1
  Bi  Bi31  1  0.059604  0.995414  0.175211  1
