# generated using pymatgen
data_Nd5Sm(CI5)2
_symmetry_space_group_name_H-M   'P 1'
_cell_length_a   7.92143413
_cell_length_b   9.72053885
_cell_length_c   9.81368173
_cell_angle_alpha   107.06837584
_cell_angle_beta   96.74072279
_cell_angle_gamma   104.40976317
_symmetry_Int_Tables_number   1
_chemical_formula_structural   Nd5Sm(CI5)2
_chemical_formula_sum   'Nd5 Sm1 C2 I10'
_cell_volume   684.69476483
_cell_formula_units_Z   1
loop_
 _symmetry_equiv_pos_site_id
 _symmetry_equiv_pos_as_xyz
  1  'x, y, z'
loop_
 _atom_site_type_symbol
 _atom_site_label
 _atom_site_symmetry_multiplicity
 _atom_site_fract_x
 _atom_site_fract_y
 _atom_site_fract_z
 _atom_site_occupancy
  Nd  Nd0  1  0.106308  0.039825  0.776702  1
  Nd  Nd1  1  0.374110  0.133563  0.180232  1
  Nd  Nd2  1  0.892928  0.959731  0.222767  1
  Nd  Nd3  1  0.030843  0.735479  0.923430  1
  Nd  Nd4  1  0.968653  0.264486  0.076154  1
  Sm  Sm5  1  0.627372  0.866932  0.820705  1
  C  C6  1  0.910949  0.969874  0.958488  1
  C  C7  1  0.086160  0.029287  0.040216  1
  I  I8  1  0.193441  0.734387  0.645473  1
  I  I9  1  0.088171  0.369682  0.820262  1
  I  I10  1  0.458242  0.808362  0.090090  1
  I  I11  1  0.254560  0.084559  0.461223  1
  I  I12  1  0.543608  0.188797  0.906393  1
  I  I13  1  0.810244  0.266507  0.355955  1
  I  I14  1  0.344923  0.456552  0.274024  1
  I  I15  1  0.912687  0.630638  0.179909  1
  I  I16  1  0.653609  0.546574  0.726614  1
  I  I17  1  0.743193  0.914764  0.541362  1
