# generated using pymatgen
data_Th3Si6(Pd9Pt)2
_symmetry_space_group_name_H-M   'P 1'
_cell_length_a   8.81195395
_cell_length_b   8.81195413
_cell_length_c   8.81195423
_cell_angle_alpha   59.80087950
_cell_angle_beta   59.80088270
_cell_angle_gamma   59.80088270
_symmetry_Int_Tables_number   1
_chemical_formula_structural   Th3Si6(Pd9Pt)2
_chemical_formula_sum   'Th3 Si6 Pd18 Pt2'
_cell_volume   481.65288137
_cell_formula_units_Z   1
loop_
 _symmetry_equiv_pos_site_id
 _symmetry_equiv_pos_as_xyz
  1  'x, y, z'
loop_
 _atom_site_type_symbol
 _atom_site_label
 _atom_site_symmetry_multiplicity
 _atom_site_fract_x
 _atom_site_fract_y
 _atom_site_fract_z
 _atom_site_occupancy
  Th  Th0  1  0.250327  0.250327  0.250327  1
  Th  Th1  1  0.749673  0.749673  0.749673  1
  Th  Th2  1  0.000000  0.000000  0.000000  1
  Si  Si3  1  0.730385  0.268656  0.268656  1
  Si  Si4  1  0.269615  0.731344  0.731344  1
  Si  Si5  1  0.268656  0.730385  0.268656  1
  Si  Si6  1  0.731344  0.269615  0.731344  1
  Si  Si7  1  0.268656  0.268656  0.730385  1
  Si  Si8  1  0.731344  0.731344  0.269615  1
  Pd  Pd9  1  0.382376  0.382376  0.849137  1
  Pd  Pd10  1  0.382376  0.849137  0.382376  1
  Pd  Pd11  1  0.617624  0.617624  0.150863  1
  Pd  Pd12  1  0.617624  0.150863  0.617624  1
  Pd  Pd13  1  0.849137  0.382376  0.382376  1
  Pd  Pd14  1  0.150863  0.617624  0.617624  1
  Pd  Pd15  1  0.346255  0.999858  0.999858  1
  Pd  Pd16  1  0.653745  0.000142  0.000142  1
  Pd  Pd17  1  0.000000  0.346042  0.653958  1
  Pd  Pd18  1  0.000000  0.653958  0.346042  1
  Pd  Pd19  1  0.999858  0.346255  0.999858  1
  Pd  Pd20  1  0.653958  0.000000  0.346042  1
  Pd  Pd21  1  0.000142  0.653745  0.000142  1
  Pd  Pd22  1  0.346042  0.000000  0.653958  1
  Pd  Pd23  1  0.999858  0.999858  0.346255  1
  Pd  Pd24  1  0.000142  0.000142  0.653745  1
  Pd  Pd25  1  0.653958  0.346042  0.000000  1
  Pd  Pd26  1  0.346042  0.653958  0.000000  1
  Pt  Pt27  1  0.385284  0.385284  0.385284  1
  Pt  Pt28  1  0.614716  0.614716  0.614716  1
