# generated using pymatgen
data_CeAlSiPd
_symmetry_space_group_name_H-M   'P 1'
_cell_length_a   9.18133200
_cell_length_b   9.18133235
_cell_length_c   4.12517400
_cell_angle_alpha   90.00000000
_cell_angle_beta   90.00000000
_cell_angle_gamma   153.14199278
_symmetry_Int_Tables_number   1
_chemical_formula_structural   CeAlSiPd
_chemical_formula_sum   'Ce2 Al2 Si2 Pd2'
_cell_volume   157.10196381
_cell_formula_units_Z   2
loop_
 _symmetry_equiv_pos_site_id
 _symmetry_equiv_pos_as_xyz
  1  'x, y, z'
loop_
 _atom_site_type_symbol
 _atom_site_label
 _atom_site_symmetry_multiplicity
 _atom_site_fract_x
 _atom_site_fract_y
 _atom_site_fract_z
 _atom_site_occupancy
  Ce  Ce0  1  0.903760  0.096240  0.750000  1
  Ce  Ce1  1  0.096240  0.903760  0.250000  1
  Al  Al2  1  0.247403  0.752597  0.750000  1
  Al  Al3  1  0.752597  0.247403  0.250000  1
  Si  Si4  1  0.534519  0.465481  0.750000  1
  Si  Si5  1  0.465481  0.534519  0.250000  1
  Pd  Pd6  1  0.669406  0.330594  0.750000  1
  Pd  Pd7  1  0.330594  0.669406  0.250000  1
