# generated using pymatgen
data_Y5Tc5P12(Ir5Rh2)2
_symmetry_space_group_name_H-M   'P 1'
_cell_length_a   12.65014303
_cell_length_b   12.74770081
_cell_length_c   3.97209900
_cell_angle_alpha   90.00000000
_cell_angle_beta   90.00000000
_cell_angle_gamma   120.17257551
_symmetry_Int_Tables_number   1
_chemical_formula_structural   Y5Tc5P12(Ir5Rh2)2
_chemical_formula_sum   'Y5 Tc5 P12 Ir10 Rh4'
_cell_volume   553.75815176
_cell_formula_units_Z   1
loop_
 _symmetry_equiv_pos_site_id
 _symmetry_equiv_pos_as_xyz
  1  'x, y, z'
loop_
 _atom_site_type_symbol
 _atom_site_label
 _atom_site_symmetry_multiplicity
 _atom_site_fract_x
 _atom_site_fract_y
 _atom_site_fract_z
 _atom_site_occupancy
  Y  Y0  1  0.333633  0.667469  0.500000  1
  Y  Y1  1  0.666933  0.333366  0.500000  1
  Y  Y2  1  0.999574  0.811033  0.000000  1
  Y  Y3  1  0.186602  0.185276  0.000000  1
  Y  Y4  1  0.810386  0.998498  0.000000  1
  Tc  Tc5  1  0.996277  0.449296  0.500000  1
  Tc  Tc6  1  0.550319  0.545100  0.500000  1
  Tc  Tc7  1  0.457044  0.011209  0.500000  1
  Tc  Tc8  1  0.619612  0.798475  0.500000  1
  Tc  Tc9  1  0.201741  0.822193  0.500000  1
  P  P10  1  0.006568  0.638504  0.500000  1
  P  P11  1  0.365160  0.366576  0.500000  1
  P  P12  1  0.631729  0.993682  0.500000  1
  P  P13  1  0.520055  0.693196  0.000000  1
  P  P14  1  0.308333  0.830378  0.000000  1
  P  P15  1  0.168224  0.481888  0.000000  1
  P  P16  1  0.483474  0.168591  0.000000  1
  P  P17  1  0.684994  0.516748  0.000000  1
  P  P18  1  0.834326  0.316126  0.000000  1
  P  P19  1  0.998975  0.176517  0.500000  1
  P  P20  1  0.817065  0.820570  0.500000  1
  P  P21  1  0.176940  0.993596  0.500000  1
  Ir  Ir22  1  0.508169  0.875528  0.000000  1
  Ir  Ir23  1  0.127023  0.635614  0.000000  1
  Ir  Ir24  1  0.361580  0.492468  0.000000  1
  Ir  Ir25  1  0.488825  0.357967  0.000000  1
  Ir  Ir26  1  0.866650  0.508204  0.000000  1
  Ir  Ir27  1  0.644741  0.136068  0.000000  1
  Ir  Ir28  1  0.000042  0.283228  0.000000  1
  Ir  Ir29  1  0.717489  0.712003  0.000000  1
  Ir  Ir30  1  0.286703  0.005608  0.000000  1
  Ir  Ir31  1  0.999526  0.999187  0.500000  1
  Rh  Rh32  1  0.180124  0.376134  0.500000  1
  Rh  Rh33  1  0.373780  0.183865  0.500000  1
  Rh  Rh34  1  0.808027  0.623048  0.500000  1
  Rh  Rh35  1  0.819352  0.192790  0.500000  1
