# generated using pymatgen
data_DyNb6VS12
_symmetry_space_group_name_H-M   'P 1'
_cell_length_a   5.82785800
_cell_length_b   5.82785966
_cell_length_c   13.04304300
_cell_angle_alpha   90.00000000
_cell_angle_beta   90.00000000
_cell_angle_gamma   119.99999055
_symmetry_Int_Tables_number   1
_chemical_formula_structural   DyNb6VS12
_chemical_formula_sum   'Dy1 Nb6 V1 S12'
_cell_volume   383.64332455
_cell_formula_units_Z   1
loop_
 _symmetry_equiv_pos_site_id
 _symmetry_equiv_pos_as_xyz
  1  'x, y, z'
loop_
 _atom_site_type_symbol
 _atom_site_label
 _atom_site_symmetry_multiplicity
 _atom_site_fract_x
 _atom_site_fract_y
 _atom_site_fract_z
 _atom_site_occupancy
  Dy  Dy0  1  0.333333  0.666667  0.250000  1
  Nb  Nb1  1  0.000000  0.000000  0.516428  1
  Nb  Nb2  1  0.000000  0.000000  0.983572  1
  Nb  Nb3  1  0.333333  0.666667  0.983846  1
  Nb  Nb4  1  0.666667  0.333333  0.986649  1
  Nb  Nb5  1  0.666667  0.333333  0.513351  1
  Nb  Nb6  1  0.333333  0.666667  0.516154  1
  V  V7  1  0.666667  0.333333  0.750000  1
  S  S8  1  0.330348  0.328798  0.393576  1
  S  S9  1  0.671202  0.001550  0.393576  1
  S  S10  1  0.998450  0.669652  0.393576  1
  S  S11  1  0.335877  0.333001  0.635670  1
  S  S12  1  0.997125  0.664123  0.635670  1
  S  S13  1  0.666999  0.002875  0.635670  1
  S  S14  1  0.666999  0.664123  0.864330  1
  S  S15  1  0.335877  0.002875  0.864330  1
  S  S16  1  0.997125  0.333001  0.864330  1
  S  S17  1  0.671202  0.669652  0.106424  1
  S  S18  1  0.998450  0.328798  0.106424  1
  S  S19  1  0.330348  0.001550  0.106424  1
