# generated using pymatgen
data_HfZrMn6Ni6P7
_symmetry_space_group_name_H-M   'P 1'
_cell_length_a   9.04122500
_cell_length_b   9.04122429
_cell_length_c   3.59182400
_cell_angle_alpha   90.00000000
_cell_angle_beta   90.00000000
_cell_angle_gamma   119.99999260
_symmetry_Int_Tables_number   1
_chemical_formula_structural   HfZrMn6Ni6P7
_chemical_formula_sum   'Hf1 Zr1 Mn6 Ni6 P7'
_cell_volume   254.27299146
_cell_formula_units_Z   1
loop_
 _symmetry_equiv_pos_site_id
 _symmetry_equiv_pos_as_xyz
  1  'x, y, z'
loop_
 _atom_site_type_symbol
 _atom_site_label
 _atom_site_symmetry_multiplicity
 _atom_site_fract_x
 _atom_site_fract_y
 _atom_site_fract_z
 _atom_site_occupancy
  Hf  Hf0  1  0.333333  0.666667  0.500000  1
  Zr  Zr1  1  0.000000  0.000000  0.000000  1
  Mn  Mn2  1  0.883221  0.460539  0.500000  1
  Mn  Mn3  1  0.539461  0.422683  0.500000  1
  Mn  Mn4  1  0.233385  0.945520  0.500000  1
  Mn  Mn5  1  0.054480  0.287866  0.500000  1
  Mn  Mn6  1  0.712134  0.766615  0.500000  1
  Mn  Mn7  1  0.577317  0.116779  0.500000  1
  Ni  Ni8  1  0.299669  0.398326  0.000000  1
  Ni  Ni9  1  0.098657  0.700331  0.000000  1
  Ni  Ni10  1  0.387676  0.173166  0.000000  1
  Ni  Ni11  1  0.785490  0.612324  0.000000  1
  Ni  Ni12  1  0.826834  0.214510  0.000000  1
  Ni  Ni13  1  0.601674  0.901343  0.000000  1
  P  P14  1  0.666667  0.333333  0.000000  1
  P  P15  1  0.084067  0.451288  0.000000  1
  P  P16  1  0.252603  0.209314  0.500000  1
  P  P17  1  0.790686  0.043289  0.500000  1
  P  P18  1  0.956711  0.747397  0.500000  1
  P  P19  1  0.548712  0.632779  0.000000  1
  P  P20  1  0.367221  0.915933  0.000000  1
