# generated using pymatgen
data_Nd3BMoO9
_symmetry_space_group_name_H-M   'P 1'
_cell_length_a   8.76180400
_cell_length_b   8.76180353
_cell_length_c   5.57177400
_cell_angle_alpha   90.00000000
_cell_angle_beta   90.00000000
_cell_angle_gamma   120.00003196
_symmetry_Int_Tables_number   1
_chemical_formula_structural   Nd3BMoO9
_chemical_formula_sum   'Nd6 B2 Mo2 O18'
_cell_volume   370.43416008
_cell_formula_units_Z   2
loop_
 _symmetry_equiv_pos_site_id
 _symmetry_equiv_pos_as_xyz
  1  'x, y, z'
loop_
 _atom_site_type_symbol
 _atom_site_label
 _atom_site_symmetry_multiplicity
 _atom_site_fract_x
 _atom_site_fract_y
 _atom_site_fract_z
 _atom_site_occupancy
  Nd  Nd0  1  0.359013  0.084101  0.205301  1
  Nd  Nd1  1  0.915900  0.274914  0.205301  1
  Nd  Nd2  1  0.725087  0.640987  0.205301  1
  Nd  Nd3  1  0.274914  0.359014  0.705300  1
  Nd  Nd4  1  0.084100  0.725087  0.705300  1
  Nd  Nd5  1  0.640987  0.915900  0.705300  1
  B  B6  1  0.000000  0.000000  0.364870  1
  B  B7  1  0.000000  0.000000  0.864869  1
  Mo  Mo8  1  0.333334  0.666667  0.247315  1
  Mo  Mo9  1  0.666666  0.333334  0.747316  1
  O  O10  1  0.529367  0.727942  0.042738  1
  O  O11  1  0.272058  0.801424  0.042738  1
  O  O12  1  0.198577  0.470634  0.042740  1
  O  O13  1  0.129576  0.175748  0.356674  1
  O  O14  1  0.046172  0.870424  0.356674  1
  O  O15  1  0.824251  0.953827  0.356674  1
  O  O16  1  0.137578  0.515827  0.475991  1
  O  O17  1  0.484173  0.621751  0.475991  1
  O  O18  1  0.378249  0.862421  0.475991  1
  O  O19  1  0.727942  0.198576  0.542739  1
  O  O20  1  0.470633  0.272057  0.542739  1
  O  O21  1  0.801423  0.529367  0.542739  1
  O  O22  1  0.175748  0.046172  0.856675  1
  O  O23  1  0.953827  0.129576  0.856675  1
  O  O24  1  0.870424  0.824251  0.856675  1
  O  O25  1  0.621750  0.137578  0.975989  1
  O  O26  1  0.862421  0.484172  0.975989  1
  O  O27  1  0.515827  0.378248  0.975991  1
