# generated using pymatgen
data_La3Ga4(PdPt)2
_symmetry_space_group_name_H-M   'P 1'
_cell_length_a   8.46561495
_cell_length_b   8.46561391
_cell_length_c   8.46561400
_cell_angle_alpha   151.41008403
_cell_angle_beta   127.01011707
_cell_angle_gamma   61.31307944
_symmetry_Int_Tables_number   1
_chemical_formula_structural   La3Ga4(PdPt)2
_chemical_formula_sum   'La3 Ga4 Pd2 Pt2'
_cell_volume   229.95903313
_cell_formula_units_Z   1
loop_
 _symmetry_equiv_pos_site_id
 _symmetry_equiv_pos_as_xyz
  1  'x, y, z'
loop_
 _atom_site_type_symbol
 _atom_site_label
 _atom_site_symmetry_multiplicity
 _atom_site_fract_x
 _atom_site_fract_y
 _atom_site_fract_z
 _atom_site_occupancy
  La  La0  1  0.500000  0.000000  0.500000  1
  La  La1  1  0.873832  0.873832  0.000000  1
  La  La2  1  0.126168  0.126168  0.000000  1
  Ga  Ga3  1  0.481417  0.673945  0.807473  1
  Ga  Ga4  1  0.866473  0.673945  0.192527  1
  Ga  Ga5  1  0.133527  0.326055  0.807473  1
  Ga  Ga6  1  0.518583  0.326055  0.192527  1
  Pd  Pd7  1  0.284240  0.784240  0.500000  1
  Pd  Pd8  1  0.715760  0.215760  0.500000  1
  Pt  Pt9  1  0.795814  0.500000  0.295814  1
  Pt  Pt10  1  0.204186  0.500000  0.704186  1
