# generated using pymatgen
data_Tb11Ho(OsRu)2
_symmetry_space_group_name_H-M   'P 1'
_cell_length_a   6.35078979
_cell_length_b   7.36185384
_cell_length_c   9.17986693
_cell_angle_alpha   89.99931888
_cell_angle_beta   90.09194879
_cell_angle_gamma   90.05475520
_symmetry_Int_Tables_number   1
_chemical_formula_structural   Tb11Ho(OsRu)2
_chemical_formula_sum   'Tb11 Ho1 Os2 Ru2'
_cell_volume   429.19095099
_cell_formula_units_Z   1
loop_
 _symmetry_equiv_pos_site_id
 _symmetry_equiv_pos_as_xyz
  1  'x, y, z'
loop_
 _atom_site_type_symbol
 _atom_site_label
 _atom_site_symmetry_multiplicity
 _atom_site_fract_x
 _atom_site_fract_y
 _atom_site_fract_z
 _atom_site_occupancy
  Tb  Tb0  1  0.329002  0.676318  0.064744  1
  Tb  Tb1  1  0.170599  0.176442  0.434753  1
  Tb  Tb2  1  0.667703  0.324594  0.563327  1
  Tb  Tb3  1  0.832800  0.825122  0.936996  1
  Tb  Tb4  1  0.667708  0.324432  0.937007  1
  Tb  Tb5  1  0.832480  0.824682  0.563302  1
  Tb  Tb6  1  0.329203  0.676230  0.435229  1
  Tb  Tb7  1  0.868149  0.538784  0.249803  1
  Tb  Tb8  1  0.631921  0.039253  0.249651  1
  Tb  Tb9  1  0.133566  0.458339  0.750247  1
  Tb  Tb10  1  0.366223  0.958896  0.750347  1
  Ho  Ho11  1  0.170538  0.176071  0.065032  1
  Os  Os12  1  0.040056  0.885261  0.249581  1
  Os  Os13  1  0.459640  0.384132  0.249528  1
  Ru  Ru14  1  0.962629  0.115826  0.750547  1
  Ru  Ru15  1  0.537781  0.615618  0.749905  1
