# generated using pymatgen
data_Dy9Ho(AlSb2)2
_symmetry_space_group_name_H-M   'P 1'
_cell_length_a   8.89764300
_cell_length_b   8.90150478
_cell_length_c   6.41653800
_cell_angle_alpha   90.00175790
_cell_angle_beta   89.99912458
_cell_angle_gamma   120.01435374
_symmetry_Int_Tables_number   1
_chemical_formula_structural   Dy9Ho(AlSb2)2
_chemical_formula_sum   'Dy9 Ho1 Al2 Sb4'
_cell_volume   440.05501473
_cell_formula_units_Z   1
loop_
 _symmetry_equiv_pos_site_id
 _symmetry_equiv_pos_as_xyz
  1  'x, y, z'
loop_
 _atom_site_type_symbol
 _atom_site_label
 _atom_site_symmetry_multiplicity
 _atom_site_fract_x
 _atom_site_fract_y
 _atom_site_fract_z
 _atom_site_occupancy
  Dy  Dy0  1  0.335805  0.667903  0.000000  1
  Dy  Dy1  1  0.655911  0.327954  0.500000  1
  Dy  Dy2  1  0.655850  0.327924  0.000000  1
  Dy  Dy3  1  0.755959  0.998935  0.749987  1
  Dy  Dy4  1  0.755959  0.757024  0.250013  1
  Dy  Dy5  1  0.008360  0.242734  0.250038  1
  Dy  Dy6  1  0.008360  0.765626  0.749962  1
  Dy  Dy7  1  0.241295  0.232159  0.749961  1
  Dy  Dy8  1  0.241295  0.009135  0.250039  1
  Ho  Ho9  1  0.335741  0.667871  0.500000  1
  Al  Al10  1  0.398038  0.996856  0.749863  1
  Al  Al11  1  0.398038  0.401183  0.250137  1
  Sb  Sb12  1  0.998776  0.606521  0.250139  1
  Sb  Sb13  1  0.998776  0.392255  0.749861  1
  Sb  Sb14  1  0.605919  0.605210  0.749836  1
  Sb  Sb15  1  0.605919  0.000708  0.250164  1
