# generated using pymatgen
data_La7Tb13(FeSb2)4
_symmetry_space_group_name_H-M   'P 1'
_cell_length_a   8.11563737
_cell_length_b   8.75956443
_cell_length_c   12.43137594
_cell_angle_alpha   89.88113397
_cell_angle_beta   89.91667735
_cell_angle_gamma   89.72973689
_symmetry_Int_Tables_number   1
_chemical_formula_structural   La7Tb13(FeSb2)4
_chemical_formula_sum   'La7 Tb13 Fe4 Sb8'
_cell_volume   883.72700357
_cell_formula_units_Z   1
loop_
 _symmetry_equiv_pos_site_id
 _symmetry_equiv_pos_as_xyz
  1  'x, y, z'
loop_
 _atom_site_type_symbol
 _atom_site_label
 _atom_site_symmetry_multiplicity
 _atom_site_fract_x
 _atom_site_fract_y
 _atom_site_fract_z
 _atom_site_occupancy
  La  La0  1  0.823307  0.968744  0.061233  1
  La  La1  1  0.325247  0.023170  0.439620  1
  La  La2  1  0.177613  0.471223  0.938120  1
  La  La3  1  0.676010  0.531548  0.559849  1
  La  La4  1  0.177755  0.029482  0.938760  1
  La  La5  1  0.680864  0.973492  0.561851  1
  La  La6  1  0.822013  0.528856  0.061915  1
  Tb  Tb7  1  0.164633  0.749143  0.208593  1
  Tb  Tb8  1  0.661636  0.250915  0.294805  1
  Tb  Tb9  1  0.836265  0.250344  0.793233  1
  Tb  Tb10  1  0.337630  0.750532  0.704638  1
  Tb  Tb11  1  0.456717  0.749396  0.999850  1
  Tb  Tb12  1  0.958969  0.249084  0.500610  1
  Tb  Tb13  1  0.542798  0.250242  0.001145  1
  Tb  Tb14  1  0.044952  0.747836  0.498804  1
  Tb  Tb15  1  0.620192  0.748266  0.297602  1
  Tb  Tb16  1  0.124135  0.247900  0.205427  1
  Tb  Tb17  1  0.375821  0.252689  0.701895  1
  Tb  Tb18  1  0.876748  0.749760  0.795550  1
  Tb  Tb19  1  0.323685  0.461973  0.436528  1
  Fe  Fe20  1  0.407052  0.766376  0.478403  1
  Fe  Fe21  1  0.907762  0.250061  0.021176  1
  Fe  Fe22  1  0.585160  0.256459  0.519331  1
  Fe  Fe23  1  0.091665  0.748083  0.979260  1
  Sb  Sb24  1  0.925950  0.987817  0.327231  1
  Sb  Sb25  1  0.427328  0.010480  0.172340  1
  Sb  Sb26  1  0.073860  0.488444  0.671336  1
  Sb  Sb27  1  0.572883  0.511337  0.827162  1
  Sb  Sb28  1  0.072702  0.010691  0.673437  1
  Sb  Sb29  1  0.572720  0.989256  0.827419  1
  Sb  Sb30  1  0.930696  0.509067  0.327954  1
  Sb  Sb31  1  0.425232  0.487331  0.174922  1
