# generated using pymatgen
data_Sc2Ti6Al15Pt7
_symmetry_space_group_name_H-M   'P 1'
_cell_length_a   8.77499942
_cell_length_b   8.76786605
_cell_length_c   8.77499890
_cell_angle_alpha   120.23379420
_cell_angle_beta   119.95424337
_cell_angle_gamma   89.86072547
_symmetry_Int_Tables_number   1
_chemical_formula_structural   Sc2Ti6Al15Pt7
_chemical_formula_sum   'Sc2 Ti6 Al15 Pt7'
_cell_volume   476.60884210
_cell_formula_units_Z   1
loop_
 _symmetry_equiv_pos_site_id
 _symmetry_equiv_pos_as_xyz
  1  'x, y, z'
loop_
 _atom_site_type_symbol
 _atom_site_label
 _atom_site_symmetry_multiplicity
 _atom_site_fract_x
 _atom_site_fract_y
 _atom_site_fract_z
 _atom_site_occupancy
  Sc  Sc0  1  0.793895  0.290403  0.080382  1
  Sc  Sc1  1  0.210021  0.290402  0.496509  1
  Ti  Ti2  1  0.208801  0.703419  0.494619  1
  Ti  Ti3  1  0.216964  0.709939  0.929761  1
  Ti  Ti4  1  0.780179  0.709938  0.492975  1
  Ti  Ti5  1  0.791502  0.290474  0.498972  1
  Ti  Ti6  1  0.375041  0.118022  0.742979  1
  Ti  Ti7  1  0.380127  0.638564  0.258437  1
  Al  Al8  1  0.000266  0.512172  0.511906  1
  Al  Al9  1  0.164658  0.346829  0.182171  1
  Al  Al10  1  0.149626  0.951512  0.801886  1
  Al  Al11  1  0.157373  0.348778  0.820588  1
  Al  Al12  1  0.528189  0.348777  0.191404  1
  Al  Al13  1  0.849601  0.655553  0.805953  1
  Al  Al14  1  0.839487  0.025676  0.186188  1
  Al  Al15  1  0.845179  0.661120  0.194536  1
  Al  Al16  1  0.466583  0.661119  0.815941  1
  Al  Al17  1  0.381054  0.117735  0.254072  1
  Al  Al18  1  0.863664  0.117736  0.736681  1
  Al  Al19  1  0.620148  0.875776  0.255628  1
  Al  Al20  1  0.623828  0.368907  0.745079  1
  Al  Al21  1  0.619194  0.872376  0.738755  1
  Al  Al22  1  0.133622  0.872377  0.253182  1
  Pt  Pt23  1  0.002280  0.004208  0.504627  1
  Pt  Pt24  1  0.499582  0.004209  0.001928  1
  Pt  Pt25  1  0.501572  0.496233  0.994662  1
  Pt  Pt26  1  0.503736  0.500227  0.507914  1
  Pt  Pt27  1  0.992311  0.500225  0.996490  1
  Pt  Pt28  1  0.001562  0.004364  0.002800  1
  Pt  Pt29  1  0.499952  0.002925  0.502973  1
