# generated using pymatgen
data_CaLa6SBr12
_symmetry_space_group_name_H-M   'P 1'
_cell_length_a   9.59750552
_cell_length_b   9.59750625
_cell_length_c   9.59750700
_cell_angle_alpha   107.25943544
_cell_angle_beta   107.25944303
_cell_angle_gamma   107.25943975
_symmetry_Int_Tables_number   1
_chemical_formula_structural   CaLa6SBr12
_chemical_formula_sum   'Ca1 La6 S1 Br12'
_cell_volume   730.96942106
_cell_formula_units_Z   1
loop_
 _symmetry_equiv_pos_site_id
 _symmetry_equiv_pos_as_xyz
  1  'x, y, z'
loop_
 _atom_site_type_symbol
 _atom_site_label
 _atom_site_symmetry_multiplicity
 _atom_site_fract_x
 _atom_site_fract_y
 _atom_site_fract_z
 _atom_site_occupancy
  Ca  Ca0  1  0.000000  0.000000  0.000000  1
  La  La1  1  0.814547  0.527465  0.604127  1
  La  La2  1  0.527465  0.604127  0.814547  1
  La  La3  1  0.185453  0.472535  0.395873  1
  La  La4  1  0.472535  0.395873  0.185453  1
  La  La5  1  0.604127  0.814547  0.527465  1
  La  La6  1  0.395873  0.185453  0.472535  1
  S  S7  1  0.500000  0.500000  0.500000  1
  Br  Br8  1  0.724255  0.182863  0.573298  1
  Br  Br9  1  0.958547  0.881022  0.663963  1
  Br  Br10  1  0.573298  0.724255  0.182863  1
  Br  Br11  1  0.118978  0.336037  0.041453  1
  Br  Br12  1  0.663963  0.958547  0.881022  1
  Br  Br13  1  0.881022  0.663963  0.958547  1
  Br  Br14  1  0.041453  0.118978  0.336037  1
  Br  Br15  1  0.817137  0.426702  0.275745  1
  Br  Br16  1  0.336037  0.041453  0.118978  1
  Br  Br17  1  0.275745  0.817137  0.426702  1
  Br  Br18  1  0.182863  0.573298  0.724255  1
  Br  Br19  1  0.426702  0.275745  0.817137  1
