# generated using pymatgen
data_Y3Sc3MnAs2
_symmetry_space_group_name_H-M   'P 1'
_cell_length_a   7.54890300
_cell_length_b   7.54890382
_cell_length_c   4.14027000
_cell_angle_alpha   90.00000000
_cell_angle_beta   90.00000000
_cell_angle_gamma   119.99999204
_symmetry_Int_Tables_number   1
_chemical_formula_structural   Y3Sc3MnAs2
_chemical_formula_sum   'Y3 Sc3 Mn1 As2'
_cell_volume   204.32761562
_cell_formula_units_Z   1
loop_
 _symmetry_equiv_pos_site_id
 _symmetry_equiv_pos_as_xyz
  1  'x, y, z'
loop_
 _atom_site_type_symbol
 _atom_site_label
 _atom_site_symmetry_multiplicity
 _atom_site_fract_x
 _atom_site_fract_y
 _atom_site_fract_z
 _atom_site_occupancy
  Y  Y0  1  0.590833  0.000000  0.000000  1
  Y  Y1  1  0.000000  0.590833  0.000000  1
  Y  Y2  1  0.409167  0.409167  0.000000  1
  Sc  Sc3  1  0.233495  0.000000  0.500000  1
  Sc  Sc4  1  0.000000  0.233495  0.500000  1
  Sc  Sc5  1  0.766505  0.766505  0.500000  1
  Mn  Mn6  1  0.000000  0.000000  0.000000  1
  As  As7  1  0.333333  0.666667  0.500000  1
  As  As8  1  0.666667  0.333333  0.500000  1
