# generated using pymatgen
data_HoEr7MgCdPd2
_symmetry_space_group_name_H-M   'P 1'
_cell_length_a   9.64957374
_cell_length_b   9.64957277
_cell_length_c   9.67575300
_cell_angle_alpha   59.91021425
_cell_angle_beta   59.91021757
_cell_angle_gamma   59.81604300
_symmetry_Int_Tables_number   1
_chemical_formula_structural   HoEr7MgCdPd2
_chemical_formula_sum   'Ho2 Er14 Mg2 Cd2 Pd4'
_cell_volume   635.31557086
_cell_formula_units_Z   2
loop_
 _symmetry_equiv_pos_site_id
 _symmetry_equiv_pos_as_xyz
  1  'x, y, z'
loop_
 _atom_site_type_symbol
 _atom_site_label
 _atom_site_symmetry_multiplicity
 _atom_site_fract_x
 _atom_site_fract_y
 _atom_site_fract_z
 _atom_site_occupancy
  Ho  Ho0  1  0.352912  0.352912  0.351767  1
  Ho  Ho1  1  0.352912  0.352912  0.942408  1
  Er  Er2  1  0.353432  0.941652  0.352458  1
  Er  Er3  1  0.941652  0.353432  0.352458  1
  Er  Er4  1  0.811389  0.189048  0.188563  1
  Er  Er5  1  0.189048  0.811389  0.810999  1
  Er  Er6  1  0.189048  0.811389  0.188563  1
  Er  Er7  1  0.811389  0.189048  0.810999  1
  Er  Er8  1  0.190847  0.190847  0.809153  1
  Er  Er9  1  0.812539  0.812539  0.187461  1
  Er  Er10  1  0.935139  0.566334  0.566434  1
  Er  Er11  1  0.566334  0.935139  0.932092  1
  Er  Er12  1  0.566334  0.935139  0.566434  1
  Er  Er13  1  0.935139  0.566334  0.932092  1
  Er  Er14  1  0.568119  0.568119  0.931881  1
  Er  Er15  1  0.934621  0.934621  0.565379  1
  Mg  Mg16  1  0.577543  0.577543  0.581530  1
  Mg  Mg17  1  0.577543  0.577543  0.263382  1
  Cd  Cd18  1  0.582310  0.252422  0.582634  1
  Cd  Cd19  1  0.252422  0.582310  0.582634  1
  Pd  Pd20  1  0.144053  0.144053  0.144836  1
  Pd  Pd21  1  0.144053  0.144053  0.567058  1
  Pd  Pd22  1  0.143219  0.567999  0.144391  1
  Pd  Pd23  1  0.567999  0.143219  0.144391  1
