# generated using pymatgen
data_Li8La7DySn7Bi
_symmetry_space_group_name_H-M   'P 1'
_cell_length_a   9.66407100
_cell_length_b   9.66479596
_cell_length_c   7.83118781
_cell_angle_alpha   90.08139896
_cell_angle_beta   90.00000000
_cell_angle_gamma   119.99751528
_symmetry_Int_Tables_number   1
_chemical_formula_structural   Li8La7DySn7Bi
_chemical_formula_sum   'Li8 La7 Dy1 Sn7 Bi1'
_cell_volume   633.46315862
_cell_formula_units_Z   1
loop_
 _symmetry_equiv_pos_site_id
 _symmetry_equiv_pos_as_xyz
  1  'x, y, z'
loop_
 _atom_site_type_symbol
 _atom_site_label
 _atom_site_symmetry_multiplicity
 _atom_site_fract_x
 _atom_site_fract_y
 _atom_site_fract_z
 _atom_site_occupancy
  Li  Li0  1  0.166163  0.332327  0.281909  1
  Li  Li1  1  0.167240  0.834156  0.286978  1
  Li  Li2  1  0.666918  0.834156  0.286978  1
  Li  Li3  1  0.834778  0.669556  0.790328  1
  Li  Li4  1  0.831177  0.163481  0.794942  1
  Li  Li5  1  0.332304  0.163481  0.794942  1
  Li  Li6  1  0.335070  0.670141  0.669520  1
  Li  Li7  1  0.666225  0.332449  0.168676  1
  La  La8  1  0.511649  0.023297  0.494461  1
  La  La9  1  0.515743  0.491110  0.492059  1
  La  La10  1  0.975368  0.491110  0.492059  1
  La  La11  1  0.488467  0.976934  0.995988  1
  La  La12  1  0.493687  0.513743  0.997017  1
  La  La13  1  0.020054  0.513743  0.997017  1
  La  La14  1  0.998058  0.996117  0.496121  1
  Dy  Dy15  1  0.997505  0.995008  0.003453  1
  Sn  Sn16  1  0.164777  0.834459  0.729910  1
  Sn  Sn17  1  0.669682  0.834459  0.729910  1
  Sn  Sn18  1  0.835918  0.671837  0.223677  1
  Sn  Sn19  1  0.836631  0.164556  0.222561  1
  Sn  Sn20  1  0.327924  0.164556  0.222561  1
  Sn  Sn21  1  0.332671  0.665342  0.269767  1
  Sn  Sn22  1  0.666996  0.333991  0.767196  1
  Bi  Bi23  1  0.164995  0.329990  0.733965  1
