# generated using pymatgen
data_Ba4SmPtO8
_symmetry_space_group_name_H-M   'P 1'
_cell_length_a   7.45447500
_cell_length_b   7.45447307
_cell_length_c   6.04687000
_cell_angle_alpha   90.00000000
_cell_angle_beta   90.00000000
_cell_angle_gamma   132.38203788
_symmetry_Int_Tables_number   1
_chemical_formula_structural   Ba4SmPtO8
_chemical_formula_sum   'Ba4 Sm1 Pt1 O8'
_cell_volume   248.20650757
_cell_formula_units_Z   1
loop_
 _symmetry_equiv_pos_site_id
 _symmetry_equiv_pos_as_xyz
  1  'x, y, z'
loop_
 _atom_site_type_symbol
 _atom_site_label
 _atom_site_symmetry_multiplicity
 _atom_site_fract_x
 _atom_site_fract_y
 _atom_site_fract_z
 _atom_site_occupancy
  Ba  Ba0  1  0.355735  0.644265  0.000000  1
  Ba  Ba1  1  0.853166  0.146834  0.500000  1
  Ba  Ba2  1  0.146834  0.853166  0.500000  1
  Ba  Ba3  1  0.644265  0.355735  0.000000  1
  Sm  Sm4  1  0.000000  0.000000  0.000000  1
  Pt  Pt5  1  0.500000  0.500000  0.500000  1
  O  O6  1  0.262074  0.262074  0.731227  1
  O  O7  1  0.737926  0.737926  0.268773  1
  O  O8  1  0.737926  0.737926  0.731227  1
  O  O9  1  0.262074  0.262074  0.268773  1
  O  O10  1  0.169551  0.830449  0.000000  1
  O  O11  1  0.652063  0.347937  0.500000  1
  O  O12  1  0.347937  0.652063  0.500000  1
  O  O13  1  0.830449  0.169551  0.000000  1
