# generated using pymatgen
data_PrNd11Os3Au
_symmetry_space_group_name_H-M   'P 1'
_cell_length_a   6.59170520
_cell_length_b   7.52504451
_cell_length_c   9.78387900
_cell_angle_alpha   90.00000000
_cell_angle_beta   90.00000000
_cell_angle_gamma   90.30326496
_symmetry_Int_Tables_number   1
_chemical_formula_structural   PrNd11Os3Au
_chemical_formula_sum   'Pr1 Nd11 Os3 Au1'
_cell_volume   485.30172964
_cell_formula_units_Z   1
loop_
 _symmetry_equiv_pos_site_id
 _symmetry_equiv_pos_as_xyz
  1  'x, y, z'
loop_
 _atom_site_type_symbol
 _atom_site_label
 _atom_site_symmetry_multiplicity
 _atom_site_fract_x
 _atom_site_fract_y
 _atom_site_fract_z
 _atom_site_occupancy
  Pr  Pr0  1  0.855219  0.521567  0.250000  1
  Nd  Nd1  1  0.342124  0.667526  0.059987  1
  Nd  Nd2  1  0.171471  0.187622  0.442824  1
  Nd  Nd3  1  0.674043  0.321867  0.567938  1
  Nd  Nd4  1  0.824240  0.827022  0.929725  1
  Nd  Nd5  1  0.674043  0.321867  0.932062  1
  Nd  Nd6  1  0.824240  0.827022  0.570275  1
  Nd  Nd7  1  0.342124  0.667526  0.440013  1
  Nd  Nd8  1  0.171471  0.187622  0.057176  1
  Nd  Nd9  1  0.622892  0.045972  0.250000  1
  Nd  Nd10  1  0.138387  0.463291  0.750000  1
  Nd  Nd11  1  0.356041  0.958984  0.750000  1
  Os  Os12  1  0.437852  0.383727  0.250000  1
  Os  Os13  1  0.950651  0.114724  0.750000  1
  Os  Os14  1  0.553091  0.614937  0.750000  1
  Au  Au15  1  0.062111  0.888725  0.250000  1
