# generated using pymatgen
data_Er4Ga5Co2Ni7
_symmetry_space_group_name_H-M   'P 1'
_cell_length_a   5.19810513
_cell_length_b   5.17432376
_cell_length_c   12.07996400
_cell_angle_alpha   77.39798893
_cell_angle_beta   77.57542766
_cell_angle_gamma   59.84784614
_symmetry_Int_Tables_number   1
_chemical_formula_structural   Er4Ga5Co2Ni7
_chemical_formula_sum   'Er4 Ga5 Co2 Ni7'
_cell_volume   272.02660219
_cell_formula_units_Z   1
loop_
 _symmetry_equiv_pos_site_id
 _symmetry_equiv_pos_as_xyz
  1  'x, y, z'
loop_
 _atom_site_type_symbol
 _atom_site_label
 _atom_site_symmetry_multiplicity
 _atom_site_fract_x
 _atom_site_fract_y
 _atom_site_fract_z
 _atom_site_occupancy
  Er  Er0  1  0.953730  0.953595  0.138944  1
  Er  Er1  1  0.046270  0.046405  0.861056  1
  Er  Er2  1  0.854813  0.855146  0.435228  1
  Er  Er3  1  0.145187  0.144854  0.564772  1
  Ga  Ga4  1  0.500000  0.500000  0.500000  1
  Ga  Ga5  1  0.722514  0.720082  0.834889  1
  Ga  Ga6  1  0.277486  0.279918  0.165111  1
  Ga  Ga7  1  0.612634  0.608621  0.166110  1
  Ga  Ga8  1  0.387366  0.391379  0.833890  1
  Co  Co9  1  0.000000  0.500000  0.000000  1
  Co  Co10  1  0.500000  0.500000  0.000000  1
  Ni  Ni11  1  0.500000  0.000000  0.000000  1
  Ni  Ni12  1  0.386253  0.385175  0.332911  1
  Ni  Ni13  1  0.895663  0.385175  0.332911  1
  Ni  Ni14  1  0.387746  0.892444  0.332065  1
  Ni  Ni15  1  0.613747  0.614825  0.667089  1
  Ni  Ni16  1  0.104337  0.614825  0.667089  1
  Ni  Ni17  1  0.612254  0.107556  0.667935  1
