# generated using pymatgen
data_LiPr6Cd22P
_symmetry_space_group_name_H-M   'P 1'
_cell_length_a   10.06488020
_cell_length_b   10.06488003
_cell_length_c   10.06488000
_cell_angle_alpha   60.00000010
_cell_angle_beta   60.00000067
_cell_angle_gamma   59.99999798
_symmetry_Int_Tables_number   1
_chemical_formula_structural   LiPr6Cd22P
_chemical_formula_sum   'Li1 Pr6 Cd22 P1'
_cell_volume   720.95940578
_cell_formula_units_Z   1
loop_
 _symmetry_equiv_pos_site_id
 _symmetry_equiv_pos_as_xyz
  1  'x, y, z'
loop_
 _atom_site_type_symbol
 _atom_site_label
 _atom_site_symmetry_multiplicity
 _atom_site_fract_x
 _atom_site_fract_y
 _atom_site_fract_z
 _atom_site_occupancy
  Li  Li0  1  0.500000  0.500000  0.500000  1
  Pr  Pr1  1  0.796426  0.796426  0.203574  1
  Pr  Pr2  1  0.203574  0.796426  0.203574  1
  Pr  Pr3  1  0.796426  0.203574  0.203574  1
  Pr  Pr4  1  0.203574  0.203574  0.796426  1
  Pr  Pr5  1  0.796426  0.203574  0.796426  1
  Pr  Pr6  1  0.203574  0.796426  0.796426  1
  Cd  Cd7  1  0.832017  0.832017  0.503948  1
  Cd  Cd8  1  0.832017  0.503948  0.832017  1
  Cd  Cd9  1  0.503948  0.832017  0.832017  1
  Cd  Cd10  1  0.832017  0.832017  0.832017  1
  Cd  Cd11  1  0.167983  0.167983  0.496052  1
  Cd  Cd12  1  0.167983  0.496052  0.167983  1
  Cd  Cd13  1  0.496052  0.167983  0.167983  1
  Cd  Cd14  1  0.167983  0.167983  0.167983  1
  Cd  Cd15  1  0.616782  0.616782  0.149655  1
  Cd  Cd16  1  0.616782  0.149655  0.616782  1
  Cd  Cd17  1  0.149655  0.616782  0.616782  1
  Cd  Cd18  1  0.616782  0.616782  0.616782  1
  Cd  Cd19  1  0.383218  0.383218  0.850345  1
  Cd  Cd20  1  0.383218  0.850345  0.383218  1
  Cd  Cd21  1  0.850345  0.383218  0.383218  1
  Cd  Cd22  1  0.383218  0.383218  0.383218  1
  Cd  Cd23  1  0.000000  0.000000  0.500000  1
  Cd  Cd24  1  0.500000  0.000000  0.500000  1
  Cd  Cd25  1  0.000000  0.500000  0.500000  1
  Cd  Cd26  1  0.500000  0.500000  0.000000  1
  Cd  Cd27  1  0.000000  0.500000  0.000000  1
  Cd  Cd28  1  0.500000  0.000000  0.000000  1
  P  P29  1  0.000000  0.000000  0.000000  1
