# generated using pymatgen
data_Mn20Cr2CoC6
_symmetry_space_group_name_H-M   'P 1'
_cell_length_a   7.34855585
_cell_length_b   7.34855601
_cell_length_c   7.34855700
_cell_angle_alpha   60.00000005
_cell_angle_beta   59.99999931
_cell_angle_gamma   60.00000288
_symmetry_Int_Tables_number   1
_chemical_formula_structural   Mn20Cr2CoC6
_chemical_formula_sum   'Mn20 Cr2 Co1 C6'
_cell_volume   280.60220820
_cell_formula_units_Z   1
loop_
 _symmetry_equiv_pos_site_id
 _symmetry_equiv_pos_as_xyz
  1  'x, y, z'
loop_
 _atom_site_type_symbol
 _atom_site_label
 _atom_site_symmetry_multiplicity
 _atom_site_fract_x
 _atom_site_fract_y
 _atom_site_fract_z
 _atom_site_occupancy
  Mn  Mn0  1  0.855993  0.381336  0.381336  1
  Mn  Mn1  1  0.381336  0.855993  0.381336  1
  Mn  Mn2  1  0.381336  0.381336  0.855993  1
  Mn  Mn3  1  0.381336  0.381336  0.381336  1
  Mn  Mn4  1  0.144007  0.618664  0.618664  1
  Mn  Mn5  1  0.618664  0.144007  0.618664  1
  Mn  Mn6  1  0.618664  0.618664  0.144007  1
  Mn  Mn7  1  0.618664  0.618664  0.618664  1
  Mn  Mn8  1  0.664752  0.000000  0.000000  1
  Mn  Mn9  1  0.664752  0.000000  0.335248  1
  Mn  Mn10  1  0.664752  0.335248  0.000000  1
  Mn  Mn11  1  0.000000  0.664752  0.335248  1
  Mn  Mn12  1  0.000000  0.664752  0.000000  1
  Mn  Mn13  1  0.335248  0.664752  0.000000  1
  Mn  Mn14  1  0.000000  0.335248  0.664752  1
  Mn  Mn15  1  0.335248  0.000000  0.664752  1
  Mn  Mn16  1  0.000000  0.000000  0.664752  1
  Mn  Mn17  1  0.335248  0.000000  0.000000  1
  Mn  Mn18  1  0.000000  0.335248  0.000000  1
  Mn  Mn19  1  0.000000  0.000000  0.335248  1
  Cr  Cr20  1  0.250000  0.250000  0.250000  1
  Cr  Cr21  1  0.750000  0.750000  0.750000  1
  Co  Co22  1  0.000000  0.000000  0.000000  1
  C  C23  1  0.724770  0.275230  0.275230  1
  C  C24  1  0.724770  0.275230  0.724770  1
  C  C25  1  0.724770  0.724770  0.275230  1
  C  C26  1  0.275230  0.724770  0.724770  1
  C  C27  1  0.275230  0.724770  0.275230  1
  C  C28  1  0.275230  0.275230  0.724770  1
