# generated using pymatgen
data_Dy3Tm2CoBi2
_symmetry_space_group_name_H-M   'P 1'
_cell_length_a   7.93152700
_cell_length_b   8.88022300
_cell_length_c   12.38186200
_cell_angle_alpha   90.00000000
_cell_angle_beta   90.00000000
_cell_angle_gamma   90.00000000
_symmetry_Int_Tables_number   1
_chemical_formula_structural   Dy3Tm2CoBi2
_chemical_formula_sum   'Dy12 Tm8 Co4 Bi8'
_cell_volume   872.10070632
_cell_formula_units_Z   4
loop_
 _symmetry_equiv_pos_site_id
 _symmetry_equiv_pos_as_xyz
  1  'x, y, z'
loop_
 _atom_site_type_symbol
 _atom_site_label
 _atom_site_symmetry_multiplicity
 _atom_site_fract_x
 _atom_site_fract_y
 _atom_site_fract_z
 _atom_site_occupancy
  Dy  Dy0  1  0.847176  0.750000  0.801038  1
  Dy  Dy1  1  0.152824  0.250000  0.198962  1
  Dy  Dy2  1  0.347176  0.250000  0.698962  1
  Dy  Dy3  1  0.652824  0.750000  0.301038  1
  Dy  Dy4  1  0.378676  0.750000  0.688126  1
  Dy  Dy5  1  0.621324  0.250000  0.311874  1
  Dy  Dy6  1  0.878676  0.250000  0.811874  1
  Dy  Dy7  1  0.121324  0.750000  0.188126  1
  Dy  Dy8  1  0.950954  0.750000  0.502643  1
  Dy  Dy9  1  0.049046  0.250000  0.497357  1
  Dy  Dy10  1  0.450954  0.250000  0.997357  1
  Dy  Dy11  1  0.549046  0.750000  0.002643  1
  Tm  Tm12  1  0.673101  0.035058  0.563188  1
  Tm  Tm13  1  0.326899  0.964942  0.436812  1
  Tm  Tm14  1  0.173101  0.964942  0.936812  1
  Tm  Tm15  1  0.326899  0.535058  0.436812  1
  Tm  Tm16  1  0.826899  0.035058  0.063188  1
  Tm  Tm17  1  0.673101  0.464942  0.563188  1
  Tm  Tm18  1  0.826899  0.464942  0.063188  1
  Tm  Tm19  1  0.173101  0.535058  0.936812  1
  Co  Co20  1  0.560705  0.750000  0.507736  1
  Co  Co21  1  0.439295  0.250000  0.492264  1
  Co  Co22  1  0.060705  0.250000  0.992264  1
  Co  Co23  1  0.939295  0.750000  0.007736  1
  Bi  Bi24  1  0.568134  0.492431  0.826127  1
  Bi  Bi25  1  0.431866  0.507569  0.173873  1
  Bi  Bi26  1  0.068134  0.507569  0.673873  1
  Bi  Bi27  1  0.431866  0.992431  0.173873  1
  Bi  Bi28  1  0.931866  0.492431  0.326127  1
  Bi  Bi29  1  0.568134  0.007569  0.826127  1
  Bi  Bi30  1  0.931866  0.007569  0.326127  1
  Bi  Bi31  1  0.068134  0.992431  0.673873  1
