# generated using pymatgen
data_Ho2V3Fe9P7
_symmetry_space_group_name_H-M   'P 1'
_cell_length_a   9.11403500
_cell_length_b   9.11403502
_cell_length_c   3.61958800
_cell_angle_alpha   90.00000000
_cell_angle_beta   90.00000000
_cell_angle_gamma   120.00001081
_symmetry_Int_Tables_number   1
_chemical_formula_structural   Ho2V3Fe9P7
_chemical_formula_sum   'Ho2 V3 Fe9 P7'
_cell_volume   260.38209037
_cell_formula_units_Z   1
loop_
 _symmetry_equiv_pos_site_id
 _symmetry_equiv_pos_as_xyz
  1  'x, y, z'
loop_
 _atom_site_type_symbol
 _atom_site_label
 _atom_site_symmetry_multiplicity
 _atom_site_fract_x
 _atom_site_fract_y
 _atom_site_fract_z
 _atom_site_occupancy
  Ho  Ho0  1  0.666667  0.333333  0.000000  1
  Ho  Ho1  1  0.333333  0.666667  0.500000  1
  V  V2  1  0.104003  0.217953  0.500000  1
  V  V3  1  0.782047  0.886052  0.500000  1
  V  V4  1  0.113948  0.895997  0.500000  1
  Fe  Fe5  1  0.052585  0.428009  0.000000  1
  Fe  Fe6  1  0.571991  0.624577  0.000000  1
  Fe  Fe7  1  0.375423  0.947415  0.000000  1
  Fe  Fe8  1  0.276165  0.157328  0.000000  1
  Fe  Fe9  1  0.842672  0.118837  0.000000  1
  Fe  Fe10  1  0.881163  0.723835  0.000000  1
  Fe  Fe11  1  0.435357  0.388565  0.500000  1
  Fe  Fe12  1  0.611435  0.046792  0.500000  1
  Fe  Fe13  1  0.953208  0.564643  0.500000  1
  P  P14  1  0.298411  0.412466  0.000000  1
  P  P15  1  0.587534  0.885945  0.000000  1
  P  P16  1  0.114055  0.701589  0.000000  1
  P  P17  1  0.406733  0.121105  0.500000  1
  P  P18  1  0.878895  0.285628  0.500000  1
  P  P19  1  0.714372  0.593267  0.500000  1
  P  P20  1  0.000000  0.000000  0.000000  1
