# generated using pymatgen
data_Pr18Y2Si15As
_symmetry_space_group_name_H-M   'P 1'
_cell_length_a   7.90601945
_cell_length_b   7.90137770
_cell_length_c   15.32740540
_cell_angle_alpha   89.93547028
_cell_angle_beta   89.65335653
_cell_angle_gamma   89.97850354
_symmetry_Int_Tables_number   1
_chemical_formula_structural   Pr18Y2Si15As
_chemical_formula_sum   'Pr18 Y2 Si15 As1'
_cell_volume   957.46099733
_cell_formula_units_Z   1
loop_
 _symmetry_equiv_pos_site_id
 _symmetry_equiv_pos_as_xyz
  1  'x, y, z'
loop_
 _atom_site_type_symbol
 _atom_site_label
 _atom_site_symmetry_multiplicity
 _atom_site_fract_x
 _atom_site_fract_y
 _atom_site_fract_z
 _atom_site_occupancy
  Pr  Pr0  1  0.804095  0.191098  0.751524  1
  Pr  Pr1  1  0.688730  0.690868  0.498169  1
  Pr  Pr2  1  0.379124  0.009104  0.444687  1
  Pr  Pr3  1  0.489794  0.877711  0.697915  1
  Pr  Pr4  1  0.510883  0.122760  0.196006  1
  Pr  Pr5  1  0.877072  0.486903  0.301502  1
  Pr  Pr6  1  0.123175  0.510413  0.804368  1
  Pr  Pr7  1  0.624101  0.986707  0.948190  1
  Pr  Pr8  1  0.007178  0.379162  0.551354  1
  Pr  Pr9  1  0.988920  0.621704  0.053616  1
  Pr  Pr10  1  0.129586  0.981711  0.877373  1
  Pr  Pr11  1  0.520839  0.628082  0.126007  1
  Pr  Pr12  1  0.479423  0.373512  0.628835  1
  Pr  Pr13  1  0.628727  0.520426  0.874410  1
  Pr  Pr14  1  0.372772  0.477987  0.372373  1
  Pr  Pr15  1  0.872813  0.019595  0.376457  1
  Pr  Pr16  1  0.980043  0.127945  0.123586  1
  Pr  Pr17  1  0.018909  0.872484  0.622239  1
  Y  Y18  1  0.311572  0.311488  0.000171  1
  Y  Y19  1  0.189025  0.810658  0.249369  1
  Si  Si20  1  0.328817  0.691735  0.954770  1
  Si  Si21  1  0.667695  0.305308  0.453740  1
  Si  Si22  1  0.693357  0.330165  0.046386  1
  Si  Si23  1  0.303871  0.667931  0.546605  1
  Si  Si24  1  0.808464  0.829668  0.204165  1
  Si  Si25  1  0.170147  0.191845  0.294481  1
  Si  Si26  1  0.835188  0.804547  0.797049  1
  Si  Si27  1  0.286573  0.922342  0.062250  1
  Si  Si28  1  0.573841  0.788899  0.308204  1
  Si  Si29  1  0.428570  0.212754  0.818793  1
  Si  Si30  1  0.789004  0.579162  0.689532  1
  Si  Si31  1  0.212797  0.423339  0.187407  1
  Si  Si32  1  0.708388  0.077481  0.560590  1
  Si  Si33  1  0.928109  0.289466  0.941251  1
  Si  Si34  1  0.081312  0.713259  0.436325  1
  As  As35  1  0.187086  0.171777  0.700298  1
