# generated using pymatgen
data_NdIn2Cu4Ni5
_symmetry_space_group_name_H-M   'P 1'
_cell_length_a   8.25676200
_cell_length_b   8.25676200
_cell_length_c   5.00671700
_cell_angle_alpha   90.00000000
_cell_angle_beta   90.00000000
_cell_angle_gamma   90.00000000
_symmetry_Int_Tables_number   1
_chemical_formula_structural   NdIn2Cu4Ni5
_chemical_formula_sum   'Nd2 In4 Cu8 Ni10'
_cell_volume   341.32851918
_cell_formula_units_Z   2
loop_
 _symmetry_equiv_pos_site_id
 _symmetry_equiv_pos_as_xyz
  1  'x, y, z'
loop_
 _atom_site_type_symbol
 _atom_site_label
 _atom_site_symmetry_multiplicity
 _atom_site_fract_x
 _atom_site_fract_y
 _atom_site_fract_z
 _atom_site_occupancy
  Nd  Nd0  1  0.000000  0.000000  0.000000  1
  Nd  Nd1  1  0.500000  0.500000  0.000000  1
  In  In2  1  0.123561  0.623561  0.000000  1
  In  In3  1  0.876439  0.376439  0.000000  1
  In  In4  1  0.623561  0.876439  0.000000  1
  In  In5  1  0.376439  0.123561  0.000000  1
  Cu  Cu6  1  0.207359  0.064915  0.500000  1
  Cu  Cu7  1  0.792641  0.935085  0.500000  1
  Cu  Cu8  1  0.064915  0.792641  0.500000  1
  Cu  Cu9  1  0.707359  0.435085  0.500000  1
  Cu  Cu10  1  0.935085  0.207359  0.500000  1
  Cu  Cu11  1  0.292641  0.564915  0.500000  1
  Cu  Cu12  1  0.564915  0.707359  0.500000  1
  Cu  Cu13  1  0.435085  0.292641  0.500000  1
  Ni  Ni14  1  0.500000  0.000000  0.500000  1
  Ni  Ni15  1  0.000000  0.500000  0.500000  1
  Ni  Ni16  1  0.675544  0.175544  0.246374  1
  Ni  Ni17  1  0.324456  0.824456  0.753626  1
  Ni  Ni18  1  0.324456  0.824456  0.246374  1
  Ni  Ni19  1  0.175544  0.324456  0.246374  1
  Ni  Ni20  1  0.175544  0.324456  0.753626  1
  Ni  Ni21  1  0.675544  0.175544  0.753626  1
  Ni  Ni22  1  0.824456  0.675544  0.753626  1
  Ni  Ni23  1  0.824456  0.675544  0.246374  1
