# generated using pymatgen
data_PrEu2Co8P6W
_symmetry_space_group_name_H-M   'P 1'
_cell_length_a   3.77453400
_cell_length_b   10.68528300
_cell_length_c   12.44469400
_cell_angle_alpha   90.00000000
_cell_angle_beta   90.00000000
_cell_angle_gamma   90.00000000
_symmetry_Int_Tables_number   1
_chemical_formula_structural   PrEu2Co8P6W
_chemical_formula_sum   'Pr2 Eu4 Co16 P12 W2'
_cell_volume   501.91895019
_cell_formula_units_Z   2
loop_
 _symmetry_equiv_pos_site_id
 _symmetry_equiv_pos_as_xyz
  1  'x, y, z'
loop_
 _atom_site_type_symbol
 _atom_site_label
 _atom_site_symmetry_multiplicity
 _atom_site_fract_x
 _atom_site_fract_y
 _atom_site_fract_z
 _atom_site_occupancy
  Pr  Pr0  1  0.000000  0.500000  0.524883  1
  Pr  Pr1  1  0.500000  0.000000  0.475117  1
  Eu  Eu2  1  0.500000  0.820642  0.205203  1
  Eu  Eu3  1  0.500000  0.179358  0.205203  1
  Eu  Eu4  1  0.000000  0.679358  0.794797  1
  Eu  Eu5  1  0.000000  0.320642  0.794797  1
  Co  Co6  1  0.500000  0.500000  0.701757  1
  Co  Co7  1  0.000000  0.000000  0.298243  1
  Co  Co8  1  0.000000  0.500000  0.988922  1
  Co  Co9  1  0.500000  0.000000  0.011078  1
  Co  Co10  1  0.500000  0.332385  0.992809  1
  Co  Co11  1  0.500000  0.667615  0.992809  1
  Co  Co12  1  0.000000  0.167615  0.007191  1
  Co  Co13  1  0.000000  0.832385  0.007191  1
  Co  Co14  1  0.500000  0.295884  0.431160  1
  Co  Co15  1  0.500000  0.704116  0.431160  1
  Co  Co16  1  0.000000  0.204116  0.568840  1
  Co  Co17  1  0.000000  0.795884  0.568840  1
  Co  Co18  1  0.500000  0.881090  0.708812  1
  Co  Co19  1  0.500000  0.118910  0.708812  1
  Co  Co20  1  0.000000  0.618910  0.291188  1
  Co  Co21  1  0.000000  0.381090  0.291188  1
  P  P22  1  0.500000  0.500000  0.885056  1
  P  P23  1  0.000000  0.000000  0.114944  1
  P  P24  1  0.500000  0.500000  0.343789  1
  P  P25  1  0.000000  0.000000  0.656211  1
  P  P26  1  0.500000  0.304642  0.615667  1
  P  P27  1  0.500000  0.695358  0.615667  1
  P  P28  1  0.000000  0.195358  0.384333  1
  P  P29  1  0.000000  0.804642  0.384333  1
  P  P30  1  0.500000  0.844723  0.894010  1
  P  P31  1  0.500000  0.155277  0.894010  1
  P  P32  1  0.000000  0.655277  0.105990  1
  P  P33  1  0.000000  0.344723  0.105990  1
  W  W34  1  0.500000  0.500000  0.153454  1
  W  W35  1  0.000000  0.000000  0.846546  1
