# generated using pymatgen
data_Ho16InHg3Ir3Rh
_symmetry_space_group_name_H-M   'P 1'
_cell_length_a   9.59290180
_cell_length_b   9.58332392
_cell_length_c   9.54943277
_cell_angle_alpha   59.77604494
_cell_angle_beta   59.84990184
_cell_angle_gamma   59.96744110
_symmetry_Int_Tables_number   1
_chemical_formula_structural   Ho16InHg3Ir3Rh
_chemical_formula_sum   'Ho16 In1 Hg3 Ir3 Rh1'
_cell_volume   618.85442626
_cell_formula_units_Z   1
loop_
 _symmetry_equiv_pos_site_id
 _symmetry_equiv_pos_as_xyz
  1  'x, y, z'
loop_
 _atom_site_type_symbol
 _atom_site_label
 _atom_site_symmetry_multiplicity
 _atom_site_fract_x
 _atom_site_fract_y
 _atom_site_fract_z
 _atom_site_occupancy
  Ho  Ho0  1  0.188734  0.186043  0.811730  1
  Ho  Ho1  1  0.600585  0.600993  0.197842  1
  Ho  Ho2  1  0.441121  0.059883  0.438789  1
  Ho  Ho3  1  0.442425  0.438797  0.059320  1
  Ho  Ho4  1  0.813499  0.186039  0.811739  1
  Ho  Ho5  1  0.188575  0.809784  0.189660  1
  Ho  Ho6  1  0.439589  0.060166  0.060645  1
  Ho  Ho7  1  0.188100  0.812293  0.811484  1
  Ho  Ho8  1  0.059442  0.438812  0.059320  1
  Ho  Ho9  1  0.811969  0.809782  0.189659  1
  Ho  Ho10  1  0.198236  0.600690  0.600628  1
  Ho  Ho11  1  0.059259  0.439877  0.441595  1
  Ho  Ho12  1  0.060193  0.059879  0.438801  1
  Ho  Ho13  1  0.811485  0.186087  0.190940  1
  Ho  Ho14  1  0.601301  0.196032  0.601393  1
  Ho  Ho15  1  0.600447  0.600707  0.600615  1
  In  In16  1  0.831560  0.506188  0.830682  1
  Hg  Hg17  1  0.835163  0.835475  0.834690  1
  Hg  Hg18  1  0.835523  0.835569  0.493393  1
  Hg  Hg19  1  0.494680  0.835467  0.834694  1
  Ir  Ir20  1  0.391761  0.823171  0.393329  1
  Ir  Ir21  1  0.391437  0.392645  0.392782  1
  Ir  Ir22  1  0.823144  0.392649  0.392778  1
  Rh  Rh23  1  0.391776  0.392978  0.823492  1
