# generated using pymatgen
data_Ho5TlGa2
_symmetry_space_group_name_H-M   'P 1'
_cell_length_a   7.71275200
_cell_length_b   7.71275200
_cell_length_c   14.32840400
_cell_angle_alpha   90.00000000
_cell_angle_beta   90.00000000
_cell_angle_gamma   90.00000000
_symmetry_Int_Tables_number   1
_chemical_formula_structural   Ho5TlGa2
_chemical_formula_sum   'Ho20 Tl4 Ga8'
_cell_volume   852.34722659
_cell_formula_units_Z   4
loop_
 _symmetry_equiv_pos_site_id
 _symmetry_equiv_pos_as_xyz
  1  'x, y, z'
loop_
 _atom_site_type_symbol
 _atom_site_label
 _atom_site_symmetry_multiplicity
 _atom_site_fract_x
 _atom_site_fract_y
 _atom_site_fract_z
 _atom_site_occupancy
  Ho  Ho0  1  0.000000  0.500000  0.760081  1
  Ho  Ho1  1  0.000000  0.500000  0.260081  1
  Ho  Ho2  1  0.500000  0.000000  0.239919  1
  Ho  Ho3  1  0.500000  0.000000  0.739919  1
  Ho  Ho4  1  0.673290  0.660488  0.606033  1
  Ho  Ho5  1  0.673290  0.339512  0.106033  1
  Ho  Ho6  1  0.826710  0.839512  0.393967  1
  Ho  Ho7  1  0.173290  0.839512  0.893967  1
  Ho  Ho8  1  0.326710  0.339512  0.606033  1
  Ho  Ho9  1  0.326710  0.660488  0.106033  1
  Ho  Ho10  1  0.173290  0.160488  0.393967  1
  Ho  Ho11  1  0.826710  0.160488  0.893967  1
  Ho  Ho12  1  0.660488  0.326710  0.393967  1
  Ho  Ho13  1  0.339512  0.326710  0.893967  1
  Ho  Ho14  1  0.160488  0.826710  0.606033  1
  Ho  Ho15  1  0.839512  0.826710  0.106033  1
  Ho  Ho16  1  0.339512  0.673290  0.393967  1
  Ho  Ho17  1  0.660488  0.673290  0.893967  1
  Ho  Ho18  1  0.839512  0.173290  0.606033  1
  Ho  Ho19  1  0.160488  0.173290  0.106033  1
  Tl  Tl20  1  0.000000  0.500000  0.496330  1
  Tl  Tl21  1  0.000000  0.500000  0.996330  1
  Tl  Tl22  1  0.500000  0.000000  0.503670  1
  Tl  Tl23  1  0.500000  0.000000  0.003670  1
  Ga  Ga24  1  0.875702  0.875702  0.750000  1
  Ga  Ga25  1  0.875702  0.124298  0.250000  1
  Ga  Ga26  1  0.624298  0.624298  0.250000  1
  Ga  Ga27  1  0.375702  0.624298  0.750000  1
  Ga  Ga28  1  0.124298  0.124298  0.750000  1
  Ga  Ga29  1  0.124298  0.875702  0.250000  1
  Ga  Ga30  1  0.375702  0.375702  0.250000  1
  Ga  Ga31  1  0.624298  0.375702  0.750000  1
