# generated using pymatgen
data_Tb5HoAl24(Os3Pt)2
_symmetry_space_group_name_H-M   'P 1'
_cell_length_a   8.81600688
_cell_length_b   8.83569929
_cell_length_c   9.58710201
_cell_angle_alpha   89.87832848
_cell_angle_beta   89.95808529
_cell_angle_gamma   119.60439981
_symmetry_Int_Tables_number   1
_chemical_formula_structural   Tb5HoAl24(Os3Pt)2
_chemical_formula_sum   'Tb5 Ho1 Al24 Os6 Pt2'
_cell_volume   649.30150948
_cell_formula_units_Z   1
loop_
 _symmetry_equiv_pos_site_id
 _symmetry_equiv_pos_as_xyz
  1  'x, y, z'
loop_
 _atom_site_type_symbol
 _atom_site_label
 _atom_site_symmetry_multiplicity
 _atom_site_fract_x
 _atom_site_fract_y
 _atom_site_fract_z
 _atom_site_occupancy
  Tb  Tb0  1  0.190682  0.383696  0.252492  1
  Tb  Tb1  1  0.809488  0.616489  0.747520  1
  Tb  Tb2  1  0.613528  0.810541  0.253393  1
  Tb  Tb3  1  0.386555  0.189392  0.746596  1
  Tb  Tb4  1  0.194366  0.809746  0.252273  1
  Ho  Ho5  1  0.803821  0.190964  0.747171  1
  Al  Al6  1  0.335449  0.671421  0.025753  1
  Al  Al7  1  0.665023  0.328600  0.973254  1
  Al  Al8  1  0.667426  0.333377  0.523119  1
  Al  Al9  1  0.332565  0.666485  0.477552  1
  Al  Al10  1  0.163236  0.327156  0.574832  1
  Al  Al11  1  0.836122  0.672221  0.425912  1
  Al  Al12  1  0.671915  0.835638  0.575595  1
  Al  Al13  1  0.837451  0.676022  0.078257  1
  Al  Al14  1  0.328565  0.164702  0.425051  1
  Al  Al15  1  0.161953  0.323404  0.921041  1
  Al  Al16  1  0.163498  0.835151  0.575885  1
  Al  Al17  1  0.325665  0.158386  0.077038  1
  Al  Al18  1  0.836591  0.164628  0.425096  1
  Al  Al19  1  0.675014  0.842313  0.922130  1
  Al  Al20  1  0.832156  0.158920  0.076629  1
  Al  Al21  1  0.168018  0.841122  0.922228  1
  Al  Al22  1  0.560748  0.124110  0.248881  1
  Al  Al23  1  0.439912  0.876198  0.751046  1
  Al  Al24  1  0.874691  0.438098  0.251869  1
  Al  Al25  1  0.124734  0.561012  0.748372  1
  Al  Al26  1  0.562482  0.437418  0.252192  1
  Al  Al27  1  0.437470  0.562543  0.748000  1
  Al  Al28  1  0.999678  0.002496  0.250259  1
  Al  Al29  1  0.999262  0.998596  0.749672  1
  Os  Os30  1  0.500817  0.000447  0.999325  1
  Os  Os31  1  0.500715  0.000220  0.500551  1
  Os  Os32  1  0.999681  0.499296  0.500603  1
  Os  Os33  1  0.500062  0.499863  0.500377  1
  Os  Os34  1  0.000191  0.999777  0.999991  1
  Os  Os35  1  0.000285  0.999696  0.499940  1
  Pt  Pt36  1  0.000187  0.499856  0.000070  1
  Pt  Pt37  1  0.500004  0.500003  0.000036  1
