# generated using pymatgen
data_Er3Tm9Tc3Ru
_symmetry_space_group_name_H-M   'P 1'
_cell_length_a   6.20195743
_cell_length_b   7.33226401
_cell_length_c   8.98343200
_cell_angle_alpha   90.00000000
_cell_angle_beta   90.00000000
_cell_angle_gamma   90.02490384
_symmetry_Int_Tables_number   1
_chemical_formula_structural   Er3Tm9Tc3Ru
_chemical_formula_sum   'Er3 Tm9 Tc3 Ru1'
_cell_volume   408.51604528
_cell_formula_units_Z   1
loop_
 _symmetry_equiv_pos_site_id
 _symmetry_equiv_pos_as_xyz
  1  'x, y, z'
loop_
 _atom_site_type_symbol
 _atom_site_label
 _atom_site_symmetry_multiplicity
 _atom_site_fract_x
 _atom_site_fract_y
 _atom_site_fract_z
 _atom_site_occupancy
  Er  Er0  1  0.629449  0.041079  0.250000  1
  Er  Er1  1  0.375188  0.959984  0.750000  1
  Er  Er2  1  0.875198  0.541285  0.250000  1
  Tm  Tm3  1  0.124683  0.461121  0.750000  1
  Tm  Tm4  1  0.160818  0.175445  0.062463  1
  Tm  Tm5  1  0.837210  0.823619  0.937017  1
  Tm  Tm6  1  0.660146  0.324395  0.937479  1
  Tm  Tm7  1  0.837210  0.823619  0.562983  1
  Tm  Tm8  1  0.338605  0.675862  0.061977  1
  Tm  Tm9  1  0.160818  0.175445  0.437537  1
  Tm  Tm10  1  0.338605  0.675862  0.438023  1
  Tm  Tm11  1  0.660146  0.324395  0.562521  1
  Tc  Tc12  1  0.460106  0.384598  0.250000  1
  Tc  Tc13  1  0.540886  0.615469  0.750000  1
  Tc  Tc14  1  0.960856  0.114009  0.750000  1
  Ru  Ru15  1  0.040077  0.883812  0.250000  1
