# generated using pymatgen
data_Pa2SbRu2
_symmetry_space_group_name_H-M   'P 1'
_cell_length_a   7.53031700
_cell_length_b   7.53031700
_cell_length_c   3.55476900
_cell_angle_alpha   90.00000000
_cell_angle_beta   90.00000000
_cell_angle_gamma   90.00000000
_symmetry_Int_Tables_number   1
_chemical_formula_structural   Pa2SbRu2
_chemical_formula_sum   'Pa4 Sb2 Ru4'
_cell_volume   201.57557249
_cell_formula_units_Z   2
loop_
 _symmetry_equiv_pos_site_id
 _symmetry_equiv_pos_as_xyz
  1  'x, y, z'
loop_
 _atom_site_type_symbol
 _atom_site_label
 _atom_site_symmetry_multiplicity
 _atom_site_fract_x
 _atom_site_fract_y
 _atom_site_fract_z
 _atom_site_occupancy
  Pa  Pa0  1  0.332133  0.832133  0.500000  1
  Pa  Pa1  1  0.832133  0.667867  0.500000  1
  Pa  Pa2  1  0.167867  0.332133  0.500000  1
  Pa  Pa3  1  0.667867  0.167867  0.500000  1
  Sb  Sb4  1  0.000000  0.000000  0.000000  1
  Sb  Sb5  1  0.500000  0.500000  0.000000  1
  Ru  Ru6  1  0.364415  0.135585  0.000000  1
  Ru  Ru7  1  0.864415  0.364415  0.000000  1
  Ru  Ru8  1  0.135585  0.635585  0.000000  1
  Ru  Ru9  1  0.635585  0.864415  0.000000  1
