# generated using pymatgen
data_Er2TmHf5(Si4Ru3)4
_symmetry_space_group_name_H-M   'P 1'
_cell_length_a   10.00038832
_cell_length_b   10.00212770
_cell_length_c   13.47152928
_cell_angle_alpha   53.64007919
_cell_angle_beta   53.56511318
_cell_angle_gamma   31.18419349
_symmetry_Int_Tables_number   1
_chemical_formula_structural   Er2TmHf5(Si4Ru3)4
_chemical_formula_sum   'Er2 Tm1 Hf5 Si16 Ru12'
_cell_volume   549.59484661
_cell_formula_units_Z   1
loop_
 _symmetry_equiv_pos_site_id
 _symmetry_equiv_pos_as_xyz
  1  'x, y, z'
loop_
 _atom_site_type_symbol
 _atom_site_label
 _atom_site_symmetry_multiplicity
 _atom_site_fract_x
 _atom_site_fract_y
 _atom_site_fract_z
 _atom_site_occupancy
  Er  Er0  1  0.295261  0.560744  0.644967  1
  Er  Er1  1  0.441034  0.701121  0.857017  1
  Tm  Tm2  1  0.704536  0.439796  0.353617  1
  Hf  Hf3  1  0.557550  0.288669  0.152031  1
  Hf  Hf4  1  0.040021  0.294790  0.634910  1
  Hf  Hf5  1  0.703885  0.961720  0.865098  1
  Hf  Hf6  1  0.962397  0.704759  0.363351  1
  Hf  Hf7  1  0.295180  0.039272  0.135633  1
  Si  Si8  1  0.875055  0.123013  0.248937  1
  Si  Si9  1  0.119574  0.880768  0.750710  1
  Si  Si10  1  0.379320  0.618039  0.248320  1
  Si  Si11  1  0.623639  0.377284  0.749492  1
  Si  Si12  1  0.976630  0.254043  0.891491  1
  Si  Si13  1  0.748229  0.022284  0.608359  1
  Si  Si14  1  0.026441  0.746655  0.107886  1
  Si  Si15  1  0.251767  0.978318  0.390055  1
  Si  Si16  1  0.572909  0.084162  0.065666  1
  Si  Si17  1  0.915703  0.428817  0.434797  1
  Si  Si18  1  0.427353  0.918618  0.934004  1
  Si  Si19  1  0.083847  0.571226  0.565007  1
  Si  Si20  1  0.387263  0.142358  0.397473  1
  Si  Si21  1  0.858037  0.613771  0.102208  1
  Si  Si22  1  0.614499  0.856407  0.602358  1
  Si  Si23  1  0.142604  0.386962  0.897478  1
  Ru  Ru24  1  0.648810  0.832331  0.281054  1
  Ru  Ru25  1  0.171078  0.353813  0.217363  1
  Ru  Ru26  1  0.758421  0.484144  0.069781  1
  Ru  Ru27  1  0.832516  0.648768  0.782020  1
  Ru  Ru28  1  0.901925  0.140659  0.585526  1
  Ru  Ru29  1  0.853776  0.103855  0.916593  1
  Ru  Ru30  1  0.099839  0.857839  0.411853  1
  Ru  Ru31  1  0.139293  0.902465  0.084983  1
  Ru  Ru32  1  0.239639  0.516143  0.930325  1
  Ru  Ru33  1  0.483935  0.760165  0.570846  1
  Ru  Ru34  1  0.516024  0.238851  0.430946  1
  Ru  Ru35  1  0.352010  0.167368  0.717845  1
