# generated using pymatgen
data_Th6Co3Bi8Au3
_symmetry_space_group_name_H-M   'P 1'
_cell_length_a   8.71919218
_cell_length_b   8.71919441
_cell_length_c   8.73971166
_cell_angle_alpha   109.61383419
_cell_angle_beta   109.68487996
_cell_angle_gamma   109.01959100
_symmetry_Int_Tables_number   1
_chemical_formula_structural   Th6Co3Bi8Au3
_chemical_formula_sum   'Th6 Co3 Bi8 Au3'
_cell_volume   512.06446618
_cell_formula_units_Z   1
loop_
 _symmetry_equiv_pos_site_id
 _symmetry_equiv_pos_as_xyz
  1  'x, y, z'
loop_
 _atom_site_type_symbol
 _atom_site_label
 _atom_site_symmetry_multiplicity
 _atom_site_fract_x
 _atom_site_fract_y
 _atom_site_fract_z
 _atom_site_occupancy
  Th  Th0  1  0.377873  0.260165  0.633208  1
  Th  Th1  1  0.726462  0.859463  0.103484  1
  Th  Th2  1  0.255978  0.622978  0.396516  1
  Th  Th3  1  0.619261  0.369261  0.250000  1
  Th  Th4  1  0.882724  0.132724  0.750000  1
  Th  Th5  1  0.126956  0.744665  0.866792  1
  Co  Co6  1  0.253668  0.131494  0.876837  1
  Co  Co7  1  0.754657  0.376831  0.623163  1
  Co  Co8  1  0.378482  0.628482  0.750000  1
  Bi  Bi9  1  0.005065  0.335117  0.515769  1
  Bi  Bi10  1  0.820236  0.494214  0.980493  1
  Bi  Bi11  1  0.482950  0.992769  0.821804  1
  Bi  Bi12  1  0.670965  0.661146  0.678196  1
  Bi  Bi13  1  0.179368  0.172738  0.159484  1
  Bi  Bi14  1  0.319348  0.489295  0.984231  1
  Bi  Bi15  1  0.513253  0.019884  0.340516  1
  Bi  Bi16  1  0.013722  0.839744  0.519507  1
  Au  Au17  1  0.123716  0.873716  0.250000  1
  Au  Au18  1  0.622462  0.746660  0.373805  1
  Au  Au19  1  0.872855  0.248657  0.126195  1
