# generated using pymatgen
data_Er3Lu3TiMn5O18
_symmetry_space_group_name_H-M   'P 1'
_cell_length_a   6.13315483
_cell_length_b   6.12472205
_cell_length_c   11.60258008
_cell_angle_alpha   90.23922689
_cell_angle_beta   89.52881921
_cell_angle_gamma   120.03681747
_symmetry_Int_Tables_number   1
_chemical_formula_structural   Er3Lu3TiMn5O18
_chemical_formula_sum   'Er3 Lu3 Ti1 Mn5 O18'
_cell_volume   377.29373237
_cell_formula_units_Z   1
loop_
 _symmetry_equiv_pos_site_id
 _symmetry_equiv_pos_as_xyz
  1  'x, y, z'
loop_
 _atom_site_type_symbol
 _atom_site_label
 _atom_site_symmetry_multiplicity
 _atom_site_fract_x
 _atom_site_fract_y
 _atom_site_fract_z
 _atom_site_occupancy
  Er  Er0  1  0.665582  0.335283  0.229238  1
  Er  Er1  1  0.334824  0.666789  0.735247  1
  Er  Er2  1  0.667927  0.333149  0.735359  1
  Lu  Lu3  1  0.330220  0.664567  0.228895  1
  Lu  Lu4  1  0.002611  0.000027  0.777083  1
  Lu  Lu5  1  0.999200  0.000031  0.272967  1
  Ti  Ti6  1  0.665914  0.999690  0.500531  1
  Mn  Mn7  1  0.667759  0.669027  0.001304  1
  Mn  Mn8  1  0.000414  0.331871  0.001292  1
  Mn  Mn9  1  0.000611  0.667841  0.499808  1
  Mn  Mn10  1  0.332061  0.332841  0.499802  1
  Mn  Mn11  1  0.331504  0.999244  0.001474  1
  O  O12  1  0.667113  0.333646  0.023629  1
  O  O13  1  0.358213  0.691841  0.521992  1
  O  O14  1  0.666589  0.308079  0.521266  1
  O  O15  1  0.333418  0.666247  0.024076  1
  O  O16  1  0.000609  0.999937  0.973090  1
  O  O17  1  0.974707  0.999845  0.473868  1
  O  O18  1  0.358503  0.999875  0.837153  1
  O  O19  1  0.353938  0.357543  0.331330  1
  O  O20  1  0.003323  0.645845  0.331402  1
  O  O21  1  0.000769  0.358870  0.837578  1
  O  O22  1  0.641809  0.641238  0.837587  1
  O  O23  1  0.634711  0.996786  0.334210  1
  O  O24  1  0.301496  0.996478  0.165559  1
  O  O25  1  0.306776  0.306357  0.668756  1
  O  O26  1  0.000135  0.693466  0.668672  1
  O  O27  1  0.002313  0.304010  0.165670  1
  O  O28  1  0.694735  0.699524  0.165717  1
  O  O29  1  0.702212  0.000050  0.669438  1
