# generated using pymatgen
data_Tb4DyPt9
_symmetry_space_group_name_H-M   'P 1'
_cell_length_a   9.81219400
_cell_length_b   9.81219400
_cell_length_c   5.79608300
_cell_angle_alpha   90.00000000
_cell_angle_beta   90.00000000
_cell_angle_gamma   90.00000000
_symmetry_Int_Tables_number   1
_chemical_formula_structural   Tb4DyPt9
_chemical_formula_sum   'Tb8 Dy2 Pt18'
_cell_volume   558.04195091
_cell_formula_units_Z   2
loop_
 _symmetry_equiv_pos_site_id
 _symmetry_equiv_pos_as_xyz
  1  'x, y, z'
loop_
 _atom_site_type_symbol
 _atom_site_label
 _atom_site_symmetry_multiplicity
 _atom_site_fract_x
 _atom_site_fract_y
 _atom_site_fract_z
 _atom_site_occupancy
  Tb  Tb0  1  0.452390  0.808909  0.000000  1
  Tb  Tb1  1  0.547610  0.191091  0.000000  1
  Tb  Tb2  1  0.191091  0.547610  0.000000  1
  Tb  Tb3  1  0.808909  0.452390  0.000000  1
  Tb  Tb4  1  0.308909  0.047610  0.500000  1
  Tb  Tb5  1  0.691091  0.952390  0.500000  1
  Tb  Tb6  1  0.952390  0.691091  0.500000  1
  Tb  Tb7  1  0.047610  0.308909  0.500000  1
  Dy  Dy8  1  0.500000  0.500000  0.500000  1
  Dy  Dy9  1  0.000000  0.000000  0.000000  1
  Pt  Pt10  1  0.191698  0.808302  0.250544  1
  Pt  Pt11  1  0.808302  0.191698  0.749456  1
  Pt  Pt12  1  0.808302  0.191698  0.250544  1
  Pt  Pt13  1  0.191698  0.808302  0.749456  1
  Pt  Pt14  1  0.440167  0.781665  0.500000  1
  Pt  Pt15  1  0.559833  0.218335  0.500000  1
  Pt  Pt16  1  0.218335  0.559833  0.500000  1
  Pt  Pt17  1  0.781665  0.440167  0.500000  1
  Pt  Pt18  1  0.308302  0.308302  0.249456  1
  Pt  Pt19  1  0.691698  0.691698  0.750544  1
  Pt  Pt20  1  0.691698  0.691698  0.249456  1
  Pt  Pt21  1  0.308302  0.308302  0.750544  1
  Pt  Pt22  1  0.281665  0.059833  0.000000  1
  Pt  Pt23  1  0.718335  0.940167  0.000000  1
  Pt  Pt24  1  0.940167  0.718335  0.000000  1
  Pt  Pt25  1  0.059833  0.281665  0.000000  1
  Pt  Pt26  1  0.000000  0.000000  0.500000  1
  Pt  Pt27  1  0.500000  0.500000  0.000000  1
