# generated using pymatgen
data_TlRe2O4F7
_symmetry_space_group_name_H-M   'P 1'
_cell_length_a   5.20137900
_cell_length_b   5.56423231
_cell_length_c   14.97039800
_cell_angle_alpha   95.16227430
_cell_angle_beta   90.00000000
_cell_angle_gamma   90.00000000
_symmetry_Int_Tables_number   1
_chemical_formula_structural   TlRe2O4F7
_chemical_formula_sum   'Tl2 Re4 O8 F14'
_cell_volume   431.51108668
_cell_formula_units_Z   2
loop_
 _symmetry_equiv_pos_site_id
 _symmetry_equiv_pos_as_xyz
  1  'x, y, z'
loop_
 _atom_site_type_symbol
 _atom_site_label
 _atom_site_symmetry_multiplicity
 _atom_site_fract_x
 _atom_site_fract_y
 _atom_site_fract_z
 _atom_site_occupancy
  Tl  Tl0  1  0.679603  0.250000  0.750000  1
  Tl  Tl1  1  0.320397  0.750000  0.250000  1
  Re  Re2  1  0.247050  0.763628  0.890446  1
  Re  Re3  1  0.247050  0.736372  0.609554  1
  Re  Re4  1  0.752950  0.263628  0.390446  1
  Re  Re5  1  0.752950  0.236372  0.109554  1
  O  O6  1  0.594655  0.963451  0.099342  1
  O  O7  1  0.876642  0.253145  0.004870  1
  O  O8  1  0.405345  0.036549  0.900658  1
  O  O9  1  0.123358  0.753145  0.504870  1
  O  O10  1  0.594655  0.536549  0.400658  1
  O  O11  1  0.123358  0.746855  0.995130  1
  O  O12  1  0.405345  0.463451  0.599342  1
  O  O13  1  0.876642  0.246855  0.495130  1
  F  F14  1  0.549901  0.582766  0.904874  1
  F  F15  1  0.384033  0.750000  0.750000  1
  F  F16  1  0.947532  0.617649  0.661882  1
  F  F17  1  0.615967  0.250000  0.250000  1
  F  F18  1  0.124106  0.451974  0.835437  1
  F  F19  1  0.450099  0.082766  0.404874  1
  F  F20  1  0.875894  0.548026  0.164563  1
  F  F21  1  0.947532  0.882351  0.838118  1
  F  F22  1  0.875894  0.951974  0.335437  1
  F  F23  1  0.450099  0.417234  0.095126  1
  F  F24  1  0.052468  0.382351  0.338118  1
  F  F25  1  0.124106  0.048026  0.664563  1
  F  F26  1  0.052468  0.117649  0.161882  1
  F  F27  1  0.549901  0.917234  0.595126  1
