# generated using pymatgen
data_Tb2YbEr(Ga2Ag)4
_symmetry_space_group_name_H-M   'P 1'
_cell_length_a   4.36883100
_cell_length_b   6.98523429
_cell_length_c   10.28543941
_cell_angle_alpha   90.26452621
_cell_angle_beta   90.00000000
_cell_angle_gamma   90.00000000
_symmetry_Int_Tables_number   1
_chemical_formula_structural   Tb2YbEr(Ga2Ag)4
_chemical_formula_sum   'Tb2 Yb1 Er1 Ga8 Ag4'
_cell_volume   313.88057802
_cell_formula_units_Z   1
loop_
 _symmetry_equiv_pos_site_id
 _symmetry_equiv_pos_as_xyz
  1  'x, y, z'
loop_
 _atom_site_type_symbol
 _atom_site_label
 _atom_site_symmetry_multiplicity
 _atom_site_fract_x
 _atom_site_fract_y
 _atom_site_fract_z
 _atom_site_occupancy
  Tb  Tb0  1  0.250000  0.779690  0.826987  1
  Tb  Tb1  1  0.750000  0.222889  0.172591  1
  Yb  Yb2  1  0.250000  0.276031  0.671320  1
  Er  Er3  1  0.750000  0.721334  0.328789  1
  Ga  Ga4  1  0.250000  0.704104  0.535753  1
  Ga  Ga5  1  0.750000  0.298406  0.464153  1
  Ga  Ga6  1  0.750000  0.792985  0.038368  1
  Ga  Ga7  1  0.250000  0.201977  0.963717  1
  Ga  Ga8  1  0.250000  0.925946  0.154693  1
  Ga  Ga9  1  0.750000  0.072215  0.849024  1
  Ga  Ga10  1  0.750000  0.571805  0.650724  1
  Ga  Ga11  1  0.250000  0.429471  0.345306  1
  Ag  Ag12  1  0.250000  0.543584  0.097603  1
  Ag  Ag13  1  0.750000  0.456431  0.901277  1
  Ag  Ag14  1  0.750000  0.959109  0.597444  1
  Ag  Ag15  1  0.250000  0.044022  0.402250  1
