# generated using pymatgen
data_LiTb16In(AgRh2)2
_symmetry_space_group_name_H-M   'P 1'
_cell_length_a   9.62383079
_cell_length_b   9.64891465
_cell_length_c   9.64891457
_cell_angle_alpha   60.03862244
_cell_angle_beta   59.85644110
_cell_angle_gamma   59.85643176
_symmetry_Int_Tables_number   1
_chemical_formula_structural   LiTb16In(AgRh2)2
_chemical_formula_sum   'Li1 Tb16 In1 Ag2 Rh4'
_cell_volume   632.36837074
_cell_formula_units_Z   1
loop_
 _symmetry_equiv_pos_site_id
 _symmetry_equiv_pos_as_xyz
  1  'x, y, z'
loop_
 _atom_site_type_symbol
 _atom_site_label
 _atom_site_symmetry_multiplicity
 _atom_site_fract_x
 _atom_site_fract_y
 _atom_site_fract_z
 _atom_site_occupancy
  Li  Li0  1  0.427716  0.432791  0.432791  1
  Tb  Tb1  1  0.811122  0.808238  0.189588  1
  Tb  Tb2  1  0.811122  0.189588  0.808238  1
  Tb  Tb3  1  0.185553  0.187238  0.814602  1
  Tb  Tb4  1  0.651590  0.047326  0.650222  1
  Tb  Tb5  1  0.069302  0.060538  0.435153  1
  Tb  Tb6  1  0.438795  0.434650  0.059274  1
  Tb  Tb7  1  0.648000  0.648680  0.648680  1
  Tb  Tb8  1  0.812378  0.189333  0.189333  1
  Tb  Tb9  1  0.188181  0.811303  0.811303  1
  Tb  Tb10  1  0.047391  0.650185  0.650185  1
  Tb  Tb11  1  0.436265  0.062727  0.062727  1
  Tb  Tb12  1  0.438795  0.059274  0.434650  1
  Tb  Tb13  1  0.069302  0.435153  0.060538  1
  Tb  Tb14  1  0.651590  0.650222  0.047326  1
  Tb  Tb15  1  0.185553  0.814602  0.187238  1
  Tb  Tb16  1  0.064982  0.434517  0.434517  1
  In  In17  1  0.740883  0.419582  0.419582  1
  Ag  Ag18  1  0.414478  0.415501  0.751574  1
  Ag  Ag19  1  0.414478  0.751574  0.415501  1
  Rh  Rh20  1  0.854473  0.426772  0.856129  1
  Rh  Rh21  1  0.857374  0.857157  0.857157  1
  Rh  Rh22  1  0.854473  0.856129  0.426772  1
  Rh  Rh23  1  0.426206  0.856922  0.856922  1
