# generated using pymatgen
data_LiLaPr5IrBr12
_symmetry_space_group_name_H-M   'P 1'
_cell_length_a   9.65791943
_cell_length_b   9.61860163
_cell_length_c   9.79946209
_cell_angle_alpha   108.05540353
_cell_angle_beta   108.38470687
_cell_angle_gamma   107.96275349
_symmetry_Int_Tables_number   1
_chemical_formula_structural   LiLaPr5IrBr12
_chemical_formula_sum   'Li1 La1 Pr5 Ir1 Br12'
_cell_volume   733.39965251
_cell_formula_units_Z   1
loop_
 _symmetry_equiv_pos_site_id
 _symmetry_equiv_pos_as_xyz
  1  'x, y, z'
loop_
 _atom_site_type_symbol
 _atom_site_label
 _atom_site_symmetry_multiplicity
 _atom_site_fract_x
 _atom_site_fract_y
 _atom_site_fract_z
 _atom_site_occupancy
  Li  Li0  1  0.500314  0.499356  0.500942  1
  La  La1  1  0.117493  0.323062  0.035890  1
  Pr  Pr2  1  0.322774  0.038476  0.116853  1
  Pr  Pr3  1  0.036493  0.122597  0.331333  1
  Pr  Pr4  1  0.962895  0.874940  0.666977  1
  Pr  Pr5  1  0.677702  0.963643  0.882897  1
  Pr  Pr6  1  0.883009  0.681753  0.964560  1
  Ir  Ir7  1  0.001471  0.004338  0.999570  1
  Br  Br8  1  0.215676  0.688619  0.071301  1
  Br  Br9  1  0.470467  0.387831  0.184880  1
  Br  Br10  1  0.686072  0.068736  0.213766  1
  Br  Br11  1  0.930491  0.782271  0.309185  1
  Br  Br12  1  0.182761  0.467006  0.386840  1
  Br  Br13  1  0.381621  0.176005  0.460490  1
  Br  Br14  1  0.617846  0.821727  0.538946  1
  Br  Br15  1  0.818574  0.532351  0.619031  1
  Br  Br16  1  0.066888  0.212157  0.684273  1
  Br  Br17  1  0.313401  0.929503  0.785673  1
  Br  Br18  1  0.534544  0.612941  0.819051  1
  Br  Br19  1  0.779512  0.312689  0.927548  1
