# generated using pymatgen
data_Ca2Sn2IrPt
_symmetry_space_group_name_H-M   'P 1'
_cell_length_a   4.57080800
_cell_length_b   7.43063000
_cell_length_c   8.00206500
_cell_angle_alpha   90.00000000
_cell_angle_beta   90.00000000
_cell_angle_gamma   90.00000000
_symmetry_Int_Tables_number   1
_chemical_formula_structural   Ca2Sn2IrPt
_chemical_formula_sum   'Ca4 Sn4 Ir2 Pt2'
_cell_volume   271.78200002
_cell_formula_units_Z   2
loop_
 _symmetry_equiv_pos_site_id
 _symmetry_equiv_pos_as_xyz
  1  'x, y, z'
loop_
 _atom_site_type_symbol
 _atom_site_label
 _atom_site_symmetry_multiplicity
 _atom_site_fract_x
 _atom_site_fract_y
 _atom_site_fract_z
 _atom_site_occupancy
  Ca  Ca0  1  0.250000  0.978787  0.318199  1
  Ca  Ca1  1  0.250000  0.478787  0.181801  1
  Ca  Ca2  1  0.750000  0.021857  0.680228  1
  Ca  Ca3  1  0.750000  0.521857  0.819772  1
  Sn  Sn4  1  0.250000  0.341666  0.578065  1
  Sn  Sn5  1  0.250000  0.841666  0.921935  1
  Sn  Sn6  1  0.750000  0.661985  0.432528  1
  Sn  Sn7  1  0.750000  0.161985  0.067472  1
  Ir  Ir8  1  0.250000  0.210010  0.891223  1
  Ir  Ir9  1  0.250000  0.710010  0.608777  1
  Pt  Pt10  1  0.750000  0.785696  0.111445  1
  Pt  Pt11  1  0.750000  0.285696  0.388555  1
