# generated using pymatgen
data_Tb3HfMn7CoP6
_symmetry_space_group_name_H-M   'P 1'
_cell_length_a   3.71677100
_cell_length_b   10.93495800
_cell_length_c   12.88479400
_cell_angle_alpha   90.00000000
_cell_angle_beta   90.00000000
_cell_angle_gamma   90.00000000
_symmetry_Int_Tables_number   1
_chemical_formula_structural   Tb3HfMn7CoP6
_chemical_formula_sum   'Tb6 Hf2 Mn14 Co2 P12'
_cell_volume   523.67326524
_cell_formula_units_Z   2
loop_
 _symmetry_equiv_pos_site_id
 _symmetry_equiv_pos_as_xyz
  1  'x, y, z'
loop_
 _atom_site_type_symbol
 _atom_site_label
 _atom_site_symmetry_multiplicity
 _atom_site_fract_x
 _atom_site_fract_y
 _atom_site_fract_z
 _atom_site_occupancy
  Tb  Tb0  1  0.000000  0.500000  0.535886  1
  Tb  Tb1  1  0.500000  0.000000  0.464114  1
  Tb  Tb2  1  0.500000  0.825112  0.207270  1
  Tb  Tb3  1  0.500000  0.174888  0.207270  1
  Tb  Tb4  1  0.000000  0.674888  0.792730  1
  Tb  Tb5  1  0.000000  0.325112  0.792730  1
  Hf  Hf6  1  0.500000  0.500000  0.165235  1
  Hf  Hf7  1  0.000000  0.000000  0.834765  1
  Mn  Mn8  1  0.000000  0.500000  0.989633  1
  Mn  Mn9  1  0.500000  0.000000  0.010367  1
  Mn  Mn10  1  0.500000  0.332522  0.995736  1
  Mn  Mn11  1  0.500000  0.667478  0.995736  1
  Mn  Mn12  1  0.000000  0.167478  0.004264  1
  Mn  Mn13  1  0.000000  0.832522  0.004264  1
  Mn  Mn14  1  0.500000  0.294962  0.435316  1
  Mn  Mn15  1  0.500000  0.705038  0.435316  1
  Mn  Mn16  1  0.000000  0.205038  0.564684  1
  Mn  Mn17  1  0.000000  0.794962  0.564684  1
  Mn  Mn18  1  0.500000  0.880328  0.693744  1
  Mn  Mn19  1  0.500000  0.119672  0.693744  1
  Mn  Mn20  1  0.000000  0.619672  0.306256  1
  Mn  Mn21  1  0.000000  0.380328  0.306256  1
  Co  Co22  1  0.500000  0.500000  0.705701  1
  Co  Co23  1  0.000000  0.000000  0.294299  1
  P  P24  1  0.500000  0.500000  0.880060  1
  P  P25  1  0.000000  0.000000  0.119940  1
  P  P26  1  0.500000  0.500000  0.369321  1
  P  P27  1  0.000000  0.000000  0.630679  1
  P  P28  1  0.500000  0.318051  0.617270  1
  P  P29  1  0.500000  0.681949  0.617270  1
  P  P30  1  0.000000  0.181949  0.382730  1
  P  P31  1  0.000000  0.818051  0.382730  1
  P  P32  1  0.500000  0.838758  0.888590  1
  P  P33  1  0.500000  0.161242  0.888590  1
  P  P34  1  0.000000  0.661242  0.111410  1
  P  P35  1  0.000000  0.338758  0.111410  1
