# generated using pymatgen
data_Ce3Tm6Lu(Ga2Ru3)2
_symmetry_space_group_name_H-M   'P 1'
_cell_length_a   8.35385636
_cell_length_b   8.35385583
_cell_length_c   8.35385700
_cell_angle_alpha   110.06538894
_cell_angle_beta   110.06539490
_cell_angle_gamma   110.06539157
_symmetry_Int_Tables_number   1
_chemical_formula_structural   Ce3Tm6Lu(Ga2Ru3)2
_chemical_formula_sum   'Ce3 Tm6 Lu1 Ga4 Ru6'
_cell_volume   438.63562626
_cell_formula_units_Z   1
loop_
 _symmetry_equiv_pos_site_id
 _symmetry_equiv_pos_as_xyz
  1  'x, y, z'
loop_
 _atom_site_type_symbol
 _atom_site_label
 _atom_site_symmetry_multiplicity
 _atom_site_fract_x
 _atom_site_fract_y
 _atom_site_fract_z
 _atom_site_occupancy
  Ce  Ce0  1  0.253162  0.199834  0.944910  1
  Ce  Ce1  1  0.944910  0.253162  0.199834  1
  Ce  Ce2  1  0.199834  0.944910  0.253162  1
  Tm  Tm3  1  0.314829  0.568548  0.751374  1
  Tm  Tm4  1  0.751374  0.314829  0.568548  1
  Tm  Tm5  1  0.568548  0.751374  0.314829  1
  Tm  Tm6  1  0.722572  0.506548  0.995109  1
  Tm  Tm7  1  0.995109  0.722572  0.506548  1
  Tm  Tm8  1  0.506548  0.995109  0.722572  1
  Lu  Lu9  1  0.777824  0.777824  0.777824  1
  Ga  Ga10  1  0.417107  0.417107  0.417107  1
  Ga  Ga11  1  0.091772  0.499002  0.000349  1
  Ga  Ga12  1  0.000349  0.091772  0.499002  1
  Ga  Ga13  1  0.499002  0.000349  0.091772  1
  Ru  Ru14  1  0.892792  0.115194  0.753013  1
  Ru  Ru15  1  0.753013  0.892792  0.115194  1
  Ru  Ru16  1  0.115194  0.753013  0.892792  1
  Ru  Ru17  1  0.225369  0.601039  0.369655  1
  Ru  Ru18  1  0.369655  0.225369  0.601039  1
  Ru  Ru19  1  0.601039  0.369655  0.225369  1
