# generated using pymatgen
data_Dy17Lu3(Ir5Pt)2
_symmetry_space_group_name_H-M   'P 1'
_cell_length_a   10.90904208
_cell_length_b   10.91634709
_cell_length_c   6.33774201
_cell_angle_alpha   89.99420975
_cell_angle_beta   89.99873193
_cell_angle_gamma   89.98654325
_symmetry_Int_Tables_number   1
_chemical_formula_structural   Dy17Lu3(Ir5Pt)2
_chemical_formula_sum   'Dy17 Lu3 Ir10 Pt2'
_cell_volume   754.74195873
_cell_formula_units_Z   1
loop_
 _symmetry_equiv_pos_site_id
 _symmetry_equiv_pos_as_xyz
  1  'x, y, z'
loop_
 _atom_site_type_symbol
 _atom_site_label
 _atom_site_symmetry_multiplicity
 _atom_site_fract_x
 _atom_site_fract_y
 _atom_site_fract_z
 _atom_site_occupancy
  Dy  Dy0  1  0.290300  0.087928  0.377617  1
  Dy  Dy1  1  0.290265  0.912044  0.877521  1
  Dy  Dy2  1  0.707017  0.089410  0.875299  1
  Dy  Dy3  1  0.706942  0.910576  0.375540  1
  Dy  Dy4  1  0.584813  0.790110  0.879838  1
  Dy  Dy5  1  0.585064  0.209251  0.379808  1
  Dy  Dy6  1  0.411104  0.791224  0.378695  1
  Dy  Dy7  1  0.411591  0.209288  0.878786  1
  Dy  Dy8  1  0.208856  0.411554  0.621104  1
  Dy  Dy9  1  0.209469  0.587987  0.121041  1
  Dy  Dy10  1  0.790051  0.414645  0.121283  1
  Dy  Dy11  1  0.790605  0.585760  0.621255  1
  Dy  Dy12  1  0.913428  0.708302  0.125003  1
  Dy  Dy13  1  0.913567  0.291794  0.624812  1
  Dy  Dy14  1  0.090570  0.708234  0.621294  1
  Dy  Dy15  1  0.090652  0.291798  0.121519  1
  Dy  Dy16  1  0.499783  0.500191  0.499941  1
  Lu  Lu17  1  0.002802  0.999830  0.499918  1
  Lu  Lu18  1  0.002815  0.000247  0.000061  1
  Lu  Lu19  1  0.499863  0.499829  0.999888  1
  Ir  Ir20  1  0.149932  0.150990  0.749831  1
  Ir  Ir21  1  0.150260  0.849290  0.250262  1
  Ir  Ir22  1  0.653560  0.346653  0.751851  1
  Ir  Ir23  1  0.653861  0.653075  0.247714  1
  Ir  Ir24  1  0.347295  0.347344  0.248068  1
  Ir  Ir25  1  0.347459  0.652943  0.752165  1
  Ir  Ir26  1  0.500820  0.999866  0.124850  1
  Ir  Ir27  1  0.500790  0.000094  0.624904  1
  Ir  Ir28  1  0.999592  0.500122  0.875288  1
  Ir  Ir29  1  0.999584  0.499892  0.375185  1
  Pt  Pt30  1  0.848523  0.150232  0.249959  1
  Pt  Pt31  1  0.848769  0.849495  0.749702  1
