# generated using pymatgen
data_La2Al2GaSi
_symmetry_space_group_name_H-M   'P 1'
_cell_length_a   4.43575600
_cell_length_b   4.32301100
_cell_length_c   7.46627500
_cell_angle_alpha   90.00000000
_cell_angle_beta   90.00000000
_cell_angle_gamma   90.00000000
_symmetry_Int_Tables_number   1
_chemical_formula_structural   La2Al2GaSi
_chemical_formula_sum   'La2 Al2 Ga1 Si1'
_cell_volume   143.17196026
_cell_formula_units_Z   1
loop_
 _symmetry_equiv_pos_site_id
 _symmetry_equiv_pos_as_xyz
  1  'x, y, z'
loop_
 _atom_site_type_symbol
 _atom_site_label
 _atom_site_symmetry_multiplicity
 _atom_site_fract_x
 _atom_site_fract_y
 _atom_site_fract_z
 _atom_site_occupancy
  La  La0  1  0.000000  0.500000  0.004599  1
  La  La1  1  0.000000  0.000000  0.495952  1
  Al  Al2  1  0.500000  0.000000  0.166627  1
  Al  Al3  1  0.500000  0.500000  0.666008  1
  Ga  Ga4  1  0.500000  0.000000  0.831604  1
  Si  Si5  1  0.500000  0.500000  0.335209  1
