# generated using pymatgen
data_Dy7Th(Si4Mo3)4
_symmetry_space_group_name_H-M   'P 1'
_cell_length_a   6.79709426
_cell_length_b   6.96655202
_cell_length_c   12.98038629
_cell_angle_alpha   90.11177872
_cell_angle_beta   90.03298663
_cell_angle_gamma   89.90866863
_symmetry_Int_Tables_number   1
_chemical_formula_structural   Dy7Th(Si4Mo3)4
_chemical_formula_sum   'Dy7 Th1 Si16 Mo12'
_cell_volume   614.64923364
_cell_formula_units_Z   1
loop_
 _symmetry_equiv_pos_site_id
 _symmetry_equiv_pos_as_xyz
  1  'x, y, z'
loop_
 _atom_site_type_symbol
 _atom_site_label
 _atom_site_symmetry_multiplicity
 _atom_site_fract_x
 _atom_site_fract_y
 _atom_site_fract_z
 _atom_site_occupancy
  Dy  Dy0  1  0.496051  0.333283  0.093973  1
  Dy  Dy1  1  0.997184  0.166469  0.406290  1
  Dy  Dy2  1  0.502839  0.667012  0.594543  1
  Dy  Dy3  1  0.002754  0.833596  0.903954  1
  Dy  Dy4  1  0.503274  0.666976  0.904182  1
  Dy  Dy5  1  0.002307  0.833023  0.594453  1
  Dy  Dy6  1  0.497015  0.333759  0.407560  1
  Th  Th7  1  0.997581  0.166137  0.093633  1
  Si  Si8  1  0.657803  0.042722  0.547589  1
  Si  Si9  1  0.160749  0.461608  0.950931  1
  Si  Si10  1  0.347403  0.952667  0.046119  1
  Si  Si11  1  0.842516  0.541596  0.452502  1
  Si  Si12  1  0.341956  0.957313  0.452911  1
  Si  Si13  1  0.838286  0.549058  0.045930  1
  Si  Si14  1  0.656195  0.042502  0.950423  1
  Si  Si15  1  0.158234  0.458123  0.547681  1
  Si  Si16  1  0.535052  0.364457  0.749567  1
  Si  Si17  1  0.035811  0.135447  0.749426  1
  Si  Si18  1  0.465299  0.635428  0.250006  1
  Si  Si19  1  0.963869  0.859888  0.252629  1
  Si  Si20  1  0.802560  0.627995  0.749342  1
  Si  Si21  1  0.303289  0.871709  0.749491  1
  Si  Si22  1  0.200286  0.375746  0.252910  1
  Si  Si23  1  0.691289  0.127528  0.252827  1
  Mo  Mo24  1  0.832507  0.334456  0.625057  1
  Mo  Mo25  1  0.330643  0.164285  0.874519  1
  Mo  Mo26  1  0.168390  0.663872  0.125901  1
  Mo  Mo27  1  0.668420  0.833791  0.375784  1
  Mo  Mo28  1  0.169307  0.665503  0.375832  1
  Mo  Mo29  1  0.669888  0.837080  0.126443  1
  Mo  Mo30  1  0.832474  0.334748  0.874401  1
  Mo  Mo31  1  0.330093  0.164801  0.624946  1
  Mo  Mo32  1  0.665624  0.999234  0.749361  1
  Mo  Mo33  1  0.165064  0.501786  0.750012  1
  Mo  Mo34  1  0.333203  0.000702  0.249823  1
  Mo  Mo35  1  0.834787  0.495701  0.249048  1
