# generated using pymatgen
data_Li6YHoUN6
_symmetry_space_group_name_H-M   'P 1'
_cell_length_a   6.00515500
_cell_length_b   6.00515680
_cell_length_c   5.48220300
_cell_angle_alpha   90.00000000
_cell_angle_beta   90.00000000
_cell_angle_gamma   120.00000659
_symmetry_Int_Tables_number   1
_chemical_formula_structural   Li6YHoUN6
_chemical_formula_sum   'Li6 Y1 Ho1 U1 N6'
_cell_volume   171.21203501
_cell_formula_units_Z   1
loop_
 _symmetry_equiv_pos_site_id
 _symmetry_equiv_pos_as_xyz
  1  'x, y, z'
loop_
 _atom_site_type_symbol
 _atom_site_label
 _atom_site_symmetry_multiplicity
 _atom_site_fract_x
 _atom_site_fract_y
 _atom_site_fract_z
 _atom_site_occupancy
  Li  Li0  1  0.983320  0.653649  0.606472  1
  Li  Li1  1  0.346351  0.329670  0.606472  1
  Li  Li2  1  0.670330  0.016680  0.606472  1
  Li  Li3  1  0.007622  0.338188  0.391727  1
  Li  Li4  1  0.661812  0.669434  0.391727  1
  Li  Li5  1  0.330566  0.992378  0.391727  1
  Y  Y6  1  0.000000  0.000000  0.998950  1
  Ho  Ho7  1  0.333333  0.666667  0.993240  1
  U  U8  1  0.666667  0.333333  0.005137  1
  N  N9  1  0.978800  0.644004  0.226379  1
  N  N10  1  0.355996  0.334797  0.226379  1
  N  N11  1  0.665203  0.021200  0.226379  1
  N  N12  1  0.976743  0.335190  0.776312  1
  N  N13  1  0.664810  0.641553  0.776312  1
  N  N14  1  0.358447  0.023257  0.776312  1
