# generated using pymatgen
data_Hf16FePt7N4
_symmetry_space_group_name_H-M   'P 1'
_cell_length_a   8.74046077
_cell_length_b   8.74596201
_cell_length_c   8.74596300
_cell_angle_alpha   60.00000005
_cell_angle_beta   59.97917749
_cell_angle_gamma   59.97917114
_symmetry_Int_Tables_number   1
_chemical_formula_structural   Hf16FePt7N4
_chemical_formula_sum   'Hf16 Fe1 Pt7 N4'
_cell_volume   472.60441418
_cell_formula_units_Z   1
loop_
 _symmetry_equiv_pos_site_id
 _symmetry_equiv_pos_as_xyz
  1  'x, y, z'
loop_
 _atom_site_type_symbol
 _atom_site_label
 _atom_site_symmetry_multiplicity
 _atom_site_fract_x
 _atom_site_fract_y
 _atom_site_fract_z
 _atom_site_occupancy
  Hf  Hf0  1  0.123492  0.625503  0.625503  1
  Hf  Hf1  1  0.628727  0.136049  0.617612  1
  Hf  Hf2  1  0.628727  0.617612  0.136049  1
  Hf  Hf3  1  0.628727  0.617612  0.617612  1
  Hf  Hf4  1  0.818219  0.815870  0.182955  1
  Hf  Hf5  1  0.183932  0.181971  0.817048  1
  Hf  Hf6  1  0.818219  0.182955  0.815870  1
  Hf  Hf7  1  0.183932  0.817048  0.181971  1
  Hf  Hf8  1  0.183932  0.817048  0.817048  1
  Hf  Hf9  1  0.818219  0.182955  0.182955  1
  Hf  Hf10  1  0.431000  0.432607  0.068196  1
  Hf  Hf11  1  0.058616  0.077679  0.431853  1
  Hf  Hf12  1  0.431000  0.068196  0.432607  1
  Hf  Hf13  1  0.058616  0.431853  0.077679  1
  Hf  Hf14  1  0.058616  0.431853  0.431853  1
  Hf  Hf15  1  0.431000  0.068196  0.068196  1
  Fe  Fe16  1  0.790784  0.403072  0.403072  1
  Pt  Pt17  1  0.405876  0.780536  0.406794  1
  Pt  Pt18  1  0.405876  0.406794  0.780536  1
  Pt  Pt19  1  0.405876  0.406794  0.406794  1
  Pt  Pt20  1  0.478139  0.840620  0.840620  1
  Pt  Pt21  1  0.841426  0.471205  0.843684  1
  Pt  Pt22  1  0.841426  0.843684  0.471205  1
  Pt  Pt23  1  0.841426  0.843684  0.843684  1
  N  N24  1  0.624760  0.125080  0.125080  1
  N  N25  1  0.126478  0.625473  0.124024  1
  N  N26  1  0.126478  0.124024  0.625473  1
  N  N27  1  0.126478  0.124024  0.124024  1
