# generated using pymatgen
data_NbI11
_symmetry_space_group_name_H-M   'P 1'
_cell_length_a   8.82702257
_cell_length_b   8.96811505
_cell_length_c   9.20897044
_cell_angle_alpha   88.33123262
_cell_angle_beta   63.44353594
_cell_angle_gamma   87.89883544
_symmetry_Int_Tables_number   1
_chemical_formula_structural   NbI11
_chemical_formula_sum   'Nb1 I11'
_cell_volume   651.58020312
_cell_formula_units_Z   1
loop_
 _symmetry_equiv_pos_site_id
 _symmetry_equiv_pos_as_xyz
  1  'x, y, z'
loop_
 _atom_site_type_symbol
 _atom_site_label
 _atom_site_symmetry_multiplicity
 _atom_site_fract_x
 _atom_site_fract_y
 _atom_site_fract_z
 _atom_site_occupancy
  Nb  Nb0  1  0.000000  0.500000  0.500000  1
  I  I1  1  0.000000  0.000000  0.000000  1
  I  I2  1  0.255150  0.588549  0.183416  1
  I  I3  1  0.456639  0.827138  0.216561  1
  I  I4  1  0.653779  0.070501  0.244798  1
  I  I5  1  0.773770  0.495022  0.372415  1
  I  I6  1  0.088574  0.208961  0.416595  1
  I  I7  1  0.911427  0.791039  0.583405  1
  I  I8  1  0.226230  0.504978  0.627586  1
  I  I9  1  0.346221  0.929499  0.755202  1
  I  I10  1  0.543360  0.172862  0.783440  1
  I  I11  1  0.744850  0.411451  0.816585  1
