# generated using pymatgen
data_LiDy6Cr(Co4P3)4
_symmetry_space_group_name_H-M   'P 1'
_cell_length_a   3.70647200
_cell_length_b   10.59024300
_cell_length_c   12.20733300
_cell_angle_alpha   90.00000000
_cell_angle_beta   90.00000000
_cell_angle_gamma   90.00000000
_symmetry_Int_Tables_number   1
_chemical_formula_structural   LiDy6Cr(Co4P3)4
_chemical_formula_sum   'Li1 Dy6 Cr1 Co16 P12'
_cell_volume   479.16759580
_cell_formula_units_Z   1
loop_
 _symmetry_equiv_pos_site_id
 _symmetry_equiv_pos_as_xyz
  1  'x, y, z'
loop_
 _atom_site_type_symbol
 _atom_site_label
 _atom_site_symmetry_multiplicity
 _atom_site_fract_x
 _atom_site_fract_y
 _atom_site_fract_z
 _atom_site_occupancy
  Li  Li0  1  0.500000  0.500000  0.151936  1
  Dy  Dy1  1  0.000000  0.500000  0.521980  1
  Dy  Dy2  1  0.500000  0.000000  0.477642  1
  Dy  Dy3  1  0.500000  0.819349  0.205067  1
  Dy  Dy4  1  0.500000  0.180651  0.205067  1
  Dy  Dy5  1  0.000000  0.682029  0.794100  1
  Dy  Dy6  1  0.000000  0.317971  0.794100  1
  Cr  Cr7  1  0.000000  0.000000  0.843881  1
  Co  Co8  1  0.500000  0.500000  0.704713  1
  Co  Co9  1  0.000000  0.000000  0.297208  1
  Co  Co10  1  0.000000  0.500000  0.986286  1
  Co  Co11  1  0.500000  0.000000  0.011266  1
  Co  Co12  1  0.500000  0.330802  0.994703  1
  Co  Co13  1  0.500000  0.669198  0.994703  1
  Co  Co14  1  0.000000  0.165478  0.004375  1
  Co  Co15  1  0.000000  0.834522  0.004375  1
  Co  Co16  1  0.500000  0.295757  0.432154  1
  Co  Co17  1  0.500000  0.704243  0.432154  1
  Co  Co18  1  0.000000  0.202885  0.570591  1
  Co  Co19  1  0.000000  0.797115  0.570591  1
  Co  Co20  1  0.500000  0.879981  0.708929  1
  Co  Co21  1  0.500000  0.120019  0.708929  1
  Co  Co22  1  0.000000  0.622515  0.293194  1
  Co  Co23  1  0.000000  0.377485  0.293194  1
  P  P24  1  0.500000  0.500000  0.884970  1
  P  P25  1  0.000000  0.000000  0.116949  1
  P  P26  1  0.500000  0.500000  0.345048  1
  P  P27  1  0.000000  0.000000  0.653705  1
  P  P28  1  0.500000  0.310397  0.616159  1
  P  P29  1  0.500000  0.689603  0.616159  1
  P  P30  1  0.000000  0.189840  0.385033  1
  P  P31  1  0.000000  0.810160  0.385033  1
  P  P32  1  0.500000  0.846739  0.891681  1
  P  P33  1  0.500000  0.153261  0.891681  1
  P  P34  1  0.000000  0.656518  0.106224  1
  P  P35  1  0.000000  0.343482  0.106224  1
