# generated using pymatgen
data_Tl5HgIO12
_symmetry_space_group_name_H-M   'P 1'
_cell_length_a   6.58993909
_cell_length_b   6.44716024
_cell_length_c   6.61970900
_cell_angle_alpha   98.42573192
_cell_angle_beta   99.51121619
_cell_angle_gamma   96.46714823
_symmetry_Int_Tables_number   1
_chemical_formula_structural   Tl5HgIO12
_chemical_formula_sum   'Tl5 Hg1 I1 O12'
_cell_volume   271.67476877
_cell_formula_units_Z   1
loop_
 _symmetry_equiv_pos_site_id
 _symmetry_equiv_pos_as_xyz
  1  'x, y, z'
loop_
 _atom_site_type_symbol
 _atom_site_label
 _atom_site_symmetry_multiplicity
 _atom_site_fract_x
 _atom_site_fract_y
 _atom_site_fract_z
 _atom_site_occupancy
  Tl  Tl0  1  0.389854  0.697287  0.860378  1
  Tl  Tl1  1  0.860989  0.391677  0.687764  1
  Tl  Tl2  1  0.689592  0.860739  0.390064  1
  Tl  Tl3  1  0.609492  0.306025  0.130083  1
  Tl  Tl4  1  0.144244  0.608302  0.317088  1
  Hg  Hg5  1  0.311278  0.141371  0.600178  1
  I  I6  1  0.997262  0.996601  0.001527  1
  O  O7  1  0.171674  0.430191  0.610409  1
  O  O8  1  0.617908  0.178083  0.413464  1
  O  O9  1  0.418039  0.603772  0.169274  1
  O  O10  1  0.827584  0.577738  0.392363  1
  O  O11  1  0.403674  0.824736  0.574954  1
  O  O12  1  0.588822  0.408025  0.831368  1
  O  O13  1  0.923251  0.032051  0.717790  1
  O  O14  1  0.977597  0.291367  0.080018  1
  O  O15  1  0.287007  0.053051  0.990031  1
  O  O16  1  0.055965  0.958774  0.286874  1
  O  O17  1  0.020031  0.703016  0.925340  1
  O  O18  1  0.705735  0.937194  0.021031  1
