# generated using pymatgen
data_Sc2Al3Tc
_symmetry_space_group_name_H-M   'P 1'
_cell_length_a   5.31071200
_cell_length_b   5.31071293
_cell_length_c   8.70523300
_cell_angle_alpha   90.00000000
_cell_angle_beta   90.00000000
_cell_angle_gamma   120.00000667
_symmetry_Int_Tables_number   1
_chemical_formula_structural   Sc2Al3Tc
_chemical_formula_sum   'Sc4 Al6 Tc2'
_cell_volume   212.62610262
_cell_formula_units_Z   2
loop_
 _symmetry_equiv_pos_site_id
 _symmetry_equiv_pos_as_xyz
  1  'x, y, z'
loop_
 _atom_site_type_symbol
 _atom_site_label
 _atom_site_symmetry_multiplicity
 _atom_site_fract_x
 _atom_site_fract_y
 _atom_site_fract_z
 _atom_site_occupancy
  Sc  Sc0  1  0.333333  0.666667  0.050397  1
  Sc  Sc1  1  0.666667  0.333333  0.550397  1
  Sc  Sc2  1  0.333333  0.666667  0.449603  1
  Sc  Sc3  1  0.666667  0.333333  0.949603  1
  Al  Al4  1  0.835017  0.670034  0.250000  1
  Al  Al5  1  0.164983  0.835017  0.750000  1
  Al  Al6  1  0.670034  0.835017  0.750000  1
  Al  Al7  1  0.329966  0.164983  0.250000  1
  Al  Al8  1  0.835017  0.164983  0.250000  1
  Al  Al9  1  0.164983  0.329966  0.750000  1
  Tc  Tc10  1  0.000000  0.000000  0.500000  1
  Tc  Tc11  1  0.000000  0.000000  0.000000  1
