# generated using pymatgen
data_CaTmSc2(NiAs2)2
_symmetry_space_group_name_H-M   'P 1'
_cell_length_a   4.08925900
_cell_length_b   4.08925873
_cell_length_c   13.35301400
_cell_angle_alpha   90.00000000
_cell_angle_beta   90.00000000
_cell_angle_gamma   120.00002644
_symmetry_Int_Tables_number   1
_chemical_formula_structural   CaTmSc2(NiAs2)2
_chemical_formula_sum   'Ca1 Tm1 Sc2 Ni2 As4'
_cell_volume   193.37442178
_cell_formula_units_Z   1
loop_
 _symmetry_equiv_pos_site_id
 _symmetry_equiv_pos_as_xyz
  1  'x, y, z'
loop_
 _atom_site_type_symbol
 _atom_site_label
 _atom_site_symmetry_multiplicity
 _atom_site_fract_x
 _atom_site_fract_y
 _atom_site_fract_z
 _atom_site_occupancy
  Ca  Ca0  1  0.666667  0.333333  0.345625  1
  Tm  Tm1  1  0.333333  0.666667  0.849271  1
  Sc  Sc2  1  0.666667  0.333333  0.618902  1
  Sc  Sc3  1  0.333333  0.666667  0.115338  1
  Ni  Ni4  1  0.000000  0.000000  0.018184  1
  Ni  Ni5  1  0.000000  0.000000  0.528312  1
  As  As6  1  0.666667  0.333333  0.974809  1
  As  As7  1  0.333333  0.666667  0.487914  1
  As  As8  1  0.000000  0.000000  0.721493  1
  As  As9  1  0.000000  0.000000  0.208813  1
