# generated using pymatgen
data_Pa5O12F
_symmetry_space_group_name_H-M   'P 1'
_cell_length_a   4.21602600
_cell_length_b   7.00172900
_cell_length_c   20.00948600
_cell_angle_alpha   90.00000000
_cell_angle_beta   90.00000000
_cell_angle_gamma   90.00000000
_symmetry_Int_Tables_number   1
_chemical_formula_structural   Pa5O12F
_chemical_formula_sum   'Pa10 O24 F2'
_cell_volume   590.66945189
_cell_formula_units_Z   2
loop_
 _symmetry_equiv_pos_site_id
 _symmetry_equiv_pos_as_xyz
  1  'x, y, z'
loop_
 _atom_site_type_symbol
 _atom_site_label
 _atom_site_symmetry_multiplicity
 _atom_site_fract_x
 _atom_site_fract_y
 _atom_site_fract_z
 _atom_site_occupancy
  Pa  Pa0  1  0.000000  0.234259  0.647500  1
  Pa  Pa1  1  0.000000  0.234259  0.852500  1
  Pa  Pa2  1  0.000000  0.223886  0.250000  1
  Pa  Pa3  1  0.000000  0.299127  0.061562  1
  Pa  Pa4  1  0.000000  0.299127  0.438438  1
  Pa  Pa5  1  0.000000  0.700873  0.561562  1
  Pa  Pa6  1  0.000000  0.700873  0.938438  1
  Pa  Pa7  1  0.000000  0.776114  0.750000  1
  Pa  Pa8  1  0.000000  0.765741  0.352500  1
  Pa  Pa9  1  0.000000  0.765741  0.147500  1
  O  O10  1  0.000000  0.086074  0.141842  1
  O  O11  1  0.000000  0.086074  0.358158  1
  O  O12  1  0.000000  0.126406  0.750000  1
  O  O13  1  0.500000  0.229825  0.646502  1
  O  O14  1  0.500000  0.229825  0.853498  1
  O  O15  1  0.500000  0.222818  0.250000  1
  O  O16  1  0.500000  0.296466  0.060047  1
  O  O17  1  0.500000  0.296466  0.439953  1
  O  O18  1  0.000000  0.376981  0.548405  1
  O  O19  1  0.000000  0.376981  0.951595  1
  O  O20  1  0.000000  0.453914  0.170237  1
  O  O21  1  0.000000  0.453914  0.329763  1
  O  O22  1  0.000000  0.546086  0.670237  1
  O  O23  1  0.000000  0.546086  0.829763  1
  O  O24  1  0.000000  0.623019  0.048405  1
  O  O25  1  0.000000  0.623019  0.451595  1
  O  O26  1  0.500000  0.703534  0.560047  1
  O  O27  1  0.500000  0.703534  0.939953  1
  O  O28  1  0.500000  0.777182  0.750000  1
  O  O29  1  0.500000  0.770175  0.353498  1
  O  O30  1  0.500000  0.770175  0.146502  1
  O  O31  1  0.000000  0.873594  0.250000  1
  O  O32  1  0.000000  0.913926  0.641842  1
  O  O33  1  0.000000  0.913926  0.858158  1
  F  F34  1  0.000000  0.000000  0.000000  1
  F  F35  1  0.000000  0.000000  0.500000  1
