# generated using pymatgen
data_Tb5Y7Co4HgPd
_symmetry_space_group_name_H-M   'P 1'
_cell_length_a   8.35581626
_cell_length_b   8.35581625
_cell_length_c   8.36397014
_cell_angle_alpha   110.70749626
_cell_angle_beta   110.04095095
_cell_angle_gamma   107.63979055
_symmetry_Int_Tables_number   1
_chemical_formula_structural   Tb5Y7Co4HgPd
_chemical_formula_sum   'Tb5 Y7 Co4 Hg1 Pd1'
_cell_volume   449.41516160
_cell_formula_units_Z   1
loop_
 _symmetry_equiv_pos_site_id
 _symmetry_equiv_pos_as_xyz
  1  'x, y, z'
loop_
 _atom_site_type_symbol
 _atom_site_label
 _atom_site_symmetry_multiplicity
 _atom_site_fract_x
 _atom_site_fract_y
 _atom_site_fract_z
 _atom_site_occupancy
  Tb  Tb0  1  0.412608  0.212911  0.199922  1
  Tb  Tb1  1  0.586922  0.787056  0.799984  1
  Tb  Tb2  1  0.012929  0.213061  0.799984  1
  Tb  Tb3  1  0.987010  0.787313  0.199922  1
  Tb  Tb4  1  0.186203  0.295426  0.481630  1
  Y  Y5  1  0.813111  0.705189  0.518299  1
  Y  Y6  1  0.187535  0.705778  0.893313  1
  Y  Y7  1  0.812117  0.294443  0.106559  1
  Y  Y8  1  0.315720  0.617867  0.301915  1
  Y  Y9  1  0.684014  0.381938  0.697782  1
  Y  Y10  1  0.315844  0.013768  0.697782  1
  Y  Y11  1  0.684047  0.986195  0.301915  1
  Co  Co12  1  0.380811  0.999484  0.380295  1
  Co  Co13  1  0.619402  0.000035  0.619437  1
  Co  Co14  1  0.112768  0.611706  0.500470  1
  Co  Co15  1  0.888764  0.387703  0.500470  1
  Hg  Hg16  1  0.500338  0.500079  0.000416  1
  Pd  Pd17  1  0.999859  0.000049  0.999908  1
