# generated using pymatgen
data_PrBi(SeO3)3
_symmetry_space_group_name_H-M   'P 1'
_cell_length_a   7.20507238
_cell_length_b   8.19212579
_cell_length_c   9.38744596
_cell_angle_alpha   69.52523443
_cell_angle_beta   75.93630260
_cell_angle_gamma   63.72780423
_symmetry_Int_Tables_number   1
_chemical_formula_structural   PrBi(SeO3)3
_chemical_formula_sum   'Pr2 Bi2 Se6 O18'
_cell_volume   462.89661507
_cell_formula_units_Z   2
loop_
 _symmetry_equiv_pos_site_id
 _symmetry_equiv_pos_as_xyz
  1  'x, y, z'
loop_
 _atom_site_type_symbol
 _atom_site_label
 _atom_site_symmetry_multiplicity
 _atom_site_fract_x
 _atom_site_fract_y
 _atom_site_fract_z
 _atom_site_occupancy
  Pr  Pr0  1  0.629322  0.350064  0.319424  1
  Pr  Pr1  1  0.370678  0.649936  0.680576  1
  Bi  Bi2  1  0.236357  0.298242  0.129041  1
  Bi  Bi3  1  0.763643  0.701758  0.870959  1
  Se  Se4  1  0.450638  0.176622  0.744197  1
  Se  Se5  1  0.194043  0.762866  0.031560  1
  Se  Se6  1  0.863983  0.783419  0.494323  1
  Se  Se7  1  0.805957  0.237134  0.968440  1
  Se  Se8  1  0.549362  0.823378  0.255803  1
  Se  Se9  1  0.136017  0.216581  0.505677  1
  O  O10  1  0.673015  0.019057  0.834934  1
  O  O11  1  0.326985  0.980943  0.165066  1
  O  O12  1  0.638126  0.792249  0.622113  1
  O  O13  1  0.361874  0.207751  0.377887  1
  O  O14  1  0.395038  0.783267  0.889561  1
  O  O15  1  0.325871  0.333711  0.854937  1
  O  O16  1  0.896157  0.335794  0.062505  1
  O  O17  1  0.533768  0.331968  0.593051  1
  O  O18  1  0.699182  0.435823  0.824075  1
  O  O19  1  0.103843  0.664206  0.937495  1
  O  O20  1  0.172881  0.987672  0.582807  1
  O  O21  1  0.026366  0.689634  0.640268  1
  O  O22  1  0.604962  0.216733  0.110439  1
  O  O23  1  0.674129  0.666289  0.145063  1
  O  O24  1  0.466232  0.668032  0.406949  1
  O  O25  1  0.300818  0.564177  0.175925  1
  O  O26  1  0.827119  0.012328  0.417193  1
  O  O27  1  0.973634  0.310366  0.359732  1
