# generated using pymatgen
data_La8Al2TcNi
_symmetry_space_group_name_H-M   'P 1'
_cell_length_a   9.92773574
_cell_length_b   9.92773656
_cell_length_c   10.08423000
_cell_angle_alpha   59.47717126
_cell_angle_beta   59.47716849
_cell_angle_gamma   59.33810092
_symmetry_Int_Tables_number   1
_chemical_formula_structural   La8Al2TcNi
_chemical_formula_sum   'La16 Al4 Tc2 Ni2'
_cell_volume   693.69011822
_cell_formula_units_Z   2
loop_
 _symmetry_equiv_pos_site_id
 _symmetry_equiv_pos_as_xyz
  1  'x, y, z'
loop_
 _atom_site_type_symbol
 _atom_site_label
 _atom_site_symmetry_multiplicity
 _atom_site_fract_x
 _atom_site_fract_y
 _atom_site_fract_z
 _atom_site_occupancy
  La  La0  1  0.601208  0.601208  0.596024  1
  La  La1  1  0.601208  0.601208  0.201561  1
  La  La2  1  0.602468  0.205646  0.595944  1
  La  La3  1  0.205646  0.602468  0.595944  1
  La  La4  1  0.055966  0.442364  0.446881  1
  La  La5  1  0.442364  0.055966  0.054790  1
  La  La6  1  0.442364  0.055966  0.446881  1
  La  La7  1  0.055966  0.442364  0.054790  1
  La  La8  1  0.444889  0.444889  0.055111  1
  La  La9  1  0.048171  0.048171  0.451829  1
  La  La10  1  0.187839  0.803683  0.816621  1
  La  La11  1  0.803683  0.187839  0.191858  1
  La  La12  1  0.803683  0.187839  0.816621  1
  La  La13  1  0.187839  0.803683  0.191858  1
  La  La14  1  0.814601  0.814601  0.185399  1
  La  La15  1  0.190752  0.190752  0.809248  1
  Al  Al16  1  0.824655  0.824655  0.822578  1
  Al  Al17  1  0.824655  0.824655  0.528113  1
  Al  Al18  1  0.825291  0.530088  0.822312  1
  Al  Al19  1  0.530088  0.825291  0.822312  1
  Tc  Tc20  1  0.389325  0.389325  0.380735  1
  Tc  Tc21  1  0.389325  0.389325  0.840615  1
  Ni  Ni22  1  0.396534  0.831486  0.385991  1
  Ni  Ni23  1  0.831486  0.396534  0.385991  1
