# generated using pymatgen
data_Sc8MnFe6Si14Ni
_symmetry_space_group_name_H-M   'P 1'
_cell_length_a   5.04759179
_cell_length_b   9.56037531
_cell_length_c   9.57025019
_cell_angle_alpha   86.04077849
_cell_angle_beta   74.69524872
_cell_angle_gamma   74.91570093
_symmetry_Int_Tables_number   1
_chemical_formula_structural   Sc8MnFe6Si14Ni
_chemical_formula_sum   'Sc8 Mn1 Fe6 Si14 Ni1'
_cell_volume   430.10324545
_cell_formula_units_Z   1
loop_
 _symmetry_equiv_pos_site_id
 _symmetry_equiv_pos_as_xyz
  1  'x, y, z'
loop_
 _atom_site_type_symbol
 _atom_site_label
 _atom_site_symmetry_multiplicity
 _atom_site_fract_x
 _atom_site_fract_y
 _atom_site_fract_z
 _atom_site_occupancy
  Sc  Sc0  1  0.195848  0.803337  0.804009  1
  Sc  Sc1  1  0.801347  0.196484  0.195973  1
  Sc  Sc2  1  0.000040  0.196840  0.804582  1
  Sc  Sc3  1  0.001389  0.803644  0.196621  1
  Sc  Sc4  1  0.360050  0.000428  0.276535  1
  Sc  Sc5  1  0.639469  0.000062  0.724108  1
  Sc  Sc6  1  0.636248  0.724425  0.999938  1
  Sc  Sc7  1  0.363131  0.275043  0.000301  1
  Mn  Mn8  1  0.103295  0.793553  0.498312  1
  Fe  Fe9  1  0.601106  0.499724  0.797967  1
  Fe  Fe10  1  0.103824  0.500359  0.791887  1
  Fe  Fe11  1  0.599743  0.796491  0.501533  1
  Fe  Fe12  1  0.897150  0.499780  0.204844  1
  Fe  Fe13  1  0.397719  0.208704  0.498053  1
  Fe  Fe14  1  0.898489  0.203231  0.501510  1
  Si  Si15  1  0.416884  0.588951  0.589457  1
  Si  Si16  1  0.611313  0.408160  0.408268  1
  Si  Si17  1  0.998467  0.409506  0.589672  1
  Si  Si18  1  0.980599  0.590500  0.408256  1
  Si  Si19  1  0.248464  0.000409  0.000705  1
  Si  Si20  1  0.751207  0.999101  0.000191  1
  Si  Si21  1  0.191926  0.299932  0.298669  1
  Si  Si22  1  0.791613  0.702344  0.702505  1
  Si  Si23  1  0.511409  0.700120  0.298221  1
  Si  Si24  1  0.502429  0.297608  0.701955  1
  Si  Si25  1  0.213730  0.000873  0.580381  1
  Si  Si26  1  0.785932  0.000584  0.419858  1
  Si  Si27  1  0.798561  0.420647  0.000386  1
  Si  Si28  1  0.201307  0.578866  0.000558  1
  Ni  Ni29  1  0.397312  0.500293  0.204745  1
