# generated using pymatgen
data_Ca3CeZrRu3O14
_symmetry_space_group_name_H-M   'P 1'
_cell_length_a   7.37635851
_cell_length_b   7.32199027
_cell_length_c   7.40437405
_cell_angle_alpha   60.39396887
_cell_angle_beta   60.12508509
_cell_angle_gamma   59.75406673
_symmetry_Int_Tables_number   1
_chemical_formula_structural   Ca3CeZrRu3O14
_chemical_formula_sum   'Ca3 Ce1 Zr1 Ru3 O14'
_cell_volume   283.34287399
_cell_formula_units_Z   1
loop_
 _symmetry_equiv_pos_site_id
 _symmetry_equiv_pos_as_xyz
  1  'x, y, z'
loop_
 _atom_site_type_symbol
 _atom_site_label
 _atom_site_symmetry_multiplicity
 _atom_site_fract_x
 _atom_site_fract_y
 _atom_site_fract_z
 _atom_site_occupancy
  Ca  Ca0  1  0.625000  0.625000  0.125000  1
  Ca  Ca1  1  0.125000  0.625000  0.625000  1
  Ca  Ca2  1  0.625000  0.625000  0.625000  1
  Ce  Ce3  1  0.625000  0.125000  0.625000  1
  Zr  Zr4  1  0.125000  0.125000  0.625000  1
  Ru  Ru5  1  0.625000  0.125000  0.125000  1
  Ru  Ru6  1  0.125000  0.625000  0.125000  1
  Ru  Ru7  1  0.125000  0.125000  0.125000  1
  O  O8  1  0.214163  0.209318  0.797897  1
  O  O9  1  0.201624  0.812323  0.174864  1
  O  O10  1  0.447124  0.042487  0.063265  1
  O  O11  1  0.209123  0.780915  0.800840  1
  O  O12  1  0.040877  0.469085  0.449160  1
  O  O13  1  0.811188  0.812323  0.174864  1
  O  O14  1  0.438812  0.437677  0.075136  1
  O  O15  1  0.510592  0.478458  0.500357  1
  O  O16  1  0.035837  0.040682  0.452103  1
  O  O17  1  0.471378  0.040682  0.452103  1
  O  O18  1  0.048376  0.437677  0.075136  1
  O  O19  1  0.739408  0.771542  0.749643  1
  O  O20  1  0.778622  0.209318  0.797897  1
  O  O21  1  0.802876  0.207513  0.186735  1
