# generated using pymatgen
data_Ho3Mg3Ge2Pd
_symmetry_space_group_name_H-M   'P 1'
_cell_length_a   7.25042700
_cell_length_b   7.25042728
_cell_length_c   4.28070900
_cell_angle_alpha   90.00000000
_cell_angle_beta   90.00000000
_cell_angle_gamma   120.00000330
_symmetry_Int_Tables_number   1
_chemical_formula_structural   Ho3Mg3Ge2Pd
_chemical_formula_sum   'Ho3 Mg3 Ge2 Pd1'
_cell_volume   194.88279878
_cell_formula_units_Z   1
loop_
 _symmetry_equiv_pos_site_id
 _symmetry_equiv_pos_as_xyz
  1  'x, y, z'
loop_
 _atom_site_type_symbol
 _atom_site_label
 _atom_site_symmetry_multiplicity
 _atom_site_fract_x
 _atom_site_fract_y
 _atom_site_fract_z
 _atom_site_occupancy
  Ho  Ho0  1  0.584193  0.000000  0.000000  1
  Ho  Ho1  1  0.000000  0.584193  0.000000  1
  Ho  Ho2  1  0.415807  0.415807  0.000000  1
  Mg  Mg3  1  0.242880  0.000000  0.500000  1
  Mg  Mg4  1  0.000000  0.242880  0.500000  1
  Mg  Mg5  1  0.757120  0.757120  0.500000  1
  Ge  Ge6  1  0.333333  0.666667  0.500000  1
  Ge  Ge7  1  0.666667  0.333333  0.500000  1
  Pd  Pd8  1  0.000000  0.000000  0.000000  1
