# generated using pymatgen
data_La3Ho(Tm4Bi3)4
_symmetry_space_group_name_H-M   'P 1'
_cell_length_a   8.30144941
_cell_length_b   9.47330900
_cell_length_c   12.09132159
_cell_angle_alpha   90.00000000
_cell_angle_beta   89.96402587
_cell_angle_gamma   90.00000000
_symmetry_Int_Tables_number   1
_chemical_formula_structural   La3Ho(Tm4Bi3)4
_chemical_formula_sum   'La3 Ho1 Tm16 Bi12'
_cell_volume   950.88788816
_cell_formula_units_Z   1
loop_
 _symmetry_equiv_pos_site_id
 _symmetry_equiv_pos_as_xyz
  1  'x, y, z'
loop_
 _atom_site_type_symbol
 _atom_site_label
 _atom_site_symmetry_multiplicity
 _atom_site_fract_x
 _atom_site_fract_y
 _atom_site_fract_z
 _atom_site_occupancy
  La  La0  1  0.316506  0.250000  0.219882  1
  La  La1  1  0.816160  0.250000  0.279978  1
  La  La2  1  0.684213  0.750000  0.780468  1
  Ho  Ho3  1  0.185563  0.750000  0.717174  1
  Tm  Tm4  1  0.351475  0.750000  0.218373  1
  Tm  Tm5  1  0.852960  0.750000  0.282471  1
  Tm  Tm6  1  0.646470  0.250000  0.780363  1
  Tm  Tm7  1  0.147448  0.250000  0.718744  1
  Tm  Tm8  1  0.690651  0.567269  0.061215  1
  Tm  Tm9  1  0.192182  0.933152  0.439688  1
  Tm  Tm10  1  0.309144  0.066488  0.937577  1
  Tm  Tm11  1  0.807569  0.433243  0.561543  1
  Tm  Tm12  1  0.309144  0.433512  0.937577  1
  Tm  Tm13  1  0.807569  0.066757  0.561543  1
  Tm  Tm14  1  0.690651  0.932731  0.061215  1
  Tm  Tm15  1  0.192182  0.566848  0.439688  1
  Tm  Tm16  1  0.476729  0.250000  0.490469  1
  Tm  Tm17  1  0.978484  0.250000  0.010161  1
  Tm  Tm18  1  0.521995  0.750000  0.512467  1
  Tm  Tm19  1  0.022820  0.750000  0.988306  1
  Bi  Bi20  1  0.399740  0.750000  0.962824  1
  Bi  Bi21  1  0.906951  0.750000  0.538977  1
  Bi  Bi22  1  0.598399  0.250000  0.034545  1
  Bi  Bi23  1  0.097442  0.250000  0.464849  1
  Bi  Bi24  1  0.564654  0.988723  0.328989  1
  Bi  Bi25  1  0.064323  0.510833  0.171646  1
  Bi  Bi26  1  0.430154  0.492544  0.672652  1
  Bi  Bi27  1  0.939644  0.007580  0.826665  1
  Bi  Bi28  1  0.430154  0.007456  0.672652  1
  Bi  Bi29  1  0.939644  0.492420  0.826665  1
  Bi  Bi30  1  0.564654  0.511277  0.328989  1
  Bi  Bi31  1  0.064323  0.989167  0.171646  1
