# generated using pymatgen
data_Rb3AgPb4
_symmetry_space_group_name_H-M   'P 1'
_cell_length_a   7.07969100
_cell_length_b   7.20936300
_cell_length_c   13.62497400
_cell_angle_alpha   90.00000000
_cell_angle_beta   90.00000000
_cell_angle_gamma   90.00000000
_symmetry_Int_Tables_number   1
_chemical_formula_structural   Rb3AgPb4
_chemical_formula_sum   'Rb6 Ag2 Pb8'
_cell_volume   695.41952243
_cell_formula_units_Z   2
loop_
 _symmetry_equiv_pos_site_id
 _symmetry_equiv_pos_as_xyz
  1  'x, y, z'
loop_
 _atom_site_type_symbol
 _atom_site_label
 _atom_site_symmetry_multiplicity
 _atom_site_fract_x
 _atom_site_fract_y
 _atom_site_fract_z
 _atom_site_occupancy
  Rb  Rb0  1  0.166492  0.000000  0.753463  1
  Rb  Rb1  1  0.166492  0.000000  0.246537  1
  Rb  Rb2  1  0.436886  0.500000  0.500000  1
  Rb  Rb3  1  0.563114  0.000000  0.000000  1
  Rb  Rb4  1  0.833508  0.500000  0.253463  1
  Rb  Rb5  1  0.833508  0.500000  0.746537  1
  Ag  Ag6  1  0.301561  0.000000  0.500000  1
  Ag  Ag7  1  0.698439  0.500000  0.000000  1
  Pb  Pb8  1  0.050306  0.268082  0.000000  1
  Pb  Pb9  1  0.050306  0.731918  0.000000  1
  Pb  Pb10  1  0.342699  0.500000  0.880069  1
  Pb  Pb11  1  0.342699  0.500000  0.119931  1
  Pb  Pb12  1  0.657301  0.000000  0.380069  1
  Pb  Pb13  1  0.657301  0.000000  0.619931  1
  Pb  Pb14  1  0.949694  0.768082  0.500000  1
  Pb  Pb15  1  0.949694  0.231918  0.500000  1
