# generated using pymatgen
data_YHoTh6(ReC2)4
_symmetry_space_group_name_H-M   'P 1'
_cell_length_a   5.32764400
_cell_length_b   6.68707506
_cell_length_c   10.01383909
_cell_angle_alpha   89.98486458
_cell_angle_beta   90.00000000
_cell_angle_gamma   90.00000000
_symmetry_Int_Tables_number   1
_chemical_formula_structural   YHoTh6(ReC2)4
_chemical_formula_sum   'Y1 Ho1 Th6 Re4 C8'
_cell_volume   356.75657692
_cell_formula_units_Z   1
loop_
 _symmetry_equiv_pos_site_id
 _symmetry_equiv_pos_as_xyz
  1  'x, y, z'
loop_
 _atom_site_type_symbol
 _atom_site_label
 _atom_site_symmetry_multiplicity
 _atom_site_fract_x
 _atom_site_fract_y
 _atom_site_fract_z
 _atom_site_occupancy
  Y  Y0  1  0.250000  0.318972  0.446323  1
  Ho  Ho1  1  0.750000  0.180078  0.945856  1
  Th  Th2  1  0.250000  0.468662  0.781291  1
  Th  Th3  1  0.750000  0.031195  0.281091  1
  Th  Th4  1  0.250000  0.975338  0.718827  1
  Th  Th5  1  0.750000  0.524776  0.218759  1
  Th  Th6  1  0.250000  0.815522  0.047761  1
  Th  Th7  1  0.750000  0.684491  0.547964  1
  Re  Re8  1  0.250000  0.272252  0.137219  1
  Re  Re9  1  0.750000  0.227678  0.637655  1
  Re  Re10  1  0.250000  0.771174  0.363228  1
  Re  Re11  1  0.750000  0.729128  0.863287  1
  C  C12  1  0.250000  0.170192  0.948196  1
  C  C13  1  0.750000  0.833388  0.052444  1
  C  C14  1  0.250000  0.667395  0.552607  1
  C  C15  1  0.750000  0.329762  0.448380  1
  C  C16  1  0.250000  0.038114  0.261009  1
  C  C17  1  0.750000  0.461456  0.761310  1
  C  C18  1  0.250000  0.533440  0.243128  1
  C  C19  1  0.750000  0.966987  0.743665  1
