# generated using pymatgen
data_ReF18
_symmetry_space_group_name_H-M   'P 1'
_cell_length_a   5.85743597
_cell_length_b   9.37752285
_cell_length_c   13.56166100
_cell_angle_alpha   101.85032987
_cell_angle_beta   93.26313484
_cell_angle_gamma   102.74165111
_symmetry_Int_Tables_number   1
_chemical_formula_structural   ReF18
_chemical_formula_sum   'Re2 F36'
_cell_volume   707.00074063
_cell_formula_units_Z   2
loop_
 _symmetry_equiv_pos_site_id
 _symmetry_equiv_pos_as_xyz
  1  'x, y, z'
loop_
 _atom_site_type_symbol
 _atom_site_label
 _atom_site_symmetry_multiplicity
 _atom_site_fract_x
 _atom_site_fract_y
 _atom_site_fract_z
 _atom_site_occupancy
  Re  Re0  1  0.160175  0.986333  0.287591  1
  Re  Re1  1  0.839825  0.013667  0.712409  1
  F  F2  1  0.681807  0.629717  0.370277  1
  F  F3  1  0.318193  0.370283  0.629723  1
  F  F4  1  0.049151  0.378781  0.378362  1
  F  F5  1  0.950849  0.621219  0.621638  1
  F  F6  1  0.208545  0.896901  0.947757  1
  F  F7  1  0.791455  0.103099  0.052243  1
  F  F8  1  0.893665  0.059132  0.316359  1
  F  F9  1  0.106335  0.940868  0.683641  1
  F  F10  1  0.002364  0.792108  0.292694  1
  F  F11  1  0.997636  0.207892  0.707306  1
  F  F12  1  0.587764  0.492079  0.398819  1
  F  F13  1  0.412236  0.507921  0.601181  1
  F  F14  1  0.042714  0.949191  0.151709  1
  F  F15  1  0.957286  0.050809  0.848291  1
  F  F16  1  0.268939  0.037233  0.425174  1
  F  F17  1  0.731061  0.962767  0.574826  1
  F  F18  1  0.064786  0.399036  0.277558  1
  F  F19  1  0.935214  0.600964  0.722442  1
  F  F20  1  0.722763  0.672027  0.059066  1
  F  F21  1  0.277237  0.327973  0.940934  1
  F  F22  1  0.853272  0.578334  0.002461  1
  F  F23  1  0.146728  0.421666  0.997539  1
  F  F24  1  0.541786  0.562717  0.844394  1
  F  F25  1  0.458214  0.437283  0.155606  1
  F  F26  1  0.330332  0.177618  0.282336  1
  F  F27  1  0.669668  0.822382  0.717664  1
  F  F28  1  0.270366  0.804991  0.500403  1
  F  F29  1  0.729634  0.195009  0.499597  1
  F  F30  1  0.356674  0.840718  0.009563  1
  F  F31  1  0.643326  0.159282  0.990437  1
  F  F32  1  0.418912  0.905545  0.257283  1
  F  F33  1  0.581088  0.094455  0.742717  1
  F  F34  1  0.664954  0.390297  0.181515  1
  F  F35  1  0.335046  0.609703  0.818485  1
  F  F36  1  0.228385  0.646336  0.464352  1
  F  F37  1  0.771615  0.353664  0.535648  1
