# generated using pymatgen
data_Dy2Ho2MnRu7
_symmetry_space_group_name_H-M   'P 1'
_cell_length_a   5.32896871
_cell_length_b   5.33103089
_cell_length_c   8.68376911
_cell_angle_alpha   89.99999635
_cell_angle_beta   89.98309141
_cell_angle_gamma   59.98717479
_symmetry_Int_Tables_number   1
_chemical_formula_structural   Dy2Ho2MnRu7
_chemical_formula_sum   'Dy2 Ho2 Mn1 Ru7'
_cell_volume   213.61763493
_cell_formula_units_Z   1
loop_
 _symmetry_equiv_pos_site_id
 _symmetry_equiv_pos_as_xyz
  1  'x, y, z'
loop_
 _atom_site_type_symbol
 _atom_site_label
 _atom_site_symmetry_multiplicity
 _atom_site_fract_x
 _atom_site_fract_y
 _atom_site_fract_z
 _atom_site_occupancy
  Dy  Dy0  1  0.333385  0.333307  0.564993  1
  Dy  Dy1  1  0.666615  0.666693  0.435007  1
  Ho  Ho2  1  0.666571  0.666715  0.067823  1
  Ho  Ho3  1  0.333429  0.333285  0.932177  1
  Mn  Mn4  1  0.000000  0.000000  0.000000  1
  Ru  Ru5  1  0.000000  0.000000  0.500000  1
  Ru  Ru6  1  0.828949  0.342220  0.754501  1
  Ru  Ru7  1  0.342269  0.828865  0.754478  1
  Ru  Ru8  1  0.828949  0.828829  0.754501  1
  Ru  Ru9  1  0.171051  0.657780  0.245499  1
  Ru  Ru10  1  0.657731  0.171135  0.245522  1
  Ru  Ru11  1  0.171051  0.171171  0.245499  1
