# generated using pymatgen
data_Sc22Tc3Os2Pt3
_symmetry_space_group_name_H-M   'P 1'
_cell_length_a   9.51343898
_cell_length_b   9.52259611
_cell_length_c   9.54836205
_cell_angle_alpha   59.84694551
_cell_angle_beta   60.19123508
_cell_angle_gamma   60.21101782
_symmetry_Int_Tables_number   1
_chemical_formula_structural   Sc22Tc3Os2Pt3
_chemical_formula_sum   'Sc22 Tc3 Os2 Pt3'
_cell_volume   612.79111798
_cell_formula_units_Z   1
loop_
 _symmetry_equiv_pos_site_id
 _symmetry_equiv_pos_as_xyz
  1  'x, y, z'
loop_
 _atom_site_type_symbol
 _atom_site_label
 _atom_site_symmetry_multiplicity
 _atom_site_fract_x
 _atom_site_fract_y
 _atom_site_fract_z
 _atom_site_occupancy
  Sc  Sc0  1  0.847227  0.840168  0.842554  1
  Sc  Sc1  1  0.529233  0.160705  0.154512  1
  Sc  Sc2  1  0.154512  0.155550  0.529233  1
  Sc  Sc3  1  0.157446  0.529948  0.152773  1
  Sc  Sc4  1  0.845488  0.844450  0.470767  1
  Sc  Sc5  1  0.842554  0.470052  0.847227  1
  Sc  Sc6  1  0.470767  0.839295  0.845488  1
  Sc  Sc7  1  0.152773  0.159832  0.157446  1
  Sc  Sc8  1  0.195889  0.804111  0.195889  1
  Sc  Sc9  1  0.195925  0.802524  0.804075  1
  Sc  Sc10  1  0.804075  0.197476  0.195925  1
  Sc  Sc11  1  0.804577  0.802170  0.195423  1
  Sc  Sc12  1  0.195423  0.197830  0.804577  1
  Sc  Sc13  1  0.804111  0.195889  0.804111  1
  Sc  Sc14  1  0.384621  0.386100  0.380128  1
  Sc  Sc15  1  0.150714  0.616291  0.620070  1
  Sc  Sc16  1  0.619872  0.150852  0.615379  1
  Sc  Sc17  1  0.620070  0.612926  0.150714  1
  Sc  Sc18  1  0.380128  0.849148  0.384621  1
  Sc  Sc19  1  0.379930  0.387074  0.849286  1
  Sc  Sc20  1  0.849286  0.383709  0.379930  1
  Sc  Sc21  1  0.615379  0.613900  0.619872  1
  Tc  Tc22  1  0.500000  0.500000  0.000000  1
  Tc  Tc23  1  0.000000  0.000000  0.500000  1
  Tc  Tc24  1  0.000000  0.000000  0.000000  1
  Os  Os25  1  0.000000  0.500000  0.000000  1
  Os  Os26  1  0.500000  0.500000  0.500000  1
  Pt  Pt27  1  0.500000  0.000000  0.500000  1
  Pt  Pt28  1  0.000000  0.500000  0.500000  1
  Pt  Pt29  1  0.500000  0.000000  0.000000  1
