# generated using pymatgen
data_Dy13Y3MgZn2AgRh4
_symmetry_space_group_name_H-M   'P 1'
_cell_length_a   9.55847171
_cell_length_b   9.58204344
_cell_length_c   9.58152100
_cell_angle_alpha   60.22062226
_cell_angle_beta   60.24329863
_cell_angle_gamma   60.21674016
_symmetry_Int_Tables_number   1
_chemical_formula_structural   Dy13Y3MgZn2AgRh4
_chemical_formula_sum   'Dy13 Y3 Mg1 Zn2 Ag1 Rh4'
_cell_volume   623.72208734
_cell_formula_units_Z   1
loop_
 _symmetry_equiv_pos_site_id
 _symmetry_equiv_pos_as_xyz
  1  'x, y, z'
loop_
 _atom_site_type_symbol
 _atom_site_label
 _atom_site_symmetry_multiplicity
 _atom_site_fract_x
 _atom_site_fract_y
 _atom_site_fract_z
 _atom_site_occupancy
  Dy  Dy0  1  0.601673  0.598885  0.597384  1
  Dy  Dy1  1  0.600719  0.600228  0.202501  1
  Dy  Dy2  1  0.601856  0.201141  0.598548  1
  Dy  Dy3  1  0.185386  0.606324  0.603899  1
  Dy  Dy4  1  0.058480  0.440009  0.439298  1
  Dy  Dy5  1  0.437928  0.061361  0.062348  1
  Dy  Dy6  1  0.438407  0.060692  0.437897  1
  Dy  Dy7  1  0.059319  0.439559  0.060127  1
  Dy  Dy8  1  0.436830  0.436554  0.062252  1
  Dy  Dy9  1  0.058185  0.058939  0.441255  1
  Dy  Dy10  1  0.183251  0.814073  0.813709  1
  Dy  Dy11  1  0.813261  0.185264  0.186910  1
  Dy  Dy12  1  0.813169  0.185028  0.815419  1
  Y  Y13  1  0.182610  0.813773  0.188993  1
  Y  Y14  1  0.814533  0.816485  0.185315  1
  Y  Y15  1  0.184491  0.187296  0.813796  1
  Mg  Mg16  1  0.541099  0.820168  0.819376  1
  Zn  Zn17  1  0.833386  0.834494  0.833527  1
  Zn  Zn18  1  0.833221  0.835413  0.498908  1
  Ag  Ag19  1  0.832574  0.500096  0.834858  1
  Rh  Rh20  1  0.387961  0.394742  0.394868  1
  Rh  Rh21  1  0.389799  0.395833  0.820633  1
  Rh  Rh22  1  0.389581  0.821403  0.395683  1
  Rh  Rh23  1  0.822282  0.392245  0.392501  1
