# generated using pymatgen
data_Sm6P12OsRh17
_symmetry_space_group_name_H-M   'P 1'
_cell_length_a   3.96376100
_cell_length_b   11.30839800
_cell_length_c   12.81668500
_cell_angle_alpha   90.00000000
_cell_angle_beta   90.00000000
_cell_angle_gamma   90.00000000
_symmetry_Int_Tables_number   1
_chemical_formula_structural   Sm6P12OsRh17
_chemical_formula_sum   'Sm6 P12 Os1 Rh17'
_cell_volume   574.49235804
_cell_formula_units_Z   1
loop_
 _symmetry_equiv_pos_site_id
 _symmetry_equiv_pos_as_xyz
  1  'x, y, z'
loop_
 _atom_site_type_symbol
 _atom_site_label
 _atom_site_symmetry_multiplicity
 _atom_site_fract_x
 _atom_site_fract_y
 _atom_site_fract_z
 _atom_site_occupancy
  Sm  Sm0  1  0.000000  0.500000  0.519719  1
  Sm  Sm1  1  0.500000  0.000000  0.480358  1
  Sm  Sm2  1  0.500000  0.818015  0.203555  1
  Sm  Sm3  1  0.500000  0.181985  0.203555  1
  Sm  Sm4  1  0.000000  0.681683  0.794192  1
  Sm  Sm5  1  0.000000  0.318317  0.794192  1
  P  P6  1  0.500000  0.500000  0.880166  1
  P  P7  1  0.000000  0.000000  0.114746  1
  P  P8  1  0.500000  0.500000  0.349561  1
  P  P9  1  0.000000  0.000000  0.654791  1
  P  P10  1  0.500000  0.312952  0.617736  1
  P  P11  1  0.500000  0.687048  0.617736  1
  P  P12  1  0.000000  0.186249  0.381945  1
  P  P13  1  0.000000  0.813751  0.381945  1
  P  P14  1  0.500000  0.841471  0.893944  1
  P  P15  1  0.500000  0.158529  0.893944  1
  P  P16  1  0.000000  0.651617  0.108218  1
  P  P17  1  0.000000  0.348383  0.108218  1
  Os  Os18  1  0.500000  0.000000  0.006918  1
  Rh  Rh19  1  0.500000  0.500000  0.169072  1
  Rh  Rh20  1  0.000000  0.000000  0.838770  1
  Rh  Rh21  1  0.500000  0.500000  0.701273  1
  Rh  Rh22  1  0.000000  0.000000  0.296998  1
  Rh  Rh23  1  0.000000  0.500000  0.981549  1
  Rh  Rh24  1  0.500000  0.336133  0.994631  1
  Rh  Rh25  1  0.500000  0.663867  0.994631  1
  Rh  Rh26  1  0.000000  0.169665  0.006668  1
  Rh  Rh27  1  0.000000  0.830335  0.006668  1
  Rh  Rh28  1  0.500000  0.293961  0.430901  1
  Rh  Rh29  1  0.500000  0.706039  0.430901  1
  Rh  Rh30  1  0.000000  0.205691  0.569785  1
  Rh  Rh31  1  0.000000  0.794309  0.569785  1
  Rh  Rh32  1  0.500000  0.873944  0.712120  1
  Rh  Rh33  1  0.500000  0.126056  0.712120  1
  Rh  Rh34  1  0.000000  0.626973  0.289344  1
  Rh  Rh35  1  0.000000  0.373027  0.289344  1
