# generated using pymatgen
data_LiHoH6Os
_symmetry_space_group_name_H-M   'P 1'
_cell_length_a   4.85388473
_cell_length_b   4.85387328
_cell_length_c   4.85386300
_cell_angle_alpha   60.00002534
_cell_angle_beta   59.99995324
_cell_angle_gamma   60.00011691
_symmetry_Int_Tables_number   1
_chemical_formula_structural   LiHoH6Os
_chemical_formula_sum   'Li1 Ho1 H6 Os1'
_cell_volume   80.86316250
_cell_formula_units_Z   1
loop_
 _symmetry_equiv_pos_site_id
 _symmetry_equiv_pos_as_xyz
  1  'x, y, z'
loop_
 _atom_site_type_symbol
 _atom_site_label
 _atom_site_symmetry_multiplicity
 _atom_site_fract_x
 _atom_site_fract_y
 _atom_site_fract_z
 _atom_site_occupancy
  Li  Li0  1  0.750006  0.749995  0.749999  1
  Ho  Ho1  1  0.249988  0.250005  0.250005  1
  H  H2  1  0.750582  0.750580  0.249420  1
  H  H3  1  0.750581  0.249421  0.249421  1
  H  H4  1  0.249419  0.750580  0.249424  1
  H  H5  1  0.249419  0.750579  0.750580  1
  H  H6  1  0.249417  0.249421  0.750582  1
  H  H7  1  0.750583  0.249415  0.750581  1
  Os  Os8  1  0.000001  0.000006  0.999988  1
