# generated using pymatgen
data_Tb2TmRuI3
_symmetry_space_group_name_H-M   'P 1'
_cell_length_a   4.22460000
_cell_length_b   8.87091661
_cell_length_c   12.28207400
_cell_angle_alpha   85.89314906
_cell_angle_beta   90.00000000
_cell_angle_gamma   90.00000000
_symmetry_Int_Tables_number   1
_chemical_formula_structural   Tb2TmRuI3
_chemical_formula_sum   'Tb4 Tm2 Ru2 I6'
_cell_volume   459.10201338
_cell_formula_units_Z   2
loop_
 _symmetry_equiv_pos_site_id
 _symmetry_equiv_pos_as_xyz
  1  'x, y, z'
loop_
 _atom_site_type_symbol
 _atom_site_label
 _atom_site_symmetry_multiplicity
 _atom_site_fract_x
 _atom_site_fract_y
 _atom_site_fract_z
 _atom_site_occupancy
  Tb  Tb0  1  0.750000  0.097589  0.684023  1
  Tb  Tb1  1  0.250000  0.902411  0.315977  1
  Tb  Tb2  1  0.250000  0.261656  0.898359  1
  Tb  Tb3  1  0.750000  0.738344  0.101641  1
  Tm  Tm4  1  0.750000  0.128357  0.124486  1
  Tm  Tm5  1  0.250000  0.871643  0.875514  1
  Ru  Ru6  1  0.750000  0.051888  0.908155  1
  Ru  Ru7  1  0.250000  0.948112  0.091845  1
  I  I8  1  0.250000  0.354050  0.636472  1
  I  I9  1  0.750000  0.645950  0.363528  1
  I  I10  1  0.750000  0.144247  0.391716  1
  I  I11  1  0.250000  0.855753  0.608284  1
  I  I12  1  0.250000  0.424802  0.133508  1
  I  I13  1  0.750000  0.575198  0.866492  1
