# generated using pymatgen
data_Sc4Al24IrPt8
_symmetry_space_group_name_H-M   'P 1'
_cell_length_a   7.45643809
_cell_length_b   7.47418240
_cell_length_c   13.04565381
_cell_angle_alpha   84.69861762
_cell_angle_beta   79.15523007
_cell_angle_gamma   59.92859344
_symmetry_Int_Tables_number   1
_chemical_formula_structural   Sc4Al24IrPt8
_chemical_formula_sum   'Sc4 Al24 Ir1 Pt8'
_cell_volume   617.94698497
_cell_formula_units_Z   1
loop_
 _symmetry_equiv_pos_site_id
 _symmetry_equiv_pos_as_xyz
  1  'x, y, z'
loop_
 _atom_site_type_symbol
 _atom_site_label
 _atom_site_symmetry_multiplicity
 _atom_site_fract_x
 _atom_site_fract_y
 _atom_site_fract_z
 _atom_site_occupancy
  Sc  Sc0  1  0.393160  0.168970  0.809327  1
  Sc  Sc1  1  0.606840  0.831030  0.190673  1
  Sc  Sc2  1  0.733752  0.498664  0.809467  1
  Sc  Sc3  1  0.266248  0.501336  0.190533  1
  Al  Al4  1  0.684462  0.830858  0.943175  1
  Al  Al5  1  0.315538  0.169142  0.056825  1
  Al  Al6  1  0.146041  0.832453  0.562981  1
  Al  Al7  1  0.853959  0.167547  0.437019  1
  Al  Al8  1  0.479713  0.166813  0.560310  1
  Al  Al9  1  0.520287  0.833187  0.439690  1
  Al  Al10  1  0.221928  0.165162  0.322521  1
  Al  Al11  1  0.778072  0.834838  0.677479  1
  Al  Al12  1  0.437083  0.504491  0.677524  1
  Al  Al13  1  0.562917  0.495509  0.322476  1
  Al  Al14  1  0.107331  0.163078  0.675936  1
  Al  Al15  1  0.892669  0.836922  0.324064  1
  Al  Al16  1  0.353406  0.496204  0.943181  1
  Al  Al17  1  0.646594  0.503796  0.056819  1
  Al  Al18  1  0.016664  0.173813  0.949977  1
  Al  Al19  1  0.983336  0.826187  0.050023  1
  Al  Al20  1  0.187019  0.499564  0.439898  1
  Al  Al21  1  0.812981  0.500436  0.560102  1
  Al  Al22  1  0.730469  0.163506  0.182687  1
  Al  Al23  1  0.269531  0.836494  0.817313  1
  Al  Al24  1  0.060633  0.625436  0.817707  1
  Al  Al25  1  0.939367  0.374564  0.182293  1
  Al  Al26  1  0.850882  0.046467  0.816885  1
  Al  Al27  1  0.149118  0.953533  0.183116  1
  Ir  Ir28  1  0.000000  0.500000  0.000000  1
  Pt  Pt29  1  0.119820  0.491739  0.639252  1
  Pt  Pt30  1  0.880180  0.508261  0.360748  1
  Pt  Pt31  1  0.657495  0.171336  0.999903  1
  Pt  Pt32  1  0.342505  0.828664  0.000097  1
  Pt  Pt33  1  0.537354  0.166691  0.361088  1
  Pt  Pt34  1  0.462646  0.833309  0.638912  1
  Pt  Pt35  1  0.778440  0.175431  0.637431  1
  Pt  Pt36  1  0.221560  0.824569  0.362569  1
