# generated using pymatgen
data_Ce10CuSn6Se
_symmetry_space_group_name_H-M   'P 1'
_cell_length_a   6.58923002
_cell_length_b   9.47560934
_cell_length_c   9.47856245
_cell_angle_alpha   119.98969978
_cell_angle_beta   89.99532210
_cell_angle_gamma   90.00935023
_symmetry_Int_Tables_number   1
_chemical_formula_structural   Ce10CuSn6Se
_chemical_formula_sum   'Ce10 Cu1 Sn6 Se1'
_cell_volume   512.57802629
_cell_formula_units_Z   1
loop_
 _symmetry_equiv_pos_site_id
 _symmetry_equiv_pos_as_xyz
  1  'x, y, z'
loop_
 _atom_site_type_symbol
 _atom_site_label
 _atom_site_symmetry_multiplicity
 _atom_site_fract_x
 _atom_site_fract_y
 _atom_site_fract_z
 _atom_site_occupancy
  Ce  Ce0  1  0.750072  0.262618  0.000000  1
  Ce  Ce1  1  0.750100  0.737151  0.737195  1
  Ce  Ce2  1  0.750100  0.999955  0.262805  1
  Ce  Ce3  1  0.249668  0.737297  0.000000  1
  Ce  Ce4  1  0.249880  0.262770  0.262767  1
  Ce  Ce5  1  0.249880  0.000004  0.737233  1
  Ce  Ce6  1  0.499974  0.333374  0.666549  1
  Ce  Ce7  1  0.499974  0.666825  0.333451  1
  Ce  Ce8  1  0.000090  0.666808  0.333510  1
  Ce  Ce9  1  0.000090  0.333297  0.666490  1
  Cu  Cu10  1  0.999968  0.000043  0.000000  1
  Sn  Sn11  1  0.750905  0.615692  0.000000  1
  Sn  Sn12  1  0.750779  0.384090  0.383993  1
  Sn  Sn13  1  0.750779  0.000098  0.616007  1
  Sn  Sn14  1  0.249331  0.384182  0.000000  1
  Sn  Sn15  1  0.249227  0.615916  0.616025  1
  Sn  Sn16  1  0.249227  0.999890  0.383975  1
  Se  Se17  1  0.499957  0.999988  0.000000  1
