# generated using pymatgen
data_Nd4Ga10Cu5Ni
_symmetry_space_group_name_H-M   'P 1'
_cell_length_a   8.39255513
_cell_length_b   8.39255559
_cell_length_c   8.39255522
_cell_angle_alpha   137.87869409
_cell_angle_beta   105.63933601
_cell_angle_gamma   89.35211050
_symmetry_Int_Tables_number   1
_chemical_formula_structural   Nd4Ga10Cu5Ni
_chemical_formula_sum   'Nd4 Ga10 Cu5 Ni1'
_cell_volume   365.14488897
_cell_formula_units_Z   1
loop_
 _symmetry_equiv_pos_site_id
 _symmetry_equiv_pos_as_xyz
  1  'x, y, z'
loop_
 _atom_site_type_symbol
 _atom_site_label
 _atom_site_symmetry_multiplicity
 _atom_site_fract_x
 _atom_site_fract_y
 _atom_site_fract_z
 _atom_site_occupancy
  Nd  Nd0  1  0.628351  0.869134  0.756662  1
  Nd  Nd1  1  0.371649  0.128310  0.240783  1
  Nd  Nd2  1  0.112473  0.371690  0.743338  1
  Nd  Nd3  1  0.887527  0.630866  0.259217  1
  Ga  Ga4  1  0.261924  0.011924  0.750000  1
  Ga  Ga5  1  0.739109  0.989109  0.250000  1
  Ga  Ga6  1  0.738076  0.488076  0.750000  1
  Ga  Ga7  1  0.260891  0.510891  0.250000  1
  Ga  Ga8  1  0.465087  0.602206  0.850048  1
  Ga  Ga9  1  0.534913  0.384961  0.137120  1
  Ga  Ga10  1  0.752158  0.115039  0.649952  1
  Ga  Ga11  1  0.247842  0.897794  0.362880  1
  Ga  Ga12  1  0.000000  0.750000  0.750000  1
  Ga  Ga13  1  0.000000  0.250000  0.250000  1
  Cu  Cu14  1  0.250519  0.630561  0.619669  1
  Cu  Cu15  1  0.749481  0.369150  0.380042  1
  Cu  Cu16  1  0.010892  0.130850  0.880331  1
  Cu  Cu17  1  0.989108  0.869439  0.119958  1
  Cu  Cu18  1  0.500000  0.750000  0.250000  1
  Ni  Ni19  1  0.500000  0.250000  0.750000  1
