# generated using pymatgen
data_Nd4CuBr5
_symmetry_space_group_name_H-M   'P 1'
_cell_length_a   9.57010245
_cell_length_b   9.57010308
_cell_length_c   8.61499800
_cell_angle_alpha   77.84051622
_cell_angle_beta   77.84051541
_cell_angle_gamma   24.94894315
_symmetry_Int_Tables_number   1
_chemical_formula_structural   Nd4CuBr5
_chemical_formula_sum   'Nd4 Cu1 Br5'
_cell_volume   324.98062377
_cell_formula_units_Z   1
loop_
 _symmetry_equiv_pos_site_id
 _symmetry_equiv_pos_as_xyz
  1  'x, y, z'
loop_
 _atom_site_type_symbol
 _atom_site_label
 _atom_site_symmetry_multiplicity
 _atom_site_fract_x
 _atom_site_fract_y
 _atom_site_fract_z
 _atom_site_occupancy
  Nd  Nd0  1  0.847135  0.847135  0.079658  1
  Nd  Nd1  1  0.152865  0.152865  0.920342  1
  Nd  Nd2  1  0.500735  0.500735  0.228344  1
  Nd  Nd3  1  0.499265  0.499265  0.771656  1
  Cu  Cu4  1  0.000000  0.000000  0.000000  1
  Br  Br5  1  0.672610  0.672610  0.170124  1
  Br  Br6  1  0.327390  0.327390  0.829876  1
  Br  Br7  1  0.665195  0.665195  0.661760  1
  Br  Br8  1  0.334805  0.334805  0.338240  1
  Br  Br9  1  0.000000  0.000000  0.500000  1
