# generated using pymatgen
data_Mg3VP6N13
_symmetry_space_group_name_H-M   'P 1'
_cell_length_a   7.05650825
_cell_length_b   7.05650891
_cell_length_c   7.05650897
_cell_angle_alpha   109.58500423
_cell_angle_beta   109.58500937
_cell_angle_gamma   109.58500708
_symmetry_Int_Tables_number   1
_chemical_formula_structural   Mg3VP6N13
_chemical_formula_sum   'Mg3 V1 P6 N13'
_cell_volume   269.34230241
_cell_formula_units_Z   1
loop_
 _symmetry_equiv_pos_site_id
 _symmetry_equiv_pos_as_xyz
  1  'x, y, z'
loop_
 _atom_site_type_symbol
 _atom_site_label
 _atom_site_symmetry_multiplicity
 _atom_site_fract_x
 _atom_site_fract_y
 _atom_site_fract_z
 _atom_site_occupancy
  Mg  Mg0  1  0.003267  0.707954  0.003267  1
  Mg  Mg1  1  0.707954  0.003267  0.003267  1
  Mg  Mg2  1  0.003267  0.003267  0.707954  1
  V  V3  1  0.291612  0.291612  0.291612  1
  P  P4  1  0.497565  0.248607  0.748745  1
  P  P5  1  0.497565  0.748745  0.248607  1
  P  P6  1  0.748745  0.248607  0.497565  1
  P  P7  1  0.248607  0.497565  0.748745  1
  P  P8  1  0.748745  0.497565  0.248607  1
  P  P9  1  0.248607  0.748745  0.497565  1
  N  N10  1  0.024520  0.024520  0.024520  1
  N  N11  1  0.999125  0.731441  0.454884  1
  N  N12  1  0.264762  0.718390  0.264762  1
  N  N13  1  0.278319  0.541206  0.541206  1
  N  N14  1  0.541206  0.541206  0.278319  1
  N  N15  1  0.541206  0.278319  0.541206  1
  N  N16  1  0.731441  0.999125  0.454884  1
  N  N17  1  0.454884  0.999125  0.731441  1
  N  N18  1  0.731441  0.454884  0.999125  1
  N  N19  1  0.264762  0.264762  0.718390  1
  N  N20  1  0.718390  0.264762  0.264762  1
  N  N21  1  0.999125  0.454884  0.731441  1
  N  N22  1  0.454884  0.731441  0.999125  1
