# generated using pymatgen
data_HfZr5Sn6(Ir2Rh)2
_symmetry_space_group_name_H-M   'P 1'
_cell_length_a   7.44051295
_cell_length_b   7.41903616
_cell_length_c   7.29643400
_cell_angle_alpha   90.00000000
_cell_angle_beta   90.00000000
_cell_angle_gamma   119.96358405
_symmetry_Int_Tables_number   1
_chemical_formula_structural   HfZr5Sn6(Ir2Rh)2
_chemical_formula_sum   'Hf1 Zr5 Sn6 Ir4 Rh2'
_cell_volume   348.94011740
_cell_formula_units_Z   1
loop_
 _symmetry_equiv_pos_site_id
 _symmetry_equiv_pos_as_xyz
  1  'x, y, z'
loop_
 _atom_site_type_symbol
 _atom_site_label
 _atom_site_symmetry_multiplicity
 _atom_site_fract_x
 _atom_site_fract_y
 _atom_site_fract_z
 _atom_site_occupancy
  Hf  Hf0  1  0.409067  0.020290  0.250000  1
  Zr  Zr1  1  0.022966  0.409915  0.750000  1
  Zr  Zr2  1  0.589114  0.612571  0.750000  1
  Zr  Zr3  1  0.386304  0.975534  0.750000  1
  Zr  Zr4  1  0.978138  0.387047  0.250000  1
  Zr  Zr5  1  0.613263  0.590477  0.250000  1
  Sn  Sn6  1  0.269666  0.270540  0.499821  1
  Sn  Sn7  1  0.999967  0.730090  0.500316  1
  Sn  Sn8  1  0.999967  0.730090  0.999684  1
  Sn  Sn9  1  0.730789  0.999612  0.499669  1
  Sn  Sn10  1  0.730789  0.999612  0.000331  1
  Sn  Sn11  1  0.269666  0.270540  0.000179  1
  Ir  Ir12  1  0.333603  0.669893  0.457076  1
  Ir  Ir13  1  0.665210  0.331925  0.536906  1
  Ir  Ir14  1  0.333603  0.669893  0.042924  1
  Ir  Ir15  1  0.665210  0.331925  0.963094  1
  Rh  Rh16  1  0.000483  0.000209  0.750000  1
  Rh  Rh17  1  0.002196  0.999838  0.250000  1
