# generated using pymatgen
data_Nd2Zn5Si3Ag
_symmetry_space_group_name_H-M   'P 1'
_cell_length_a   7.58761100
_cell_length_b   7.61967502
_cell_length_c   4.10980300
_cell_angle_alpha   90.00000000
_cell_angle_beta   90.00000000
_cell_angle_gamma   119.86090033
_symmetry_Int_Tables_number   1
_chemical_formula_structural   Nd2Zn5Si3Ag
_chemical_formula_sum   'Nd2 Zn5 Si3 Ag1'
_cell_volume   206.06307265
_cell_formula_units_Z   1
loop_
 _symmetry_equiv_pos_site_id
 _symmetry_equiv_pos_as_xyz
  1  'x, y, z'
loop_
 _atom_site_type_symbol
 _atom_site_label
 _atom_site_symmetry_multiplicity
 _atom_site_fract_x
 _atom_site_fract_y
 _atom_site_fract_z
 _atom_site_occupancy
  Nd  Nd0  1  0.668288  0.334334  0.000000  1
  Nd  Nd1  1  0.333956  0.665666  0.000000  1
  Zn  Zn2  1  0.807989  0.000000  0.000000  1
  Zn  Zn3  1  0.191825  0.194251  0.000000  1
  Zn  Zn4  1  0.997576  0.805749  0.000000  1
  Zn  Zn5  1  0.000352  0.297303  0.500001  1
  Zn  Zn6  1  0.703048  0.702696  0.500001  1
  Si  Si7  1  0.631537  0.000000  0.500001  1
  Si  Si8  1  0.373032  0.377382  0.500001  1
  Si  Si9  1  0.995650  0.622618  0.500001  1
  Ag  Ag10  1  0.296744  0.000000  0.500001  1
