# generated using pymatgen
data_Ac2Nd(SnIr)3
_symmetry_space_group_name_H-M   'P 1'
_cell_length_a   7.66598449
_cell_length_b   7.66598419
_cell_length_c   4.29806300
_cell_angle_alpha   90.00000000
_cell_angle_beta   90.00000000
_cell_angle_gamma   120.37242389
_symmetry_Int_Tables_number   1
_chemical_formula_structural   Ac2Nd(SnIr)3
_chemical_formula_sum   'Ac2 Nd1 Sn3 Ir3'
_cell_volume   217.92004735
_cell_formula_units_Z   1
loop_
 _symmetry_equiv_pos_site_id
 _symmetry_equiv_pos_as_xyz
  1  'x, y, z'
loop_
 _atom_site_type_symbol
 _atom_site_label
 _atom_site_symmetry_multiplicity
 _atom_site_fract_x
 _atom_site_fract_y
 _atom_site_fract_z
 _atom_site_occupancy
  Ac  Ac0  1  0.584063  0.999309  0.000000  1
  Ac  Ac1  1  0.999309  0.584063  0.000000  1
  Nd  Nd2  1  0.411240  0.411240  0.000000  1
  Sn  Sn3  1  0.246433  0.007484  0.500000  1
  Sn  Sn4  1  0.007484  0.246433  0.500000  1
  Sn  Sn5  1  0.747835  0.747835  0.500000  1
  Ir  Ir6  1  0.335539  0.663719  0.500000  1
  Ir  Ir7  1  0.663719  0.335539  0.500000  1
  Ir  Ir8  1  0.004378  0.004378  0.000000  1
