# generated using pymatgen
data_SmTh3(Si3Ni5)4
_symmetry_space_group_name_H-M   'P 1'
_cell_length_a   3.86946100
_cell_length_b   6.62763430
_cell_length_c   18.98761782
_cell_angle_alpha   90.04021684
_cell_angle_beta   90.00000000
_cell_angle_gamma   90.00000000
_symmetry_Int_Tables_number   1
_chemical_formula_structural   SmTh3(Si3Ni5)4
_chemical_formula_sum   'Sm1 Th3 Si12 Ni20'
_cell_volume   486.94441115
_cell_formula_units_Z   1
loop_
 _symmetry_equiv_pos_site_id
 _symmetry_equiv_pos_as_xyz
  1  'x, y, z'
loop_
 _atom_site_type_symbol
 _atom_site_label
 _atom_site_symmetry_multiplicity
 _atom_site_fract_x
 _atom_site_fract_y
 _atom_site_fract_z
 _atom_site_occupancy
  Sm  Sm0  1  0.250000  0.877275  0.144074  1
  Th  Th1  1  0.250000  0.623513  0.643884  1
  Th  Th2  1  0.750000  0.375602  0.355633  1
  Th  Th3  1  0.750000  0.124117  0.856751  1
  Si  Si4  1  0.250000  0.839025  0.929199  1
  Si  Si5  1  0.750000  0.155973  0.072897  1
  Si  Si6  1  0.750000  0.339140  0.570043  1
  Si  Si7  1  0.250000  0.661441  0.428177  1
  Si  Si8  1  0.750000  0.617962  0.767155  1
  Si  Si9  1  0.250000  0.381811  0.232629  1
  Si  Si10  1  0.250000  0.427669  0.916540  1
  Si  Si11  1  0.750000  0.578604  0.087756  1
  Si  Si12  1  0.750000  0.930638  0.586327  1
  Si  Si13  1  0.250000  0.067365  0.412151  1
  Si  Si14  1  0.250000  0.118872  0.733737  1
  Si  Si15  1  0.750000  0.881844  0.263178  1
  Ni  Ni16  1  0.250000  0.135944  0.994454  1
  Ni  Ni17  1  0.750000  0.390739  0.985954  1
  Ni  Ni18  1  0.750000  0.107313  0.481654  1
  Ni  Ni19  1  0.250000  0.613538  0.018277  1
  Ni  Ni20  1  0.250000  0.351029  0.113044  1
  Ni  Ni21  1  0.750000  0.645357  0.887078  1
  Ni  Ni22  1  0.750000  0.850239  0.383906  1
  Ni  Ni23  1  0.250000  0.150155  0.613622  1
  Ni  Ni24  1  0.250000  0.073767  0.291279  1
  Ni  Ni25  1  0.750000  0.925632  0.707612  1
  Ni  Ni26  1  0.750000  0.572658  0.207451  1
  Ni  Ni27  1  0.250000  0.425586  0.794657  1
  Ni  Ni28  1  0.750000  0.639013  0.505748  1
  Ni  Ni29  1  0.250000  0.361229  0.492664  1
  Ni  Ni30  1  0.250000  0.813082  0.802220  1
  Ni  Ni31  1  0.750000  0.188524  0.198093  1
  Ni  Ni32  1  0.750000  0.313180  0.698289  1
  Ni  Ni33  1  0.250000  0.687462  0.300771  1
  Ni  Ni34  1  0.250000  0.891836  0.516885  1
  Ni  Ni35  1  0.750000  0.862863  0.006211  1
