# generated using pymatgen
data_YEr7B24MoOs3
_symmetry_space_group_name_H-M   'P 1'
_cell_length_a   3.63800300
_cell_length_b   9.14112995
_cell_length_c   11.52726802
_cell_angle_alpha   89.90048151
_cell_angle_beta   90.00000000
_cell_angle_gamma   90.00000000
_symmetry_Int_Tables_number   1
_chemical_formula_structural   YEr7B24MoOs3
_chemical_formula_sum   'Y1 Er7 B24 Mo1 Os3'
_cell_volume   383.34400109
_cell_formula_units_Z   1
loop_
 _symmetry_equiv_pos_site_id
 _symmetry_equiv_pos_as_xyz
  1  'x, y, z'
loop_
 _atom_site_type_symbol
 _atom_site_label
 _atom_site_symmetry_multiplicity
 _atom_site_fract_x
 _atom_site_fract_y
 _atom_site_fract_z
 _atom_site_occupancy
  Y  Y0  1  0.000000  0.322045  0.413166  1
  Er  Er1  1  0.000000  0.677343  0.584810  1
  Er  Er2  1  0.000000  0.820519  0.087369  1
  Er  Er3  1  0.000000  0.177572  0.914591  1
  Er  Er4  1  0.000000  0.944889  0.372762  1
  Er  Er5  1  0.000000  0.057294  0.628521  1
  Er  Er6  1  0.000000  0.443470  0.126683  1
  Er  Er7  1  0.000000  0.556831  0.871493  1
  B  B8  1  0.500000  0.551758  0.435656  1
  B  B9  1  0.500000  0.446544  0.568322  1
  B  B10  1  0.500000  0.053235  0.066678  1
  B  B11  1  0.500000  0.946411  0.933315  1
  B  B12  1  0.500000  0.750843  0.421853  1
  B  B13  1  0.500000  0.251893  0.581651  1
  B  B14  1  0.500000  0.248340  0.079968  1
  B  B15  1  0.500000  0.751447  0.919145  1
  B  B16  1  0.500000  0.794559  0.264541  1
  B  B17  1  0.500000  0.208425  0.734654  1
  B  B18  1  0.500000  0.290747  0.232403  1
  B  B19  1  0.500000  0.709172  0.765900  1
  B  B20  1  0.500000  0.632019  0.183026  1
  B  B21  1  0.500000  0.368135  0.815125  1
  B  B22  1  0.500000  0.130937  0.313408  1
  B  B23  1  0.500000  0.869234  0.685692  1
  B  B24  1  0.500000  0.982829  0.212555  1
  B  B25  1  0.500000  0.017423  0.788132  1
  B  B26  1  0.500000  0.479039  0.286140  1
  B  B27  1  0.500000  0.516794  0.713136  1
  B  B28  1  0.500000  0.605875  0.027910  1
  B  B29  1  0.500000  0.393659  0.969827  1
  B  B30  1  0.500000  0.105777  0.471274  1
  B  B31  1  0.500000  0.896045  0.530324  1
  Mo  Mo32  1  0.000000  0.638109  0.321159  1
  Os  Os33  1  0.000000  0.361018  0.680744  1
  Os  Os34  1  0.000000  0.137252  0.176839  1
  Os  Os35  1  0.000000  0.862519  0.821232  1
