# generated using pymatgen
data_Lu16In6FePt
_symmetry_space_group_name_H-M   'P 1'
_cell_length_a   10.21621100
_cell_length_b   10.21621189
_cell_length_c   6.85567700
_cell_angle_alpha   90.00000000
_cell_angle_beta   90.00000000
_cell_angle_gamma   120.00000034
_symmetry_Int_Tables_number   1
_chemical_formula_structural   Lu16In6FePt
_chemical_formula_sum   'Lu16 In6 Fe1 Pt1'
_cell_volume   619.67036096
_cell_formula_units_Z   1
loop_
 _symmetry_equiv_pos_site_id
 _symmetry_equiv_pos_as_xyz
  1  'x, y, z'
loop_
 _atom_site_type_symbol
 _atom_site_label
 _atom_site_symmetry_multiplicity
 _atom_site_fract_x
 _atom_site_fract_y
 _atom_site_fract_z
 _atom_site_occupancy
  Lu  Lu0  1  0.536346  0.072692  0.521965  1
  Lu  Lu1  1  0.927308  0.463654  0.521965  1
  Lu  Lu2  1  0.536346  0.463654  0.521965  1
  Lu  Lu3  1  0.470837  0.941674  0.025113  1
  Lu  Lu4  1  0.058326  0.529163  0.025113  1
  Lu  Lu5  1  0.470837  0.529163  0.025113  1
  Lu  Lu6  1  0.176012  0.352024  0.728880  1
  Lu  Lu7  1  0.647976  0.823988  0.728880  1
  Lu  Lu8  1  0.176012  0.823988  0.728880  1
  Lu  Lu9  1  0.821087  0.642175  0.230908  1
  Lu  Lu10  1  0.357825  0.178913  0.230908  1
  Lu  Lu11  1  0.821087  0.178913  0.230908  1
  Lu  Lu12  1  0.666667  0.333333  0.910707  1
  Lu  Lu13  1  0.333333  0.666667  0.399942  1
  Lu  Lu14  1  0.000000  0.000000  0.508112  1
  Lu  Lu15  1  0.000000  0.000000  0.008916  1
  In  In16  1  0.837444  0.674888  0.768403  1
  In  In17  1  0.325112  0.162556  0.768403  1
  In  In18  1  0.837444  0.162556  0.768403  1
  In  In19  1  0.162871  0.325742  0.268027  1
  In  In20  1  0.674258  0.837129  0.268027  1
  In  In21  1  0.162871  0.837129  0.268027  1
  Fe  Fe22  1  0.666667  0.333333  0.296502  1
  Pt  Pt23  1  0.333333  0.666667  0.801614  1
