# generated using pymatgen
data_Dy16Al3Rh4Au
_symmetry_space_group_name_H-M   'P 1'
_cell_length_a   9.51160921
_cell_length_b   9.51176074
_cell_length_c   9.51295232
_cell_angle_alpha   59.98132403
_cell_angle_beta   59.98120311
_cell_angle_gamma   59.91656093
_symmetry_Int_Tables_number   1
_chemical_formula_structural   Dy16Al3Rh4Au
_chemical_formula_sum   'Dy16 Al3 Rh4 Au1'
_cell_volume   608.01981367
_cell_formula_units_Z   1
loop_
 _symmetry_equiv_pos_site_id
 _symmetry_equiv_pos_as_xyz
  1  'x, y, z'
loop_
 _atom_site_type_symbol
 _atom_site_label
 _atom_site_symmetry_multiplicity
 _atom_site_fract_x
 _atom_site_fract_y
 _atom_site_fract_z
 _atom_site_occupancy
  Dy  Dy0  1  0.693220  0.309343  0.305519  1
  Dy  Dy1  1  0.691929  0.691925  0.308619  1
  Dy  Dy2  1  0.309348  0.693224  0.305521  1
  Dy  Dy3  1  0.936262  0.936258  0.557470  1
  Dy  Dy4  1  0.145921  0.145928  0.559742  1
  Dy  Dy5  1  0.566549  0.938204  0.556988  1
  Dy  Dy6  1  0.149663  0.149643  0.146968  1
  Dy  Dy7  1  0.306457  0.306454  0.694153  1
  Dy  Dy8  1  0.938216  0.566537  0.556991  1
  Dy  Dy9  1  0.564641  0.564630  0.934155  1
  Dy  Dy10  1  0.565223  0.936011  0.932356  1
  Dy  Dy11  1  0.936025  0.565204  0.932370  1
  Dy  Dy12  1  0.146487  0.558631  0.145188  1
  Dy  Dy13  1  0.307593  0.693577  0.693936  1
  Dy  Dy14  1  0.693571  0.307591  0.693933  1
  Dy  Dy15  1  0.558602  0.146496  0.145198  1
  Al  Al16  1  0.229790  0.923051  0.926608  1
  Al  Al17  1  0.923037  0.229788  0.926618  1
  Al  Al18  1  0.922812  0.922822  0.924897  1
  Rh  Rh19  1  0.356452  0.356473  0.357900  1
  Rh  Rh20  1  0.928383  0.356708  0.358100  1
  Rh  Rh21  1  0.357929  0.357951  0.925690  1
  Rh  Rh22  1  0.356712  0.928381  0.358129  1
  Au  Au23  1  0.915177  0.915169  0.252950  1
