# generated using pymatgen
data_Mg4Co2As6Ir4Ru
_symmetry_space_group_name_H-M   'P 1'
_cell_length_a   6.99489818
_cell_length_b   6.97168215
_cell_length_c   6.97168056
_cell_angle_alpha   108.57637798
_cell_angle_beta   109.85157252
_cell_angle_gamma   109.85158351
_symmetry_Int_Tables_number   1
_chemical_formula_structural   Mg4Co2As6Ir4Ru
_chemical_formula_sum   'Mg4 Co2 As6 Ir4 Ru1'
_cell_volume   262.11854973
_cell_formula_units_Z   1
loop_
 _symmetry_equiv_pos_site_id
 _symmetry_equiv_pos_as_xyz
  1  'x, y, z'
loop_
 _atom_site_type_symbol
 _atom_site_label
 _atom_site_symmetry_multiplicity
 _atom_site_fract_x
 _atom_site_fract_y
 _atom_site_fract_z
 _atom_site_occupancy
  Mg  Mg0  1  0.000000  0.993667  0.498381  1
  Mg  Mg1  1  0.500000  0.002616  0.997384  1
  Mg  Mg2  1  0.000000  0.501619  0.006333  1
  Mg  Mg3  1  0.500000  0.502616  0.497384  1
  Co  Co4  1  0.245306  0.495314  0.749992  1
  Co  Co5  1  0.754694  0.250008  0.504686  1
  As  As6  1  0.680560  0.688369  0.992191  1
  As  As7  1  0.304454  0.313186  0.991268  1
  As  As8  1  0.000000  0.674359  0.692370  1
  As  As9  1  0.000000  0.307630  0.325641  1
  As  As10  1  0.695546  0.008732  0.686814  1
  As  As11  1  0.319440  0.007809  0.311631  1
  Ir  Ir12  1  0.500000  0.255784  0.744216  1
  Ir  Ir13  1  0.500000  0.755784  0.244216  1
  Ir  Ir14  1  0.744794  0.493531  0.251263  1
  Ir  Ir15  1  0.255206  0.748737  0.506469  1
  Ru  Ru16  1  0.000000  0.000239  0.999761  1
