# generated using pymatgen
data_Yb8Hg4PPd20
_symmetry_space_group_name_H-M   'P 1'
_cell_length_a   8.17277700
_cell_length_b   8.52853200
_cell_length_c   8.49611200
_cell_angle_alpha   90.00000000
_cell_angle_beta   90.00000000
_cell_angle_gamma   90.00000000
_symmetry_Int_Tables_number   1
_chemical_formula_structural   Yb8Hg4PPd20
_chemical_formula_sum   'Yb8 Hg4 P1 Pd20'
_cell_volume   592.19421591
_cell_formula_units_Z   1
loop_
 _symmetry_equiv_pos_site_id
 _symmetry_equiv_pos_as_xyz
  1  'x, y, z'
loop_
 _atom_site_type_symbol
 _atom_site_label
 _atom_site_symmetry_multiplicity
 _atom_site_fract_x
 _atom_site_fract_y
 _atom_site_fract_z
 _atom_site_occupancy
  Yb  Yb0  1  0.254418  0.236806  0.254492  1
  Yb  Yb1  1  0.745582  0.763194  0.745508  1
  Yb  Yb2  1  0.745582  0.763194  0.254492  1
  Yb  Yb3  1  0.745582  0.236806  0.745508  1
  Yb  Yb4  1  0.254418  0.236806  0.745508  1
  Yb  Yb5  1  0.254418  0.763194  0.254492  1
  Yb  Yb6  1  0.254418  0.763194  0.745508  1
  Yb  Yb7  1  0.745582  0.236806  0.254492  1
  Hg  Hg8  1  0.256408  0.500000  0.000000  1
  Hg  Hg9  1  0.743592  0.500000  0.000000  1
  Hg  Hg10  1  0.250839  0.500000  0.500000  1
  Hg  Hg11  1  0.749161  0.500000  0.500000  1
  P  P12  1  0.000000  0.000000  0.000000  1
  Pd  Pd13  1  0.000000  0.250259  0.500000  1
  Pd  Pd14  1  0.500000  0.254641  0.000000  1
  Pd  Pd15  1  0.000000  0.749741  0.500000  1
  Pd  Pd16  1  0.500000  0.745359  0.000000  1
  Pd  Pd17  1  0.500000  0.000000  0.258437  1
  Pd  Pd18  1  0.252566  0.000000  0.500000  1
  Pd  Pd19  1  0.500000  0.000000  0.741563  1
  Pd  Pd20  1  0.747434  0.000000  0.500000  1
  Pd  Pd21  1  0.000000  0.500000  0.254057  1
  Pd  Pd22  1  0.000000  0.500000  0.745943  1
  Pd  Pd23  1  0.500000  0.248208  0.500000  1
  Pd  Pd24  1  0.500000  0.751792  0.500000  1
  Pd  Pd25  1  0.500000  0.500000  0.252772  1
  Pd  Pd26  1  0.500000  0.500000  0.747228  1
  Pd  Pd27  1  0.280685  0.000000  0.000000  1
  Pd  Pd28  1  0.719315  0.000000  0.000000  1
  Pd  Pd29  1  0.000000  0.269788  0.000000  1
  Pd  Pd30  1  0.000000  0.730212  0.000000  1
  Pd  Pd31  1  0.000000  0.000000  0.271473  1
  Pd  Pd32  1  0.000000  0.000000  0.728527  1
