# generated using pymatgen
data_Lu2Mn6Co6P7
_symmetry_space_group_name_H-M   'P 1'
_cell_length_a   9.03896370
_cell_length_b   9.04486036
_cell_length_c   3.60770800
_cell_angle_alpha   90.00000000
_cell_angle_beta   90.00000000
_cell_angle_gamma   119.87467245
_symmetry_Int_Tables_number   1
_chemical_formula_structural   Lu2Mn6Co6P7
_chemical_formula_sum   'Lu2 Mn6 Co6 P7'
_cell_volume   255.75821902
_cell_formula_units_Z   1
loop_
 _symmetry_equiv_pos_site_id
 _symmetry_equiv_pos_as_xyz
  1  'x, y, z'
loop_
 _atom_site_type_symbol
 _atom_site_label
 _atom_site_symmetry_multiplicity
 _atom_site_fract_x
 _atom_site_fract_y
 _atom_site_fract_z
 _atom_site_occupancy
  Lu  Lu0  1  0.665912  0.333434  0.000000  1
  Lu  Lu1  1  0.000456  0.000011  0.500000  1
  Mn  Mn2  1  0.490999  0.943231  0.000000  1
  Mn  Mn3  1  0.057252  0.547641  0.000000  1
  Mn  Mn4  1  0.453756  0.509845  0.000000  1
  Mn  Mn5  1  0.559801  0.773608  0.500000  1
  Mn  Mn6  1  0.231815  0.787117  0.500000  1
  Mn  Mn7  1  0.207820  0.439448  0.500000  1
  Co  Co8  1  0.764243  0.728391  0.000000  1
  Co  Co9  1  0.271607  0.034741  0.000000  1
  Co  Co10  1  0.964040  0.234938  0.000000  1
  Co  Co11  1  0.721360  0.107251  0.500000  1
  Co  Co12  1  0.893979  0.615639  0.500000  1
  Co  Co13  1  0.384011  0.277568  0.500000  1
  P  P14  1  0.453458  0.074564  0.500000  1
  P  P15  1  0.923800  0.378917  0.500000  1
  P  P16  1  0.620406  0.546333  0.500000  1
  P  P17  1  0.747640  0.968016  0.000000  1
  P  P18  1  0.033199  0.779958  0.000000  1
  P  P19  1  0.220551  0.252691  0.000000  1
  P  P20  1  0.333893  0.666658  0.000000  1
