# generated using pymatgen
data_Dy2In(PIr2)6
_symmetry_space_group_name_H-M   'P 1'
_cell_length_a   9.72673200
_cell_length_b   9.72673313
_cell_length_c   3.99860500
_cell_angle_alpha   90.00000000
_cell_angle_beta   90.00000000
_cell_angle_gamma   119.99999981
_symmetry_Int_Tables_number   1
_chemical_formula_structural   Dy2In(PIr2)6
_chemical_formula_sum   'Dy2 In1 P6 Ir12'
_cell_volume   327.62202285
_cell_formula_units_Z   1
loop_
 _symmetry_equiv_pos_site_id
 _symmetry_equiv_pos_as_xyz
  1  'x, y, z'
loop_
 _atom_site_type_symbol
 _atom_site_label
 _atom_site_symmetry_multiplicity
 _atom_site_fract_x
 _atom_site_fract_y
 _atom_site_fract_z
 _atom_site_occupancy
  Dy  Dy0  1  0.333333  0.666667  0.766474  1
  Dy  Dy1  1  0.666667  0.333333  0.238542  1
  In  In2  1  0.000000  0.000000  0.542556  1
  P  P3  1  0.875997  0.594079  0.736577  1
  P  P4  1  0.405921  0.281918  0.736577  1
  P  P5  1  0.718082  0.124003  0.736577  1
  P  P6  1  0.123983  0.404172  0.268991  1
  P  P7  1  0.595828  0.719811  0.268991  1
  P  P8  1  0.280189  0.876017  0.268991  1
  Ir  Ir9  1  0.610855  0.541734  0.747246  1
  Ir  Ir10  1  0.458266  0.069121  0.747246  1
  Ir  Ir11  1  0.930879  0.389145  0.747246  1
  Ir  Ir12  1  0.392647  0.460337  0.259596  1
  Ir  Ir13  1  0.539663  0.932310  0.259596  1
  Ir  Ir14  1  0.067690  0.607353  0.259596  1
  Ir  Ir15  1  0.127417  0.829970  0.776264  1
  Ir  Ir16  1  0.170030  0.297446  0.776264  1
  Ir  Ir17  1  0.702554  0.872583  0.776264  1
  Ir  Ir18  1  0.872828  0.164764  0.230230  1
  Ir  Ir19  1  0.835236  0.708064  0.230230  1
  Ir  Ir20  1  0.291936  0.127172  0.230230  1
