# generated using pymatgen
data_Hf5(SiAs)2
_symmetry_space_group_name_H-M   'P 1'
_cell_length_a   7.63100874
_cell_length_b   7.63100874
_cell_length_c   6.99418600
_cell_angle_alpha   90.00000000
_cell_angle_beta   90.00000000
_cell_angle_gamma   124.99264380
_symmetry_Int_Tables_number   1
_chemical_formula_structural   Hf5(SiAs)2
_chemical_formula_sum   'Hf10 Si4 As4'
_cell_volume   333.66037716
_cell_formula_units_Z   2
loop_
 _symmetry_equiv_pos_site_id
 _symmetry_equiv_pos_as_xyz
  1  'x, y, z'
loop_
 _atom_site_type_symbol
 _atom_site_label
 _atom_site_symmetry_multiplicity
 _atom_site_fract_x
 _atom_site_fract_y
 _atom_site_fract_z
 _atom_site_occupancy
  Hf  Hf0  1  0.031530  0.299268  0.334655  1
  Hf  Hf1  1  0.968470  0.700732  0.665345  1
  Hf  Hf2  1  0.468470  0.200732  0.834655  1
  Hf  Hf3  1  0.799268  0.531530  0.165345  1
  Hf  Hf4  1  0.531530  0.799268  0.165345  1
  Hf  Hf5  1  0.200732  0.468470  0.834655  1
  Hf  Hf6  1  0.700732  0.968470  0.665345  1
  Hf  Hf7  1  0.299268  0.031530  0.334655  1
  Hf  Hf8  1  0.000000  0.000000  0.000000  1
  Hf  Hf9  1  0.500000  0.500000  0.500000  1
  Si  Si10  1  0.372798  0.372798  0.125916  1
  Si  Si11  1  0.627202  0.627202  0.874084  1
  Si  Si12  1  0.127202  0.127202  0.625916  1
  Si  Si13  1  0.872798  0.872798  0.374084  1
  As  As14  1  0.796371  0.203629  0.000000  1
  As  As15  1  0.203629  0.796371  0.000000  1
  As  As16  1  0.703629  0.296371  0.500000  1
  As  As17  1  0.296371  0.703629  0.500000  1
