# generated using pymatgen
data_Ac18La2Si15Br
_symmetry_space_group_name_H-M   'P 1'
_cell_length_a   8.32816821
_cell_length_b   8.27534034
_cell_length_c   16.18155500
_cell_angle_alpha   89.54125306
_cell_angle_beta   88.96140930
_cell_angle_gamma   90.08549228
_symmetry_Int_Tables_number   1
_chemical_formula_structural   Ac18La2Si15Br
_chemical_formula_sum   'Ac18 La2 Si15 Br1'
_cell_volume   1114.98685814
_cell_formula_units_Z   1
loop_
 _symmetry_equiv_pos_site_id
 _symmetry_equiv_pos_as_xyz
  1  'x, y, z'
loop_
 _atom_site_type_symbol
 _atom_site_label
 _atom_site_symmetry_multiplicity
 _atom_site_fract_x
 _atom_site_fract_y
 _atom_site_fract_z
 _atom_site_occupancy
  Ac  Ac0  1  0.310487  0.311158  0.999648  1
  Ac  Ac1  1  0.184820  0.808724  0.250122  1
  Ac  Ac2  1  0.795738  0.188900  0.753777  1
  Ac  Ac3  1  0.684455  0.689506  0.496015  1
  Ac  Ac4  1  0.377353  0.010273  0.445138  1
  Ac  Ac5  1  0.493478  0.870527  0.699379  1
  Ac  Ac6  1  0.514321  0.122360  0.196839  1
  Ac  Ac7  1  0.870375  0.483168  0.297745  1
  Ac  Ac8  1  0.124584  0.520512  0.801405  1
  Ac  Ac9  1  0.636309  0.982561  0.955104  1
  Ac  Ac10  1  0.999552  0.383805  0.544366  1
  Ac  Ac11  1  0.992288  0.622715  0.053171  1
  Ac  Ac12  1  0.139785  0.984614  0.875192  1
  Ac  Ac13  1  0.522417  0.628702  0.126978  1
  Ac  Ac14  1  0.480020  0.374160  0.631230  1
  Ac  Ac15  1  0.637933  0.526327  0.878084  1
  Ac  Ac16  1  0.365768  0.474077  0.374944  1
  Ac  Ac17  1  0.871743  0.023799  0.376876  1
  La  La18  1  0.983090  0.128172  0.124870  1
  La  La19  1  0.010773  0.855917  0.619892  1
  Si  Si20  1  0.332732  0.701890  0.955506  1
  Si  Si21  1  0.661490  0.302581  0.458464  1
  Si  Si22  1  0.710407  0.330945  0.050085  1
  Si  Si23  1  0.296197  0.670907  0.548947  1
  Si  Si24  1  0.801977  0.838235  0.203658  1
  Si  Si25  1  0.165695  0.196842  0.290971  1
  Si  Si26  1  0.844156  0.803830  0.790538  1
  Si  Si27  1  0.286733  0.923026  0.058556  1
  Si  Si28  1  0.579049  0.792119  0.307624  1
  Si  Si29  1  0.450827  0.208215  0.824741  1
  Si  Si30  1  0.796618  0.579628  0.688467  1
  Si  Si31  1  0.205477  0.418686  0.189863  1
  Si  Si32  1  0.706165  0.077451  0.560942  1
  Si  Si33  1  0.926897  0.287361  0.943806  1
  Si  Si34  1  0.076740  0.713511  0.443190  1
  Br  Br35  1  0.163550  0.164795  0.683864  1
