# generated using pymatgen
data_ErBi3Te10
_symmetry_space_group_name_H-M   'P 1'
_cell_length_a   23.87942814
_cell_length_b   23.87942655
_cell_length_c   3.17718300
_cell_angle_alpha   90.00000000
_cell_angle_beta   90.00000000
_cell_angle_gamma   166.32014055
_symmetry_Int_Tables_number   1
_chemical_formula_structural   ErBi3Te10
_chemical_formula_sum   'Er1 Bi3 Te10'
_cell_volume   428.46462532
_cell_formula_units_Z   1
loop_
 _symmetry_equiv_pos_site_id
 _symmetry_equiv_pos_as_xyz
  1  'x, y, z'
loop_
 _atom_site_type_symbol
 _atom_site_label
 _atom_site_symmetry_multiplicity
 _atom_site_fract_x
 _atom_site_fract_y
 _atom_site_fract_z
 _atom_site_occupancy
  Er  Er0  1  0.104388  0.895612  0.750000  1
  Bi  Bi1  1  0.682978  0.317022  0.250000  1
  Bi  Bi2  1  0.319545  0.680455  0.750000  1
  Bi  Bi3  1  0.886923  0.113077  0.250000  1
  Te  Te4  1  0.618988  0.381012  0.250000  1
  Te  Te5  1  0.385312  0.614688  0.750000  1
  Te  Te6  1  0.821142  0.178858  0.250000  1
  Te  Te7  1  0.173458  0.826542  0.750000  1
  Te  Te8  1  0.955083  0.044917  0.750000  1
  Te  Te9  1  0.046596  0.953404  0.250000  1
  Te  Te10  1  0.545447  0.454553  0.750000  1
  Te  Te11  1  0.459105  0.540895  0.250000  1
  Te  Te12  1  0.748786  0.251214  0.750000  1
  Te  Te13  1  0.252247  0.747753  0.250000  1
