# generated using pymatgen
data_Ta2Ti17Si16Pt
_symmetry_space_group_name_H-M   'P 1'
_cell_length_a   6.71585158
_cell_length_b   6.71937484
_cell_length_c   12.18260318
_cell_angle_alpha   89.58420629
_cell_angle_beta   90.33589720
_cell_angle_gamma   89.86929881
_symmetry_Int_Tables_number   1
_chemical_formula_structural   Ta2Ti17Si16Pt
_chemical_formula_sum   'Ta2 Ti17 Si16 Pt1'
_cell_volume   549.73069331
_cell_formula_units_Z   1
loop_
 _symmetry_equiv_pos_site_id
 _symmetry_equiv_pos_as_xyz
  1  'x, y, z'
loop_
 _atom_site_type_symbol
 _atom_site_label
 _atom_site_symmetry_multiplicity
 _atom_site_fract_x
 _atom_site_fract_y
 _atom_site_fract_z
 _atom_site_occupancy
  Ta  Ta0  1  0.997493  0.146797  0.624839  1
  Ta  Ta1  1  0.828309  0.828923  0.499562  1
  Ti  Ti2  1  0.355932  0.499608  0.869887  1
  Ti  Ti3  1  0.648226  0.504532  0.370264  1
  Ti  Ti4  1  0.499248  0.355214  0.130828  1
  Ti  Ti5  1  0.505612  0.649191  0.629252  1
  Ti  Ti6  1  0.004203  0.849967  0.119304  1
  Ti  Ti7  1  0.146938  0.996429  0.375484  1
  Ti  Ti8  1  0.850001  0.003973  0.880332  1
  Ti  Ti9  1  0.000534  0.346954  0.218541  1
  Ti  Ti10  1  0.154292  0.500436  0.468789  1
  Ti  Ti11  1  0.838945  0.497935  0.971099  1
  Ti  Ti12  1  0.500316  0.154785  0.531171  1
  Ti  Ti13  1  0.497740  0.838622  0.029300  1
  Ti  Ti14  1  0.997843  0.655672  0.720351  1
  Ti  Ti15  1  0.345635  0.000514  0.781049  1
  Ti  Ti16  1  0.655751  0.997100  0.279454  1
  Ti  Ti17  1  0.327813  0.672014  0.247264  1
  Ti  Ti18  1  0.673186  0.327776  0.752490  1
  Si  Si19  1  0.047700  0.303778  0.817677  1
  Si  Si20  1  0.202745  0.547141  0.061780  1
  Si  Si21  1  0.797782  0.453550  0.563656  1
  Si  Si22  1  0.547086  0.202654  0.938644  1
  Si  Si23  1  0.452086  0.800595  0.434155  1
  Si  Si24  1  0.957311  0.697604  0.311382  1
  Si  Si25  1  0.301012  0.046832  0.184608  1
  Si  Si26  1  0.693719  0.955588  0.689033  1
  Si  Si27  1  0.298107  0.358929  0.674845  1
  Si  Si28  1  0.136527  0.785159  0.920322  1
  Si  Si29  1  0.857162  0.208656  0.420894  1
  Si  Si30  1  0.784849  0.136369  0.080110  1
  Si  Si31  1  0.209398  0.853152  0.576328  1
  Si  Si32  1  0.705287  0.645667  0.172813  1
  Si  Si33  1  0.356376  0.294555  0.326460  1
  Si  Si34  1  0.646013  0.704939  0.827673  1
  Pt  Pt35  1  0.178820  0.178387  0.000360  1
