# generated using pymatgen
data_Lu12InFe2NiRu
_symmetry_space_group_name_H-M   'P 1'
_cell_length_a   8.06913501
_cell_length_b   8.06867338
_cell_length_c   8.06913657
_cell_angle_alpha   106.69668873
_cell_angle_beta   111.45901317
_cell_angle_gamma   110.29754903
_symmetry_Int_Tables_number   1
_chemical_formula_structural   Lu12InFe2NiRu
_chemical_formula_sum   'Lu12 In1 Fe2 Ni1 Ru1'
_cell_volume   403.65957599
_cell_formula_units_Z   1
loop_
 _symmetry_equiv_pos_site_id
 _symmetry_equiv_pos_as_xyz
  1  'x, y, z'
loop_
 _atom_site_type_symbol
 _atom_site_label
 _atom_site_symmetry_multiplicity
 _atom_site_fract_x
 _atom_site_fract_y
 _atom_site_fract_z
 _atom_site_occupancy
  Lu  Lu0  1  0.310044  0.308499  0.618527  1
  Lu  Lu1  1  0.689956  0.691501  0.381473  1
  Lu  Lu2  1  0.689973  0.308499  0.998455  1
  Lu  Lu3  1  0.310027  0.691501  0.001545  1
  Lu  Lu4  1  0.190318  0.412992  0.222673  1
  Lu  Lu5  1  0.809682  0.587008  0.777327  1
  Lu  Lu6  1  0.190296  0.967630  0.777335  1
  Lu  Lu7  1  0.919084  0.190639  0.728459  1
  Lu  Lu8  1  0.809704  0.032370  0.222665  1
  Lu  Lu9  1  0.080916  0.809361  0.271541  1
  Lu  Lu10  1  0.462181  0.190639  0.271553  1
  Lu  Lu11  1  0.537819  0.809361  0.728447  1
  In  In12  1  0.000000  0.500000  0.500000  1
  Fe  Fe13  1  0.381257  0.381238  0.999981  1
  Fe  Fe14  1  0.618743  0.618762  0.000019  1
  Ni  Ni15  1  0.500000  0.000000  0.500000  1
  Ru  Ru16  1  0.000000  0.000000  0.000000  1
