# generated using pymatgen
data_TmTi(NbSe2)8
_symmetry_space_group_name_H-M   'P 1'
_cell_length_a   6.99557300
_cell_length_b   6.99557331
_cell_length_c   13.53204200
_cell_angle_alpha   90.00000000
_cell_angle_beta   90.00000000
_cell_angle_gamma   120.00000327
_symmetry_Int_Tables_number   1
_chemical_formula_structural   TmTi(NbSe2)8
_chemical_formula_sum   'Tm1 Ti1 Nb8 Se16'
_cell_volume   573.50942493
_cell_formula_units_Z   1
loop_
 _symmetry_equiv_pos_site_id
 _symmetry_equiv_pos_as_xyz
  1  'x, y, z'
loop_
 _atom_site_type_symbol
 _atom_site_label
 _atom_site_symmetry_multiplicity
 _atom_site_fract_x
 _atom_site_fract_y
 _atom_site_fract_z
 _atom_site_occupancy
  Tm  Tm0  1  0.000000  0.000000  0.500000  1
  Ti  Ti1  1  0.000000  0.000000  0.000000  1
  Nb  Nb2  1  0.000000  0.000000  0.237600  1
  Nb  Nb3  1  0.000000  0.000000  0.762400  1
  Nb  Nb4  1  0.507190  0.014381  0.236903  1
  Nb  Nb5  1  0.985619  0.492810  0.236903  1
  Nb  Nb6  1  0.507190  0.492810  0.236903  1
  Nb  Nb7  1  0.492810  0.985619  0.763097  1
  Nb  Nb8  1  0.014381  0.507190  0.763097  1
  Nb  Nb9  1  0.492810  0.507190  0.763097  1
  Se  Se10  1  0.333333  0.666667  0.890596  1
  Se  Se11  1  0.666667  0.333333  0.109404  1
  Se  Se12  1  0.666667  0.333333  0.365448  1
  Se  Se13  1  0.333333  0.666667  0.634552  1
  Se  Se14  1  0.169892  0.830108  0.360646  1
  Se  Se15  1  0.169892  0.339785  0.360646  1
  Se  Se16  1  0.660215  0.830108  0.360646  1
  Se  Se17  1  0.830108  0.169892  0.639354  1
  Se  Se18  1  0.830108  0.660215  0.639354  1
  Se  Se19  1  0.339785  0.169892  0.639354  1
  Se  Se20  1  0.831611  0.168389  0.885948  1
  Se  Se21  1  0.831611  0.663223  0.885948  1
  Se  Se22  1  0.336777  0.168389  0.885948  1
  Se  Se23  1  0.168389  0.831611  0.114052  1
  Se  Se24  1  0.168389  0.336777  0.114052  1
  Se  Se25  1  0.663223  0.831611  0.114052  1
