# generated using pymatgen
data_Tb5Mg2Ru3
_symmetry_space_group_name_H-M   'P 1'
_cell_length_a   8.48581584
_cell_length_b   8.48581608
_cell_length_c   8.48581700
_cell_angle_alpha   109.47121805
_cell_angle_beta   109.47121863
_cell_angle_gamma   109.47122207
_symmetry_Int_Tables_number   1
_chemical_formula_structural   Tb5Mg2Ru3
_chemical_formula_sum   'Tb10 Mg4 Ru6'
_cell_volume   470.39100156
_cell_formula_units_Z   2
loop_
 _symmetry_equiv_pos_site_id
 _symmetry_equiv_pos_as_xyz
  1  'x, y, z'
loop_
 _atom_site_type_symbol
 _atom_site_label
 _atom_site_symmetry_multiplicity
 _atom_site_fract_x
 _atom_site_fract_y
 _atom_site_fract_z
 _atom_site_occupancy
  Tb  Tb0  1  0.788438  0.000000  0.000000  1
  Tb  Tb1  1  0.250000  0.327053  0.077053  1
  Tb  Tb2  1  0.711564  0.711564  0.211564  1
  Tb  Tb3  1  0.172947  0.922947  0.250000  1
  Tb  Tb4  1  0.000000  0.500001  0.288437  1
  Tb  Tb5  1  0.750000  0.172947  0.422947  1
  Tb  Tb6  1  0.500001  0.788438  0.500001  1
  Tb  Tb7  1  0.922947  0.750000  0.672947  1
  Tb  Tb8  1  0.327053  0.577053  0.750000  1
  Tb  Tb9  1  0.577053  0.250000  0.827052  1
  Mg  Mg10  1  0.398550  0.000000  0.000000  1
  Mg  Mg11  1  0.500000  0.398550  0.500000  1
  Mg  Mg12  1  0.101450  0.101450  0.601450  1
  Mg  Mg13  1  0.000000  0.500000  0.898550  1
  Ru  Ru14  1  0.383876  0.750000  0.133876  1
  Ru  Ru15  1  0.633876  0.383876  0.250000  1
  Ru  Ru16  1  0.116124  0.250000  0.366124  1
  Ru  Ru17  1  0.250000  0.866124  0.616125  1
  Ru  Ru18  1  0.866123  0.116124  0.750000  1
  Ru  Ru19  1  0.750000  0.633876  0.883876  1
