# generated using pymatgen
data_Nb4CoNi3Pt8
_symmetry_space_group_name_H-M   'P 1'
_cell_length_a   4.45976900
_cell_length_b   4.89127400
_cell_length_c   10.96016800
_cell_angle_alpha   90.00000000
_cell_angle_beta   90.00000000
_cell_angle_gamma   90.00000000
_symmetry_Int_Tables_number   1
_chemical_formula_structural   Nb4CoNi3Pt8
_chemical_formula_sum   'Nb4 Co1 Ni3 Pt8'
_cell_volume   239.08458037
_cell_formula_units_Z   1
loop_
 _symmetry_equiv_pos_site_id
 _symmetry_equiv_pos_as_xyz
  1  'x, y, z'
loop_
 _atom_site_type_symbol
 _atom_site_label
 _atom_site_symmetry_multiplicity
 _atom_site_fract_x
 _atom_site_fract_y
 _atom_site_fract_z
 _atom_site_occupancy
  Nb  Nb0  1  0.500000  0.651917  0.249794  1
  Nb  Nb1  1  0.500000  0.651917  0.750206  1
  Nb  Nb2  1  0.000000  0.348721  0.000000  1
  Nb  Nb3  1  0.000000  0.346625  0.500000  1
  Co  Co4  1  0.500000  0.671180  0.500000  1
  Ni  Ni5  1  0.000000  0.331440  0.249563  1
  Ni  Ni6  1  0.000000  0.331440  0.750437  1
  Ni  Ni7  1  0.500000  0.667942  0.000000  1
  Pt  Pt8  1  0.500000  0.172979  0.374323  1
  Pt  Pt9  1  0.500000  0.173796  0.874536  1
  Pt  Pt10  1  0.500000  0.173796  0.125464  1
  Pt  Pt11  1  0.500000  0.172979  0.625677  1
  Pt  Pt12  1  0.000000  0.826165  0.376055  1
  Pt  Pt13  1  0.000000  0.826471  0.875363  1
  Pt  Pt14  1  0.000000  0.826471  0.124637  1
  Pt  Pt15  1  0.000000  0.826165  0.623945  1
