# generated using pymatgen
data_Er6MgCo16P12Ru
_symmetry_space_group_name_H-M   'P 1'
_cell_length_a   3.69811800
_cell_length_b   10.54676200
_cell_length_c   12.22565900
_cell_angle_alpha   90.00000000
_cell_angle_beta   90.00000000
_cell_angle_gamma   90.00000000
_symmetry_Int_Tables_number   1
_chemical_formula_structural   Er6MgCo16P12Ru
_chemical_formula_sum   'Er6 Mg1 Co16 P12 Ru1'
_cell_volume   476.83946115
_cell_formula_units_Z   1
loop_
 _symmetry_equiv_pos_site_id
 _symmetry_equiv_pos_as_xyz
  1  'x, y, z'
loop_
 _atom_site_type_symbol
 _atom_site_label
 _atom_site_symmetry_multiplicity
 _atom_site_fract_x
 _atom_site_fract_y
 _atom_site_fract_z
 _atom_site_occupancy
  Er  Er0  1  0.750000  0.250000  0.474574  1
  Er  Er1  1  0.250000  0.750000  0.525269  1
  Er  Er2  1  0.250000  0.931680  0.794262  1
  Er  Er3  1  0.250000  0.568320  0.794262  1
  Er  Er4  1  0.750000  0.071308  0.207294  1
  Er  Er5  1  0.750000  0.428692  0.207294  1
  Mg  Mg6  1  0.750000  0.750000  0.154672  1
  Co  Co7  1  0.250000  0.250000  0.296416  1
  Co  Co8  1  0.750000  0.750000  0.704283  1
  Co  Co9  1  0.750000  0.250000  0.011225  1
  Co  Co10  1  0.250000  0.750000  0.986161  1
  Co  Co11  1  0.250000  0.414452  0.005589  1
  Co  Co12  1  0.250000  0.085548  0.005589  1
  Co  Co13  1  0.750000  0.579203  0.993300  1
  Co  Co14  1  0.750000  0.920797  0.993300  1
  Co  Co15  1  0.250000  0.452264  0.570548  1
  Co  Co16  1  0.250000  0.047736  0.570548  1
  Co  Co17  1  0.750000  0.545387  0.433800  1
  Co  Co18  1  0.750000  0.954613  0.433800  1
  Co  Co19  1  0.250000  0.873496  0.293874  1
  Co  Co20  1  0.250000  0.626504  0.293874  1
  Co  Co21  1  0.750000  0.129153  0.706556  1
  Co  Co22  1  0.750000  0.370847  0.706556  1
  P  P23  1  0.250000  0.250000  0.117458  1
  P  P24  1  0.750000  0.750000  0.883593  1
  P  P25  1  0.250000  0.250000  0.647213  1
  P  P26  1  0.750000  0.750000  0.354989  1
  P  P27  1  0.250000  0.438750  0.385030  1
  P  P28  1  0.250000  0.061250  0.385030  1
  P  P29  1  0.750000  0.561605  0.617219  1
  P  P30  1  0.750000  0.938395  0.617219  1
  P  P31  1  0.250000  0.911523  0.105298  1
  P  P32  1  0.250000  0.588477  0.105298  1
  P  P33  1  0.750000  0.096207  0.890448  1
  P  P34  1  0.750000  0.403793  0.890448  1
  Ru  Ru35  1  0.250000  0.250000  0.837713  1
