# generated using pymatgen
data_La20GaSi10P
_symmetry_space_group_name_H-M   'P 1'
_cell_length_a   7.89725500
_cell_length_b   7.89725500
_cell_length_c   14.54449500
_cell_angle_alpha   90.00000000
_cell_angle_beta   90.00000000
_cell_angle_gamma   90.00000000
_symmetry_Int_Tables_number   1
_chemical_formula_structural   La20GaSi10P
_chemical_formula_sum   'La20 Ga1 Si10 P1'
_cell_volume   907.09123325
_cell_formula_units_Z   1
loop_
 _symmetry_equiv_pos_site_id
 _symmetry_equiv_pos_as_xyz
  1  'x, y, z'
loop_
 _atom_site_type_symbol
 _atom_site_label
 _atom_site_symmetry_multiplicity
 _atom_site_fract_x
 _atom_site_fract_y
 _atom_site_fract_z
 _atom_site_occupancy
  La  La0  1  0.500000  0.000000  0.776665  1
  La  La1  1  0.327425  0.316397  0.104530  1
  La  La2  1  0.830628  0.813298  0.895386  1
  La  La3  1  0.000000  0.500000  0.226472  1
  La  La4  1  0.826336  0.181948  0.392258  1
  La  La5  1  0.169372  0.186702  0.895386  1
  La  La6  1  0.672575  0.683603  0.104530  1
  La  La7  1  0.000000  0.500000  0.718569  1
  La  La8  1  0.811703  0.833872  0.608021  1
  La  La9  1  0.318052  0.326336  0.392258  1
  La  La10  1  0.183603  0.827425  0.104530  1
  La  La11  1  0.188297  0.166128  0.608021  1
  La  La12  1  0.816397  0.172575  0.104530  1
  La  La13  1  0.333872  0.688297  0.608021  1
  La  La14  1  0.500000  0.000000  0.276436  1
  La  La15  1  0.686702  0.330628  0.895386  1
  La  La16  1  0.666128  0.311703  0.608021  1
  La  La17  1  0.313298  0.669372  0.895386  1
  La  La18  1  0.173664  0.818052  0.392258  1
  La  La19  1  0.681948  0.673664  0.392258  1
  Ga  Ga20  1  0.000000  0.500000  0.500482  1
  Si  Si21  1  0.612987  0.387170  0.248015  1
  Si  Si22  1  0.887104  0.114068  0.752164  1
  Si  Si23  1  0.500000  0.000000  0.494990  1
  Si  Si24  1  0.887170  0.887013  0.248015  1
  Si  Si25  1  0.112896  0.885932  0.752164  1
  Si  Si26  1  0.385932  0.387104  0.752164  1
  Si  Si27  1  0.112830  0.112987  0.248015  1
  Si  Si28  1  0.387013  0.612830  0.248015  1
  Si  Si29  1  0.614068  0.612896  0.752164  1
  Si  Si30  1  0.500000  0.000000  0.995248  1
  P  P31  1  0.000000  0.500000  0.009634  1
