# generated using pymatgen
data_Zr6Zn2PdPt3N2
_symmetry_space_group_name_H-M   'P 1'
_cell_length_a   8.63672239
_cell_length_b   8.63672222
_cell_length_c   8.64330400
_cell_angle_alpha   59.97478008
_cell_angle_beta   59.97478073
_cell_angle_gamma   59.94892830
_symmetry_Int_Tables_number   1
_chemical_formula_structural   Zr6Zn2PdPt3N2
_chemical_formula_sum   'Zr12 Zn4 Pd2 Pt6 N4'
_cell_volume   455.54288434
_cell_formula_units_Z   2
loop_
 _symmetry_equiv_pos_site_id
 _symmetry_equiv_pos_as_xyz
  1  'x, y, z'
loop_
 _atom_site_type_symbol
 _atom_site_label
 _atom_site_symmetry_multiplicity
 _atom_site_fract_x
 _atom_site_fract_y
 _atom_site_fract_z
 _atom_site_occupancy
  Zr  Zr0  1  0.810390  0.188736  0.190119  1
  Zr  Zr1  1  0.188736  0.810390  0.190119  1
  Zr  Zr2  1  0.809704  0.809704  0.190296  1
  Zr  Zr3  1  0.188736  0.810390  0.810755  1
  Zr  Zr4  1  0.810390  0.188736  0.810755  1
  Zr  Zr5  1  0.188196  0.188196  0.811804  1
  Zr  Zr6  1  0.439853  0.058950  0.061149  1
  Zr  Zr7  1  0.058950  0.439853  0.061149  1
  Zr  Zr8  1  0.440005  0.440005  0.059995  1
  Zr  Zr9  1  0.058950  0.439853  0.440048  1
  Zr  Zr10  1  0.439853  0.058950  0.440048  1
  Zr  Zr11  1  0.060032  0.060032  0.439968  1
  Zn  Zn12  1  0.624943  0.624943  0.125289  1
  Zn  Zn13  1  0.624943  0.624943  0.624825  1
  Zn  Zn14  1  0.125195  0.625088  0.624859  1
  Zn  Zn15  1  0.625088  0.125195  0.624859  1
  Pd  Pd16  1  0.413623  0.413623  0.759529  1
  Pd  Pd17  1  0.413623  0.413623  0.413224  1
  Pt  Pt18  1  0.764729  0.412151  0.411560  1
  Pt  Pt19  1  0.412151  0.764729  0.411560  1
  Pt  Pt20  1  0.838610  0.838610  0.484513  1
  Pt  Pt21  1  0.838610  0.838610  0.838268  1
  Pt  Pt22  1  0.484614  0.838780  0.838303  1
  Pt  Pt23  1  0.838780  0.484614  0.838303  1
  N  N24  1  0.125400  0.125400  0.624715  1
  N  N25  1  0.125400  0.125400  0.124484  1
  N  N26  1  0.624726  0.125767  0.124753  1
  N  N27  1  0.125767  0.624726  0.124753  1
