# generated using pymatgen
data_Ta12Al5Au3N4
_symmetry_space_group_name_H-M   'P 1'
_cell_length_a   7.07402654
_cell_length_b   7.07402720
_cell_length_c   7.07402696
_cell_angle_alpha   90.10478861
_cell_angle_beta   90.10479122
_cell_angle_gamma   90.10478968
_symmetry_Int_Tables_number   1
_chemical_formula_structural   Ta12Al5Au3N4
_chemical_formula_sum   'Ta12 Al5 Au3 N4'
_cell_volume   353.99566105
_cell_formula_units_Z   1
loop_
 _symmetry_equiv_pos_site_id
 _symmetry_equiv_pos_as_xyz
  1  'x, y, z'
loop_
 _atom_site_type_symbol
 _atom_site_label
 _atom_site_symmetry_multiplicity
 _atom_site_fract_x
 _atom_site_fract_y
 _atom_site_fract_z
 _atom_site_occupancy
  Ta  Ta0  1  0.785225  0.953815  0.384540  1
  Ta  Ta1  1  0.710380  0.039005  0.869224  1
  Ta  Ta2  1  0.211219  0.454019  0.127288  1
  Ta  Ta3  1  0.292749  0.546614  0.624026  1
  Ta  Ta4  1  0.953815  0.384540  0.785225  1
  Ta  Ta5  1  0.039005  0.869224  0.710380  1
  Ta  Ta6  1  0.454019  0.127288  0.211219  1
  Ta  Ta7  1  0.546614  0.624026  0.292749  1
  Ta  Ta8  1  0.384540  0.785225  0.953815  1
  Ta  Ta9  1  0.869224  0.710380  0.039005  1
  Ta  Ta10  1  0.127288  0.211219  0.454019  1
  Ta  Ta11  1  0.624026  0.292749  0.546614  1
  Al  Al12  1  0.676994  0.676994  0.676994  1
  Al  Al13  1  0.571042  0.425510  0.930869  1
  Al  Al14  1  0.425510  0.930869  0.571042  1
  Al  Al15  1  0.930869  0.571042  0.425510  1
  Al  Al16  1  0.070310  0.070310  0.070310  1
  Au  Au17  1  0.178984  0.820541  0.315887  1
  Au  Au18  1  0.315887  0.178984  0.820541  1
  Au  Au19  1  0.820541  0.315887  0.178984  1
  N  N20  1  0.881743  0.128227  0.624384  1
  N  N21  1  0.624384  0.881743  0.128227  1
  N  N22  1  0.128227  0.624384  0.881743  1
  N  N23  1  0.377405  0.377405  0.377405  1
