# generated using pymatgen
data_Er6HgRh7
_symmetry_space_group_name_H-M   'P 1'
_cell_length_a   7.58560236
_cell_length_b   7.58560310
_cell_length_c   7.58560362
_cell_angle_alpha   113.75309926
_cell_angle_beta   113.75311192
_cell_angle_gamma   113.75311310
_symmetry_Int_Tables_number   1
_chemical_formula_structural   Er6HgRh7
_chemical_formula_sum   'Er6 Hg1 Rh7'
_cell_volume   269.97357730
_cell_formula_units_Z   1
loop_
 _symmetry_equiv_pos_site_id
 _symmetry_equiv_pos_as_xyz
  1  'x, y, z'
loop_
 _atom_site_type_symbol
 _atom_site_label
 _atom_site_symmetry_multiplicity
 _atom_site_fract_x
 _atom_site_fract_y
 _atom_site_fract_z
 _atom_site_occupancy
  Er  Er0  1  0.959191  0.231737  0.372329  1
  Er  Er1  1  0.231737  0.372329  0.959191  1
  Er  Er2  1  0.372329  0.959191  0.231737  1
  Er  Er3  1  0.040809  0.768263  0.627671  1
  Er  Er4  1  0.768263  0.627671  0.040809  1
  Er  Er5  1  0.627671  0.040809  0.768263  1
  Hg  Hg6  1  0.500000  0.500000  0.500000  1
  Rh  Rh7  1  0.000000  0.000000  0.000000  1
  Rh  Rh8  1  0.124396  0.567792  0.273420  1
  Rh  Rh9  1  0.567792  0.273420  0.124396  1
  Rh  Rh10  1  0.273420  0.124396  0.567792  1
  Rh  Rh11  1  0.875604  0.432208  0.726580  1
  Rh  Rh12  1  0.432208  0.726580  0.875604  1
  Rh  Rh13  1  0.726580  0.875604  0.432208  1
