# generated using pymatgen
data_La4CeIr3
_symmetry_space_group_name_H-M   'P 1'
_cell_length_a   11.38802300
_cell_length_b   11.38802300
_cell_length_c   6.49406600
_cell_angle_alpha   90.00000000
_cell_angle_beta   90.00000000
_cell_angle_gamma   90.00000000
_symmetry_Int_Tables_number   1
_chemical_formula_structural   La4CeIr3
_chemical_formula_sum   'La16 Ce4 Ir12'
_cell_volume   842.19637795
_cell_formula_units_Z   4
loop_
 _symmetry_equiv_pos_site_id
 _symmetry_equiv_pos_as_xyz
  1  'x, y, z'
loop_
 _atom_site_type_symbol
 _atom_site_label
 _atom_site_symmetry_multiplicity
 _atom_site_fract_x
 _atom_site_fract_y
 _atom_site_fract_z
 _atom_site_occupancy
  La  La0  1  0.288777  0.089437  0.382723  1
  La  La1  1  0.288777  0.910563  0.882723  1
  La  La2  1  0.711223  0.089437  0.882723  1
  La  La3  1  0.711223  0.910563  0.382723  1
  La  La4  1  0.589437  0.788777  0.882723  1
  La  La5  1  0.589437  0.211223  0.382723  1
  La  La6  1  0.410563  0.788777  0.382723  1
  La  La7  1  0.410563  0.211223  0.882723  1
  La  La8  1  0.211223  0.410563  0.617277  1
  La  La9  1  0.211223  0.589437  0.117277  1
  La  La10  1  0.788777  0.410563  0.117277  1
  La  La11  1  0.788777  0.589437  0.617277  1
  La  La12  1  0.910563  0.711223  0.117277  1
  La  La13  1  0.910563  0.288777  0.617277  1
  La  La14  1  0.089437  0.711223  0.617277  1
  La  La15  1  0.089437  0.288777  0.117277  1
  Ce  Ce16  1  0.000000  0.000000  0.500000  1
  Ce  Ce17  1  0.000000  0.000000  0.000000  1
  Ce  Ce18  1  0.500000  0.500000  0.000000  1
  Ce  Ce19  1  0.500000  0.500000  0.500000  1
  Ir  Ir20  1  0.852465  0.147535  0.250000  1
  Ir  Ir21  1  0.852465  0.852465  0.750000  1
  Ir  Ir22  1  0.147535  0.147535  0.750000  1
  Ir  Ir23  1  0.147535  0.852465  0.250000  1
  Ir  Ir24  1  0.647535  0.352465  0.750000  1
  Ir  Ir25  1  0.647535  0.647535  0.250000  1
  Ir  Ir26  1  0.352465  0.352465  0.250000  1
  Ir  Ir27  1  0.352465  0.647535  0.750000  1
  Ir  Ir28  1  0.500000  0.000000  0.115560  1
  Ir  Ir29  1  0.500000  0.000000  0.615560  1
  Ir  Ir30  1  0.000000  0.500000  0.884440  1
  Ir  Ir31  1  0.000000  0.500000  0.384440  1
