# generated using pymatgen
data_Zr3Sc(NiP)6
_symmetry_space_group_name_H-M   'P 1'
_cell_length_a   3.64556600
_cell_length_b   10.06765558
_cell_length_c   12.38044760
_cell_angle_alpha   89.89084233
_cell_angle_beta   90.00000000
_cell_angle_gamma   90.00000000
_symmetry_Int_Tables_number   1
_chemical_formula_structural   Zr3Sc(NiP)6
_chemical_formula_sum   'Zr6 Sc2 Ni12 P12'
_cell_volume   454.39011307
_cell_formula_units_Z   2
loop_
 _symmetry_equiv_pos_site_id
 _symmetry_equiv_pos_as_xyz
  1  'x, y, z'
loop_
 _atom_site_type_symbol
 _atom_site_label
 _atom_site_symmetry_multiplicity
 _atom_site_fract_x
 _atom_site_fract_y
 _atom_site_fract_z
 _atom_site_occupancy
  Zr  Zr0  1  0.750000  0.575710  0.290737  1
  Zr  Zr1  1  0.250000  0.424290  0.709263  1
  Zr  Zr2  1  0.250000  0.161559  0.497193  1
  Zr  Zr3  1  0.750000  0.838441  0.502807  1
  Zr  Zr4  1  0.750000  0.661815  0.004669  1
  Zr  Zr5  1  0.250000  0.338185  0.995331  1
  Sc  Sc6  1  0.250000  0.073036  0.209963  1
  Sc  Sc7  1  0.750000  0.926964  0.790037  1
  Ni  Ni8  1  0.250000  0.727046  0.665846  1
  Ni  Ni9  1  0.750000  0.272954  0.334154  1
  Ni  Ni10  1  0.750000  0.225715  0.835468  1
  Ni  Ni11  1  0.250000  0.774285  0.164532  1
  Ni  Ni12  1  0.250000  0.364910  0.217797  1
  Ni  Ni13  1  0.750000  0.635090  0.782203  1
  Ni  Ni14  1  0.750000  0.866869  0.280353  1
  Ni  Ni15  1  0.250000  0.133131  0.719647  1
  Ni  Ni16  1  0.250000  0.596006  0.483963  1
  Ni  Ni17  1  0.750000  0.403994  0.516037  1
  Ni  Ni18  1  0.750000  0.096331  0.018938  1
  Ni  Ni19  1  0.250000  0.903669  0.981062  1
  P  P20  1  0.250000  0.945657  0.627949  1
  P  P21  1  0.750000  0.054343  0.372051  1
  P  P22  1  0.750000  0.445701  0.871252  1
  P  P23  1  0.250000  0.554299  0.128748  1
  P  P24  1  0.250000  0.397394  0.398008  1
  P  P25  1  0.750000  0.602606  0.601992  1
  P  P26  1  0.750000  0.897694  0.101166  1
  P  P27  1  0.250000  0.102306  0.898834  1
  P  P28  1  0.250000  0.764283  0.354231  1
  P  P29  1  0.750000  0.235717  0.645769  1
  P  P30  1  0.750000  0.262954  0.145515  1
  P  P31  1  0.250000  0.737046  0.854485  1
