# generated using pymatgen
data_Zn2Pt3
_symmetry_space_group_name_H-M   'P 1'
_cell_length_a   9.48446600
_cell_length_b   9.48446580
_cell_length_c   9.48446540
_cell_angle_alpha   162.83631524
_cell_angle_beta   162.83631551
_cell_angle_gamma   24.36564802
_symmetry_Int_Tables_number   1
_chemical_formula_structural   Zn2Pt3
_chemical_formula_sum   'Zn2 Pt3'
_cell_volume   74.27997909
_cell_formula_units_Z   1
loop_
 _symmetry_equiv_pos_site_id
 _symmetry_equiv_pos_as_xyz
  1  'x, y, z'
loop_
 _atom_site_type_symbol
 _atom_site_label
 _atom_site_symmetry_multiplicity
 _atom_site_fract_x
 _atom_site_fract_y
 _atom_site_fract_z
 _atom_site_occupancy
  Zn  Zn0  1  0.901239  0.901239  0.000000  1
  Zn  Zn1  1  0.098761  0.098761  0.000000  1
  Pt  Pt2  1  0.500000  0.500000  0.000000  1
  Pt  Pt3  1  0.305691  0.305691  0.000000  1
  Pt  Pt4  1  0.694309  0.694309  0.000000  1
