# generated using pymatgen
data_Tc(Te4Br)2
_symmetry_space_group_name_H-M   'P 1'
_cell_length_a   9.02946725
_cell_length_b   9.02946726
_cell_length_c   10.85834638
_cell_angle_alpha   77.60494624
_cell_angle_beta   77.60494431
_cell_angle_gamma   116.41207719
_symmetry_Int_Tables_number   1
_chemical_formula_structural   Tc(Te4Br)2
_chemical_formula_sum   'Tc2 Te16 Br4'
_cell_volume   724.09918286
_cell_formula_units_Z   2
loop_
 _symmetry_equiv_pos_site_id
 _symmetry_equiv_pos_as_xyz
  1  'x, y, z'
loop_
 _atom_site_type_symbol
 _atom_site_label
 _atom_site_symmetry_multiplicity
 _atom_site_fract_x
 _atom_site_fract_y
 _atom_site_fract_z
 _atom_site_occupancy
  Tc  Tc0  1  0.000000  0.000000  0.000000  1
  Tc  Tc1  1  0.000000  0.000000  0.500000  1
  Te  Te2  1  0.788605  0.080323  0.148085  1
  Te  Te3  1  0.919677  0.211395  0.351915  1
  Te  Te4  1  0.211395  0.919677  0.851915  1
  Te  Te5  1  0.080323  0.788605  0.648085  1
  Te  Te6  1  0.978011  0.764693  0.209816  1
  Te  Te7  1  0.235307  0.021989  0.290184  1
  Te  Te8  1  0.021989  0.235307  0.790184  1
  Te  Te9  1  0.764693  0.978011  0.709816  1
  Te  Te10  1  0.751886  0.714688  0.472395  1
  Te  Te11  1  0.285312  0.248114  0.027605  1
  Te  Te12  1  0.248114  0.285312  0.527605  1
  Te  Te13  1  0.714688  0.751886  0.972395  1
  Te  Te14  1  0.518141  0.792179  0.377626  1
  Te  Te15  1  0.207821  0.481859  0.122374  1
  Te  Te16  1  0.481859  0.207821  0.622374  1
  Te  Te17  1  0.792179  0.518141  0.877626  1
  Br  Br18  1  0.590012  0.409988  0.250000  1
  Br  Br19  1  0.409988  0.590012  0.750000  1
  Br  Br20  1  0.000000  0.500000  0.500000  1
  Br  Br21  1  0.500000  0.000000  0.000000  1
