# generated using pymatgen
data_Er2U2Ga12Ru
_symmetry_space_group_name_H-M   'P 1'
_cell_length_a   7.42869798
_cell_length_b   7.49361519
_cell_length_c   7.44029636
_cell_angle_alpha   109.39872707
_cell_angle_beta   109.36697893
_cell_angle_gamma   109.32938920
_symmetry_Int_Tables_number   1
_chemical_formula_structural   Er2U2Ga12Ru
_chemical_formula_sum   'Er2 U2 Ga12 Ru1'
_cell_volume   320.08703677
_cell_formula_units_Z   1
loop_
 _symmetry_equiv_pos_site_id
 _symmetry_equiv_pos_as_xyz
  1  'x, y, z'
loop_
 _atom_site_type_symbol
 _atom_site_label
 _atom_site_symmetry_multiplicity
 _atom_site_fract_x
 _atom_site_fract_y
 _atom_site_fract_z
 _atom_site_occupancy
  Er  Er0  1  0.500000  0.500000  0.500000  1
  Er  Er1  1  0.000000  0.500000  0.000000  1
  U  U2  1  0.000000  0.000000  0.500000  1
  U  U3  1  0.500000  0.000000  0.000000  1
  Ga  Ga4  1  0.749932  0.249718  0.500095  1
  Ga  Ga5  1  0.001335  0.711618  0.709953  1
  Ga  Ga6  1  0.290166  0.999987  0.290412  1
  Ga  Ga7  1  0.499796  0.249721  0.749632  1
  Ga  Ga8  1  0.750066  0.500137  0.250061  1
  Ga  Ga9  1  0.250068  0.750282  0.499905  1
  Ga  Ga10  1  0.249934  0.499863  0.749939  1
  Ga  Ga11  1  0.709834  0.000013  0.709588  1
  Ga  Ga12  1  0.500204  0.750279  0.250368  1
  Ga  Ga13  1  0.710334  0.711630  0.001700  1
  Ga  Ga14  1  0.289666  0.288370  0.998300  1
  Ga  Ga15  1  0.998665  0.288382  0.290047  1
  Ru  Ru16  1  0.000000  0.000000  0.000000  1
