# generated using pymatgen
data_YbDy4Y(Si3Ru)8
_symmetry_space_group_name_H-M   'P 1'
_cell_length_a   10.14271469
_cell_length_b   10.14271407
_cell_length_c   8.14624000
_cell_angle_alpha   89.92612822
_cell_angle_beta   90.07387531
_cell_angle_gamma   132.64199084
_symmetry_Int_Tables_number   1
_chemical_formula_structural   YbDy4Y(Si3Ru)8
_chemical_formula_sum   'Yb1 Dy4 Y1 Si24 Ru8'
_cell_volume   616.46350048
_cell_formula_units_Z   1
loop_
 _symmetry_equiv_pos_site_id
 _symmetry_equiv_pos_as_xyz
  1  'x, y, z'
loop_
 _atom_site_type_symbol
 _atom_site_label
 _atom_site_symmetry_multiplicity
 _atom_site_fract_x
 _atom_site_fract_y
 _atom_site_fract_z
 _atom_site_occupancy
  Yb  Yb0  1  0.002228  0.502228  0.250000  1
  Dy  Dy1  1  0.000319  0.000377  0.000493  1
  Dy  Dy2  1  0.500377  0.500319  0.499507  1
  Dy  Dy3  1  0.498080  0.998080  0.750000  1
  Dy  Dy4  1  0.997246  0.497246  0.750000  1
  Y  Y5  1  0.502687  0.002687  0.250000  1
  Si  Si6  1  0.293575  0.704134  0.000340  1
  Si  Si7  1  0.795749  0.206493  0.498697  1
  Si  Si8  1  0.706493  0.295749  0.001303  1
  Si  Si9  1  0.204134  0.793575  0.499660  1
  Si  Si10  1  0.832761  0.834116  0.333157  1
  Si  Si11  1  0.166813  0.168055  0.666695  1
  Si  Si12  1  0.668055  0.666813  0.833305  1
  Si  Si13  1  0.334116  0.332761  0.166843  1
  Si  Si14  1  0.621582  0.387340  0.228148  1
  Si  Si15  1  0.611009  0.377527  0.772159  1
  Si  Si16  1  0.111524  0.877963  0.728493  1
  Si  Si17  1  0.122940  0.888838  0.272087  1
  Si  Si18  1  0.377963  0.611524  0.771507  1
  Si  Si19  1  0.388838  0.622940  0.227913  1
  Si  Si20  1  0.887340  0.121582  0.271852  1
  Si  Si21  1  0.877527  0.111009  0.727841  1
  Si  Si22  1  0.844696  0.611346  0.003926  1
  Si  Si23  1  0.388338  0.155310  0.994273  1
  Si  Si24  1  0.888565  0.654751  0.505528  1
  Si  Si25  1  0.344490  0.111782  0.494761  1
  Si  Si26  1  0.154751  0.388565  0.994472  1
  Si  Si27  1  0.611782  0.844490  0.005239  1
  Si  Si28  1  0.111346  0.344696  0.496074  1
  Si  Si29  1  0.655310  0.888338  0.505727  1
  Ru  Ru30  1  0.170056  0.830821  0.999751  1
  Ru  Ru31  1  0.668208  0.329456  0.501249  1
  Ru  Ru32  1  0.829456  0.168208  0.998751  1
  Ru  Ru33  1  0.330821  0.670056  0.500249  1
  Ru  Ru34  1  0.626728  0.626864  0.127110  1
  Ru  Ru35  1  0.373186  0.374048  0.873083  1
  Ru  Ru36  1  0.874048  0.873186  0.626917  1
  Ru  Ru37  1  0.126864  0.126728  0.372890  1
