# generated using pymatgen
data_Pr2IrI
_symmetry_space_group_name_H-M   'P 1'
_cell_length_a   4.23958000
_cell_length_b   4.23958002
_cell_length_c   16.40311800
_cell_angle_alpha   90.00000000
_cell_angle_beta   90.00000000
_cell_angle_gamma   119.99999987
_symmetry_Int_Tables_number   1
_chemical_formula_structural   Pr2IrI
_chemical_formula_sum   'Pr4 Ir2 I2'
_cell_volume   255.33050986
_cell_formula_units_Z   2
loop_
 _symmetry_equiv_pos_site_id
 _symmetry_equiv_pos_as_xyz
  1  'x, y, z'
loop_
 _atom_site_type_symbol
 _atom_site_label
 _atom_site_symmetry_multiplicity
 _atom_site_fract_x
 _atom_site_fract_y
 _atom_site_fract_z
 _atom_site_occupancy
  Pr  Pr0  1  0.333333  0.666667  0.407510  1
  Pr  Pr1  1  0.666667  0.333333  0.907510  1
  Pr  Pr2  1  0.666667  0.333333  0.592490  1
  Pr  Pr3  1  0.333333  0.666667  0.092490  1
  Ir  Ir4  1  0.000000  0.000000  0.500000  1
  Ir  Ir5  1  0.000000  0.000000  0.000000  1
  I  I6  1  0.666667  0.333333  0.250000  1
  I  I7  1  0.333333  0.666667  0.750000  1
