# generated using pymatgen
data_Dy2Sn2IrRh
_symmetry_space_group_name_H-M   'P 1'
_cell_length_a   7.49418200
_cell_length_b   7.49418114
_cell_length_c   7.90151000
_cell_angle_alpha   90.00000000
_cell_angle_beta   90.00000000
_cell_angle_gamma   120.00000379
_symmetry_Int_Tables_number   1
_chemical_formula_structural   Dy2Sn2IrRh
_chemical_formula_sum   'Dy6 Sn6 Ir3 Rh3'
_cell_volume   384.31658907
_cell_formula_units_Z   3
loop_
 _symmetry_equiv_pos_site_id
 _symmetry_equiv_pos_as_xyz
  1  'x, y, z'
loop_
 _atom_site_type_symbol
 _atom_site_label
 _atom_site_symmetry_multiplicity
 _atom_site_fract_x
 _atom_site_fract_y
 _atom_site_fract_z
 _atom_site_occupancy
  Dy  Dy0  1  0.591220  0.000237  0.751141  1
  Dy  Dy1  1  0.409018  0.408780  0.751141  1
  Dy  Dy2  1  0.999763  0.590982  0.751141  1
  Dy  Dy3  1  0.593682  0.003574  0.249277  1
  Dy  Dy4  1  0.409892  0.406318  0.249277  1
  Dy  Dy5  1  0.996426  0.590108  0.249277  1
  Sn  Sn6  1  0.256696  0.999648  0.000649  1
  Sn  Sn7  1  0.741593  0.743012  0.499873  1
  Sn  Sn8  1  0.001419  0.258407  0.499873  1
  Sn  Sn9  1  0.000352  0.257049  0.000649  1
  Sn  Sn10  1  0.742951  0.743304  0.000649  1
  Sn  Sn11  1  0.256988  0.998581  0.499873  1
  Ir  Ir12  1  0.666667  0.333333  0.999192  1
  Ir  Ir13  1  0.666667  0.333333  0.501087  1
  Ir  Ir14  1  0.333333  0.666667  0.002041  1
  Rh  Rh15  1  0.333333  0.666667  0.494198  1
  Rh  Rh16  1  0.000000  0.000000  0.750387  1
  Rh  Rh17  1  0.000000  0.000000  0.250278  1
