# generated using pymatgen
data_ErLu5(ReB7)2
_symmetry_space_group_name_H-M   'P 1'
_cell_length_a   7.93136928
_cell_length_b   7.93136982
_cell_length_c   9.24335300
_cell_angle_alpha   90.00000000
_cell_angle_beta   90.00000000
_cell_angle_gamma   154.59487273
_symmetry_Int_Tables_number   1
_chemical_formula_structural   ErLu5(ReB7)2
_chemical_formula_sum   'Er1 Lu5 Re2 B14'
_cell_volume   249.45910984
_cell_formula_units_Z   1
loop_
 _symmetry_equiv_pos_site_id
 _symmetry_equiv_pos_as_xyz
  1  'x, y, z'
loop_
 _atom_site_type_symbol
 _atom_site_label
 _atom_site_symmetry_multiplicity
 _atom_site_fract_x
 _atom_site_fract_y
 _atom_site_fract_z
 _atom_site_occupancy
  Er  Er0  1  0.755655  0.244345  0.750000  1
  Lu  Lu1  1  0.894243  0.105757  0.440266  1
  Lu  Lu2  1  0.105515  0.894485  0.558493  1
  Lu  Lu3  1  0.894243  0.105757  0.059734  1
  Lu  Lu4  1  0.105515  0.894485  0.941507  1
  Lu  Lu5  1  0.243283  0.756717  0.250000  1
  Re  Re6  1  0.051871  0.948129  0.250000  1
  Re  Re7  1  0.948207  0.051793  0.750000  1
  B  B8  1  0.727841  0.272159  0.464572  1
  B  B9  1  0.272498  0.727502  0.531999  1
  B  B10  1  0.727841  0.272159  0.035428  1
  B  B11  1  0.272498  0.727502  0.968001  1
  B  B12  1  0.632554  0.367446  0.150321  1
  B  B13  1  0.367526  0.632474  0.850417  1
  B  B14  1  0.632554  0.367446  0.349679  1
  B  B15  1  0.367526  0.632474  0.649583  1
  B  B16  1  0.519580  0.480420  0.094225  1
  B  B17  1  0.480569  0.519431  0.905822  1
  B  B18  1  0.519580  0.480420  0.405775  1
  B  B19  1  0.480569  0.519431  0.594178  1
  B  B20  1  0.452814  0.547186  0.250000  1
  B  B21  1  0.547520  0.452480  0.750000  1
