# generated using pymatgen
data_Y4Fe5(P4Rh5)3
_symmetry_space_group_name_H-M   'P 1'
_cell_length_a   3.85396900
_cell_length_b   10.71413523
_cell_length_c   12.41449410
_cell_angle_alpha   89.90758545
_cell_angle_beta   90.00000000
_cell_angle_gamma   90.00000000
_symmetry_Int_Tables_number   1
_chemical_formula_structural   Y4Fe5(P4Rh5)3
_chemical_formula_sum   'Y4 Fe5 P12 Rh15'
_cell_volume   512.61794140
_cell_formula_units_Z   1
loop_
 _symmetry_equiv_pos_site_id
 _symmetry_equiv_pos_as_xyz
  1  'x, y, z'
loop_
 _atom_site_type_symbol
 _atom_site_label
 _atom_site_symmetry_multiplicity
 _atom_site_fract_x
 _atom_site_fract_y
 _atom_site_fract_z
 _atom_site_occupancy
  Y  Y0  1  0.250000  0.577904  0.711209  1
  Y  Y1  1  0.250000  0.918390  0.209012  1
  Y  Y2  1  0.750000  0.418228  0.290814  1
  Y  Y3  1  0.750000  0.085182  0.790492  1
  Fe  Fe4  1  0.750000  0.377424  0.802043  1
  Fe  Fe5  1  0.250000  0.460369  0.932401  1
  Fe  Fe6  1  0.250000  0.038505  0.434154  1
  Fe  Fe7  1  0.750000  0.539461  0.063934  1
  Fe  Fe8  1  0.750000  0.961673  0.567715  1
  P  P9  1  0.250000  0.430898  0.105045  1
  P  P10  1  0.250000  0.070221  0.606474  1
  P  P11  1  0.750000  0.559461  0.887981  1
  P  P12  1  0.750000  0.930324  0.394896  1
  P  P13  1  0.250000  0.275343  0.863681  1
  P  P14  1  0.250000  0.229891  0.370401  1
  P  P15  1  0.750000  0.729857  0.129031  1
  P  P16  1  0.750000  0.769597  0.631068  1
  P  P17  1  0.250000  0.600892  0.389711  1
  P  P18  1  0.250000  0.899210  0.889471  1
  P  P19  1  0.750000  0.398799  0.620937  1
  P  P20  1  0.750000  0.103470  0.109718  1
  Rh  Rh21  1  0.250000  0.715783  0.990774  1
  Rh  Rh22  1  0.250000  0.783421  0.491253  1
  Rh  Rh23  1  0.750000  0.287691  0.007668  1
  Rh  Rh24  1  0.750000  0.217821  0.511055  1
  Rh  Rh25  1  0.250000  0.408381  0.479472  1
  Rh  Rh26  1  0.250000  0.094715  0.977537  1
  Rh  Rh27  1  0.750000  0.589823  0.521725  1
  Rh  Rh28  1  0.750000  0.910013  0.018667  1
  Rh  Rh29  1  0.250000  0.230848  0.174229  1
  Rh  Rh30  1  0.250000  0.272208  0.675250  1
  Rh  Rh31  1  0.750000  0.764982  0.825578  1
  Rh  Rh32  1  0.750000  0.730664  0.324975  1
  Rh  Rh33  1  0.250000  0.881393  0.701810  1
  Rh  Rh34  1  0.250000  0.618195  0.200252  1
  Rh  Rh35  1  0.750000  0.118961  0.299566  1
