# generated using pymatgen
data_Nd3ThAl2(GaRh2)2
_symmetry_space_group_name_H-M   'P 1'
_cell_length_a   4.30762000
_cell_length_b   7.03549289
_cell_length_c   8.12615227
_cell_angle_alpha   90.21991536
_cell_angle_beta   90.00000000
_cell_angle_gamma   90.00000000
_symmetry_Int_Tables_number   1
_chemical_formula_structural   Nd3ThAl2(GaRh2)2
_chemical_formula_sum   'Nd3 Th1 Al2 Ga2 Rh4'
_cell_volume   246.27122486
_cell_formula_units_Z   1
loop_
 _symmetry_equiv_pos_site_id
 _symmetry_equiv_pos_as_xyz
  1  'x, y, z'
loop_
 _atom_site_type_symbol
 _atom_site_label
 _atom_site_symmetry_multiplicity
 _atom_site_fract_x
 _atom_site_fract_y
 _atom_site_fract_z
 _atom_site_occupancy
  Nd  Nd0  1  0.750000  0.458560  0.814058  1
  Nd  Nd1  1  0.750000  0.957683  0.681388  1
  Nd  Nd2  1  0.250000  0.037338  0.318433  1
  Th  Th3  1  0.250000  0.537727  0.179521  1
  Al  Al4  1  0.750000  0.362060  0.440179  1
  Al  Al5  1  0.750000  0.874273  0.061854  1
  Ga  Ga6  1  0.250000  0.636011  0.564191  1
  Ga  Ga7  1  0.250000  0.137183  0.935159  1
  Rh  Rh8  1  0.250000  0.762553  0.896250  1
  Rh  Rh9  1  0.750000  0.246830  0.125981  1
  Rh  Rh10  1  0.750000  0.725396  0.368485  1
  Rh  Rh11  1  0.250000  0.264386  0.614500  1
