# generated using pymatgen
data_Er2IrRhO7
_symmetry_space_group_name_H-M   'P 1'
_cell_length_a   7.20042051
_cell_length_b   7.20071126
_cell_length_c   7.20071152
_cell_angle_alpha   59.97088038
_cell_angle_beta   60.00132718
_cell_angle_gamma   60.00133326
_symmetry_Int_Tables_number   1
_chemical_formula_structural   Er2IrRhO7
_chemical_formula_sum   'Er4 Ir2 Rh2 O14'
_cell_volume   263.94092368
_cell_formula_units_Z   2
loop_
 _symmetry_equiv_pos_site_id
 _symmetry_equiv_pos_as_xyz
  1  'x, y, z'
loop_
 _atom_site_type_symbol
 _atom_site_label
 _atom_site_symmetry_multiplicity
 _atom_site_fract_x
 _atom_site_fract_y
 _atom_site_fract_z
 _atom_site_occupancy
  Er  Er0  1  0.625000  0.125000  0.125000  1
  Er  Er1  1  0.125000  0.625000  0.125000  1
  Er  Er2  1  0.125000  0.125000  0.625000  1
  Er  Er3  1  0.125000  0.125000  0.125000  1
  Ir  Ir4  1  0.125000  0.625000  0.625000  1
  Ir  Ir5  1  0.625000  0.625000  0.625000  1
  Rh  Rh6  1  0.625000  0.125000  0.625000  1
  Rh  Rh7  1  0.625000  0.625000  0.125000  1
  O  O8  1  0.716143  0.709761  0.289218  1
  O  O9  1  0.284879  0.289218  0.709761  1
  O  O10  1  0.716143  0.289218  0.709761  1
  O  O11  1  0.284879  0.709761  0.289218  1
  O  O12  1  0.289993  0.710007  0.710007  1
  O  O13  1  0.716643  0.283357  0.283357  1
  O  O14  1  0.533857  0.540239  0.960782  1
  O  O15  1  0.965121  0.960782  0.540239  1
  O  O16  1  0.533857  0.960782  0.540239  1
  O  O17  1  0.965121  0.540239  0.960782  1
  O  O18  1  0.960007  0.539993  0.539993  1
  O  O19  1  0.533357  0.966643  0.966643  1
  O  O20  1  0.248622  0.251378  0.251378  1
  O  O21  1  0.001378  0.998622  0.998622  1
