# generated using pymatgen
data_ThCo(SeO4)3
_symmetry_space_group_name_H-M   'P 1'
_cell_length_a   9.36542663
_cell_length_b   9.36271287
_cell_length_c   6.16165600
_cell_angle_alpha   90.00000000
_cell_angle_beta   90.00000000
_cell_angle_gamma   119.94785608
_symmetry_Int_Tables_number   1
_chemical_formula_structural   ThCo(SeO4)3
_chemical_formula_sum   'Th2 Co2 Se6 O24'
_cell_volume   468.15029919
_cell_formula_units_Z   2
loop_
 _symmetry_equiv_pos_site_id
 _symmetry_equiv_pos_as_xyz
  1  'x, y, z'
loop_
 _atom_site_type_symbol
 _atom_site_label
 _atom_site_symmetry_multiplicity
 _atom_site_fract_x
 _atom_site_fract_y
 _atom_site_fract_z
 _atom_site_occupancy
  Th  Th0  1  0.333000  0.666722  0.250000  1
  Th  Th1  1  0.667000  0.333278  0.749999  1
  Co  Co2  1  0.000000  0.000000  0.000000  1
  Co  Co3  1  0.000000  0.000000  0.500001  1
  Se  Se4  1  0.717281  0.096734  0.250000  1
  Se  Se5  1  0.379910  0.282324  0.250000  1
  Se  Se6  1  0.902463  0.620273  0.250000  1
  Se  Se7  1  0.097537  0.379728  0.749999  1
  Se  Se8  1  0.620089  0.717676  0.749999  1
  Se  Se9  1  0.282719  0.903266  0.749999  1
  O  O10  1  0.786647  0.551722  0.028618  1
  O  O11  1  0.765066  0.212831  0.028857  1
  O  O12  1  0.448226  0.234930  0.028479  1
  O  O13  1  0.844401  0.013476  0.250000  1
  O  O14  1  0.169788  0.154012  0.250000  1
  O  O15  1  0.443660  0.482780  0.250000  1
  O  O16  1  0.038991  0.556262  0.250000  1
  O  O17  1  0.986547  0.829833  0.250000  1
  O  O18  1  0.516765  0.960731  0.250000  1
  O  O19  1  0.448226  0.234930  0.471520  1
  O  O20  1  0.765066  0.212831  0.471142  1
  O  O21  1  0.786647  0.551722  0.471382  1
  O  O22  1  0.213354  0.448277  0.528619  1
  O  O23  1  0.234934  0.787169  0.528858  1
  O  O24  1  0.551773  0.765069  0.528480  1
  O  O25  1  0.483235  0.039269  0.749999  1
  O  O26  1  0.013454  0.170166  0.749999  1
  O  O27  1  0.961009  0.443739  0.749999  1
  O  O28  1  0.556340  0.517220  0.749999  1
  O  O29  1  0.830212  0.845988  0.749999  1
  O  O30  1  0.155598  0.986523  0.749999  1
  O  O31  1  0.551773  0.765069  0.971521  1
  O  O32  1  0.234934  0.787169  0.971142  1
  O  O33  1  0.213354  0.448277  0.971382  1
