# generated using pymatgen
data_HoAs4Ru5Rh
_symmetry_space_group_name_H-M   'P 1'
_cell_length_a   7.18148834
_cell_length_b   7.18148712
_cell_length_c   3.86418600
_cell_angle_alpha   90.00000000
_cell_angle_beta   90.00000000
_cell_angle_gamma   120.40343340
_symmetry_Int_Tables_number   1
_chemical_formula_structural   HoAs4Ru5Rh
_chemical_formula_sum   'Ho1 As4 Ru5 Rh1'
_cell_volume   171.88484438
_cell_formula_units_Z   1
loop_
 _symmetry_equiv_pos_site_id
 _symmetry_equiv_pos_as_xyz
  1  'x, y, z'
loop_
 _atom_site_type_symbol
 _atom_site_label
 _atom_site_symmetry_multiplicity
 _atom_site_fract_x
 _atom_site_fract_y
 _atom_site_fract_z
 _atom_site_occupancy
  Ho  Ho0  1  0.332609  0.667391  0.000000  1
  As  As1  1  0.669823  0.330177  0.000000  1
  As  As2  1  0.716223  0.860966  0.500000  1
  As  As3  1  0.139034  0.283777  0.500000  1
  As  As4  1  0.142980  0.857020  0.500000  1
  Ru  Ru5  1  0.264735  0.133186  0.000000  1
  Ru  Ru6  1  0.866814  0.735265  0.000000  1
  Ru  Ru7  1  0.869208  0.130792  0.000000  1
  Ru  Ru8  1  0.934068  0.466681  0.500000  1
  Ru  Ru9  1  0.533319  0.065932  0.500000  1
  Rh  Rh10  1  0.531186  0.468814  0.500000  1
