# generated using pymatgen
data_Ca12Tm3Ge12Mo5O48
_symmetry_space_group_name_H-M   'P 1'
_cell_length_a   11.07439133
_cell_length_b   11.07581357
_cell_length_c   11.07333521
_cell_angle_alpha   109.48621592
_cell_angle_beta   109.46899992
_cell_angle_gamma   109.46848732
_symmetry_Int_Tables_number   1
_chemical_formula_structural   Ca12Tm3Ge12Mo5O48
_chemical_formula_sum   'Ca12 Tm3 Ge12 Mo5 O48'
_cell_volume   1045.43784777
_cell_formula_units_Z   1
loop_
 _symmetry_equiv_pos_site_id
 _symmetry_equiv_pos_as_xyz
  1  'x, y, z'
loop_
 _atom_site_type_symbol
 _atom_site_label
 _atom_site_symmetry_multiplicity
 _atom_site_fract_x
 _atom_site_fract_y
 _atom_site_fract_z
 _atom_site_occupancy
  Ca  Ca0  1  0.247423  0.873050  0.625362  1
  Ca  Ca1  1  0.744972  0.622209  0.872659  1
  Ca  Ca2  1  0.623756  0.874174  0.750109  1
  Ca  Ca3  1  0.874288  0.626625  0.251716  1
  Ca  Ca4  1  0.622438  0.249583  0.877261  1
  Ca  Ca5  1  0.873770  0.747652  0.622888  1
  Ca  Ca6  1  0.752577  0.126950  0.374638  1
  Ca  Ca7  1  0.255028  0.377791  0.127341  1
  Ca  Ca8  1  0.376244  0.125826  0.249891  1
  Ca  Ca9  1  0.125712  0.373375  0.748284  1
  Ca  Ca10  1  0.377562  0.750417  0.122739  1
  Ca  Ca11  1  0.126230  0.252348  0.377112  1
  Tm  Tm12  1  0.500000  0.000000  0.500000  1
  Tm  Tm13  1  0.000000  0.500000  0.000000  1
  Tm  Tm14  1  0.000000  0.000000  0.000000  1
  Ge  Ge15  1  0.126485  0.748785  0.872416  1
  Ge  Ge16  1  0.873515  0.251215  0.127584  1
  Ge  Ge17  1  0.624927  0.374838  0.249839  1
  Ge  Ge18  1  0.747112  0.872955  0.124496  1
  Ge  Ge19  1  0.875832  0.123022  0.748537  1
  Ge  Ge20  1  0.251348  0.623504  0.377779  1
  Ge  Ge21  1  0.748652  0.376496  0.622221  1
  Ge  Ge22  1  0.252888  0.127045  0.875504  1
  Ge  Ge23  1  0.124168  0.876978  0.251463  1
  Ge  Ge24  1  0.375073  0.625162  0.750161  1
  Ge  Ge25  1  0.625716  0.748462  0.373135  1
  Ge  Ge26  1  0.374284  0.251538  0.626865  1
  Mo  Mo27  1  0.500000  0.500000  0.500000  1
  Mo  Mo28  1  0.000000  0.500000  0.500000  1
  Mo  Mo29  1  0.500000  0.500000  0.000000  1
  Mo  Mo30  1  0.000000  0.000000  0.500000  1
  Mo  Mo31  1  0.500000  0.000000  0.000000  1
  O  O32  1  0.411951  0.808383  0.790223  1
  O  O33  1  0.873667  0.395853  0.089715  1
  O  O34  1  0.104767  0.982701  0.692730  1
  O  O35  1  0.518739  0.622502  0.710104  1
  O  O36  1  0.695323  0.090599  0.714566  1
  O  O37  1  0.621481  0.709381  0.516841  1
  O  O38  1  0.621817  0.411945  0.103484  1
  O  O39  1  0.711473  0.522112  0.622256  1
  O  O40  1  0.808258  0.518774  0.396385  1
  O  O41  1  0.982183  0.785859  0.875673  1
  O  O42  1  0.785091  0.874581  0.980158  1
  O  O43  1  0.709962  0.690865  0.089390  1
  O  O44  1  0.410147  0.105501  0.624648  1
  O  O45  1  0.396082  0.806218  0.522402  1
  O  O46  1  0.089285  0.712153  0.689475  1
  O  O47  1  0.102642  0.620888  0.410679  1
  O  O48  1  0.519741  0.398367  0.809431  1
  O  O49  1  0.089198  0.877485  0.398740  1
  O  O50  1  0.979123  0.694880  0.105149  1
  O  O51  1  0.191742  0.481226  0.603615  1
  O  O52  1  0.691576  0.102715  0.981731  1
  O  O53  1  0.785583  0.410682  0.803879  1
  O  O54  1  0.397839  0.087874  0.876515  1
  O  O55  1  0.874823  0.976832  0.783798  1
  O  O56  1  0.588049  0.191617  0.209777  1
  O  O57  1  0.126333  0.604147  0.910285  1
  O  O58  1  0.895233  0.017299  0.307270  1
  O  O59  1  0.481261  0.377498  0.289896  1
  O  O60  1  0.304677  0.909401  0.285434  1
  O  O61  1  0.378519  0.290619  0.483159  1
  O  O62  1  0.378183  0.588055  0.896516  1
  O  O63  1  0.288527  0.477888  0.377744  1
  O  O64  1  0.125177  0.023168  0.216202  1
  O  O65  1  0.602161  0.912126  0.123485  1
  O  O66  1  0.214417  0.589318  0.196121  1
  O  O67  1  0.190226  0.211980  0.587956  1
  O  O68  1  0.308424  0.897285  0.018269  1
  O  O69  1  0.020877  0.305120  0.894851  1
  O  O70  1  0.910802  0.122515  0.601260  1
  O  O71  1  0.480259  0.601633  0.190569  1
  O  O72  1  0.897358  0.379112  0.589321  1
  O  O73  1  0.910715  0.287847  0.310525  1
  O  O74  1  0.603918  0.193782  0.477598  1
  O  O75  1  0.589853  0.894499  0.375352  1
  O  O76  1  0.290038  0.309135  0.910610  1
  O  O77  1  0.214909  0.125419  0.019842  1
  O  O78  1  0.017817  0.214141  0.124327  1
  O  O79  1  0.809774  0.788020  0.412044  1
