# generated using pymatgen
data_Yb(PrPt)2
_symmetry_space_group_name_H-M   'P 1'
_cell_length_a   7.70733821
_cell_length_b   7.70733787
_cell_length_c   7.70733838
_cell_angle_alpha   70.79982865
_cell_angle_beta   70.79982744
_cell_angle_gamma   70.79983627
_symmetry_Int_Tables_number   1
_chemical_formula_structural   Yb(PrPt)2
_chemical_formula_sum   'Yb3 Pr6 Pt6'
_cell_volume   395.62007312
_cell_formula_units_Z   3
loop_
 _symmetry_equiv_pos_site_id
 _symmetry_equiv_pos_as_xyz
  1  'x, y, z'
loop_
 _atom_site_type_symbol
 _atom_site_label
 _atom_site_symmetry_multiplicity
 _atom_site_fract_x
 _atom_site_fract_y
 _atom_site_fract_z
 _atom_site_occupancy
  Yb  Yb0  1  0.000000  0.000000  0.000000  1
  Yb  Yb1  1  0.804637  0.804637  0.804637  1
  Yb  Yb2  1  0.195363  0.195363  0.195363  1
  Pr  Pr3  1  0.330061  0.603693  0.844336  1
  Pr  Pr4  1  0.844336  0.330061  0.603693  1
  Pr  Pr5  1  0.603693  0.844336  0.330061  1
  Pr  Pr6  1  0.669939  0.396307  0.155664  1
  Pr  Pr7  1  0.155664  0.669939  0.396307  1
  Pr  Pr8  1  0.396307  0.155664  0.669939  1
  Pt  Pt9  1  0.165719  0.957692  0.585311  1
  Pt  Pt10  1  0.585311  0.165719  0.957692  1
  Pt  Pt11  1  0.957692  0.585311  0.165719  1
  Pt  Pt12  1  0.834281  0.042308  0.414689  1
  Pt  Pt13  1  0.414689  0.834281  0.042308  1
  Pt  Pt14  1  0.042308  0.414689  0.834281  1
