# generated using pymatgen
data_Er2Lu3Pt4
_symmetry_space_group_name_H-M   'P 1'
_cell_length_a   7.37383800
_cell_length_b   7.46450800
_cell_length_c   14.48298800
_cell_angle_alpha   90.00000000
_cell_angle_beta   90.00000000
_cell_angle_gamma   90.00000000
_symmetry_Int_Tables_number   1
_chemical_formula_structural   Er2Lu3Pt4
_chemical_formula_sum   'Er8 Lu12 Pt16'
_cell_volume   797.17367901
_cell_formula_units_Z   4
loop_
 _symmetry_equiv_pos_site_id
 _symmetry_equiv_pos_as_xyz
  1  'x, y, z'
loop_
 _atom_site_type_symbol
 _atom_site_label
 _atom_site_symmetry_multiplicity
 _atom_site_fract_x
 _atom_site_fract_y
 _atom_site_fract_z
 _atom_site_occupancy
  Er  Er0  1  0.500535  0.679614  0.592269  1
  Er  Er1  1  0.000535  0.820386  0.907731  1
  Er  Er2  1  0.499465  0.320386  0.092269  1
  Er  Er3  1  0.999465  0.179614  0.407731  1
  Er  Er4  1  0.499465  0.320386  0.407731  1
  Er  Er5  1  0.999465  0.179614  0.092269  1
  Er  Er6  1  0.500535  0.679614  0.907731  1
  Er  Er7  1  0.000535  0.820386  0.592269  1
  Lu  Lu8  1  0.656985  0.167627  0.622757  1
  Lu  Lu9  1  0.156985  0.332373  0.877243  1
  Lu  Lu10  1  0.343015  0.832373  0.122757  1
  Lu  Lu11  1  0.843015  0.667627  0.377243  1
  Lu  Lu12  1  0.343015  0.832373  0.377243  1
  Lu  Lu13  1  0.843015  0.667627  0.122757  1
  Lu  Lu14  1  0.656985  0.167627  0.877243  1
  Lu  Lu15  1  0.156985  0.332373  0.622757  1
  Lu  Lu16  1  0.819218  0.510526  0.750000  1
  Lu  Lu17  1  0.319218  0.989474  0.750000  1
  Lu  Lu18  1  0.180782  0.489474  0.250000  1
  Lu  Lu19  1  0.680782  0.010526  0.250000  1
  Pt  Pt20  1  0.683451  0.966129  0.458402  1
  Pt  Pt21  1  0.183451  0.533871  0.041598  1
  Pt  Pt22  1  0.316549  0.033871  0.958402  1
  Pt  Pt23  1  0.816549  0.466129  0.541598  1
  Pt  Pt24  1  0.316549  0.033871  0.541598  1
  Pt  Pt25  1  0.816549  0.466129  0.958402  1
  Pt  Pt26  1  0.683451  0.966129  0.041598  1
  Pt  Pt27  1  0.183451  0.533871  0.458402  1
  Pt  Pt28  1  0.455361  0.386032  0.750000  1
  Pt  Pt29  1  0.955361  0.113968  0.750000  1
  Pt  Pt30  1  0.544639  0.613968  0.250000  1
  Pt  Pt31  1  0.044639  0.886032  0.250000  1
  Pt  Pt32  1  0.682299  0.855983  0.750000  1
  Pt  Pt33  1  0.182299  0.644017  0.750000  1
  Pt  Pt34  1  0.317701  0.144017  0.250000  1
  Pt  Pt35  1  0.817701  0.355983  0.250000  1
