# generated using pymatgen
data_Rb8Dy5ErBeBr20
_symmetry_space_group_name_H-M   'P 1'
_cell_length_a   12.30938575
_cell_length_b   12.30938593
_cell_length_c   12.31443000
_cell_angle_alpha   59.98644924
_cell_angle_beta   59.98644874
_cell_angle_gamma   60.02711133
_symmetry_Int_Tables_number   1
_chemical_formula_structural   Rb8Dy5ErBeBr20
_chemical_formula_sum   'Rb8 Dy5 Er1 Be1 Br20'
_cell_volume   1319.38630336
_cell_formula_units_Z   1
loop_
 _symmetry_equiv_pos_site_id
 _symmetry_equiv_pos_as_xyz
  1  'x, y, z'
loop_
 _atom_site_type_symbol
 _atom_site_label
 _atom_site_symmetry_multiplicity
 _atom_site_fract_x
 _atom_site_fract_y
 _atom_site_fract_z
 _atom_site_occupancy
  Rb  Rb0  1  0.358861  0.358861  0.358885  1
  Rb  Rb1  1  0.641137  0.641137  0.641180  1
  Rb  Rb2  1  0.358861  0.358861  0.923392  1
  Rb  Rb3  1  0.358820  0.923453  0.358863  1
  Rb  Rb4  1  0.641137  0.641137  0.076547  1
  Rb  Rb5  1  0.641115  0.076608  0.641139  1
  Rb  Rb6  1  0.923453  0.358820  0.358863  1
  Rb  Rb7  1  0.076608  0.641115  0.641139  1
  Dy  Dy8  1  0.844734  0.155055  0.155266  1
  Dy  Dy9  1  0.155055  0.844734  0.844945  1
  Dy  Dy10  1  0.155055  0.844734  0.155266  1
  Dy  Dy11  1  0.844734  0.155055  0.844945  1
  Dy  Dy12  1  0.155026  0.155026  0.844974  1
  Er  Er13  1  0.844861  0.844861  0.155139  1
  Be  Be14  1  0.999763  0.999763  0.000237  1
  Br  Br15  1  0.330845  0.999985  0.000015  1
  Br  Br16  1  0.669842  0.999180  0.000820  1
  Br  Br17  1  0.999985  0.330845  0.669155  1
  Br  Br18  1  0.999180  0.669842  0.330158  1
  Br  Br19  1  0.999985  0.330845  0.000015  1
  Br  Br20  1  0.669842  0.999180  0.330158  1
  Br  Br21  1  0.999180  0.669842  0.000820  1
  Br  Br22  1  0.330845  0.999985  0.669155  1
  Br  Br23  1  0.999995  0.999995  0.330816  1
  Br  Br24  1  0.999995  0.999995  0.669195  1
  Br  Br25  1  0.669184  0.330805  0.000005  1
  Br  Br26  1  0.330805  0.669184  0.000005  1
  Br  Br27  1  0.679539  0.320464  0.320461  1
  Br  Br28  1  0.320464  0.679539  0.679536  1
  Br  Br29  1  0.320464  0.679539  0.320461  1
  Br  Br30  1  0.679539  0.320464  0.679536  1
  Br  Br31  1  0.320479  0.320479  0.679521  1
  Br  Br32  1  0.680598  0.680598  0.319402  1
  Br  Br33  1  0.250008  0.250008  0.249992  1
  Br  Br34  1  0.750008  0.750008  0.749992  1
