# generated using pymatgen
data_Y5Tm3(P3Ir4)4
_symmetry_space_group_name_H-M   'P 1'
_cell_length_a   12.94768300
_cell_length_b   12.94768377
_cell_length_c   3.98824200
_cell_angle_alpha   90.00000000
_cell_angle_beta   90.00000000
_cell_angle_gamma   120.00000058
_symmetry_Int_Tables_number   1
_chemical_formula_structural   Y5Tm3(P3Ir4)4
_chemical_formula_sum   'Y5 Tm3 P12 Ir16'
_cell_volume   579.02361130
_cell_formula_units_Z   1
loop_
 _symmetry_equiv_pos_site_id
 _symmetry_equiv_pos_as_xyz
  1  'x, y, z'
loop_
 _atom_site_type_symbol
 _atom_site_label
 _atom_site_symmetry_multiplicity
 _atom_site_fract_x
 _atom_site_fract_y
 _atom_site_fract_z
 _atom_site_occupancy
  Y  Y0  1  0.333333  0.666667  0.500000  1
  Y  Y1  1  0.666667  0.333333  0.500000  1
  Y  Y2  1  0.000000  0.814342  0.000000  1
  Y  Y3  1  0.185658  0.185658  0.000000  1
  Y  Y4  1  0.814342  0.000000  0.000000  1
  Tm  Tm5  1  0.000000  0.446103  0.500000  1
  Tm  Tm6  1  0.553897  0.553897  0.500000  1
  Tm  Tm7  1  0.446103  0.000000  0.500000  1
  P  P8  1  0.000000  0.651971  0.500000  1
  P  P9  1  0.348029  0.348029  0.500000  1
  P  P10  1  0.651971  0.000000  0.500000  1
  P  P11  1  0.516763  0.688321  0.000000  1
  P  P12  1  0.311679  0.828442  0.000000  1
  P  P13  1  0.171558  0.483237  0.000000  1
  P  P14  1  0.483237  0.171558  0.000000  1
  P  P15  1  0.688321  0.516763  0.000000  1
  P  P16  1  0.828442  0.311679  0.000000  1
  P  P17  1  0.000000  0.176320  0.500000  1
  P  P18  1  0.823680  0.823680  0.500000  1
  P  P19  1  0.176320  0.000000  0.500000  1
  Ir  Ir20  1  0.509322  0.866254  0.000000  1
  Ir  Ir21  1  0.133746  0.643068  0.000000  1
  Ir  Ir22  1  0.356932  0.490678  0.000000  1
  Ir  Ir23  1  0.490678  0.356932  0.000000  1
  Ir  Ir24  1  0.866254  0.509322  0.000000  1
  Ir  Ir25  1  0.643068  0.133746  0.000000  1
  Ir  Ir26  1  0.000000  0.275032  0.000000  1
  Ir  Ir27  1  0.724968  0.724968  0.000000  1
  Ir  Ir28  1  0.275032  0.000000  0.000000  1
  Ir  Ir29  1  0.630172  0.808903  0.500000  1
  Ir  Ir30  1  0.191097  0.821270  0.500000  1
  Ir  Ir31  1  0.178730  0.369828  0.500000  1
  Ir  Ir32  1  0.369828  0.178730  0.500000  1
  Ir  Ir33  1  0.808903  0.630172  0.500000  1
  Ir  Ir34  1  0.821270  0.191097  0.500000  1
  Ir  Ir35  1  0.000000  0.000000  0.500000  1
