# generated using pymatgen
data_Sc20Cd3Cu3Ru2
_symmetry_space_group_name_H-M   'P 1'
_cell_length_a   8.82867700
_cell_length_b   8.82867713
_cell_length_c   8.94252600
_cell_angle_alpha   90.00000000
_cell_angle_beta   90.00000000
_cell_angle_gamma   119.99999577
_symmetry_Int_Tables_number   1
_chemical_formula_structural   Sc20Cd3Cu3Ru2
_chemical_formula_sum   'Sc20 Cd3 Cu3 Ru2'
_cell_volume   603.64571844
_cell_formula_units_Z   1
loop_
 _symmetry_equiv_pos_site_id
 _symmetry_equiv_pos_as_xyz
  1  'x, y, z'
loop_
 _atom_site_type_symbol
 _atom_site_label
 _atom_site_symmetry_multiplicity
 _atom_site_fract_x
 _atom_site_fract_y
 _atom_site_fract_z
 _atom_site_occupancy
  Sc  Sc0  1  0.000000  0.000000  0.457940  1
  Sc  Sc1  1  0.000000  0.000000  0.042060  1
  Sc  Sc2  1  0.207813  0.792187  0.441591  1
  Sc  Sc3  1  0.207813  0.415627  0.441591  1
  Sc  Sc4  1  0.584373  0.792187  0.441591  1
  Sc  Sc5  1  0.791575  0.208425  0.551281  1
  Sc  Sc6  1  0.791575  0.583151  0.551281  1
  Sc  Sc7  1  0.416849  0.208425  0.551281  1
  Sc  Sc8  1  0.791575  0.208425  0.948719  1
  Sc  Sc9  1  0.791575  0.583151  0.948719  1
  Sc  Sc10  1  0.416849  0.208425  0.948719  1
  Sc  Sc11  1  0.207813  0.792187  0.058409  1
  Sc  Sc12  1  0.207813  0.415627  0.058409  1
  Sc  Sc13  1  0.584373  0.792187  0.058409  1
  Sc  Sc14  1  0.540906  0.459094  0.250000  1
  Sc  Sc15  1  0.540906  0.081811  0.250000  1
  Sc  Sc16  1  0.918189  0.459094  0.250000  1
  Sc  Sc17  1  0.459390  0.540610  0.750000  1
  Sc  Sc18  1  0.459390  0.918779  0.750000  1
  Sc  Sc19  1  0.081221  0.540610  0.750000  1
  Cd  Cd20  1  0.111041  0.888959  0.750000  1
  Cd  Cd21  1  0.111041  0.222082  0.750000  1
  Cd  Cd22  1  0.777918  0.888959  0.750000  1
  Cu  Cu23  1  0.873946  0.126054  0.250000  1
  Cu  Cu24  1  0.873946  0.747895  0.250000  1
  Cu  Cu25  1  0.252105  0.126054  0.250000  1
  Ru  Ru26  1  0.333333  0.666667  0.250000  1
  Ru  Ru27  1  0.666667  0.333333  0.750000  1
