# generated using pymatgen
data_Y8TaPd23Pt
_symmetry_space_group_name_H-M   'P 1'
_cell_length_a   8.36544200
_cell_length_b   8.37007800
_cell_length_c   8.37007800
_cell_angle_alpha   90.00000000
_cell_angle_beta   90.00000000
_cell_angle_gamma   90.00000000
_symmetry_Int_Tables_number   1
_chemical_formula_structural   Y8TaPd23Pt
_chemical_formula_sum   'Y8 Ta1 Pd23 Pt1'
_cell_volume   586.06785663
_cell_formula_units_Z   1
loop_
 _symmetry_equiv_pos_site_id
 _symmetry_equiv_pos_as_xyz
  1  'x, y, z'
loop_
 _atom_site_type_symbol
 _atom_site_label
 _atom_site_symmetry_multiplicity
 _atom_site_fract_x
 _atom_site_fract_y
 _atom_site_fract_z
 _atom_site_occupancy
  Y  Y0  1  0.252663  0.252307  0.252307  1
  Y  Y1  1  0.747078  0.746437  0.746437  1
  Y  Y2  1  0.747078  0.746437  0.253563  1
  Y  Y3  1  0.747078  0.253563  0.746437  1
  Y  Y4  1  0.252663  0.252307  0.747693  1
  Y  Y5  1  0.252663  0.747693  0.252307  1
  Y  Y6  1  0.252663  0.747693  0.747693  1
  Y  Y7  1  0.747078  0.253563  0.253563  1
  Ta  Ta8  1  0.005061  0.000000  0.000000  1
  Pd  Pd9  1  0.263114  0.500000  0.000000  1
  Pd  Pd10  1  0.735270  0.500000  0.000000  1
  Pd  Pd11  1  0.000233  0.264019  0.500000  1
  Pd  Pd12  1  0.500310  0.264528  0.000000  1
  Pd  Pd13  1  0.000233  0.735981  0.500000  1
  Pd  Pd14  1  0.500310  0.735472  0.000000  1
  Pd  Pd15  1  0.500310  0.000000  0.264528  1
  Pd  Pd16  1  0.263114  0.000000  0.500000  1
  Pd  Pd17  1  0.500310  0.000000  0.735472  1
  Pd  Pd18  1  0.735270  0.000000  0.500000  1
  Pd  Pd19  1  0.000233  0.500000  0.264019  1
  Pd  Pd20  1  0.000233  0.500000  0.735981  1
  Pd  Pd21  1  0.254155  0.500000  0.500000  1
  Pd  Pd22  1  0.745905  0.500000  0.500000  1
  Pd  Pd23  1  0.499638  0.254315  0.500000  1
  Pd  Pd24  1  0.499638  0.745685  0.500000  1
  Pd  Pd25  1  0.499638  0.500000  0.254315  1
  Pd  Pd26  1  0.499638  0.500000  0.745685  1
  Pd  Pd27  1  0.699693  0.000000  0.000000  1
  Pd  Pd28  1  0.998402  0.303173  0.000000  1
  Pd  Pd29  1  0.998402  0.696827  0.000000  1
  Pd  Pd30  1  0.998402  0.000000  0.303173  1
  Pd  Pd31  1  0.998402  0.000000  0.696827  1
  Pt  Pt32  1  0.305122  0.000000  0.000000  1
