# generated using pymatgen
data_Ti2Si2IrRh
_symmetry_space_group_name_H-M   'P 1'
_cell_length_a   3.86705000
_cell_length_b   6.28478400
_cell_length_c   7.24546300
_cell_angle_alpha   90.00000000
_cell_angle_beta   90.00000000
_cell_angle_gamma   90.00000000
_symmetry_Int_Tables_number   1
_chemical_formula_structural   Ti2Si2IrRh
_chemical_formula_sum   'Ti4 Si4 Ir2 Rh2'
_cell_volume   176.09064595
_cell_formula_units_Z   2
loop_
 _symmetry_equiv_pos_site_id
 _symmetry_equiv_pos_as_xyz
  1  'x, y, z'
loop_
 _atom_site_type_symbol
 _atom_site_label
 _atom_site_symmetry_multiplicity
 _atom_site_fract_x
 _atom_site_fract_y
 _atom_site_fract_z
 _atom_site_occupancy
  Ti  Ti0  1  0.750000  0.025811  0.181936  1
  Ti  Ti1  1  0.750000  0.522431  0.318267  1
  Ti  Ti2  1  0.250000  0.474189  0.681936  1
  Ti  Ti3  1  0.250000  0.977569  0.818267  1
  Si  Si4  1  0.250000  0.229751  0.377744  1
  Si  Si5  1  0.750000  0.769042  0.621970  1
  Si  Si6  1  0.250000  0.730958  0.121970  1
  Si  Si7  1  0.750000  0.270249  0.877744  1
  Ir  Ir8  1  0.750000  0.154255  0.562575  1
  Ir  Ir9  1  0.250000  0.345745  0.062575  1
  Rh  Rh10  1  0.750000  0.653852  0.937508  1
  Rh  Rh11  1  0.250000  0.846148  0.437508  1
