# generated using pymatgen
data_Ca3Lu5(B6Ru)4
_symmetry_space_group_name_H-M   'P 1'
_cell_length_a   3.61053900
_cell_length_b   9.08717191
_cell_length_c   11.47993415
_cell_angle_alpha   89.94877238
_cell_angle_beta   90.00000000
_cell_angle_gamma   90.00000000
_symmetry_Int_Tables_number   1
_chemical_formula_structural   Ca3Lu5(B6Ru)4
_chemical_formula_sum   'Ca3 Lu5 B24 Ru4'
_cell_volume   376.65176567
_cell_formula_units_Z   1
loop_
 _symmetry_equiv_pos_site_id
 _symmetry_equiv_pos_as_xyz
  1  'x, y, z'
loop_
 _atom_site_type_symbol
 _atom_site_label
 _atom_site_symmetry_multiplicity
 _atom_site_fract_x
 _atom_site_fract_y
 _atom_site_fract_z
 _atom_site_occupancy
  Ca  Ca0  1  0.000000  0.323792  0.414681  1
  Ca  Ca1  1  0.000000  0.675889  0.585018  1
  Ca  Ca2  1  0.000000  0.822740  0.085644  1
  Lu  Lu3  1  0.000000  0.176007  0.915007  1
  Lu  Lu4  1  0.000000  0.941747  0.366935  1
  Lu  Lu5  1  0.000000  0.057710  0.631483  1
  Lu  Lu6  1  0.000000  0.443093  0.131767  1
  Lu  Lu7  1  0.000000  0.557903  0.868680  1
  B  B8  1  0.500000  0.553598  0.432522  1
  B  B9  1  0.500000  0.445160  0.568710  1
  B  B10  1  0.500000  0.055162  0.065835  1
  B  B11  1  0.500000  0.947032  0.932956  1
  B  B12  1  0.500000  0.750068  0.417102  1
  B  B13  1  0.500000  0.249716  0.583534  1
  B  B14  1  0.500000  0.250288  0.080642  1
  B  B15  1  0.500000  0.750710  0.917519  1
  B  B16  1  0.500000  0.791808  0.264066  1
  B  B17  1  0.500000  0.207228  0.737326  1
  B  B18  1  0.500000  0.291823  0.234014  1
  B  B19  1  0.500000  0.709370  0.765366  1
  B  B20  1  0.500000  0.630111  0.185101  1
  B  B21  1  0.500000  0.368548  0.816796  1
  B  B22  1  0.500000  0.130567  0.313588  1
  B  B23  1  0.500000  0.870385  0.685218  1
  B  B24  1  0.500000  0.983214  0.210846  1
  B  B25  1  0.500000  0.018404  0.788781  1
  B  B26  1  0.500000  0.483326  0.287897  1
  B  B27  1  0.500000  0.515835  0.713026  1
  B  B28  1  0.500000  0.597669  0.026778  1
  B  B29  1  0.500000  0.400239  0.972762  1
  B  B30  1  0.500000  0.095856  0.473381  1
  B  B31  1  0.500000  0.904198  0.525954  1
  Ru  Ru32  1  0.000000  0.639769  0.319413  1
  Ru  Ru33  1  0.000000  0.358066  0.683135  1
  Ru  Ru34  1  0.000000  0.139562  0.178626  1
  Ru  Ru35  1  0.000000  0.863407  0.819891  1
