# generated using pymatgen
data_Ho9ErInBi5
_symmetry_space_group_name_H-M   'P 1'
_cell_length_a   9.10111623
_cell_length_b   9.10294827
_cell_length_c   6.43114803
_cell_angle_alpha   89.99453080
_cell_angle_beta   90.01167616
_cell_angle_gamma   119.99820186
_symmetry_Int_Tables_number   1
_chemical_formula_structural   Ho9ErInBi5
_chemical_formula_sum   'Ho9 Er1 In1 Bi5'
_cell_volume   461.42777546
_cell_formula_units_Z   1
loop_
 _symmetry_equiv_pos_site_id
 _symmetry_equiv_pos_as_xyz
  1  'x, y, z'
loop_
 _atom_site_type_symbol
 _atom_site_label
 _atom_site_symmetry_multiplicity
 _atom_site_fract_x
 _atom_site_fract_y
 _atom_site_fract_z
 _atom_site_occupancy
  Ho  Ho0  1  0.328024  0.662433  0.000558  1
  Ho  Ho1  1  0.327863  0.662343  0.499401  1
  Ho  Ho2  1  0.672086  0.334437  0.499455  1
  Ho  Ho3  1  0.759527  0.758193  0.750021  1
  Ho  Ho4  1  0.240379  0.998553  0.750031  1
  Ho  Ho5  1  0.999999  0.240025  0.750069  1
  Ho  Ho6  1  0.234706  0.242831  0.249948  1
  Ho  Ho7  1  0.765221  0.008072  0.250001  1
  Ho  Ho8  1  0.000008  0.755762  0.249952  1
  Er  Er9  1  0.672258  0.334462  0.000671  1
  In  In10  1  0.999706  0.394127  0.249666  1
  Bi  Bi11  1  0.392130  0.389350  0.750223  1
  Bi  Bi12  1  0.608154  0.997777  0.750194  1
  Bi  Bi13  1  0.999739  0.608691  0.750259  1
  Bi  Bi14  1  0.610169  0.611307  0.249793  1
  Bi  Bi15  1  0.390031  0.001634  0.249757  1
