# generated using pymatgen
data_Th10Zn2Bi5Pb
_symmetry_space_group_name_H-M   'P 1'
_cell_length_a   9.70664800
_cell_length_b   9.69540541
_cell_length_c   6.56972100
_cell_angle_alpha   90.00000000
_cell_angle_beta   90.00000000
_cell_angle_gamma   120.03835915
_symmetry_Int_Tables_number   1
_chemical_formula_structural   Th10Zn2Bi5Pb
_chemical_formula_sum   'Th10 Zn2 Bi5 Pb1'
_cell_volume   535.23538093
_cell_formula_units_Z   1
loop_
 _symmetry_equiv_pos_site_id
 _symmetry_equiv_pos_as_xyz
  1  'x, y, z'
loop_
 _atom_site_type_symbol
 _atom_site_label
 _atom_site_symmetry_multiplicity
 _atom_site_fract_x
 _atom_site_fract_y
 _atom_site_fract_z
 _atom_site_occupancy
  Th  Th0  1  0.333523  0.667262  0.999470  1
  Th  Th1  1  0.666263  0.332738  0.500530  1
  Th  Th2  1  0.666263  0.332738  0.999470  1
  Th  Th3  1  0.333523  0.667262  0.500530  1
  Th  Th4  1  0.264288  0.000000  0.250000  1
  Th  Th5  1  0.265537  0.264844  0.750000  1
  Th  Th6  1  0.000693  0.735156  0.750000  1
  Th  Th7  1  0.000521  0.264900  0.250000  1
  Th  Th8  1  0.735623  0.735100  0.250000  1
  Th  Th9  1  0.735045  0.000000  0.750000  1
  Zn  Zn10  1  0.999803  0.000000  0.999148  1
  Zn  Zn11  1  0.999803  0.000000  0.500852  1
  Bi  Bi12  1  0.615400  0.000000  0.250000  1
  Bi  Bi13  1  0.615905  0.615893  0.750000  1
  Bi  Bi14  1  0.000011  0.384107  0.750000  1
  Bi  Bi15  1  0.000745  0.616160  0.250000  1
  Bi  Bi16  1  0.384585  0.383840  0.250000  1
  Pb  Pb17  1  0.382466  0.000000  0.750000  1
