# generated using pymatgen
data_Y2P7(Rh3W)3
_symmetry_space_group_name_H-M   'P 1'
_cell_length_a   3.95016119
_cell_length_b   9.52136555
_cell_length_c   9.51833101
_cell_angle_alpha   119.96825943
_cell_angle_beta   90.13682381
_cell_angle_gamma   89.82075365
_symmetry_Int_Tables_number   1
_chemical_formula_structural   Y2P7(Rh3W)3
_chemical_formula_sum   'Y2 P7 Rh9 W3'
_cell_volume   310.12871922
_cell_formula_units_Z   1
loop_
 _symmetry_equiv_pos_site_id
 _symmetry_equiv_pos_as_xyz
  1  'x, y, z'
loop_
 _atom_site_type_symbol
 _atom_site_label
 _atom_site_symmetry_multiplicity
 _atom_site_fract_x
 _atom_site_fract_y
 _atom_site_fract_z
 _atom_site_occupancy
  Y  Y0  1  0.261873  0.666666  0.333325  1
  Y  Y1  1  0.761921  0.333335  0.666675  1
  P  P2  1  0.262062  0.000024  0.000009  1
  P  P3  1  0.761815  0.881472  0.592626  1
  P  P4  1  0.761984  0.407364  0.288821  1
  P  P5  1  0.761844  0.711173  0.118521  1
  P  P6  1  0.261729  0.117554  0.413888  1
  P  P7  1  0.261828  0.586130  0.703696  1
  P  P8  1  0.262080  0.296310  0.882441  1
  Rh  Rh9  1  0.261892  0.886555  0.160344  1
  Rh  Rh10  1  0.261913  0.839638  0.726205  1
  Rh  Rh11  1  0.261912  0.273850  0.113469  1
  Rh  Rh12  1  0.761856  0.613188  0.560706  1
  Rh  Rh13  1  0.761933  0.439289  0.052475  1
  Rh  Rh14  1  0.761865  0.947487  0.386777  1
  Rh  Rh15  1  0.261883  0.368089  0.437064  1
  Rh  Rh16  1  0.261971  0.562937  0.931043  1
  Rh  Rh17  1  0.261850  0.068933  0.631902  1
  W  W18  1  0.761836  0.089363  0.871760  1
  W  W19  1  0.762018  0.128275  0.217627  1
  W  W20  1  0.761933  0.782366  0.910626  1
