# generated using pymatgen
data_Dy7Ni17P12
_symmetry_space_group_name_H-M   'P 1'
_cell_length_a   11.49902366
_cell_length_b   11.49902389
_cell_length_c   12.69726300
_cell_angle_alpha   67.96707610
_cell_angle_beta   67.96707563
_cell_angle_gamma   18.79870220
_symmetry_Int_Tables_number   1
_chemical_formula_structural   Dy7Ni17P12
_chemical_formula_sum   'Dy7 Ni17 P12'
_cell_volume   500.38634581
_cell_formula_units_Z   1
loop_
 _symmetry_equiv_pos_site_id
 _symmetry_equiv_pos_as_xyz
  1  'x, y, z'
loop_
 _atom_site_type_symbol
 _atom_site_label
 _atom_site_symmetry_multiplicity
 _atom_site_fract_x
 _atom_site_fract_y
 _atom_site_fract_z
 _atom_site_occupancy
  Dy  Dy0  1  0.500000  0.500000  0.500000  1
  Dy  Dy1  1  0.365442  0.365442  0.001376  1
  Dy  Dy2  1  0.634558  0.634558  0.998624  1
  Dy  Dy3  1  0.235014  0.235014  0.309288  1
  Dy  Dy4  1  0.764986  0.764986  0.690712  1
  Dy  Dy5  1  0.416405  0.416405  0.261944  1
  Dy  Dy6  1  0.583595  0.583595  0.738056  1
  Ni  Ni7  1  0.837522  0.837522  0.193273  1
  Ni  Ni8  1  0.162478  0.162478  0.806727  1
  Ni  Ni9  1  0.026284  0.026284  0.125332  1
  Ni  Ni10  1  0.973716  0.973716  0.874668  1
  Ni  Ni11  1  0.887606  0.887606  0.463072  1
  Ni  Ni12  1  0.112394  0.112394  0.536928  1
  Ni  Ni13  1  0.500000  0.500000  0.000000  1
  Ni  Ni14  1  0.547011  0.547011  0.251232  1
  Ni  Ni15  1  0.452989  0.452989  0.748768  1
  Ni  Ni16  1  0.295941  0.295941  0.490028  1
  Ni  Ni17  1  0.704059  0.704059  0.509972  1
  Ni  Ni18  1  0.661135  0.661135  0.223905  1
  Ni  Ni19  1  0.338865  0.338865  0.776095  1
  Ni  Ni20  1  0.908631  0.908631  0.642020  1
  Ni  Ni21  1  0.091369  0.091369  0.357980  1
  Ni  Ni22  1  0.218864  0.218864  0.071374  1
  Ni  Ni23  1  0.781136  0.781136  0.928626  1
  P  P24  1  0.061730  0.061730  0.924633  1
  P  P25  1  0.938270  0.938270  0.075367  1
  P  P26  1  0.885508  0.885508  0.825860  1
  P  P27  1  0.114492  0.114492  0.174140  1
  P  P28  1  0.189070  0.189070  0.618766  1
  P  P29  1  0.810930  0.810930  0.381234  1
  P  P30  1  0.364549  0.364549  0.581414  1
  P  P31  1  0.635451  0.635451  0.418586  1
  P  P32  1  0.010797  0.010797  0.669014  1
  P  P33  1  0.989203  0.989203  0.330986  1
  P  P34  1  0.235624  0.235624  0.882169  1
  P  P35  1  0.764376  0.764376  0.117831  1
