# generated using pymatgen
data_Li3Nd4MgPb4
_symmetry_space_group_name_H-M   'P 1'
_cell_length_a   4.86736100
_cell_length_b   7.70635286
_cell_length_c   8.49032395
_cell_angle_alpha   89.68710030
_cell_angle_beta   90.00000000
_cell_angle_gamma   90.00000000
_symmetry_Int_Tables_number   1
_chemical_formula_structural   Li3Nd4MgPb4
_chemical_formula_sum   'Li3 Nd4 Mg1 Pb4'
_cell_volume   318.46391753
_cell_formula_units_Z   1
loop_
 _symmetry_equiv_pos_site_id
 _symmetry_equiv_pos_as_xyz
  1  'x, y, z'
loop_
 _atom_site_type_symbol
 _atom_site_label
 _atom_site_symmetry_multiplicity
 _atom_site_fract_x
 _atom_site_fract_y
 _atom_site_fract_z
 _atom_site_occupancy
  Li  Li0  1  0.750000  0.820611  0.921988  1
  Li  Li1  1  0.250000  0.177598  0.075546  1
  Li  Li2  1  0.250000  0.680626  0.422250  1
  Nd  Nd3  1  0.750000  0.991729  0.275346  1
  Nd  Nd4  1  0.250000  0.003131  0.722057  1
  Nd  Nd5  1  0.250000  0.510476  0.786166  1
  Nd  Nd6  1  0.750000  0.501039  0.217949  1
  Mg  Mg7  1  0.750000  0.311103  0.581424  1
  Pb  Pb8  1  0.750000  0.736425  0.590766  1
  Pb  Pb9  1  0.250000  0.263262  0.399207  1
  Pb  Pb10  1  0.250000  0.769996  0.090457  1
  Pb  Pb11  1  0.750000  0.234000  0.916844  1
