# generated using pymatgen
data_BaNd6TcI12
_symmetry_space_group_name_H-M   'P 1'
_cell_length_a   10.14043815
_cell_length_b   10.14043889
_cell_length_c   10.14043800
_cell_angle_alpha   105.74114554
_cell_angle_beta   105.74114672
_cell_angle_gamma   105.74113395
_symmetry_Int_Tables_number   1
_chemical_formula_structural   BaNd6TcI12
_chemical_formula_sum   'Ba1 Nd6 Tc1 I12'
_cell_volume   896.54354669
_cell_formula_units_Z   1
loop_
 _symmetry_equiv_pos_site_id
 _symmetry_equiv_pos_as_xyz
  1  'x, y, z'
loop_
 _atom_site_type_symbol
 _atom_site_label
 _atom_site_symmetry_multiplicity
 _atom_site_fract_x
 _atom_site_fract_y
 _atom_site_fract_z
 _atom_site_occupancy
  Ba  Ba0  1  0.500000  0.500000  0.500000  1
  Nd  Nd1  1  0.091764  0.294431  0.016057  1
  Nd  Nd2  1  0.294430  0.016056  0.091764  1
  Nd  Nd3  1  0.016056  0.091764  0.294431  1
  Nd  Nd4  1  0.983943  0.908236  0.705569  1
  Nd  Nd5  1  0.705570  0.983943  0.908235  1
  Nd  Nd6  1  0.908236  0.705569  0.983943  1
  Tc  Tc7  1  0.000000  0.000000  0.000000  1
  I  I8  1  0.224563  0.679218  0.074816  1
  I  I9  1  0.440166  0.357841  0.128120  1
  I  I10  1  0.679218  0.074817  0.224563  1
  I  I11  1  0.925184  0.775438  0.320783  1
  I  I12  1  0.128120  0.440166  0.357841  1
  I  I13  1  0.357841  0.128120  0.440167  1
  I  I14  1  0.642159  0.871880  0.559833  1
  I  I15  1  0.871879  0.559834  0.642159  1
  I  I16  1  0.074817  0.224563  0.679218  1
  I  I17  1  0.320783  0.925184  0.775437  1
  I  I18  1  0.559833  0.642158  0.871880  1
  I  I19  1  0.775437  0.320783  0.925184  1
