# generated using pymatgen
data_Na2Nb5TcSe12
_symmetry_space_group_name_H-M   'P 1'
_cell_length_a   6.00953700
_cell_length_b   6.00953614
_cell_length_c   15.64820300
_cell_angle_alpha   90.00000000
_cell_angle_beta   90.00000000
_cell_angle_gamma   119.99999924
_symmetry_Int_Tables_number   1
_chemical_formula_structural   Na2Nb5TcSe12
_chemical_formula_sum   'Na2 Nb5 Tc1 Se12'
_cell_volume   489.41476917
_cell_formula_units_Z   1
loop_
 _symmetry_equiv_pos_site_id
 _symmetry_equiv_pos_as_xyz
  1  'x, y, z'
loop_
 _atom_site_type_symbol
 _atom_site_label
 _atom_site_symmetry_multiplicity
 _atom_site_fract_x
 _atom_site_fract_y
 _atom_site_fract_z
 _atom_site_occupancy
  Na  Na0  1  0.333333  0.666667  0.251519  1
  Na  Na1  1  0.666667  0.333333  0.750147  1
  Nb  Nb2  1  0.000000  0.000000  0.000174  1
  Nb  Nb3  1  0.666667  0.333333  0.999633  1
  Nb  Nb4  1  0.333333  0.666667  0.500013  1
  Nb  Nb5  1  0.000000  0.000000  0.500128  1
  Nb  Nb6  1  0.666667  0.333333  0.500168  1
  Tc  Tc7  1  0.333333  0.666667  0.999539  1
  Se  Se8  1  0.669211  0.666390  0.392545  1
  Se  Se9  1  0.666326  0.668987  0.607599  1
  Se  Se10  1  0.010628  0.669633  0.894407  1
  Se  Se11  1  0.659006  0.989372  0.894407  1
  Se  Se12  1  0.658935  0.992766  0.105009  1
  Se  Se13  1  0.333610  0.002822  0.392545  1
  Se  Se14  1  0.002662  0.333674  0.607599  1
  Se  Se15  1  0.331013  0.997338  0.607599  1
  Se  Se16  1  0.007234  0.666170  0.105009  1
  Se  Se17  1  0.330367  0.340994  0.894407  1
  Se  Se18  1  0.997178  0.330789  0.392545  1
  Se  Se19  1  0.333830  0.341065  0.105009  1
