# generated using pymatgen
data_Ho20Ir7PdRh4
_symmetry_space_group_name_H-M   'P 1'
_cell_length_a   10.87747399
_cell_length_b   10.87747385
_cell_length_c   6.35811010
_cell_angle_alpha   89.94371508
_cell_angle_beta   89.94371796
_cell_angle_gamma   89.65381429
_symmetry_Int_Tables_number   1
_chemical_formula_structural   Ho20Ir7PdRh4
_chemical_formula_sum   'Ho20 Ir7 Pd1 Rh4'
_cell_volume   752.27356585
_cell_formula_units_Z   1
loop_
 _symmetry_equiv_pos_site_id
 _symmetry_equiv_pos_as_xyz
  1  'x, y, z'
loop_
 _atom_site_type_symbol
 _atom_site_label
 _atom_site_symmetry_multiplicity
 _atom_site_fract_x
 _atom_site_fract_y
 _atom_site_fract_z
 _atom_site_occupancy
  Ho  Ho0  1  0.289727  0.088724  0.380074  1
  Ho  Ho1  1  0.291194  0.910542  0.878913  1
  Ho  Ho2  1  0.706450  0.086781  0.872569  1
  Ho  Ho3  1  0.707394  0.905874  0.381162  1
  Ho  Ho4  1  0.588814  0.790080  0.880587  1
  Ho  Ho5  1  0.583083  0.210437  0.379891  1
  Ho  Ho6  1  0.410061  0.790340  0.380203  1
  Ho  Ho7  1  0.410125  0.209168  0.879838  1
  Ho  Ho8  1  0.209920  0.411186  0.619413  1
  Ho  Ho9  1  0.209660  0.589939  0.119797  1
  Ho  Ho10  1  0.789563  0.416917  0.120109  1
  Ho  Ho11  1  0.790832  0.589875  0.620162  1
  Ho  Ho12  1  0.911276  0.710273  0.119926  1
  Ho  Ho13  1  0.913219  0.293550  0.627431  1
  Ho  Ho14  1  0.089458  0.708806  0.621087  1
  Ho  Ho15  1  0.094126  0.292606  0.118838  1
  Ho  Ho16  1  0.001260  0.997860  0.500959  1
  Ho  Ho17  1  0.002140  0.998740  0.999041  1
  Ho  Ho18  1  0.499554  0.499410  0.999435  1
  Ho  Ho19  1  0.500590  0.500446  0.500565  1
  Ir  Ir20  1  0.845910  0.847634  0.749831  1
  Ir  Ir21  1  0.152366  0.154090  0.750169  1
  Ir  Ir22  1  0.154371  0.845629  0.250000  1
  Ir  Ir23  1  0.655901  0.344099  0.750000  1
  Ir  Ir24  1  0.654492  0.653389  0.249313  1
  Ir  Ir25  1  0.346611  0.345508  0.250687  1
  Ir  Ir26  1  0.345950  0.654050  0.750000  1
  Pd  Pd27  1  0.844269  0.155731  0.250000  1
  Rh  Rh28  1  0.501412  0.000187  0.125101  1
  Rh  Rh29  1  0.500851  0.000391  0.623123  1
  Rh  Rh30  1  0.999609  0.499149  0.876877  1
  Rh  Rh31  1  0.999813  0.498588  0.374899  1
