# generated using pymatgen
data_Ti10As6S
_symmetry_space_group_name_H-M   'P 1'
_cell_length_a   7.60490900
_cell_length_b   7.60490928
_cell_length_c   5.26809600
_cell_angle_alpha   90.00000000
_cell_angle_beta   90.00000000
_cell_angle_gamma   119.99999443
_symmetry_Int_Tables_number   1
_chemical_formula_structural   Ti10As6S
_chemical_formula_sum   'Ti10 As6 S1'
_cell_volume   263.85929389
_cell_formula_units_Z   1
loop_
 _symmetry_equiv_pos_site_id
 _symmetry_equiv_pos_as_xyz
  1  'x, y, z'
loop_
 _atom_site_type_symbol
 _atom_site_label
 _atom_site_symmetry_multiplicity
 _atom_site_fract_x
 _atom_site_fract_y
 _atom_site_fract_z
 _atom_site_occupancy
  Ti  Ti0  1  0.666667  0.333333  0.500000  1
  Ti  Ti1  1  0.333333  0.666667  0.500000  1
  Ti  Ti2  1  0.333333  0.666667  0.000000  1
  Ti  Ti3  1  0.666667  0.333333  0.000000  1
  Ti  Ti4  1  0.742477  0.742477  0.237190  1
  Ti  Ti5  1  0.257523  0.000000  0.237190  1
  Ti  Ti6  1  0.000000  0.257523  0.237190  1
  Ti  Ti7  1  0.257523  0.257523  0.762810  1
  Ti  Ti8  1  0.742477  0.000000  0.762810  1
  Ti  Ti9  1  0.000000  0.742477  0.762810  1
  As  As10  1  0.392650  0.392650  0.246591  1
  As  As11  1  0.607350  0.000000  0.246591  1
  As  As12  1  0.000000  0.607350  0.246591  1
  As  As13  1  0.607350  0.607350  0.753409  1
  As  As14  1  0.392650  0.000000  0.753409  1
  As  As15  1  0.000000  0.392650  0.753409  1
  S  S16  1  0.000000  0.000000  0.500000  1
