# generated using pymatgen
data_Pr3Nd3Dy10(CdPt)4
_symmetry_space_group_name_H-M   'P 1'
_cell_length_a   9.80430310
_cell_length_b   9.78827892
_cell_length_c   9.80573089
_cell_angle_alpha   60.04920909
_cell_angle_beta   60.12287677
_cell_angle_gamma   60.06369637
_symmetry_Int_Tables_number   1
_chemical_formula_structural   Pr3Nd3Dy10(CdPt)4
_chemical_formula_sum   'Pr3 Nd3 Dy10 Cd4 Pt4'
_cell_volume   666.59253056
_cell_formula_units_Z   1
loop_
 _symmetry_equiv_pos_site_id
 _symmetry_equiv_pos_as_xyz
  1  'x, y, z'
loop_
 _atom_site_type_symbol
 _atom_site_label
 _atom_site_symmetry_multiplicity
 _atom_site_fract_x
 _atom_site_fract_y
 _atom_site_fract_z
 _atom_site_occupancy
  Pr  Pr0  1  0.938298  0.562319  0.561904  1
  Pr  Pr1  1  0.561904  0.937480  0.938298  1
  Pr  Pr2  1  0.561942  0.938058  0.561942  1
  Nd  Nd3  1  0.938267  0.561733  0.938267  1
  Nd  Nd4  1  0.561461  0.561668  0.938808  1
  Nd  Nd5  1  0.938808  0.938063  0.561461  1
  Dy  Dy6  1  0.350341  0.350188  0.350067  1
  Dy  Dy7  1  0.350501  0.350698  0.948459  1
  Dy  Dy8  1  0.350067  0.949403  0.350341  1
  Dy  Dy9  1  0.948459  0.350342  0.350501  1
  Dy  Dy10  1  0.811738  0.188901  0.188170  1
  Dy  Dy11  1  0.188170  0.811190  0.811738  1
  Dy  Dy12  1  0.188498  0.811502  0.188498  1
  Dy  Dy13  1  0.811504  0.188496  0.811504  1
  Dy  Dy14  1  0.188153  0.188747  0.811809  1
  Dy  Dy15  1  0.811809  0.811291  0.188153  1
  Cd  Cd16  1  0.579568  0.579544  0.579988  1
  Cd  Cd17  1  0.579982  0.579564  0.260492  1
  Cd  Cd18  1  0.579988  0.260901  0.579568  1
  Cd  Cd19  1  0.260492  0.579962  0.579982  1
  Pt  Pt20  1  0.142605  0.142911  0.142914  1
  Pt  Pt21  1  0.142570  0.142539  0.571962  1
  Pt  Pt22  1  0.142914  0.571569  0.142605  1
  Pt  Pt23  1  0.571962  0.142928  0.142570  1
