# generated using pymatgen
data_Li4CrSb3Rh8
_symmetry_space_group_name_H-M   'P 1'
_cell_length_a   6.13633100
_cell_length_b   6.14032400
_cell_length_c   6.13634200
_cell_angle_alpha   89.99943064
_cell_angle_beta   90.00130720
_cell_angle_gamma   89.99981332
_symmetry_Int_Tables_number   1
_chemical_formula_structural   Li4CrSb3Rh8
_chemical_formula_sum   'Li4 Cr1 Sb3 Rh8'
_cell_volume   231.21160150
_cell_formula_units_Z   1
loop_
 _symmetry_equiv_pos_site_id
 _symmetry_equiv_pos_as_xyz
  1  'x, y, z'
loop_
 _atom_site_type_symbol
 _atom_site_label
 _atom_site_symmetry_multiplicity
 _atom_site_fract_x
 _atom_site_fract_y
 _atom_site_fract_z
 _atom_site_occupancy
  Li  Li0  1  0.499950  0.750198  0.250006  1
  Li  Li1  1  0.000057  0.249794  0.250004  1
  Li  Li2  1  0.000056  0.750188  0.750003  1
  Li  Li3  1  0.499945  0.249796  0.750009  1
  Cr  Cr4  1  0.500001  0.250110  0.249973  1
  Sb  Sb5  1  0.999993  0.749986  0.250012  1
  Sb  Sb6  1  0.999994  0.250003  0.749999  1
  Sb  Sb7  1  0.500014  0.749988  0.749997  1
  Rh  Rh8  1  0.255367  0.005229  0.005370  1
  Rh  Rh9  1  0.744605  0.005266  0.005399  1
  Rh  Rh10  1  0.744622  0.494754  0.005385  1
  Rh  Rh11  1  0.255391  0.494730  0.005386  1
  Rh  Rh12  1  0.255394  0.494738  0.494618  1
  Rh  Rh13  1  0.255388  0.005250  0.494618  1
  Rh  Rh14  1  0.744602  0.494721  0.494602  1
  Rh  Rh15  1  0.744620  0.005250  0.494621  1
