# generated using pymatgen
data_YbPr3(PPd)4
_symmetry_space_group_name_H-M   'P 1'
_cell_length_a   4.24208200
_cell_length_b   7.96420694
_cell_length_c   7.29014290
_cell_angle_alpha   89.93733535
_cell_angle_beta   90.00000000
_cell_angle_gamma   90.00000000
_symmetry_Int_Tables_number   1
_chemical_formula_structural   YbPr3(PPd)4
_chemical_formula_sum   'Yb1 Pr3 P4 Pd4'
_cell_volume   246.29601050
_cell_formula_units_Z   1
loop_
 _symmetry_equiv_pos_site_id
 _symmetry_equiv_pos_as_xyz
  1  'x, y, z'
loop_
 _atom_site_type_symbol
 _atom_site_label
 _atom_site_symmetry_multiplicity
 _atom_site_fract_x
 _atom_site_fract_y
 _atom_site_fract_z
 _atom_site_occupancy
  Yb  Yb0  1  0.250000  0.999065  0.248279  1
  Pr  Pr1  1  0.250000  0.499464  0.250367  1
  Pr  Pr2  1  0.750000  0.501169  0.749069  1
  Pr  Pr3  1  0.750000  0.000712  0.752232  1
  P  P4  1  0.250000  0.746410  0.919394  1
  P  P5  1  0.750000  0.254854  0.082478  1
  P  P6  1  0.750000  0.744949  0.417948  1
  P  P7  1  0.250000  0.252587  0.580435  1
  Pd  Pd8  1  0.250000  0.757806  0.582029  1
  Pd  Pd9  1  0.750000  0.238644  0.414743  1
  Pd  Pd10  1  0.750000  0.757065  0.085241  1
  Pd  Pd11  1  0.250000  0.247275  0.917785  1
