# generated using pymatgen
data_Eu4Si12NiPd19
_symmetry_space_group_name_H-M   'P 1'
_cell_length_a   4.01023800
_cell_length_b   7.25298141
_cell_length_c   19.66381600
_cell_angle_alpha   90.03573787
_cell_angle_beta   90.00000000
_cell_angle_gamma   90.00000000
_symmetry_Int_Tables_number   1
_chemical_formula_structural   Eu4Si12NiPd19
_chemical_formula_sum   'Eu4 Si12 Ni1 Pd19'
_cell_volume   571.94521319
_cell_formula_units_Z   1
loop_
 _symmetry_equiv_pos_site_id
 _symmetry_equiv_pos_as_xyz
  1  'x, y, z'
loop_
 _atom_site_type_symbol
 _atom_site_label
 _atom_site_symmetry_multiplicity
 _atom_site_fract_x
 _atom_site_fract_y
 _atom_site_fract_z
 _atom_site_occupancy
  Eu  Eu0  1  0.750000  0.373112  0.359042  1
  Eu  Eu1  1  0.750000  0.123970  0.856596  1
  Eu  Eu2  1  0.250000  0.624483  0.640743  1
  Eu  Eu3  1  0.250000  0.875699  0.143920  1
  Si  Si4  1  0.250000  0.370315  0.240294  1
  Si  Si5  1  0.750000  0.150650  0.077138  1
  Si  Si6  1  0.750000  0.916992  0.580613  1
  Si  Si7  1  0.750000  0.869746  0.263046  1
  Si  Si8  1  0.750000  0.593064  0.084425  1
  Si  Si9  1  0.250000  0.849239  0.922760  1
  Si  Si10  1  0.250000  0.130024  0.738547  1
  Si  Si11  1  0.250000  0.406206  0.915668  1
  Si  Si12  1  0.250000  0.098082  0.417887  1
  Si  Si13  1  0.750000  0.339531  0.573609  1
  Si  Si14  1  0.750000  0.630082  0.759997  1
  Si  Si15  1  0.250000  0.646474  0.424567  1
  Ni  Ni16  1  0.750000  0.120787  0.488990  1
  Pd  Pd17  1  0.250000  0.826867  0.798141  1
  Pd  Pd18  1  0.250000  0.673425  0.301132  1
  Pd  Pd19  1  0.750000  0.643315  0.883301  1
  Pd  Pd20  1  0.250000  0.141142  0.615616  1
  Pd  Pd21  1  0.250000  0.126193  0.992993  1
  Pd  Pd22  1  0.750000  0.173264  0.201888  1
  Pd  Pd23  1  0.250000  0.356452  0.116779  1
  Pd  Pd24  1  0.750000  0.867129  0.387008  1
  Pd  Pd25  1  0.250000  0.434408  0.795620  1
  Pd  Pd26  1  0.250000  0.884432  0.509259  1
  Pd  Pd27  1  0.750000  0.625365  0.506278  1
  Pd  Pd28  1  0.750000  0.377802  0.988319  1
  Pd  Pd29  1  0.250000  0.363689  0.493583  1
  Pd  Pd30  1  0.250000  0.066029  0.297574  1
  Pd  Pd31  1  0.750000  0.565897  0.204635  1
  Pd  Pd32  1  0.750000  0.934311  0.701869  1
  Pd  Pd33  1  0.750000  0.326191  0.699595  1
  Pd  Pd34  1  0.750000  0.873539  0.006948  1
  Pd  Pd35  1  0.250000  0.622092  0.011624  1
