# generated using pymatgen
data_Li2Co3NiP7Ru8
_symmetry_space_group_name_H-M   'P 1'
_cell_length_a   9.17744438
_cell_length_b   9.29095535
_cell_length_c   3.72953400
_cell_angle_alpha   90.00000000
_cell_angle_beta   90.00000000
_cell_angle_gamma   119.44887126
_symmetry_Int_Tables_number   1
_chemical_formula_structural   Li2Co3NiP7Ru8
_chemical_formula_sum   'Li2 Co3 Ni1 P7 Ru8'
_cell_volume   276.91884866
_cell_formula_units_Z   1
loop_
 _symmetry_equiv_pos_site_id
 _symmetry_equiv_pos_as_xyz
  1  'x, y, z'
loop_
 _atom_site_type_symbol
 _atom_site_label
 _atom_site_symmetry_multiplicity
 _atom_site_fract_x
 _atom_site_fract_y
 _atom_site_fract_z
 _atom_site_occupancy
  Li  Li0  1  0.001303  0.000291  0.000000  1
  Li  Li1  1  0.331636  0.665984  0.500000  1
  Co  Co2  1  0.784294  0.177606  0.000000  1
  Co  Co3  1  0.392193  0.221415  0.000000  1
  Co  Co4  1  0.823456  0.598636  0.000000  1
  Ni  Ni5  1  0.092246  0.397368  0.000000  1
  P  P6  1  0.557905  0.921681  0.000000  1
  P  P7  1  0.362737  0.446239  0.000000  1
  P  P8  1  0.081343  0.634616  0.000000  1
  P  P9  1  0.946341  0.209040  0.500000  1
  P  P10  1  0.262501  0.050818  0.500000  1
  P  P11  1  0.781516  0.731321  0.500000  1
  P  P12  1  0.666622  0.331942  0.000000  1
  Ru  Ru13  1  0.304316  0.908656  0.000000  1
  Ru  Ru14  1  0.601781  0.694335  0.000000  1
  Ru  Ru15  1  0.719830  0.947020  0.500000  1
  Ru  Ru16  1  0.224778  0.287208  0.500000  1
  Ru  Ru17  1  0.050861  0.771917  0.500000  1
  Ru  Ru18  1  0.550184  0.133893  0.500000  1
  Ru  Ru19  1  0.582492  0.448824  0.500000  1
  Ru  Ru20  1  0.881666  0.421190  0.500000  1
