# generated using pymatgen
data_Rb16Si3SnSe16
_symmetry_space_group_name_H-M   'P 1'
_cell_length_a   8.72578705
_cell_length_b   10.34589100
_cell_length_c   15.19722400
_cell_angle_alpha   90.00000000
_cell_angle_beta   90.03923340
_cell_angle_gamma   90.00000000
_symmetry_Int_Tables_number   1
_chemical_formula_structural   Rb16Si3SnSe16
_chemical_formula_sum   'Rb16 Si3 Sn1 Se16'
_cell_volume   1371.94490536
_cell_formula_units_Z   1
loop_
 _symmetry_equiv_pos_site_id
 _symmetry_equiv_pos_as_xyz
  1  'x, y, z'
loop_
 _atom_site_type_symbol
 _atom_site_label
 _atom_site_symmetry_multiplicity
 _atom_site_fract_x
 _atom_site_fract_y
 _atom_site_fract_z
 _atom_site_occupancy
  Rb  Rb0  1  0.996650  0.996829  0.001433  1
  Rb  Rb1  1  0.500101  0.000572  0.499523  1
  Rb  Rb2  1  0.996650  0.503171  0.001433  1
  Rb  Rb3  1  0.500101  0.499428  0.499523  1
  Rb  Rb4  1  0.988814  0.750000  0.421476  1
  Rb  Rb5  1  0.492408  0.250000  0.081714  1
  Rb  Rb6  1  0.007115  0.250000  0.575328  1
  Rb  Rb7  1  0.520264  0.750000  0.922673  1
  Rb  Rb8  1  0.835823  0.049328  0.276668  1
  Rb  Rb9  1  0.335384  0.949958  0.223016  1
  Rb  Rb10  1  0.163863  0.554922  0.722191  1
  Rb  Rb11  1  0.661167  0.454693  0.774160  1
  Rb  Rb12  1  0.163863  0.945078  0.722191  1
  Rb  Rb13  1  0.661167  0.045307  0.774160  1
  Rb  Rb14  1  0.835823  0.450672  0.276668  1
  Rb  Rb15  1  0.335384  0.550042  0.223016  1
  Si  Si16  1  0.764438  0.750000  0.663752  1
  Si  Si17  1  0.236338  0.250000  0.335123  1
  Si  Si18  1  0.736897  0.750000  0.166069  1
  Sn  Sn19  1  0.263609  0.250000  0.836063  1
  Se  Se20  1  0.968589  0.250000  0.827217  1
  Se  Se21  1  0.503190  0.250000  0.326092  1
  Se  Se22  1  0.497381  0.750000  0.672931  1
  Se  Se23  1  0.003606  0.750000  0.174472  1
  Se  Se24  1  0.654155  0.568291  0.092537  1
  Se  Se25  1  0.153779  0.432167  0.408479  1
  Se  Se26  1  0.353429  0.049004  0.917755  1
  Se  Se27  1  0.847143  0.931718  0.590484  1
  Se  Se28  1  0.353429  0.450996  0.917755  1
  Se  Se29  1  0.847143  0.568282  0.590484  1
  Se  Se30  1  0.654155  0.931709  0.092537  1
  Se  Se31  1  0.153779  0.067833  0.408479  1
  Se  Se32  1  0.638246  0.750000  0.308564  1
  Se  Se33  1  0.138021  0.250000  0.192284  1
  Se  Se34  1  0.373112  0.250000  0.677493  1
  Se  Se35  1  0.864979  0.750000  0.806257  1
