# generated using pymatgen
data_Y4MnOs5Ru2
_symmetry_space_group_name_H-M   'P 1'
_cell_length_a   5.27329300
_cell_length_b   5.26704378
_cell_length_c   8.99922200
_cell_angle_alpha   90.00000000
_cell_angle_beta   90.00000000
_cell_angle_gamma   120.03926238
_symmetry_Int_Tables_number   1
_chemical_formula_structural   Y4MnOs5Ru2
_chemical_formula_sum   'Y4 Mn1 Os5 Ru2'
_cell_volume   216.37768508
_cell_formula_units_Z   1
loop_
 _symmetry_equiv_pos_site_id
 _symmetry_equiv_pos_as_xyz
  1  'x, y, z'
loop_
 _atom_site_type_symbol
 _atom_site_label
 _atom_site_symmetry_multiplicity
 _atom_site_fract_x
 _atom_site_fract_y
 _atom_site_fract_z
 _atom_site_occupancy
  Y  Y0  1  0.331400  0.662801  0.434715  1
  Y  Y1  1  0.666193  0.332386  0.565547  1
  Y  Y2  1  0.666193  0.332386  0.934453  1
  Y  Y3  1  0.331400  0.662801  0.065285  1
  Mn  Mn4  1  0.165935  0.331870  0.750000  1
  Os  Os5  1  0.175275  0.830332  0.750000  1
  Os  Os6  1  0.349592  0.176457  0.250000  1
  Os  Os7  1  0.839431  0.678861  0.250000  1
  Os  Os8  1  0.655059  0.830332  0.750000  1
  Os  Os9  1  0.826863  0.176457  0.250000  1
  Ru  Ru10  1  0.996330  0.992660  0.997559  1
  Ru  Ru11  1  0.996330  0.992660  0.502441  1
