# generated using pymatgen
data_SmYTh3Si3C
_symmetry_space_group_name_H-M   'P 1'
_cell_length_a   8.79611500
_cell_length_b   8.79611521
_cell_length_c   6.41019800
_cell_angle_alpha   90.00000000
_cell_angle_beta   90.00000000
_cell_angle_gamma   120.00000297
_symmetry_Int_Tables_number   1
_chemical_formula_structural   SmYTh3Si3C
_chemical_formula_sum   'Sm2 Y2 Th6 Si6 C2'
_cell_volume   429.52047460
_cell_formula_units_Z   2
loop_
 _symmetry_equiv_pos_site_id
 _symmetry_equiv_pos_as_xyz
  1  'x, y, z'
loop_
 _atom_site_type_symbol
 _atom_site_label
 _atom_site_symmetry_multiplicity
 _atom_site_fract_x
 _atom_site_fract_y
 _atom_site_fract_z
 _atom_site_occupancy
  Sm  Sm0  1  0.666667  0.333333  0.000000  1
  Sm  Sm1  1  0.333333  0.666667  0.000000  1
  Y  Y2  1  0.333333  0.666667  0.500000  1
  Y  Y3  1  0.666667  0.333333  0.500000  1
  Th  Th4  1  0.768042  0.768042  0.749254  1
  Th  Th5  1  0.231958  0.000000  0.749254  1
  Th  Th6  1  0.000000  0.231958  0.749254  1
  Th  Th7  1  0.231958  0.231958  0.250746  1
  Th  Th8  1  0.768042  0.000000  0.250746  1
  Th  Th9  1  0.000000  0.768042  0.250746  1
  Si  Si10  1  0.400932  0.400932  0.744915  1
  Si  Si11  1  0.599068  0.000000  0.744915  1
  Si  Si12  1  0.000000  0.599068  0.744915  1
  Si  Si13  1  0.599068  0.599068  0.255085  1
  Si  Si14  1  0.400932  0.000000  0.255085  1
  Si  Si15  1  0.000000  0.400932  0.255085  1
  C  C16  1  0.000000  0.000000  0.000000  1
  C  C17  1  0.000000  0.000000  0.500000  1
