# generated using pymatgen
data_Hf16Co3Re4Ni
_symmetry_space_group_name_H-M   'P 1'
_cell_length_a   8.62597450
_cell_length_b   8.62597468
_cell_length_c   8.62597500
_cell_angle_alpha   60.03773674
_cell_angle_beta   60.03773591
_cell_angle_gamma   60.03774170
_symmetry_Int_Tables_number   1
_chemical_formula_structural   Hf16Co3Re4Ni
_chemical_formula_sum   'Hf16 Co3 Re4 Ni1'
_cell_volume   454.23530772
_cell_formula_units_Z   1
loop_
 _symmetry_equiv_pos_site_id
 _symmetry_equiv_pos_as_xyz
  1  'x, y, z'
loop_
 _atom_site_type_symbol
 _atom_site_label
 _atom_site_symmetry_multiplicity
 _atom_site_fract_x
 _atom_site_fract_y
 _atom_site_fract_z
 _atom_site_occupancy
  Hf  Hf0  1  0.694629  0.102675  0.102675  1
  Hf  Hf1  1  0.102675  0.694629  0.102675  1
  Hf  Hf2  1  0.102675  0.102675  0.694629  1
  Hf  Hf3  1  0.099818  0.099818  0.099818  1
  Hf  Hf4  1  0.315169  0.315169  0.685011  1
  Hf  Hf5  1  0.685388  0.685388  0.315636  1
  Hf  Hf6  1  0.315169  0.685011  0.315169  1
  Hf  Hf7  1  0.685388  0.315636  0.685388  1
  Hf  Hf8  1  0.685011  0.315169  0.315169  1
  Hf  Hf9  1  0.315636  0.685388  0.685388  1
  Hf  Hf10  1  0.956466  0.956466  0.540260  1
  Hf  Hf11  1  0.547073  0.547073  0.953456  1
  Hf  Hf12  1  0.956466  0.540260  0.956466  1
  Hf  Hf13  1  0.547073  0.953456  0.547073  1
  Hf  Hf14  1  0.540260  0.956466  0.956466  1
  Hf  Hf15  1  0.953456  0.547073  0.547073  1
  Co  Co16  1  0.328643  0.889661  0.889661  1
  Co  Co17  1  0.889661  0.328643  0.889661  1
  Co  Co18  1  0.889661  0.889661  0.328643  1
  Re  Re19  1  0.001960  0.332573  0.332573  1
  Re  Re20  1  0.332573  0.001960  0.332573  1
  Re  Re21  1  0.332573  0.332573  0.001960  1
  Re  Re22  1  0.332786  0.332786  0.332786  1
  Ni  Ni23  1  0.889785  0.889785  0.889785  1
