# generated using pymatgen
data_Ca3CeTm4(B6Os)4
_symmetry_space_group_name_H-M   'P 1'
_cell_length_a   3.63704200
_cell_length_b   9.14821929
_cell_length_c   11.56173970
_cell_angle_alpha   89.83685308
_cell_angle_beta   90.00000000
_cell_angle_gamma   90.00000000
_symmetry_Int_Tables_number   1
_chemical_formula_structural   Ca3CeTm4(B6Os)4
_chemical_formula_sum   'Ca3 Ce1 Tm4 B24 Os4'
_cell_volume   384.68593637
_cell_formula_units_Z   1
loop_
 _symmetry_equiv_pos_site_id
 _symmetry_equiv_pos_as_xyz
  1  'x, y, z'
loop_
 _atom_site_type_symbol
 _atom_site_label
 _atom_site_symmetry_multiplicity
 _atom_site_fract_x
 _atom_site_fract_y
 _atom_site_fract_z
 _atom_site_occupancy
  Ca  Ca0  1  0.000000  0.324366  0.414222  1
  Ca  Ca1  1  0.000000  0.676418  0.583810  1
  Ca  Ca2  1  0.000000  0.820895  0.087168  1
  Ce  Ce3  1  0.000000  0.175915  0.915094  1
  Tm  Tm4  1  0.000000  0.941571  0.369069  1
  Tm  Tm5  1  0.000000  0.056615  0.628329  1
  Tm  Tm6  1  0.000000  0.445111  0.131400  1
  Tm  Tm7  1  0.000000  0.558080  0.870148  1
  B  B8  1  0.500000  0.554238  0.432776  1
  B  B9  1  0.500000  0.445104  0.568225  1
  B  B10  1  0.500000  0.054862  0.068431  1
  B  B11  1  0.500000  0.944877  0.931678  1
  B  B12  1  0.500000  0.748946  0.417425  1
  B  B13  1  0.500000  0.251022  0.582222  1
  B  B14  1  0.500000  0.249812  0.082490  1
  B  B15  1  0.500000  0.750546  0.917422  1
  B  B16  1  0.500000  0.791546  0.265431  1
  B  B17  1  0.500000  0.208380  0.734301  1
  B  B18  1  0.500000  0.291757  0.235318  1
  B  B19  1  0.500000  0.708988  0.765340  1
  B  B20  1  0.500000  0.631278  0.186229  1
  B  B21  1  0.500000  0.368790  0.815052  1
  B  B22  1  0.500000  0.130786  0.313767  1
  B  B23  1  0.500000  0.868964  0.684685  1
  B  B24  1  0.500000  0.983708  0.212697  1
  B  B25  1  0.500000  0.015484  0.787134  1
  B  B26  1  0.500000  0.484067  0.288300  1
  B  B27  1  0.500000  0.516064  0.712273  1
  B  B28  1  0.500000  0.600795  0.027655  1
  B  B29  1  0.500000  0.401044  0.973033  1
  B  B30  1  0.500000  0.098032  0.472231  1
  B  B31  1  0.500000  0.901700  0.526248  1
  Os  Os32  1  0.000000  0.639457  0.319500  1
  Os  Os33  1  0.000000  0.358189  0.683275  1
  Os  Os34  1  0.000000  0.139847  0.177875  1
  Os  Os35  1  0.000000  0.862741  0.819746  1
