# generated using pymatgen
data_LaY(ReH9)2
_symmetry_space_group_name_H-M   'P 1'
_cell_length_a   4.92356500
_cell_length_b   4.92356443
_cell_length_c   8.55857400
_cell_angle_alpha   90.00000000
_cell_angle_beta   90.00000000
_cell_angle_gamma   119.99999710
_symmetry_Int_Tables_number   1
_chemical_formula_structural   LaY(ReH9)2
_chemical_formula_sum   'La1 Y1 Re2 H18'
_cell_volume   179.67653174
_cell_formula_units_Z   1
loop_
 _symmetry_equiv_pos_site_id
 _symmetry_equiv_pos_as_xyz
  1  'x, y, z'
loop_
 _atom_site_type_symbol
 _atom_site_label
 _atom_site_symmetry_multiplicity
 _atom_site_fract_x
 _atom_site_fract_y
 _atom_site_fract_z
 _atom_site_occupancy
  La  La0  1  0.000000  0.000000  0.500000  1
  Y  Y1  1  0.000000  0.000000  0.000000  1
  Re  Re2  1  0.333333  0.666667  0.243637  1
  Re  Re3  1  0.666667  0.333333  0.756363  1
  H  H4  1  0.479559  0.520441  0.384691  1
  H  H5  1  0.479559  0.959119  0.384691  1
  H  H6  1  0.040881  0.520441  0.384691  1
  H  H7  1  0.942938  0.471469  0.901518  1
  H  H8  1  0.131155  0.262310  0.237955  1
  H  H9  1  0.868845  0.131155  0.762045  1
  H  H10  1  0.262310  0.131155  0.762045  1
  H  H11  1  0.737690  0.868845  0.237955  1
  H  H12  1  0.131155  0.868845  0.237955  1
  H  H13  1  0.868845  0.737690  0.762045  1
  H  H14  1  0.471469  0.942938  0.098482  1
  H  H15  1  0.520441  0.479559  0.615309  1
  H  H16  1  0.959119  0.479559  0.615309  1
  H  H17  1  0.057062  0.528531  0.098482  1
  H  H18  1  0.471469  0.528531  0.098482  1
  H  H19  1  0.528531  0.057062  0.901518  1
  H  H20  1  0.528531  0.471469  0.901518  1
  H  H21  1  0.520441  0.040881  0.615309  1
