# generated using pymatgen
data_Sc4CrCoOs6
_symmetry_space_group_name_H-M   'P 1'
_cell_length_a   5.21386146
_cell_length_b   5.04624842
_cell_length_c   8.60204700
_cell_angle_alpha   90.00000000
_cell_angle_beta   90.00000000
_cell_angle_gamma   120.92490200
_symmetry_Int_Tables_number   1
_chemical_formula_structural   Sc4CrCoOs6
_chemical_formula_sum   'Sc4 Cr1 Co1 Os6'
_cell_volume   194.14984251
_cell_formula_units_Z   1
loop_
 _symmetry_equiv_pos_site_id
 _symmetry_equiv_pos_as_xyz
  1  'x, y, z'
loop_
 _atom_site_type_symbol
 _atom_site_label
 _atom_site_symmetry_multiplicity
 _atom_site_fract_x
 _atom_site_fract_y
 _atom_site_fract_z
 _atom_site_occupancy
  Sc  Sc0  1  0.330201  0.663950  0.434593  1
  Sc  Sc1  1  0.666250  0.336372  0.563897  1
  Sc  Sc2  1  0.666250  0.336372  0.936103  1
  Sc  Sc3  1  0.330201  0.663950  0.065407  1
  Cr  Cr4  1  0.168036  0.336245  0.750000  1
  Co  Co5  1  0.343251  0.168786  0.250000  1
  Os  Os6  1  0.171946  0.819854  0.750000  1
  Os  Os7  1  0.829730  0.655956  0.250000  1
  Os  Os8  1  0.655059  0.825102  0.750000  1
  Os  Os9  1  0.004538  0.010665  0.000895  1
  Os  Os10  1  0.830000  0.172085  0.250000  1
  Os  Os11  1  0.004538  0.010665  0.499105  1
