# generated using pymatgen
data_Er2AsPdPt7
_symmetry_space_group_name_H-M   'P 1'
_cell_length_a   4.12734400
_cell_length_b   4.06632900
_cell_length_c   11.33395600
_cell_angle_alpha   90.00000000
_cell_angle_beta   90.00000000
_cell_angle_gamma   90.00000000
_symmetry_Int_Tables_number   1
_chemical_formula_structural   Er2AsPdPt7
_chemical_formula_sum   'Er2 As1 Pd1 Pt7'
_cell_volume   190.21935444
_cell_formula_units_Z   1
loop_
 _symmetry_equiv_pos_site_id
 _symmetry_equiv_pos_as_xyz
  1  'x, y, z'
loop_
 _atom_site_type_symbol
 _atom_site_label
 _atom_site_symmetry_multiplicity
 _atom_site_fract_x
 _atom_site_fract_y
 _atom_site_fract_z
 _atom_site_occupancy
  Er  Er0  1  0.500000  0.500000  0.819397  1
  Er  Er1  1  0.500000  0.500000  0.180935  1
  As  As2  1  0.000000  0.000000  0.500034  1
  Pd  Pd3  1  0.500000  0.000000  0.631395  1
  Pt  Pt4  1  0.500000  0.000000  0.000271  1
  Pt  Pt5  1  0.000000  0.500000  0.999947  1
  Pt  Pt6  1  0.000000  0.500000  0.636608  1
  Pt  Pt7  1  0.500000  0.000000  0.366391  1
  Pt  Pt8  1  0.000000  0.500000  0.364594  1
  Pt  Pt9  1  0.000000  0.000000  0.818377  1
  Pt  Pt10  1  0.000000  0.000000  0.182052  1
