# generated using pymatgen
data_Y9Th3Tc3Ru
_symmetry_space_group_name_H-M   'P 1'
_cell_length_a   6.42755317
_cell_length_b   7.35124476
_cell_length_c   9.48304900
_cell_angle_alpha   90.00000000
_cell_angle_beta   90.00000000
_cell_angle_gamma   89.49854601
_symmetry_Int_Tables_number   1
_chemical_formula_structural   Y9Th3Tc3Ru
_chemical_formula_sum   'Y9 Th3 Tc3 Ru1'
_cell_volume   448.06180289
_cell_formula_units_Z   1
loop_
 _symmetry_equiv_pos_site_id
 _symmetry_equiv_pos_as_xyz
  1  'x, y, z'
loop_
 _atom_site_type_symbol
 _atom_site_label
 _atom_site_symmetry_multiplicity
 _atom_site_fract_x
 _atom_site_fract_y
 _atom_site_fract_z
 _atom_site_occupancy
  Y  Y0  1  0.865778  0.544636  0.250000  1
  Y  Y1  1  0.169137  0.174387  0.067867  1
  Y  Y2  1  0.829112  0.824216  0.933674  1
  Y  Y3  1  0.669515  0.327282  0.934914  1
  Y  Y4  1  0.829112  0.824216  0.566326  1
  Y  Y5  1  0.329394  0.673856  0.068368  1
  Y  Y6  1  0.169137  0.174387  0.432133  1
  Y  Y7  1  0.329394  0.673856  0.431632  1
  Y  Y8  1  0.669515  0.327282  0.565086  1
  Th  Th9  1  0.645816  0.048507  0.250000  1
  Th  Th10  1  0.354224  0.948858  0.750000  1
  Th  Th11  1  0.140679  0.450643  0.750000  1
  Tc  Tc12  1  0.481069  0.366488  0.250000  1
  Tc  Tc13  1  0.510543  0.626062  0.750000  1
  Tc  Tc14  1  0.987238  0.128195  0.750000  1
  Ru  Ru15  1  0.020338  0.887127  0.250000  1
