# generated using pymatgen
data_Eu3RhO7
_symmetry_space_group_name_H-M   'P 1'
_cell_length_a   6.53470433
_cell_length_b   6.53470452
_cell_length_c   7.55635700
_cell_angle_alpha   90.00000000
_cell_angle_beta   90.00000000
_cell_angle_gamma   109.42847447
_symmetry_Int_Tables_number   1
_chemical_formula_structural   Eu3RhO7
_chemical_formula_sum   'Eu6 Rh2 O14'
_cell_volume   304.30039959
_cell_formula_units_Z   2
loop_
 _symmetry_equiv_pos_site_id
 _symmetry_equiv_pos_as_xyz
  1  'x, y, z'
loop_
 _atom_site_type_symbol
 _atom_site_label
 _atom_site_symmetry_multiplicity
 _atom_site_fract_x
 _atom_site_fract_y
 _atom_site_fract_z
 _atom_site_occupancy
  Eu  Eu0  1  0.002123  0.471374  0.749028  1
  Eu  Eu1  1  0.997877  0.528626  0.249028  1
  Eu  Eu2  1  0.528626  0.997877  0.750972  1
  Eu  Eu3  1  0.471374  0.002123  0.250972  1
  Eu  Eu4  1  0.501870  0.501870  0.500000  1
  Eu  Eu5  1  0.498130  0.498130  0.000000  1
  Rh  Rh6  1  0.998879  0.998879  0.500000  1
  Rh  Rh7  1  0.001121  0.001121  0.000000  1
  O  O8  1  0.634842  0.365158  0.750000  1
  O  O9  1  0.365158  0.634842  0.250000  1
  O  O10  1  0.933727  0.066273  0.750000  1
  O  O11  1  0.066273  0.933727  0.250000  1
  O  O12  1  0.924298  0.678165  0.525518  1
  O  O13  1  0.075702  0.321835  0.025518  1
  O  O14  1  0.321835  0.075702  0.974482  1
  O  O15  1  0.678165  0.924298  0.474482  1
  O  O16  1  0.369223  0.630777  0.750000  1
  O  O17  1  0.630777  0.369223  0.250000  1
  O  O18  1  0.928909  0.681851  0.972091  1
  O  O19  1  0.071091  0.318149  0.472091  1
  O  O20  1  0.318149  0.071091  0.527909  1
  O  O21  1  0.681851  0.928909  0.027909  1
