# generated using pymatgen
data_Nd8Hf5Sc7Sn16
_symmetry_space_group_name_H-M   'P 1'
_cell_length_a   7.88084416
_cell_length_b   7.93003688
_cell_length_c   14.89340700
_cell_angle_alpha   90.04431191
_cell_angle_beta   89.98830942
_cell_angle_gamma   90.11333574
_symmetry_Int_Tables_number   1
_chemical_formula_structural   Nd8Hf5Sc7Sn16
_chemical_formula_sum   'Nd8 Hf5 Sc7 Sn16'
_cell_volume   930.76708444
_cell_formula_units_Z   1
loop_
 _symmetry_equiv_pos_site_id
 _symmetry_equiv_pos_as_xyz
  1  'x, y, z'
loop_
 _atom_site_type_symbol
 _atom_site_label
 _atom_site_symmetry_multiplicity
 _atom_site_fract_x
 _atom_site_fract_y
 _atom_site_fract_z
 _atom_site_occupancy
  Nd  Nd0  1  0.513236  0.326386  0.905908  1
  Nd  Nd1  1  0.012753  0.174572  0.595024  1
  Nd  Nd2  1  0.486919  0.674298  0.405805  1
  Nd  Nd3  1  0.986906  0.826456  0.093875  1
  Nd  Nd4  1  0.487100  0.674265  0.093298  1
  Nd  Nd5  1  0.986552  0.825925  0.405585  1
  Nd  Nd6  1  0.512964  0.324830  0.595058  1
  Nd  Nd7  1  0.013614  0.172518  0.906157  1
  Hf  Hf8  1  0.348608  0.838386  0.870129  1
  Hf  Hf9  1  0.173997  0.508440  0.750679  1
  Hf  Hf10  1  0.670889  0.993223  0.750722  1
  Hf  Hf11  1  0.825905  0.493645  0.250063  1
  Hf  Hf12  1  0.325854  0.007002  0.249399  1
  Sc  Sc13  1  0.848781  0.659952  0.628483  1
  Sc  Sc14  1  0.651795  0.158887  0.372192  1
  Sc  Sc15  1  0.152277  0.339689  0.127096  1
  Sc  Sc16  1  0.653248  0.160127  0.127803  1
  Sc  Sc17  1  0.152517  0.340787  0.372215  1
  Sc  Sc18  1  0.348074  0.841847  0.627689  1
  Sc  Sc19  1  0.847230  0.659195  0.872963  1
  Sn  Sn20  1  0.317194  0.042853  0.043463  1
  Sn  Sn21  1  0.816769  0.455886  0.454656  1
  Sn  Sn22  1  0.684195  0.955609  0.546216  1
  Sn  Sn23  1  0.185657  0.545285  0.954006  1
  Sn  Sn24  1  0.680707  0.955661  0.953951  1
  Sn  Sn25  1  0.183193  0.544027  0.546273  1
  Sn  Sn26  1  0.315982  0.044832  0.454413  1
  Sn  Sn27  1  0.817190  0.456009  0.045825  1
  Sn  Sn28  1  0.540332  0.627219  0.749177  1
  Sn  Sn29  1  0.039076  0.871495  0.751341  1
  Sn  Sn30  1  0.460825  0.370903  0.249464  1
  Sn  Sn31  1  0.960610  0.129360  0.249990  1
  Sn  Sn32  1  0.317289  0.147817  0.750837  1
  Sn  Sn33  1  0.818879  0.352073  0.750910  1
  Sn  Sn34  1  0.681084  0.852516  0.249659  1
  Sn  Sn35  1  0.181800  0.648023  0.249677  1
