# generated using pymatgen
data_LiGa2AgTe4
_symmetry_space_group_name_H-M   'P 1'
_cell_length_a   7.58680256
_cell_length_b   7.58680304
_cell_length_c   7.58680280
_cell_angle_alpha   129.98755569
_cell_angle_beta   129.98756132
_cell_angle_gamma   73.42665389
_symmetry_Int_Tables_number   1
_chemical_formula_structural   LiGa2AgTe4
_chemical_formula_sum   'Li1 Ga2 Ag1 Te4'
_cell_volume   250.21460300
_cell_formula_units_Z   1
loop_
 _symmetry_equiv_pos_site_id
 _symmetry_equiv_pos_as_xyz
  1  'x, y, z'
loop_
 _atom_site_type_symbol
 _atom_site_label
 _atom_site_symmetry_multiplicity
 _atom_site_fract_x
 _atom_site_fract_y
 _atom_site_fract_z
 _atom_site_occupancy
  Li  Li0  1  0.250000  0.750000  0.500000  1
  Ga  Ga1  1  0.000000  0.000000  0.000000  1
  Ga  Ga2  1  0.750000  0.250000  0.500000  1
  Ag  Ag3  1  0.500000  0.500000  0.000000  1
  Te  Te4  1  0.638167  0.626394  0.519352  1
  Te  Te5  1  0.373606  0.892957  0.011773  1
  Te  Te6  1  0.881184  0.361833  0.988227  1
  Te  Te7  1  0.107043  0.118816  0.480648  1
