# generated using pymatgen
data_Nd10CuGeBi6
_symmetry_space_group_name_H-M   'P 1'
_cell_length_a   9.66942000
_cell_length_b   9.66945590
_cell_length_c   6.63799400
_cell_angle_alpha   89.99977930
_cell_angle_beta   90.00010512
_cell_angle_gamma   120.00011793
_symmetry_Int_Tables_number   1
_chemical_formula_structural   Nd10CuGeBi6
_chemical_formula_sum   'Nd10 Cu1 Ge1 Bi6'
_cell_volume   537.48881709
_cell_formula_units_Z   1
loop_
 _symmetry_equiv_pos_site_id
 _symmetry_equiv_pos_as_xyz
  1  'x, y, z'
loop_
 _atom_site_type_symbol
 _atom_site_label
 _atom_site_symmetry_multiplicity
 _atom_site_fract_x
 _atom_site_fract_y
 _atom_site_fract_z
 _atom_site_occupancy
  Nd  Nd0  1  0.666667  0.333333  0.000000  1
  Nd  Nd1  1  0.333333  0.666667  0.000000  1
  Nd  Nd2  1  0.333333  0.666667  0.500000  1
  Nd  Nd3  1  0.666667  0.333333  0.500000  1
  Nd  Nd4  1  0.747800  0.747800  0.751903  1
  Nd  Nd5  1  0.252200  0.000000  0.751903  1
  Nd  Nd6  1  0.000000  0.252200  0.751903  1
  Nd  Nd7  1  0.252200  0.252200  0.248097  1
  Nd  Nd8  1  0.747800  0.000000  0.248097  1
  Nd  Nd9  1  0.000000  0.747800  0.248097  1
  Cu  Cu10  1  0.000000  0.000000  0.500000  1
  Ge  Ge11  1  0.000000  0.000000  0.000000  1
  Bi  Bi12  1  0.386712  0.386712  0.749263  1
  Bi  Bi13  1  0.613288  0.000000  0.749263  1
  Bi  Bi14  1  0.000000  0.613288  0.749263  1
  Bi  Bi15  1  0.613288  0.613288  0.250737  1
  Bi  Bi16  1  0.386712  0.000000  0.250737  1
  Bi  Bi17  1  0.000000  0.386712  0.250737  1
