# generated using pymatgen
data_Sc6FeCo3(Si2Ge)2
_symmetry_space_group_name_H-M   'P 1'
_cell_length_a   5.36594470
_cell_length_b   5.36594492
_cell_length_c   12.93459276
_cell_angle_alpha   89.90918817
_cell_angle_beta   90.09081106
_cell_angle_gamma   136.75939638
_symmetry_Int_Tables_number   1
_chemical_formula_structural   Sc6FeCo3(Si2Ge)2
_chemical_formula_sum   'Sc6 Fe1 Co3 Si4 Ge2'
_cell_volume   255.13813676
_cell_formula_units_Z   1
loop_
 _symmetry_equiv_pos_site_id
 _symmetry_equiv_pos_as_xyz
  1  'x, y, z'
loop_
 _atom_site_type_symbol
 _atom_site_label
 _atom_site_symmetry_multiplicity
 _atom_site_fract_x
 _atom_site_fract_y
 _atom_site_fract_z
 _atom_site_occupancy
  Sc  Sc0  1  0.641033  0.358967  0.750054  1
  Sc  Sc1  1  0.919630  0.080370  0.611301  1
  Sc  Sc2  1  0.919627  0.080373  0.889019  1
  Sc  Sc3  1  0.079119  0.920881  0.111183  1
  Sc  Sc4  1  0.359229  0.640771  0.250044  1
  Sc  Sc5  1  0.080450  0.919550  0.388301  1
  Fe  Fe6  1  0.212643  0.787357  0.921309  1
  Co  Co7  1  0.787618  0.212382  0.079703  1
  Co  Co8  1  0.213489  0.786511  0.578552  1
  Co  Co9  1  0.787356  0.212644  0.420970  1
  Si  Si10  1  0.387254  0.612746  0.458437  1
  Si  Si11  1  0.385505  0.614495  0.041192  1
  Si  Si12  1  0.613171  0.386829  0.541188  1
  Si  Si13  1  0.615292  0.384708  0.958734  1
  Ge  Ge14  1  0.661782  0.338218  0.249861  1
  Ge  Ge15  1  0.336802  0.663198  0.750151  1
