# generated using pymatgen
data_Nd3DyMg2Ir3
_symmetry_space_group_name_H-M   'P 1'
_cell_length_a   7.57984300
_cell_length_b   7.57925335
_cell_length_c   4.19003600
_cell_angle_alpha   90.00000000
_cell_angle_beta   90.00000000
_cell_angle_gamma   120.00256922
_symmetry_Int_Tables_number   1
_chemical_formula_structural   Nd3DyMg2Ir3
_chemical_formula_sum   'Nd3 Dy1 Mg2 Ir3'
_cell_volume   208.46050057
_cell_formula_units_Z   1
loop_
 _symmetry_equiv_pos_site_id
 _symmetry_equiv_pos_as_xyz
  1  'x, y, z'
loop_
 _atom_site_type_symbol
 _atom_site_label
 _atom_site_symmetry_multiplicity
 _atom_site_fract_x
 _atom_site_fract_y
 _atom_site_fract_z
 _atom_site_occupancy
  Nd  Nd0  1  0.393195  0.000000  0.500000  1
  Nd  Nd1  1  0.017547  0.433554  0.500000  1
  Nd  Nd2  1  0.583993  0.566446  0.500000  1
  Dy  Dy3  1  0.753167  0.000000  0.000000  1
  Mg  Mg4  1  0.244204  0.245540  0.000000  1
  Mg  Mg5  1  0.998662  0.754460  0.000000  1
  Ir  Ir6  1  0.669566  0.330084  0.000000  1
  Ir  Ir7  1  0.339483  0.669916  0.000000  1
  Ir  Ir8  1  0.000183  0.000000  0.500000  1
