# generated using pymatgen
data_Cs2LaTb5(CBr6)2
_symmetry_space_group_name_H-M   'P 1'
_cell_length_a   8.91495260
_cell_length_b   8.95414942
_cell_length_c   9.57468569
_cell_angle_alpha   70.94129773
_cell_angle_beta   84.98433313
_cell_angle_gamma   89.20242846
_symmetry_Int_Tables_number   1
_chemical_formula_structural   Cs2LaTb5(CBr6)2
_chemical_formula_sum   'Cs2 La1 Tb5 C2 Br12'
_cell_volume   719.55815556
_cell_formula_units_Z   1
loop_
 _symmetry_equiv_pos_site_id
 _symmetry_equiv_pos_as_xyz
  1  'x, y, z'
loop_
 _atom_site_type_symbol
 _atom_site_label
 _atom_site_symmetry_multiplicity
 _atom_site_fract_x
 _atom_site_fract_y
 _atom_site_fract_z
 _atom_site_occupancy
  Cs  Cs0  1  0.467039  0.363380  0.330776  1
  Cs  Cs1  1  0.531743  0.636593  0.668612  1
  La  La2  1  0.913758  0.731976  0.005111  1
  Tb  Tb3  1  0.085878  0.256881  0.995385  1
  Tb  Tb4  1  0.744456  0.084094  0.000674  1
  Tb  Tb5  1  0.255601  0.914315  0.998948  1
  Tb  Tb6  1  0.974139  0.889876  0.322642  1
  Tb  Tb7  1  0.026682  0.115798  0.676716  1
  C  C8  1  0.007267  0.029411  0.920875  1
  C  C9  1  0.994680  0.976055  0.077942  1
  Br  Br10  1  0.075979  0.197013  0.325865  1
  Br  Br11  1  0.925366  0.810811  0.662823  1
  Br  Br12  1  0.220513  0.589783  0.000314  1
  Br  Br13  1  0.794659  0.399385  0.998631  1
  Br  Br14  1  0.401800  0.197480  0.001996  1
  Br  Br15  1  0.586770  0.805909  0.997974  1
  Br  Br16  1  0.668738  0.001882  0.321961  1
  Br  Br17  1  0.329881  0.000129  0.676039  1
  Br  Br18  1  0.277728  0.776675  0.320414  1
  Br  Br19  1  0.720700  0.222196  0.680472  1
  Br  Br20  1  0.849191  0.590964  0.339775  1
  Br  Br21  1  0.147429  0.409395  0.676055  1
