# generated using pymatgen
data_Pt2Rh6W
_symmetry_space_group_name_H-M   'P 1'
_cell_length_a   6.15594453
_cell_length_b   6.15594498
_cell_length_c   6.15594410
_cell_angle_alpha   95.91341707
_cell_angle_beta   95.50555315
_cell_angle_gamma   143.22878653
_symmetry_Int_Tables_number   1
_chemical_formula_structural   Pt2Rh6W
_chemical_formula_sum   'Pt2 Rh6 W1'
_cell_volume   132.51913915
_cell_formula_units_Z   1
loop_
 _symmetry_equiv_pos_site_id
 _symmetry_equiv_pos_as_xyz
  1  'x, y, z'
loop_
 _atom_site_type_symbol
 _atom_site_label
 _atom_site_symmetry_multiplicity
 _atom_site_fract_x
 _atom_site_fract_y
 _atom_site_fract_z
 _atom_site_occupancy
  Pt  Pt0  1  0.670133  0.000000  0.670133  1
  Pt  Pt1  1  0.329867  0.000000  0.329867  1
  Rh  Rh2  1  0.339342  0.338196  0.677537  1
  Rh  Rh3  1  0.660658  0.661804  0.322463  1
  Rh  Rh4  1  0.660658  0.338196  0.998855  1
  Rh  Rh5  1  0.339342  0.661804  0.001145  1
  Rh  Rh6  1  0.000000  0.326759  0.326759  1
  Rh  Rh7  1  0.000000  0.673241  0.673241  1
  W  W8  1  0.000000  0.000000  0.000000  1
