# generated using pymatgen
data_Sm7Ho9(TmPb4)4
_symmetry_space_group_name_H-M   'P 1'
_cell_length_a   8.19513388
_cell_length_b   8.30436973
_cell_length_c   15.63671800
_cell_angle_alpha   90.20787470
_cell_angle_beta   90.31247693
_cell_angle_gamma   89.80190267
_symmetry_Int_Tables_number   1
_chemical_formula_structural   Sm7Ho9(TmPb4)4
_chemical_formula_sum   'Sm7 Ho9 Tm4 Pb16'
_cell_volume   1064.13431913
_cell_formula_units_Z   1
loop_
 _symmetry_equiv_pos_site_id
 _symmetry_equiv_pos_as_xyz
  1  'x, y, z'
loop_
 _atom_site_type_symbol
 _atom_site_label
 _atom_site_symmetry_multiplicity
 _atom_site_fract_x
 _atom_site_fract_y
 _atom_site_fract_z
 _atom_site_occupancy
  Sm  Sm0  1  0.974073  0.821389  0.902118  1
  Sm  Sm1  1  0.525041  0.321858  0.096528  1
  Sm  Sm2  1  0.027809  0.178137  0.402520  1
  Sm  Sm3  1  0.527443  0.323455  0.403088  1
  Sm  Sm4  1  0.025383  0.178019  0.096786  1
  Sm  Sm5  1  0.475883  0.677689  0.903607  1
  Sm  Sm6  1  0.973001  0.821587  0.597697  1
  Ho  Ho7  1  0.632560  0.157466  0.622353  1
  Ho  Ho8  1  0.134703  0.342015  0.877041  1
  Ho  Ho9  1  0.366282  0.842221  0.122884  1
  Ho  Ho10  1  0.868597  0.657826  0.378070  1
  Ho  Ho11  1  0.369097  0.842145  0.378235  1
  Ho  Ho12  1  0.866172  0.658006  0.122634  1
  Ho  Ho13  1  0.633364  0.156968  0.876323  1
  Ho  Ho14  1  0.131348  0.342639  0.622124  1
  Ho  Ho15  1  0.468814  0.676202  0.598785  1
  Tm  Tm16  1  0.799582  0.495217  0.749385  1
  Tm  Tm17  1  0.300100  0.005149  0.749335  1
  Tm  Tm18  1  0.200276  0.505322  0.250570  1
  Tm  Tm19  1  0.700280  0.994581  0.250146  1
  Pb  Pb20  1  0.709776  0.961992  0.456567  1
  Pb  Pb21  1  0.206881  0.540372  0.043235  1
  Pb  Pb22  1  0.292766  0.039584  0.956645  1
  Pb  Pb23  1  0.786396  0.464585  0.544039  1
  Pb  Pb24  1  0.292030  0.037670  0.543614  1
  Pb  Pb25  1  0.793603  0.458356  0.956847  1
  Pb  Pb26  1  0.707314  0.959817  0.042809  1
  Pb  Pb27  1  0.210644  0.540916  0.458095  1
  Pb  Pb28  1  0.437969  0.374532  0.749414  1
  Pb  Pb29  1  0.938193  0.126596  0.749677  1
  Pb  Pb30  1  0.562418  0.626641  0.250322  1
  Pb  Pb31  1  0.062668  0.873154  0.250501  1
  Pb  Pb32  1  0.659475  0.843828  0.748498  1
  Pb  Pb33  1  0.163896  0.653689  0.749872  1
  Pb  Pb34  1  0.338308  0.153846  0.249841  1
  Pb  Pb35  1  0.837852  0.346532  0.249793  1
