# generated using pymatgen
data_Ac5GeSe4
_symmetry_space_group_name_H-M   'P 1'
_cell_length_a   7.81632908
_cell_length_b   7.81632897
_cell_length_c   7.81632939
_cell_angle_alpha   99.53450382
_cell_angle_beta   99.53448834
_cell_angle_gamma   131.96813499
_symmetry_Int_Tables_number   1
_chemical_formula_structural   Ac5GeSe4
_chemical_formula_sum   'Ac5 Ge1 Se4'
_cell_volume   324.32147796
_cell_formula_units_Z   1
loop_
 _symmetry_equiv_pos_site_id
 _symmetry_equiv_pos_as_xyz
  1  'x, y, z'
loop_
 _atom_site_type_symbol
 _atom_site_label
 _atom_site_symmetry_multiplicity
 _atom_site_fract_x
 _atom_site_fract_y
 _atom_site_fract_z
 _atom_site_occupancy
  Ac  Ac0  1  0.401579  0.793302  0.194882  1
  Ac  Ac1  1  0.000000  0.000000  0.000000  1
  Ac  Ac2  1  0.598421  0.206698  0.805118  1
  Ac  Ac3  1  0.206698  0.401579  0.608276  1
  Ac  Ac4  1  0.793302  0.598421  0.391724  1
  Ge  Ge5  1  0.500000  0.500000  0.000000  1
  Se  Se6  1  0.098437  0.698171  0.796607  1
  Se  Se7  1  0.698171  0.901563  0.599735  1
  Se  Se8  1  0.301829  0.098437  0.400265  1
  Se  Se9  1  0.901563  0.301829  0.203393  1
