# generated using pymatgen
data_Tb5Tm3(OsI4)2
_symmetry_space_group_name_H-M   'P 1'
_cell_length_a   11.26755237
_cell_length_b   11.27995755
_cell_length_c   6.18371903
_cell_angle_alpha   90.00423957
_cell_angle_beta   89.99241871
_cell_angle_gamma   90.00291488
_symmetry_Int_Tables_number   1
_chemical_formula_structural   Tb5Tm3(OsI4)2
_chemical_formula_sum   'Tb5 Tm3 Os2 I8'
_cell_volume   785.93529676
_cell_formula_units_Z   1
loop_
 _symmetry_equiv_pos_site_id
 _symmetry_equiv_pos_as_xyz
  1  'x, y, z'
loop_
 _atom_site_type_symbol
 _atom_site_label
 _atom_site_symmetry_multiplicity
 _atom_site_fract_x
 _atom_site_fract_y
 _atom_site_fract_z
 _atom_site_occupancy
  Tb  Tb0  1  0.200171  0.083320  0.500220  1
  Tb  Tb1  1  0.918384  0.799332  0.999907  1
  Tb  Tb2  1  0.917479  0.201001  0.499867  1
  Tb  Tb3  1  0.200322  0.917090  0.999808  1
  Tb  Tb4  1  0.799004  0.918805  0.499946  1
  Tm  Tm5  1  0.805999  0.079351  0.000458  1
  Tm  Tm6  1  0.079655  0.806276  0.500410  1
  Tm  Tm7  1  0.079953  0.193677  0.000337  1
  Os  Os8  1  0.999979  0.000048  0.249970  1
  Os  Os9  1  0.999891  0.000154  0.750258  1
  I  I10  1  0.642099  0.150408  0.497292  1
  I  I11  1  0.852897  0.643299  0.502544  1
  I  I12  1  0.354940  0.151419  0.997361  1
  I  I13  1  0.149856  0.357665  0.497056  1
  I  I14  1  0.643029  0.852947  0.002538  1
  I  I15  1  0.355042  0.848417  0.502380  1
  I  I16  1  0.150118  0.642591  0.997316  1
  I  I17  1  0.851181  0.354201  0.002331  1
