# generated using pymatgen
data_Nb2(MoW)7
_symmetry_space_group_name_H-M   'P 1'
_cell_length_a   6.39048200
_cell_length_b   6.38935737
_cell_length_c   6.38935737
_cell_angle_alpha   89.96109952
_cell_angle_beta   90.00000000
_cell_angle_gamma   90.00000000
_symmetry_Int_Tables_number   1
_chemical_formula_structural   Nb2(MoW)7
_chemical_formula_sum   'Nb2 Mo7 W7'
_cell_volume   260.88425861
_cell_formula_units_Z   1
loop_
 _symmetry_equiv_pos_site_id
 _symmetry_equiv_pos_as_xyz
  1  'x, y, z'
loop_
 _atom_site_type_symbol
 _atom_site_label
 _atom_site_symmetry_multiplicity
 _atom_site_fract_x
 _atom_site_fract_y
 _atom_site_fract_z
 _atom_site_occupancy
  Nb  Nb0  1  0.249671  0.750411  0.750411  1
  Nb  Nb1  1  0.750329  0.750411  0.750411  1
  Mo  Mo2  1  0.000000  0.002116  0.002116  1
  Mo  Mo3  1  0.500000  0.002147  0.002147  1
  Mo  Mo4  1  0.000000  0.497823  0.002145  1
  Mo  Mo5  1  0.500000  0.497985  0.001884  1
  Mo  Mo6  1  0.000000  0.002145  0.497823  1
  Mo  Mo7  1  0.500000  0.001884  0.497985  1
  Mo  Mo8  1  0.000000  0.497997  0.497997  1
  W  W9  1  0.249686  0.249711  0.249711  1
  W  W10  1  0.750314  0.249711  0.249711  1
  W  W11  1  0.249799  0.750196  0.249922  1
  W  W12  1  0.750201  0.750196  0.249922  1
  W  W13  1  0.500000  0.497421  0.497421  1
  W  W14  1  0.249799  0.249922  0.750196  1
  W  W15  1  0.750201  0.249922  0.750196  1
