# generated using pymatgen
data_Tb4HoIn4IrPd
_symmetry_space_group_name_H-M   'P 1'
_cell_length_a   3.64922600
_cell_length_b   8.15423447
_cell_length_c   18.31355683
_cell_angle_alpha   90.10799422
_cell_angle_beta   90.00000000
_cell_angle_gamma   90.00000000
_symmetry_Int_Tables_number   1
_chemical_formula_structural   Tb4HoIn4IrPd
_chemical_formula_sum   'Tb8 Ho2 In8 Ir2 Pd2'
_cell_volume   544.94903066
_cell_formula_units_Z   2
loop_
 _symmetry_equiv_pos_site_id
 _symmetry_equiv_pos_as_xyz
  1  'x, y, z'
loop_
 _atom_site_type_symbol
 _atom_site_label
 _atom_site_symmetry_multiplicity
 _atom_site_fract_x
 _atom_site_fract_y
 _atom_site_fract_z
 _atom_site_occupancy
  Tb  Tb0  1  0.000000  0.500000  0.500000  1
  Tb  Tb1  1  0.000000  0.000000  0.000000  1
  Tb  Tb2  1  0.000000  0.728075  0.279005  1
  Tb  Tb3  1  0.000000  0.271925  0.720995  1
  Tb  Tb4  1  0.000000  0.747007  0.779577  1
  Tb  Tb5  1  0.000000  0.252993  0.220423  1
  Tb  Tb6  1  0.000000  0.614519  0.087445  1
  Tb  Tb7  1  0.000000  0.385481  0.912555  1
  Ho  Ho8  1  0.000000  0.884041  0.585068  1
  Ho  Ho9  1  0.000000  0.115959  0.414932  1
  In  In10  1  0.500000  0.709279  0.931619  1
  In  In11  1  0.500000  0.290721  0.068381  1
  In  In12  1  0.500000  0.794188  0.433353  1
  In  In13  1  0.500000  0.205812  0.566647  1
  In  In14  1  0.500000  0.579041  0.648171  1
  In  In15  1  0.500000  0.420959  0.351829  1
  In  In16  1  0.500000  0.923988  0.151047  1
  In  In17  1  0.500000  0.076012  0.848953  1
  Ir  Ir18  1  0.500000  0.518861  0.196107  1
  Ir  Ir19  1  0.500000  0.481139  0.803893  1
  Pd  Pd20  1  0.500000  0.981042  0.695143  1
  Pd  Pd21  1  0.500000  0.018958  0.304857  1
