# generated using pymatgen
data_K10Ca2TaNbP8
_symmetry_space_group_name_H-M   'P 1'
_cell_length_a   10.14414884
_cell_length_b   10.14490595
_cell_length_c   7.61319008
_cell_angle_alpha   87.99186370
_cell_angle_beta   87.99569259
_cell_angle_gamma   120.35187268
_symmetry_Int_Tables_number   1
_chemical_formula_structural   K10Ca2TaNbP8
_chemical_formula_sum   'K10 Ca2 Ta1 Nb1 P8'
_cell_volume   674.42165919
_cell_formula_units_Z   1
loop_
 _symmetry_equiv_pos_site_id
 _symmetry_equiv_pos_as_xyz
  1  'x, y, z'
loop_
 _atom_site_type_symbol
 _atom_site_label
 _atom_site_symmetry_multiplicity
 _atom_site_fract_x
 _atom_site_fract_y
 _atom_site_fract_z
 _atom_site_occupancy
  K  K0  1  0.464888  0.527251  0.495336  1
  K  K1  1  0.060663  0.530213  0.500849  1
  K  K2  1  0.527259  0.464762  0.995438  1
  K  K3  1  0.530315  0.061014  0.001187  1
  K  K4  1  0.863325  0.142317  0.682189  1
  K  K5  1  0.291550  0.151847  0.724291  1
  K  K6  1  0.855526  0.716283  0.655147  1
  K  K7  1  0.142468  0.863282  0.181966  1
  K  K8  1  0.715961  0.855259  0.154891  1
  K  K9  1  0.152003  0.291644  0.224014  1
  Ca  Ca10  1  0.460979  0.932739  0.494474  1
  Ca  Ca11  1  0.932957  0.461075  0.994577  1
  Ta  Ta12  1  0.328636  0.671694  0.892777  1
  Nb  Nb13  1  0.671536  0.328711  0.393044  1
  P  P14  1  0.694681  0.345085  0.708025  1
  P  P15  1  0.344788  0.694220  0.206873  1
  P  P16  1  0.794664  0.195123  0.281271  1
  P  P17  1  0.403202  0.182154  0.327890  1
  P  P18  1  0.802640  0.584070  0.252568  1
  P  P19  1  0.195544  0.794665  0.781184  1
  P  P20  1  0.583496  0.802362  0.752790  1
  P  P21  1  0.182919  0.404224  0.827797  1
