# generated using pymatgen
data_CdBi2WO7
_symmetry_space_group_name_H-M   'P 1'
_cell_length_a   6.69141275
_cell_length_b   6.60125254
_cell_length_c   7.67810143
_cell_angle_alpha   106.81957173
_cell_angle_beta   89.71336967
_cell_angle_gamma   98.26728424
_symmetry_Int_Tables_number   1
_chemical_formula_structural   CdBi2WO7
_chemical_formula_sum   'Cd2 Bi4 W2 O14'
_cell_volume   321.03237488
_cell_formula_units_Z   2
loop_
 _symmetry_equiv_pos_site_id
 _symmetry_equiv_pos_as_xyz
  1  'x, y, z'
loop_
 _atom_site_type_symbol
 _atom_site_label
 _atom_site_symmetry_multiplicity
 _atom_site_fract_x
 _atom_site_fract_y
 _atom_site_fract_z
 _atom_site_occupancy
  Cd  Cd0  1  0.501206  0.005000  0.751351  1
  Cd  Cd1  1  0.498794  0.995000  0.248649  1
  Bi  Bi2  1  0.262770  0.534686  0.885700  1
  Bi  Bi3  1  0.737230  0.465314  0.114300  1
  Bi  Bi4  1  0.723444  0.461688  0.611171  1
  Bi  Bi5  1  0.276556  0.538312  0.388829  1
  W  W6  1  0.000000  0.000000  0.500000  1
  W  W7  1  0.000000  0.000000  0.000000  1
  O  O8  1  0.458011  0.640613  0.171757  1
  O  O9  1  0.541989  0.359387  0.828243  1
  O  O10  1  0.277457  0.943459  0.977558  1
  O  O11  1  0.722543  0.056541  0.022442  1
  O  O12  1  0.270954  0.911024  0.481473  1
  O  O13  1  0.729046  0.088976  0.518527  1
  O  O14  1  0.537030  0.347031  0.350180  1
  O  O15  1  0.462970  0.652969  0.649820  1
  O  O16  1  0.915966  0.693571  0.964419  1
  O  O17  1  0.084034  0.306429  0.035581  1
  O  O18  1  0.111868  0.296747  0.613213  1
  O  O19  1  0.888132  0.703253  0.386787  1
  O  O20  1  0.972243  0.944786  0.735897  1
  O  O21  1  0.027757  0.055214  0.264103  1
