# generated using pymatgen
data_Y5P12Pd(Ru8Pt)2
_symmetry_space_group_name_H-M   'P 1'
_cell_length_a   12.60980900
_cell_length_b   12.61293183
_cell_length_c   3.98758600
_cell_angle_alpha   90.00000000
_cell_angle_beta   90.00000000
_cell_angle_gamma   119.99180753
_symmetry_Int_Tables_number   1
_chemical_formula_structural   Y5P12Pd(Ru8Pt)2
_chemical_formula_sum   'Y5 P12 Pd1 Ru16 Pt2'
_cell_volume   549.28924704
_cell_formula_units_Z   1
loop_
 _symmetry_equiv_pos_site_id
 _symmetry_equiv_pos_as_xyz
  1  'x, y, z'
loop_
 _atom_site_type_symbol
 _atom_site_label
 _atom_site_symmetry_multiplicity
 _atom_site_fract_x
 _atom_site_fract_y
 _atom_site_fract_z
 _atom_site_occupancy
  Y  Y0  1  0.000373  0.182011  0.500000  1
  Y  Y1  1  0.818361  0.817989  0.500000  1
  Y  Y2  1  0.181967  0.000000  0.500000  1
  Y  Y3  1  0.666950  0.333476  0.000000  1
  Y  Y4  1  0.333474  0.666524  0.000000  1
  P  P5  1  0.000053  0.814974  0.000000  1
  P  P6  1  0.185079  0.185026  0.000000  1
  P  P7  1  0.813802  0.000000  0.000000  1
  P  P8  1  0.699339  0.179399  0.500000  1
  P  P9  1  0.819922  0.519896  0.500000  1
  P  P10  1  0.480516  0.300146  0.500000  1
  P  P11  1  0.180370  0.699854  0.500000  1
  P  P12  1  0.519940  0.820601  0.500000  1
  P  P13  1  0.300026  0.480104  0.500000  1
  P  P14  1  0.999886  0.366113  0.000000  1
  P  P15  1  0.633773  0.633887  0.000000  1
  P  P16  1  0.365758  0.000000  0.000000  1
  Pd  Pd17  1  0.552850  0.000000  0.000000  1
  Ru  Ru18  1  0.000115  0.710950  0.500000  1
  Ru  Ru19  1  0.289165  0.289050  0.500000  1
  Ru  Ru20  1  0.712100  0.000000  0.500000  1
  Ru  Ru21  1  0.807089  0.185880  0.000000  1
  Ru  Ru22  1  0.814860  0.621467  0.000000  1
  Ru  Ru23  1  0.378652  0.193775  0.000000  1
  Ru  Ru24  1  0.184878  0.806225  0.000000  1
  Ru  Ru25  1  0.621210  0.814120  0.000000  1
  Ru  Ru26  1  0.193393  0.378533  0.000000  1
  Ru  Ru27  1  0.875369  0.369410  0.500000  1
  Ru  Ru28  1  0.630536  0.505971  0.500000  1
  Ru  Ru29  1  0.492962  0.123978  0.500000  1
  Ru  Ru30  1  0.368984  0.876022  0.500000  1
  Ru  Ru31  1  0.505959  0.630590  0.500000  1
  Ru  Ru32  1  0.124565  0.494029  0.500000  1
  Ru  Ru33  1  0.999683  0.000000  0.000000  1
  Pt  Pt34  1  0.999914  0.551787  0.000000  1
  Pt  Pt35  1  0.448127  0.448213  0.000000  1
