# generated using pymatgen
data_Ce8Si12Os3Pd
_symmetry_space_group_name_H-M   'P 1'
_cell_length_a   8.24768609
_cell_length_b   8.24879584
_cell_length_c   8.19796300
_cell_angle_alpha   90.00390363
_cell_angle_beta   89.99164984
_cell_angle_gamma   120.02749102
_symmetry_Int_Tables_number   1
_chemical_formula_structural   Ce8Si12Os3Pd
_chemical_formula_sum   'Ce8 Si12 Os3 Pd1'
_cell_volume   482.87962930
_cell_formula_units_Z   1
loop_
 _symmetry_equiv_pos_site_id
 _symmetry_equiv_pos_as_xyz
  1  'x, y, z'
loop_
 _atom_site_type_symbol
 _atom_site_label
 _atom_site_symmetry_multiplicity
 _atom_site_fract_x
 _atom_site_fract_y
 _atom_site_fract_z
 _atom_site_occupancy
  Ce  Ce0  1  0.999984  0.000008  0.249174  1
  Ce  Ce1  1  0.999983  0.999995  0.749939  1
  Ce  Ce2  1  0.504072  0.495937  0.255082  1
  Ce  Ce3  1  0.504041  0.008069  0.255019  1
  Ce  Ce4  1  0.991890  0.495945  0.255045  1
  Ce  Ce5  1  0.502122  0.497881  0.745405  1
  Ce  Ce6  1  0.502108  0.004256  0.745340  1
  Ce  Ce7  1  0.995832  0.497946  0.745401  1
  Si  Si8  1  0.165627  0.834141  0.498646  1
  Si  Si9  1  0.165725  0.331576  0.498712  1
  Si  Si10  1  0.668549  0.834234  0.498605  1
  Si  Si11  1  0.835353  0.164876  0.500661  1
  Si  Si12  1  0.835276  0.670424  0.500735  1
  Si  Si13  1  0.329453  0.164773  0.500611  1
  Si  Si14  1  0.834127  0.166047  0.002663  1
  Si  Si15  1  0.834044  0.667994  0.002593  1
  Si  Si16  1  0.331874  0.165962  0.002725  1
  Si  Si17  1  0.163884  0.835853  0.997889  1
  Si  Si18  1  0.163969  0.328070  0.997831  1
  Si  Si19  1  0.671994  0.835936  0.997956  1
  Os  Os20  1  0.333128  0.666633  0.500256  1
  Os  Os21  1  0.666884  0.333403  0.502472  1
  Os  Os22  1  0.666867  0.333390  0.990227  1
  Pd  Pd23  1  0.333215  0.666651  0.007011  1
