# generated using pymatgen
data_Sm3Ag(Rh2O7)2
_symmetry_space_group_name_H-M   'P 1'
_cell_length_a   7.38599895
_cell_length_b   7.18294019
_cell_length_c   7.38599800
_cell_angle_alpha   59.06036347
_cell_angle_beta   60.00000427
_cell_angle_gamma   59.06036467
_symmetry_Int_Tables_number   1
_chemical_formula_structural   Sm3Ag(Rh2O7)2
_chemical_formula_sum   'Sm3 Ag1 Rh4 O14'
_cell_volume   273.07963501
_cell_formula_units_Z   1
loop_
 _symmetry_equiv_pos_site_id
 _symmetry_equiv_pos_as_xyz
  1  'x, y, z'
loop_
 _atom_site_type_symbol
 _atom_site_label
 _atom_site_symmetry_multiplicity
 _atom_site_fract_x
 _atom_site_fract_y
 _atom_site_fract_z
 _atom_site_occupancy
  Sm  Sm0  1  0.125000  0.125000  0.125000  1
  Sm  Sm1  1  0.625000  0.125000  0.125000  1
  Sm  Sm2  1  0.125000  0.125000  0.625000  1
  Ag  Ag3  1  0.125000  0.625000  0.125000  1
  Rh  Rh4  1  0.625000  0.625000  0.625000  1
  Rh  Rh5  1  0.625000  0.625000  0.125000  1
  Rh  Rh6  1  0.125000  0.625000  0.625000  1
  Rh  Rh7  1  0.625000  0.125000  0.625000  1
  O  O8  1  0.244722  0.265834  0.244722  1
  O  O9  1  0.299949  0.703710  0.299949  1
  O  O10  1  0.958239  0.964297  0.538732  1
  O  O11  1  0.538732  0.964297  0.538732  1
  O  O12  1  0.696393  0.703710  0.299949  1
  O  O13  1  0.950051  0.546290  0.553607  1
  O  O14  1  0.711268  0.285703  0.711268  1
  O  O15  1  0.291761  0.285703  0.711268  1
  O  O16  1  0.711268  0.285703  0.291761  1
  O  O17  1  0.299949  0.703710  0.696393  1
  O  O18  1  0.950051  0.546290  0.950051  1
  O  O19  1  0.553607  0.546290  0.950051  1
  O  O20  1  0.005278  0.984166  0.005278  1
  O  O21  1  0.538732  0.964297  0.958239  1
