# generated using pymatgen
data_Na(AlAu2)2
_symmetry_space_group_name_H-M   'P 1'
_cell_length_a   7.51853300
_cell_length_b   8.28265008
_cell_length_c   9.27825672
_cell_angle_alpha   64.58485790
_cell_angle_beta   90.00000000
_cell_angle_gamma   90.00000000
_symmetry_Int_Tables_number   1
_chemical_formula_structural   Na(AlAu2)2
_chemical_formula_sum   'Na4 Al8 Au16'
_cell_volume   521.87112643
_cell_formula_units_Z   4
loop_
 _symmetry_equiv_pos_site_id
 _symmetry_equiv_pos_as_xyz
  1  'x, y, z'
loop_
 _atom_site_type_symbol
 _atom_site_label
 _atom_site_symmetry_multiplicity
 _atom_site_fract_x
 _atom_site_fract_y
 _atom_site_fract_z
 _atom_site_occupancy
  Na  Na0  1  0.044296  0.211417  0.324557  1
  Na  Na1  1  0.544296  0.788583  0.175443  1
  Na  Na2  1  0.955704  0.788583  0.675443  1
  Na  Na3  1  0.455704  0.211417  0.824557  1
  Al  Al4  1  0.172186  0.516077  0.581041  1
  Al  Al5  1  0.672186  0.483923  0.918959  1
  Al  Al6  1  0.827814  0.483923  0.418959  1
  Al  Al7  1  0.327814  0.516077  0.081041  1
  Al  Al8  1  0.870873  0.999941  0.882113  1
  Al  Al9  1  0.370873  0.000059  0.617887  1
  Al  Al10  1  0.129127  0.000059  0.117887  1
  Al  Al11  1  0.629127  0.999941  0.382113  1
  Au  Au12  1  0.103223  0.173928  0.656277  1
  Au  Au13  1  0.603223  0.826072  0.843723  1
  Au  Au14  1  0.896777  0.826072  0.343723  1
  Au  Au15  1  0.396777  0.173928  0.156277  1
  Au  Au16  1  0.214552  0.858045  0.923461  1
  Au  Au17  1  0.714552  0.141955  0.576539  1
  Au  Au18  1  0.785448  0.141955  0.076539  1
  Au  Au19  1  0.285448  0.858045  0.423461  1
  Au  Au20  1  0.392442  0.360438  0.456515  1
  Au  Au21  1  0.892442  0.639562  0.043485  1
  Au  Au22  1  0.607558  0.639562  0.543485  1
  Au  Au23  1  0.107558  0.360438  0.956515  1
  Au  Au24  1  0.845825  0.375206  0.734054  1
  Au  Au25  1  0.345825  0.624794  0.765946  1
  Au  Au26  1  0.154175  0.624794  0.265946  1
  Au  Au27  1  0.654175  0.375206  0.234054  1
