# generated using pymatgen
data_ErFe2P3RuRh2
_symmetry_space_group_name_H-M   'P 1'
_cell_length_a   3.79750900
_cell_length_b   10.50239800
_cell_length_c   12.23828900
_cell_angle_alpha   90.00000000
_cell_angle_beta   90.00000000
_cell_angle_gamma   90.00000000
_symmetry_Int_Tables_number   1
_chemical_formula_structural   ErFe2P3RuRh2
_chemical_formula_sum   'Er4 Fe8 P12 Ru4 Rh8'
_cell_volume   488.09907961
_cell_formula_units_Z   4
loop_
 _symmetry_equiv_pos_site_id
 _symmetry_equiv_pos_as_xyz
  1  'x, y, z'
loop_
 _atom_site_type_symbol
 _atom_site_label
 _atom_site_symmetry_multiplicity
 _atom_site_fract_x
 _atom_site_fract_y
 _atom_site_fract_z
 _atom_site_occupancy
  Er  Er0  1  0.250000  0.578655  0.710074  1
  Er  Er1  1  0.250000  0.921345  0.210074  1
  Er  Er2  1  0.750000  0.421345  0.289926  1
  Er  Er3  1  0.750000  0.078655  0.789926  1
  Fe  Fe4  1  0.250000  0.877752  0.697856  1
  Fe  Fe5  1  0.250000  0.622248  0.197856  1
  Fe  Fe6  1  0.750000  0.122248  0.302144  1
  Fe  Fe7  1  0.750000  0.377752  0.802144  1
  Fe  Fe8  1  0.250000  0.461090  0.935981  1
  Fe  Fe9  1  0.250000  0.038910  0.435981  1
  Fe  Fe10  1  0.750000  0.538910  0.064019  1
  Fe  Fe11  1  0.750000  0.961090  0.564019  1
  P  P12  1  0.250000  0.438071  0.112370  1
  P  P13  1  0.250000  0.061929  0.612370  1
  P  P14  1  0.750000  0.561929  0.887630  1
  P  P15  1  0.750000  0.938071  0.387630  1
  P  P16  1  0.250000  0.272649  0.865276  1
  P  P17  1  0.250000  0.227351  0.365276  1
  P  P18  1  0.750000  0.727351  0.134724  1
  P  P19  1  0.750000  0.772649  0.634724  1
  P  P20  1  0.250000  0.602587  0.382360  1
  P  P21  1  0.250000  0.897413  0.882360  1
  P  P22  1  0.750000  0.397413  0.617640  1
  P  P23  1  0.750000  0.102587  0.117640  1
  Ru  Ru24  1  0.250000  0.708279  0.988394  1
  Ru  Ru25  1  0.250000  0.791721  0.488394  1
  Ru  Ru26  1  0.750000  0.291721  0.011606  1
  Ru  Ru27  1  0.750000  0.208279  0.511606  1
  Rh  Rh28  1  0.250000  0.406252  0.480189  1
  Rh  Rh29  1  0.250000  0.093749  0.980189  1
  Rh  Rh30  1  0.750000  0.593748  0.519811  1
  Rh  Rh31  1  0.750000  0.906252  0.019811  1
  Rh  Rh32  1  0.250000  0.231293  0.175653  1
  Rh  Rh33  1  0.250000  0.268707  0.675653  1
  Rh  Rh34  1  0.750000  0.768707  0.824347  1
  Rh  Rh35  1  0.750000  0.731293  0.324347  1
