# generated using pymatgen
data_Pr6Dy2Zr11Si16Ag
_symmetry_space_group_name_H-M   'P 1'
_cell_length_a   7.15824573
_cell_length_b   7.51812716
_cell_length_c   14.23111300
_cell_angle_alpha   89.97417237
_cell_angle_beta   90.09446520
_cell_angle_gamma   90.17585950
_symmetry_Int_Tables_number   1
_chemical_formula_structural   Pr6Dy2Zr11Si16Ag
_chemical_formula_sum   'Pr6 Dy2 Zr11 Si16 Ag1'
_cell_volume   765.86541459
_cell_formula_units_Z   1
loop_
 _symmetry_equiv_pos_site_id
 _symmetry_equiv_pos_as_xyz
  1  'x, y, z'
loop_
 _atom_site_type_symbol
 _atom_site_label
 _atom_site_symmetry_multiplicity
 _atom_site_fract_x
 _atom_site_fract_y
 _atom_site_fract_z
 _atom_site_occupancy
  Pr  Pr0  1  0.489623  0.677667  0.900245  1
  Pr  Pr1  1  0.488363  0.678467  0.597481  1
  Pr  Pr2  1  0.977932  0.826224  0.598852  1
  Pr  Pr3  1  0.979622  0.826111  0.898932  1
  Pr  Pr4  1  0.511241  0.327910  0.100287  1
  Pr  Pr5  1  0.013356  0.173967  0.098140  1
  Dy  Dy6  1  0.013138  0.176282  0.401948  1
  Dy  Dy7  1  0.512439  0.325714  0.399273  1
  Zr  Zr8  1  0.337000  0.177353  0.623006  1
  Zr  Zr9  1  0.672264  0.819364  0.375970  1
  Zr  Zr10  1  0.171135  0.679427  0.377333  1
  Zr  Zr11  1  0.827447  0.314938  0.875016  1
  Zr  Zr12  1  0.826659  0.313889  0.623055  1
  Zr  Zr13  1  0.841732  0.505482  0.251530  1
  Zr  Zr14  1  0.341486  0.993471  0.251801  1
  Zr  Zr15  1  0.337967  0.176862  0.874940  1
  Zr  Zr16  1  0.170228  0.678292  0.126434  1
  Zr  Zr17  1  0.671299  0.821299  0.127474  1
  Zr  Zr18  1  0.159441  0.494046  0.748761  1
  Si  Si19  1  0.276752  0.886287  0.748836  1
  Si  Si20  1  0.464739  0.622480  0.252522  1
  Si  Si21  1  0.042152  0.128137  0.749168  1
  Si  Si22  1  0.533999  0.385351  0.748943  1
  Si  Si23  1  0.153303  0.461129  0.540211  1
  Si  Si24  1  0.966812  0.877836  0.252421  1
  Si  Si25  1  0.716601  0.119893  0.253588  1
  Si  Si26  1  0.847041  0.535764  0.040749  1
  Si  Si27  1  0.346253  0.963370  0.041356  1
  Si  Si28  1  0.154171  0.464483  0.957646  1
  Si  Si29  1  0.655664  0.045408  0.526570  1
  Si  Si30  1  0.342880  0.972408  0.456748  1
  Si  Si31  1  0.844130  0.527118  0.457763  1
  Si  Si32  1  0.790073  0.597764  0.748917  1
  Si  Si33  1  0.215158  0.381310  0.253998  1
  Si  Si34  1  0.655597  0.040556  0.970467  1
  Ag  Ag35  1  0.652299  0.003942  0.749617  1
