# generated using pymatgen
data_Tb3AlCd2Pd3
_symmetry_space_group_name_H-M   'P 1'
_cell_length_a   7.62540050
_cell_length_b   7.60454871
_cell_length_c   3.86799400
_cell_angle_alpha   90.00000000
_cell_angle_beta   90.00000000
_cell_angle_gamma   119.90958441
_symmetry_Int_Tables_number   1
_chemical_formula_structural   Tb3AlCd2Pd3
_chemical_formula_sum   'Tb3 Al1 Cd2 Pd3'
_cell_volume   194.42293178
_cell_formula_units_Z   1
loop_
 _symmetry_equiv_pos_site_id
 _symmetry_equiv_pos_as_xyz
  1  'x, y, z'
loop_
 _atom_site_type_symbol
 _atom_site_label
 _atom_site_symmetry_multiplicity
 _atom_site_fract_x
 _atom_site_fract_y
 _atom_site_fract_z
 _atom_site_occupancy
  Tb  Tb0  1  0.000000  0.580586  0.500000  1
  Tb  Tb1  1  0.403080  0.405648  0.500000  1
  Tb  Tb2  1  0.596920  0.002568  0.500000  1
  Al  Al3  1  0.000000  0.257370  0.000000  1
  Cd  Cd4  1  0.751076  0.744508  0.000000  1
  Cd  Cd5  1  0.248924  0.993432  0.000000  1
  Pd  Pd6  1  0.322675  0.648797  0.000000  1
  Pd  Pd7  1  0.677325  0.326121  0.000000  1
  Pd  Pd8  1  0.000000  0.040970  0.500000  1
