# generated using pymatgen
data_Dy16InHg3IrRh3
_symmetry_space_group_name_H-M   'P 1'
_cell_length_a   9.61868594
_cell_length_b   9.61868635
_cell_length_c   9.61868600
_cell_angle_alpha   59.94465540
_cell_angle_beta   59.94465168
_cell_angle_gamma   59.94465795
_symmetry_Int_Tables_number   1
_chemical_formula_structural   Dy16InHg3IrRh3
_chemical_formula_sum   'Dy16 In1 Hg3 Ir1 Rh3'
_cell_volume   628.47320900
_cell_formula_units_Z   1
loop_
 _symmetry_equiv_pos_site_id
 _symmetry_equiv_pos_as_xyz
  1  'x, y, z'
loop_
 _atom_site_type_symbol
 _atom_site_label
 _atom_site_symmetry_multiplicity
 _atom_site_fract_x
 _atom_site_fract_y
 _atom_site_fract_z
 _atom_site_occupancy
  Dy  Dy0  1  0.690097  0.310506  0.310506  1
  Dy  Dy1  1  0.690247  0.690247  0.310938  1
  Dy  Dy2  1  0.310506  0.690097  0.310506  1
  Dy  Dy3  1  0.936129  0.936129  0.560913  1
  Dy  Dy4  1  0.148326  0.148326  0.552202  1
  Dy  Dy5  1  0.561702  0.938691  0.561702  1
  Dy  Dy6  1  0.149810  0.149810  0.149810  1
  Dy  Dy7  1  0.310506  0.310506  0.690097  1
  Dy  Dy8  1  0.938691  0.561702  0.561702  1
  Dy  Dy9  1  0.561702  0.561702  0.938691  1
  Dy  Dy10  1  0.560913  0.936129  0.936129  1
  Dy  Dy11  1  0.936129  0.560913  0.936129  1
  Dy  Dy12  1  0.148326  0.552202  0.148326  1
  Dy  Dy13  1  0.310938  0.690247  0.690247  1
  Dy  Dy14  1  0.690247  0.310938  0.690247  1
  Dy  Dy15  1  0.552202  0.148326  0.148326  1
  In  In16  1  0.919729  0.919729  0.919729  1
  Hg  Hg17  1  0.914887  0.914887  0.256275  1
  Hg  Hg18  1  0.256275  0.914887  0.914887  1
  Hg  Hg19  1  0.914887  0.256275  0.914887  1
  Ir  Ir20  1  0.357271  0.357271  0.357271  1
  Rh  Rh21  1  0.926890  0.356793  0.356793  1
  Rh  Rh22  1  0.356793  0.356793  0.926890  1
  Rh  Rh23  1  0.356793  0.926890  0.356793  1
