# generated using pymatgen
data_DyTh2In5
_symmetry_space_group_name_H-M   'P 1'
_cell_length_a   6.58977807
_cell_length_b   6.58977823
_cell_length_c   10.33220700
_cell_angle_alpha   90.00000000
_cell_angle_beta   90.00000000
_cell_angle_gamma   102.27508795
_symmetry_Int_Tables_number   1
_chemical_formula_structural   DyTh2In5
_chemical_formula_sum   'Dy2 Th4 In10'
_cell_volume   438.42028195
_cell_formula_units_Z   2
loop_
 _symmetry_equiv_pos_site_id
 _symmetry_equiv_pos_as_xyz
  1  'x, y, z'
loop_
 _atom_site_type_symbol
 _atom_site_label
 _atom_site_symmetry_multiplicity
 _atom_site_fract_x
 _atom_site_fract_y
 _atom_site_fract_z
 _atom_site_occupancy
  Dy  Dy0  1  0.131288  0.131288  0.750000  1
  Dy  Dy1  1  0.868712  0.868712  0.250000  1
  Th  Th2  1  0.706099  0.293901  0.000000  1
  Th  Th3  1  0.706099  0.293901  0.500000  1
  Th  Th4  1  0.293901  0.706099  0.000000  1
  Th  Th5  1  0.293901  0.706099  0.500000  1
  In  In6  1  0.510501  0.510501  0.750000  1
  In  In7  1  0.489499  0.489499  0.250000  1
  In  In8  1  0.810646  0.810646  0.546411  1
  In  In9  1  0.189354  0.189354  0.453589  1
  In  In10  1  0.810646  0.810646  0.953589  1
  In  In11  1  0.189354  0.189354  0.046411  1
  In  In12  1  0.993082  0.568167  0.750000  1
  In  In13  1  0.431833  0.006918  0.250000  1
  In  In14  1  0.006918  0.431833  0.250000  1
  In  In15  1  0.568167  0.993082  0.750000  1
