# generated using pymatgen
data_Lu8Ti7Ge16Mo5
_symmetry_space_group_name_H-M   'P 1'
_cell_length_a   6.86579531
_cell_length_b   7.02761854
_cell_length_c   13.27910042
_cell_angle_alpha   89.96330609
_cell_angle_beta   89.94532571
_cell_angle_gamma   90.00962048
_symmetry_Int_Tables_number   1
_chemical_formula_structural   Lu8Ti7Ge16Mo5
_chemical_formula_sum   'Lu8 Ti7 Ge16 Mo5'
_cell_volume   640.71869202
_cell_formula_units_Z   1
loop_
 _symmetry_equiv_pos_site_id
 _symmetry_equiv_pos_as_xyz
  1  'x, y, z'
loop_
 _atom_site_type_symbol
 _atom_site_label
 _atom_site_symmetry_multiplicity
 _atom_site_fract_x
 _atom_site_fract_y
 _atom_site_fract_z
 _atom_site_occupancy
  Lu  Lu0  1  0.003631  0.172550  0.404476  1
  Lu  Lu1  1  0.504081  0.325209  0.095478  1
  Lu  Lu2  1  0.496660  0.672724  0.595908  1
  Lu  Lu3  1  0.995551  0.826773  0.904025  1
  Lu  Lu4  1  0.996145  0.826672  0.596357  1
  Lu  Lu5  1  0.495835  0.673922  0.906140  1
  Lu  Lu6  1  0.502938  0.327843  0.403352  1
  Lu  Lu7  1  0.006042  0.170259  0.095386  1
  Ti  Ti8  1  0.836976  0.669543  0.371995  1
  Ti  Ti9  1  0.662814  0.167845  0.626888  1
  Ti  Ti10  1  0.162596  0.331408  0.874320  1
  Ti  Ti11  1  0.162943  0.331858  0.626695  1
  Ti  Ti12  1  0.662392  0.167578  0.873511  1
  Ti  Ti13  1  0.840929  0.669407  0.126563  1
  Ti  Ti14  1  0.335233  0.831209  0.372492  1
  Ge  Ge15  1  0.327028  0.041785  0.543182  1
  Ge  Ge16  1  0.826457  0.458831  0.957037  1
  Ge  Ge17  1  0.671036  0.958896  0.043505  1
  Ge  Ge18  1  0.172780  0.542392  0.456740  1
  Ge  Ge19  1  0.174587  0.540828  0.042926  1
  Ge  Ge20  1  0.671432  0.958640  0.456559  1
  Ge  Ge21  1  0.827937  0.457990  0.543800  1
  Ge  Ge22  1  0.325182  0.042939  0.957392  1
  Ge  Ge23  1  0.807025  0.362896  0.249093  1
  Ge  Ge24  1  0.308232  0.137133  0.250509  1
  Ge  Ge25  1  0.693365  0.862449  0.750101  1
  Ge  Ge26  1  0.194619  0.637345  0.750457  1
  Ge  Ge27  1  0.036943  0.875526  0.250706  1
  Ge  Ge28  1  0.536011  0.626712  0.249135  1
  Ge  Ge29  1  0.463206  0.373734  0.750321  1
  Ge  Ge30  1  0.963538  0.126123  0.750181  1
  Mo  Mo31  1  0.334965  0.832828  0.126205  1
  Mo  Mo32  1  0.333231  0.007910  0.750223  1
  Mo  Mo33  1  0.667279  0.989262  0.249141  1
  Mo  Mo34  1  0.165917  0.511058  0.248947  1
  Mo  Mo35  1  0.834460  0.489922  0.750255  1
