# generated using pymatgen
data_Tb2Tm2ReOsC4
_symmetry_space_group_name_H-M   'P 1'
_cell_length_a   5.09256000
_cell_length_b   6.54039400
_cell_length_c   9.74788300
_cell_angle_alpha   90.00000000
_cell_angle_beta   90.00000000
_cell_angle_gamma   90.00000000
_symmetry_Int_Tables_number   1
_chemical_formula_structural   Tb2Tm2ReOsC4
_chemical_formula_sum   'Tb4 Tm4 Re2 Os2 C8'
_cell_volume   324.67613981
_cell_formula_units_Z   2
loop_
 _symmetry_equiv_pos_site_id
 _symmetry_equiv_pos_as_xyz
  1  'x, y, z'
loop_
 _atom_site_type_symbol
 _atom_site_label
 _atom_site_symmetry_multiplicity
 _atom_site_fract_x
 _atom_site_fract_y
 _atom_site_fract_z
 _atom_site_occupancy
  Tb  Tb0  1  0.750000  0.466881  0.787743  1
  Tb  Tb1  1  0.250000  0.033119  0.287743  1
  Tb  Tb2  1  0.750000  0.968989  0.711301  1
  Tb  Tb3  1  0.250000  0.531011  0.211301  1
  Tm  Tm4  1  0.750000  0.826262  0.055783  1
  Tm  Tm5  1  0.250000  0.673738  0.555783  1
  Tm  Tm6  1  0.750000  0.323907  0.443226  1
  Tm  Tm7  1  0.250000  0.176093  0.943226  1
  Re  Re8  1  0.750000  0.776394  0.365422  1
  Re  Re9  1  0.250000  0.723606  0.865422  1
  Os  Os10  1  0.750000  0.276116  0.134175  1
  Os  Os11  1  0.250000  0.223884  0.634175  1
  C  C12  1  0.750000  0.170823  0.949396  1
  C  C13  1  0.250000  0.828493  0.051694  1
  C  C14  1  0.750000  0.671507  0.551694  1
  C  C15  1  0.250000  0.329177  0.449396  1
  C  C16  1  0.750000  0.044503  0.261123  1
  C  C17  1  0.250000  0.455497  0.761123  1
  C  C18  1  0.750000  0.543799  0.240137  1
  C  C19  1  0.250000  0.956201  0.740137  1
