# generated using pymatgen
data_LuTcI18
_symmetry_space_group_name_H-M   'P 1'
_cell_length_a   10.22717269
_cell_length_b   10.22717466
_cell_length_c   10.22717443
_cell_angle_alpha   94.25509546
_cell_angle_beta   94.25508528
_cell_angle_gamma   94.25510797
_symmetry_Int_Tables_number   1
_chemical_formula_structural   LuTcI18
_chemical_formula_sum   'Lu1 Tc1 I18'
_cell_volume   1060.40116572
_cell_formula_units_Z   1
loop_
 _symmetry_equiv_pos_site_id
 _symmetry_equiv_pos_as_xyz
  1  'x, y, z'
loop_
 _atom_site_type_symbol
 _atom_site_label
 _atom_site_symmetry_multiplicity
 _atom_site_fract_x
 _atom_site_fract_y
 _atom_site_fract_z
 _atom_site_occupancy
  Lu  Lu0  1  0.000000  0.000000  0.000000  1
  Tc  Tc1  1  0.500000  0.500000  0.500000  1
  I  I2  1  0.709606  0.970342  0.023271  1
  I  I3  1  0.727515  0.135329  0.600161  1
  I  I4  1  0.023271  0.709606  0.970342  1
  I  I5  1  0.272485  0.864671  0.399839  1
  I  I6  1  0.135329  0.600161  0.727515  1
  I  I7  1  0.029658  0.976729  0.290394  1
  I  I8  1  0.600161  0.727515  0.135329  1
  I  I9  1  0.976729  0.290394  0.029658  1
  I  I10  1  0.864671  0.399839  0.272485  1
  I  I11  1  0.399839  0.272485  0.864671  1
  I  I12  1  0.970342  0.023271  0.709606  1
  I  I13  1  0.290394  0.029658  0.976729  1
  I  I14  1  0.767214  0.530637  0.505157  1
  I  I15  1  0.494843  0.232786  0.469363  1
  I  I16  1  0.469363  0.494843  0.232786  1
  I  I17  1  0.505157  0.767214  0.530637  1
  I  I18  1  0.530637  0.505157  0.767214  1
  I  I19  1  0.232786  0.469363  0.494843  1
