# generated using pymatgen
data_Mg7Zr(FeB6)4
_symmetry_space_group_name_H-M   'P 1'
_cell_length_a   8.78079748
_cell_length_b   11.00693684
_cell_length_c   3.29326800
_cell_angle_alpha   90.00000000
_cell_angle_beta   90.00000000
_cell_angle_gamma   89.93360247
_symmetry_Int_Tables_number   1
_chemical_formula_structural   Mg7Zr(FeB6)4
_chemical_formula_sum   'Mg7 Zr1 Fe4 B24'
_cell_volume   318.29309540
_cell_formula_units_Z   1
loop_
 _symmetry_equiv_pos_site_id
 _symmetry_equiv_pos_as_xyz
  1  'x, y, z'
loop_
 _atom_site_type_symbol
 _atom_site_label
 _atom_site_symmetry_multiplicity
 _atom_site_fract_x
 _atom_site_fract_y
 _atom_site_fract_z
 _atom_site_occupancy
  Mg  Mg0  1  0.442796  0.131707  0.000000  1
  Mg  Mg1  1  0.943340  0.370231  0.000000  1
  Mg  Mg2  1  0.328388  0.415501  0.000000  1
  Mg  Mg3  1  0.671039  0.585830  0.000000  1
  Mg  Mg4  1  0.058052  0.632252  0.000000  1
  Mg  Mg5  1  0.556694  0.867413  0.000000  1
  Mg  Mg6  1  0.173941  0.912723  0.000000  1
  Zr  Zr7  1  0.825395  0.085826  0.000000  1
  Fe  Fe8  1  0.138172  0.179973  0.000000  1
  Fe  Fe9  1  0.643773  0.317253  0.000000  1
  Fe  Fe10  1  0.360354  0.680446  0.000000  1
  Fe  Fe11  1  0.859534  0.820482  0.000000  1
  B  B12  1  0.595313  0.025799  0.500001  1
  B  B13  1  0.055624  0.065464  0.500001  1
  B  B14  1  0.253462  0.080108  0.500001  1
  B  B15  1  0.630453  0.182546  0.500001  1
  B  B16  1  0.983153  0.212117  0.500001  1
  B  B17  1  0.293756  0.237317  0.500001  1
  B  B18  1  0.794366  0.263477  0.500001  1
  B  B19  1  0.481873  0.288535  0.500001  1
  B  B20  1  0.130947  0.318200  0.500001  1
  B  B21  1  0.752827  0.420349  0.500001  1
  B  B22  1  0.555569  0.433496  0.500001  1
  B  B23  1  0.095576  0.474826  0.500001  1
  B  B24  1  0.904217  0.526766  0.500001  1
  B  B25  1  0.444656  0.565270  0.500001  1
  B  B26  1  0.246823  0.581281  0.500001  1
  B  B27  1  0.869046  0.683493  0.500001  1
  B  B28  1  0.518249  0.710573  0.500001  1
  B  B29  1  0.205586  0.737694  0.500001  1
  B  B30  1  0.704799  0.762062  0.500001  1
  B  B31  1  0.018834  0.788638  0.500001  1
  B  B32  1  0.368960  0.817594  0.500001  1
  B  B33  1  0.746275  0.918066  0.500001  1
  B  B34  1  0.944246  0.933143  0.500001  1
  B  B35  1  0.403902  0.973542  0.500001  1
