# generated using pymatgen
data_PmAl2Ag3
_symmetry_space_group_name_H-M   'P 1'
_cell_length_a   5.51896345
_cell_length_b   5.48192898
_cell_length_c   4.56263200
_cell_angle_alpha   90.00000000
_cell_angle_beta   90.00000000
_cell_angle_gamma   60.22175396
_symmetry_Int_Tables_number   1
_chemical_formula_structural   PmAl2Ag3
_chemical_formula_sum   'Pm1 Al2 Ag3'
_cell_volume   119.81277158
_cell_formula_units_Z   1
loop_
 _symmetry_equiv_pos_site_id
 _symmetry_equiv_pos_as_xyz
  1  'x, y, z'
loop_
 _atom_site_type_symbol
 _atom_site_label
 _atom_site_symmetry_multiplicity
 _atom_site_fract_x
 _atom_site_fract_y
 _atom_site_fract_z
 _atom_site_occupancy
  Pm  Pm0  1  0.999994  0.999984  0.000000  1
  Al  Al1  1  0.500099  0.000013  0.499999  1
  Al  Al2  1  0.499910  0.500093  0.499999  1
  Ag  Ag3  1  0.353342  0.323380  0.000000  1
  Ag  Ag4  1  0.646649  0.676729  0.000000  1
  Ag  Ag5  1  0.000000  0.499803  0.499999  1
