# generated using pymatgen
data_Sm2Ga(SiRh2)3
_symmetry_space_group_name_H-M   'P 1'
_cell_length_a   6.69737150
_cell_length_b   6.70533746
_cell_length_c   6.69737221
_cell_angle_alpha   130.20889128
_cell_angle_beta   114.50166134
_cell_angle_gamma   86.50330255
_symmetry_Int_Tables_number   1
_chemical_formula_structural   Sm2Ga(SiRh2)3
_chemical_formula_sum   'Sm2 Ga1 Si3 Rh6'
_cell_volume   199.54621300
_cell_formula_units_Z   1
loop_
 _symmetry_equiv_pos_site_id
 _symmetry_equiv_pos_as_xyz
  1  'x, y, z'
loop_
 _atom_site_type_symbol
 _atom_site_label
 _atom_site_symmetry_multiplicity
 _atom_site_fract_x
 _atom_site_fract_y
 _atom_site_fract_z
 _atom_site_occupancy
  Sm  Sm0  1  0.250357  0.550007  0.299649  1
  Sm  Sm1  1  0.750911  0.468567  0.717655  1
  Ga  Ga2  1  0.092923  0.892508  0.799585  1
  Si  Si3  1  0.934972  0.132470  0.197498  1
  Si  Si4  1  0.569120  0.766571  0.197451  1
  Si  Si5  1  0.405140  0.200097  0.794957  1
  Rh  Rh6  1  0.712425  0.004760  0.716441  1
  Rh  Rh7  1  0.223453  0.495146  0.725932  1
  Rh  Rh8  1  0.288320  0.004760  0.292335  1
  Rh  Rh9  1  0.769214  0.495146  0.271693  1
  Rh  Rh10  1  0.973342  0.994984  0.465162  1
  Rh  Rh11  1  0.529821  0.994984  0.021642  1
