# generated using pymatgen
data_Y2Sc4Pb5
_symmetry_space_group_name_H-M   'P 1'
_cell_length_a   11.30951980
_cell_length_b   11.30952036
_cell_length_c   11.30951928
_cell_angle_alpha   131.88241691
_cell_angle_beta   59.35425983
_cell_angle_gamma   147.36512119
_symmetry_Int_Tables_number   1
_chemical_formula_structural   Y2Sc4Pb5
_chemical_formula_sum   'Y4 Sc8 Pb10'
_cell_volume   575.81427211
_cell_formula_units_Z   2
loop_
 _symmetry_equiv_pos_site_id
 _symmetry_equiv_pos_as_xyz
  1  'x, y, z'
loop_
 _atom_site_type_symbol
 _atom_site_label
 _atom_site_symmetry_multiplicity
 _atom_site_fract_x
 _atom_site_fract_y
 _atom_site_fract_z
 _atom_site_occupancy
  Y  Y0  1  0.141599  0.114006  0.255606  1
  Y  Y1  1  0.858400  0.885996  0.744395  1
  Y  Y2  1  0.358400  0.614006  0.972405  1
  Y  Y3  1  0.641600  0.385995  0.027593  1
  Sc  Sc4  1  0.557002  0.250000  0.307001  1
  Sc  Sc5  1  0.942999  0.250000  0.692999  1
  Sc  Sc6  1  0.442999  0.750000  0.692999  1
  Sc  Sc7  1  0.057001  0.750000  0.307001  1
  Sc  Sc8  1  0.438523  0.238686  0.677210  1
  Sc  Sc9  1  0.561478  0.761314  0.322790  1
  Sc  Sc10  1  0.061477  0.738687  0.800164  1
  Sc  Sc11  1  0.938523  0.261315  0.199837  1
  Pb  Pb12  1  0.291144  0.299499  0.590642  1
  Pb  Pb13  1  0.708856  0.700501  0.409357  1
  Pb  Pb14  1  0.208857  0.799500  0.008355  1
  Pb  Pb15  1  0.791145  0.200500  0.991645  1
  Pb  Pb16  1  0.250000  0.250000  0.000000  1
  Pb  Pb17  1  0.749999  0.749999  0.000000  1
  Pb  Pb18  1  0.071350  0.407250  0.478599  1
  Pb  Pb19  1  0.928651  0.592750  0.521401  1
  Pb  Pb20  1  0.428651  0.907251  0.335900  1
  Pb  Pb21  1  0.571349  0.092749  0.664100  1
