# generated using pymatgen
data_Er12Tl2TcNi3
_symmetry_space_group_name_H-M   'P 1'
_cell_length_a   8.46682811
_cell_length_b   8.46682906
_cell_length_c   8.46682900
_cell_angle_alpha   112.85324322
_cell_angle_beta   109.84541327
_cell_angle_gamma   105.79191445
_symmetry_Int_Tables_number   1
_chemical_formula_structural   Er12Tl2TcNi3
_chemical_formula_sum   'Er12 Tl2 Tc1 Ni3'
_cell_volume   465.46323501
_cell_formula_units_Z   1
loop_
 _symmetry_equiv_pos_site_id
 _symmetry_equiv_pos_as_xyz
  1  'x, y, z'
loop_
 _atom_site_type_symbol
 _atom_site_label
 _atom_site_symmetry_multiplicity
 _atom_site_fract_x
 _atom_site_fract_y
 _atom_site_fract_z
 _atom_site_occupancy
  Er  Er0  1  0.042822  0.745015  0.297808  1
  Er  Er1  1  0.971587  0.268733  0.702853  1
  Er  Er2  1  0.552794  0.254985  0.297808  1
  Er  Er3  1  0.434120  0.731267  0.702853  1
  Er  Er4  1  0.675826  0.858875  0.189238  1
  Er  Er5  1  0.330364  0.513412  0.189238  1
  Er  Er6  1  0.330364  0.141125  0.816952  1
  Er  Er7  1  0.675826  0.486588  0.816952  1
  Er  Er8  1  0.176940  0.215495  0.392435  1
  Er  Er9  1  0.810863  0.217058  0.027922  1
  Er  Er10  1  0.176940  0.784505  0.961445  1
  Er  Er11  1  0.810863  0.782942  0.593803  1
  Tl  Tl12  1  0.988177  0.500000  0.488177  1
  Tl  Tl13  1  0.504995  0.000000  0.504995  1
  Tc  Tc14  1  0.666380  0.500000  0.166380  1
  Ni  Ni15  1  0.347832  0.500000  0.847832  1
  Ni  Ni16  1  0.884354  0.882700  0.001653  1
  Ni  Ni17  1  0.118953  0.117300  0.001653  1
