# generated using pymatgen
data_LiHo(CuO2)4
_symmetry_space_group_name_H-M   'P 1'
_cell_length_a   6.16205549
_cell_length_b   6.16205626
_cell_length_c   6.16205632
_cell_angle_alpha   125.59070572
_cell_angle_beta   125.59070761
_cell_angle_gamma   80.56188680
_symmetry_Int_Tables_number   1
_chemical_formula_structural   LiHo(CuO2)4
_chemical_formula_sum   'Li1 Ho1 Cu4 O8'
_cell_volume   149.22811245
_cell_formula_units_Z   1
loop_
 _symmetry_equiv_pos_site_id
 _symmetry_equiv_pos_as_xyz
  1  'x, y, z'
loop_
 _atom_site_type_symbol
 _atom_site_label
 _atom_site_symmetry_multiplicity
 _atom_site_fract_x
 _atom_site_fract_y
 _atom_site_fract_z
 _atom_site_occupancy
  Li  Li0  1  0.000000  0.000000  0.000000  1
  Ho  Ho1  1  0.750000  0.250000  0.500000  1
  Cu  Cu2  1  0.371515  0.628565  0.248122  1
  Cu  Cu3  1  0.380443  0.123394  0.751878  1
  Cu  Cu4  1  0.371435  0.619557  0.742950  1
  Cu  Cu5  1  0.876606  0.628485  0.257050  1
  O  O6  1  0.736421  0.305948  0.145879  1
  O  O7  1  0.160070  0.590542  0.854121  1
  O  O8  1  0.017446  0.949017  0.365358  1
  O  O9  1  0.583660  0.652089  0.634642  1
  O  O10  1  0.050983  0.416340  0.068429  1
  O  O11  1  0.347911  0.982554  0.931571  1
  O  O12  1  0.409458  0.263579  0.569527  1
  O  O13  1  0.694052  0.839930  0.430473  1
