# generated using pymatgen
data_Th5Ti3(P3Ir4)4
_symmetry_space_group_name_H-M   'P 1'
_cell_length_a   12.87051700
_cell_length_b   12.87051753
_cell_length_c   4.00572900
_cell_angle_alpha   90.00000000
_cell_angle_beta   90.00000000
_cell_angle_gamma   120.00000122
_symmetry_Int_Tables_number   1
_chemical_formula_structural   Th5Ti3(P3Ir4)4
_chemical_formula_sum   'Th5 Ti3 P12 Ir16'
_cell_volume   574.65103576
_cell_formula_units_Z   1
loop_
 _symmetry_equiv_pos_site_id
 _symmetry_equiv_pos_as_xyz
  1  'x, y, z'
loop_
 _atom_site_type_symbol
 _atom_site_label
 _atom_site_symmetry_multiplicity
 _atom_site_fract_x
 _atom_site_fract_y
 _atom_site_fract_z
 _atom_site_occupancy
  Th  Th0  1  0.333333  0.666667  0.500000  1
  Th  Th1  1  0.666667  0.333333  0.500000  1
  Th  Th2  1  0.000000  0.811863  0.000000  1
  Th  Th3  1  0.188137  0.188137  0.000000  1
  Th  Th4  1  0.811863  0.000000  0.000000  1
  Ti  Ti5  1  0.000000  0.447782  0.500000  1
  Ti  Ti6  1  0.552218  0.552218  0.500000  1
  Ti  Ti7  1  0.447782  0.000000  0.500000  1
  P  P8  1  0.000000  0.633425  0.500000  1
  P  P9  1  0.366575  0.366575  0.500000  1
  P  P10  1  0.633425  0.000000  0.500000  1
  P  P11  1  0.519486  0.682743  0.000000  1
  P  P12  1  0.317257  0.836744  0.000000  1
  P  P13  1  0.163256  0.480514  0.000000  1
  P  P14  1  0.480514  0.163256  0.000000  1
  P  P15  1  0.682743  0.519486  0.000000  1
  P  P16  1  0.836744  0.317257  0.000000  1
  P  P17  1  0.000000  0.178589  0.500000  1
  P  P18  1  0.821411  0.821411  0.500000  1
  P  P19  1  0.178589  0.000000  0.500000  1
  Ir  Ir20  1  0.509538  0.866178  0.000000  1
  Ir  Ir21  1  0.133822  0.643361  0.000000  1
  Ir  Ir22  1  0.356639  0.490462  0.000000  1
  Ir  Ir23  1  0.490462  0.356639  0.000000  1
  Ir  Ir24  1  0.866178  0.509538  0.000000  1
  Ir  Ir25  1  0.643361  0.133822  0.000000  1
  Ir  Ir26  1  0.000000  0.283852  0.000000  1
  Ir  Ir27  1  0.716148  0.716148  0.000000  1
  Ir  Ir28  1  0.283852  0.000000  0.000000  1
  Ir  Ir29  1  0.625116  0.802981  0.500000  1
  Ir  Ir30  1  0.197019  0.822135  0.500000  1
  Ir  Ir31  1  0.177865  0.374884  0.500000  1
  Ir  Ir32  1  0.374884  0.177865  0.500000  1
  Ir  Ir33  1  0.802981  0.625116  0.500000  1
  Ir  Ir34  1  0.822135  0.197019  0.500000  1
  Ir  Ir35  1  0.000000  0.000000  0.500000  1
