# generated using pymatgen
data_La6Hg3Pb7
_symmetry_space_group_name_H-M   'P 1'
_cell_length_a   6.82281419
_cell_length_b   6.82281397
_cell_length_c   10.78495410
_cell_angle_alpha   90.44515737
_cell_angle_beta   90.44515608
_cell_angle_gamma   102.61006284
_symmetry_Int_Tables_number   1
_chemical_formula_structural   La6Hg3Pb7
_chemical_formula_sum   'La6 Hg3 Pb7'
_cell_volume   489.90013211
_cell_formula_units_Z   1
loop_
 _symmetry_equiv_pos_site_id
 _symmetry_equiv_pos_as_xyz
  1  'x, y, z'
loop_
 _atom_site_type_symbol
 _atom_site_label
 _atom_site_symmetry_multiplicity
 _atom_site_fract_x
 _atom_site_fract_y
 _atom_site_fract_z
 _atom_site_occupancy
  La  La0  1  0.618993  0.618993  0.248910  1
  La  La1  1  0.379609  0.379609  0.745264  1
  La  La2  1  0.206654  0.798607  0.499933  1
  La  La3  1  0.206804  0.792641  0.000835  1
  La  La4  1  0.798607  0.206654  0.499933  1
  La  La5  1  0.792641  0.206804  0.000835  1
  Hg  Hg6  1  0.307275  0.307275  0.037710  1
  Hg  Hg7  1  0.690324  0.690324  0.961671  1
  Hg  Hg8  1  0.302721  0.302721  0.457733  1
  Pb  Pb9  1  0.012907  0.012907  0.245461  1
  Pb  Pb10  1  0.987402  0.987402  0.754742  1
  Pb  Pb11  1  0.693510  0.693510  0.541528  1
  Pb  Pb12  1  0.498001  0.071120  0.248507  1
  Pb  Pb13  1  0.932120  0.501310  0.754217  1
  Pb  Pb14  1  0.501310  0.932120  0.754217  1
  Pb  Pb15  1  0.071120  0.498001  0.248507  1
