# generated using pymatgen
data_La12TbHoRh6
_symmetry_space_group_name_H-M   'P 1'
_cell_length_a   10.24066700
_cell_length_b   10.24066881
_cell_length_c   6.42873100
_cell_angle_alpha   90.00000000
_cell_angle_beta   90.00000000
_cell_angle_gamma   120.00000384
_symmetry_Int_Tables_number   1
_chemical_formula_structural   La12TbHoRh6
_chemical_formula_sum   'La12 Tb1 Ho1 Rh6'
_cell_volume   583.86498912
_cell_formula_units_Z   1
loop_
 _symmetry_equiv_pos_site_id
 _symmetry_equiv_pos_as_xyz
  1  'x, y, z'
loop_
 _atom_site_type_symbol
 _atom_site_label
 _atom_site_symmetry_multiplicity
 _atom_site_fract_x
 _atom_site_fract_y
 _atom_site_fract_z
 _atom_site_occupancy
  La  La0  1  0.873892  0.747784  0.764703  1
  La  La1  1  0.252216  0.126108  0.764703  1
  La  La2  1  0.873892  0.126108  0.764703  1
  La  La3  1  0.126264  0.252528  0.264529  1
  La  La4  1  0.747472  0.873736  0.264529  1
  La  La5  1  0.126264  0.873736  0.264529  1
  La  La6  1  0.457533  0.915067  0.593942  1
  La  La7  1  0.084933  0.542467  0.593942  1
  La  La8  1  0.457533  0.542467  0.593942  1
  La  La9  1  0.542340  0.084679  0.093822  1
  La  La10  1  0.915321  0.457660  0.093822  1
  La  La11  1  0.542340  0.457660  0.093822  1
  Tb  Tb12  1  0.666667  0.333333  0.568667  1
  Ho  Ho13  1  0.333333  0.666667  0.067904  1
  Rh  Rh14  1  0.190433  0.380865  0.854745  1
  Rh  Rh15  1  0.619135  0.809567  0.854745  1
  Rh  Rh16  1  0.190433  0.809567  0.854745  1
  Rh  Rh17  1  0.809754  0.619508  0.354418  1
  Rh  Rh18  1  0.380492  0.190246  0.354418  1
  Rh  Rh19  1  0.809754  0.190246  0.354418  1
