# generated using pymatgen
data_SiSe7Br2
_symmetry_space_group_name_H-M   'P 1'
_cell_length_a   8.79387300
_cell_length_b   12.60371900
_cell_length_c   14.82109100
_cell_angle_alpha   90.00000000
_cell_angle_beta   90.00000000
_cell_angle_gamma   90.00000000
_symmetry_Int_Tables_number   1
_chemical_formula_structural   SiSe7Br2
_chemical_formula_sum   'Si4 Se28 Br8'
_cell_volume   1642.70309398
_cell_formula_units_Z   4
loop_
 _symmetry_equiv_pos_site_id
 _symmetry_equiv_pos_as_xyz
  1  'x, y, z'
loop_
 _atom_site_type_symbol
 _atom_site_label
 _atom_site_symmetry_multiplicity
 _atom_site_fract_x
 _atom_site_fract_y
 _atom_site_fract_z
 _atom_site_occupancy
  Si  Si0  1  0.250174  0.750000  0.434687  1
  Si  Si1  1  0.249826  0.250000  0.934687  1
  Si  Si2  1  0.750174  0.750000  0.065313  1
  Si  Si3  1  0.749826  0.250000  0.565313  1
  Se  Se4  1  0.734103  0.250000  0.213884  1
  Se  Se5  1  0.862465  0.402501  0.266227  1
  Se  Se6  1  0.137535  0.902501  0.733773  1
  Se  Se7  1  0.362465  0.097499  0.233773  1
  Se  Se8  1  0.137535  0.597499  0.733773  1
  Se  Se9  1  0.224380  0.037055  0.107552  1
  Se  Se10  1  0.724380  0.037055  0.392448  1
  Se  Se11  1  0.642783  0.909109  0.023458  1
  Se  Se12  1  0.857217  0.409109  0.523458  1
  Se  Se13  1  0.775620  0.537055  0.892448  1
  Se  Se14  1  0.637535  0.597499  0.766227  1
  Se  Se15  1  0.275620  0.537055  0.607552  1
  Se  Se16  1  0.357217  0.409109  0.976542  1
  Se  Se17  1  0.142783  0.909109  0.476542  1
  Se  Se18  1  0.265897  0.750000  0.786116  1
  Se  Se19  1  0.357217  0.090891  0.976542  1
  Se  Se20  1  0.234103  0.250000  0.286116  1
  Se  Se21  1  0.724380  0.462945  0.392448  1
  Se  Se22  1  0.765897  0.750000  0.713884  1
  Se  Se23  1  0.642783  0.590891  0.023458  1
  Se  Se24  1  0.275620  0.962945  0.607552  1
  Se  Se25  1  0.862465  0.097499  0.266227  1
  Se  Se26  1  0.224380  0.462945  0.107552  1
  Se  Se27  1  0.775620  0.962945  0.892448  1
  Se  Se28  1  0.857217  0.090891  0.523458  1
  Se  Se29  1  0.142783  0.590891  0.476542  1
  Se  Se30  1  0.362465  0.402501  0.233773  1
  Se  Se31  1  0.637535  0.902501  0.766227  1
  Br  Br32  1  0.819736  0.250000  0.710973  1
  Br  Br33  1  0.680264  0.750000  0.210973  1
  Br  Br34  1  0.500504  0.750000  0.457929  1
  Br  Br35  1  0.999496  0.250000  0.957929  1
  Br  Br36  1  0.319736  0.250000  0.789027  1
  Br  Br37  1  0.000504  0.750000  0.042071  1
  Br  Br38  1  0.499496  0.250000  0.542071  1
  Br  Br39  1  0.180264  0.750000  0.289027  1
