# generated using pymatgen
data_Ti8Al15Fe2Ir3Pt2
_symmetry_space_group_name_H-M   'P 1'
_cell_length_a   8.62400343
_cell_length_b   8.59918001
_cell_length_c   8.62400934
_cell_angle_alpha   120.25484774
_cell_angle_beta   119.88979963
_cell_angle_gamma   89.95811019
_symmetry_Int_Tables_number   1
_chemical_formula_structural   Ti8Al15Fe2Ir3Pt2
_chemical_formula_sum   'Ti8 Al15 Fe2 Ir3 Pt2'
_cell_volume   451.40185582
_cell_formula_units_Z   1
loop_
 _symmetry_equiv_pos_site_id
 _symmetry_equiv_pos_as_xyz
  1  'x, y, z'
loop_
 _atom_site_type_symbol
 _atom_site_label
 _atom_site_symmetry_multiplicity
 _atom_site_fract_x
 _atom_site_fract_y
 _atom_site_fract_z
 _atom_site_occupancy
  Ti  Ti0  1  0.793938  0.287185  0.072147  1
  Ti  Ti1  1  0.215040  0.287184  0.493249  1
  Ti  Ti2  1  0.209227  0.708048  0.498818  1
  Ti  Ti3  1  0.211590  0.719339  0.925323  1
  Ti  Ti4  1  0.794020  0.719337  0.507750  1
  Ti  Ti5  1  0.783474  0.285653  0.502178  1
  Ti  Ti6  1  0.385172  0.121278  0.736108  1
  Ti  Ti7  1  0.380746  0.644170  0.263427  1
  Al  Al8  1  0.996888  0.496020  0.499134  1
  Al  Al9  1  0.153835  0.333633  0.179795  1
  Al  Al10  1  0.153323  0.974405  0.821083  1
  Al  Al11  1  0.153656  0.348061  0.807878  1
  Al  Al12  1  0.540180  0.348058  0.194403  1
  Al  Al13  1  0.846996  0.663586  0.816592  1
  Al  Al14  1  0.849513  0.033344  0.183832  1
  Al  Al15  1  0.841663  0.652546  0.185709  1
  Al  Al16  1  0.466833  0.652544  0.810880  1
  Al  Al17  1  0.376771  0.118042  0.264031  1
  Al  Al18  1  0.854010  0.118043  0.741269  1
  Al  Al19  1  0.615677  0.880224  0.264548  1
  Al  Al20  1  0.619378  0.356159  0.736781  1
  Al  Al21  1  0.625107  0.880794  0.738763  1
  Al  Al22  1  0.142035  0.880796  0.255691  1
  Fe  Fe23  1  0.000159  0.000110  0.999946  1
  Fe  Fe24  1  0.495135  0.996383  0.501247  1
  Ir  Ir25  1  0.498540  0.499189  0.000645  1
  Ir  Ir26  1  0.498815  0.498739  0.498905  1
  Ir  Ir27  1  0.999837  0.498740  0.999927  1
  Pt  Pt28  1  0.998420  0.999190  0.499170  1
  Pt  Pt29  1  0.500021  0.999192  0.000771  1
