# generated using pymatgen
data_Pr2Si5IrRuPt
_symmetry_space_group_name_H-M   'P 1'
_cell_length_a   8.27719133
_cell_length_b   8.27920870
_cell_length_c   8.27920803
_cell_angle_alpha   137.52350853
_cell_angle_beta   105.75386389
_cell_angle_gamma   89.48457365
_symmetry_Int_Tables_number   1
_chemical_formula_structural   Pr2Si5IrRuPt
_chemical_formula_sum   'Pr4 Si10 Ir2 Ru2 Pt2'
_cell_volume   352.41392374
_cell_formula_units_Z   2
loop_
 _symmetry_equiv_pos_site_id
 _symmetry_equiv_pos_as_xyz
  1  'x, y, z'
loop_
 _atom_site_type_symbol
 _atom_site_label
 _atom_site_symmetry_multiplicity
 _atom_site_fract_x
 _atom_site_fract_y
 _atom_site_fract_z
 _atom_site_occupancy
  Pr  Pr0  1  0.862200  0.628750  0.233451  1
  Pr  Pr1  1  0.137800  0.371250  0.766549  1
  Pr  Pr2  1  0.395907  0.130719  0.265189  1
  Pr  Pr3  1  0.604093  0.869281  0.734811  1
  Si  Si4  1  0.500000  0.760075  0.260075  1
  Si  Si5  1  0.500000  0.239925  0.739925  1
  Si  Si6  1  0.223487  0.972624  0.745352  1
  Si  Si7  1  0.776513  0.521865  0.749137  1
  Si  Si8  1  0.776513  0.027376  0.254648  1
  Si  Si9  1  0.223487  0.478135  0.250863  1
  Si  Si10  1  0.046199  0.896028  0.150171  1
  Si  Si11  1  0.953801  0.103972  0.849829  1
  Si  Si12  1  0.749237  0.395357  0.353880  1
  Si  Si13  1  0.250763  0.604643  0.646120  1
  Ir  Ir14  1  0.248804  0.860666  0.388139  1
  Ir  Ir15  1  0.751196  0.139334  0.611861  1
  Ru  Ru16  1  0.000000  0.751649  0.751649  1
  Ru  Ru17  1  0.000000  0.248351  0.248351  1
  Pt  Pt18  1  0.471920  0.361460  0.110460  1
  Pt  Pt19  1  0.528080  0.638540  0.889540  1
