# generated using pymatgen
data_Pr20Ga3Si8Sb
_symmetry_space_group_name_H-M   'P 1'
_cell_length_a   7.85263800
_cell_length_b   7.85263800
_cell_length_c   14.67978400
_cell_angle_alpha   90.00000000
_cell_angle_beta   90.00000000
_cell_angle_gamma   90.00000000
_symmetry_Int_Tables_number   1
_chemical_formula_structural   Pr20Ga3Si8Sb
_chemical_formula_sum   'Pr20 Ga3 Si8 Sb1'
_cell_volume   905.21307844
_cell_formula_units_Z   1
loop_
 _symmetry_equiv_pos_site_id
 _symmetry_equiv_pos_as_xyz
  1  'x, y, z'
loop_
 _atom_site_type_symbol
 _atom_site_label
 _atom_site_symmetry_multiplicity
 _atom_site_fract_x
 _atom_site_fract_y
 _atom_site_fract_z
 _atom_site_occupancy
  Pr  Pr0  1  0.811374  0.830162  0.610936  1
  Pr  Pr1  1  0.185376  0.827208  0.109021  1
  Pr  Pr2  1  0.175260  0.818562  0.387906  1
  Pr  Pr3  1  0.000000  0.500000  0.737806  1
  Pr  Pr4  1  0.824740  0.181438  0.387906  1
  Pr  Pr5  1  0.681438  0.675260  0.387906  1
  Pr  Pr6  1  0.669838  0.311374  0.610936  1
  Pr  Pr7  1  0.330162  0.688626  0.610936  1
  Pr  Pr8  1  0.000000  0.500000  0.226896  1
  Pr  Pr9  1  0.672792  0.685376  0.109021  1
  Pr  Pr10  1  0.687467  0.328339  0.891701  1
  Pr  Pr11  1  0.828339  0.812533  0.891701  1
  Pr  Pr12  1  0.318562  0.324740  0.387906  1
  Pr  Pr13  1  0.188626  0.169838  0.610936  1
  Pr  Pr14  1  0.814624  0.172792  0.109021  1
  Pr  Pr15  1  0.312533  0.671661  0.891701  1
  Pr  Pr16  1  0.327208  0.314624  0.109021  1
  Pr  Pr17  1  0.500000  0.000000  0.264600  1
  Pr  Pr18  1  0.171661  0.187467  0.891701  1
  Pr  Pr19  1  0.500000  0.000000  0.775948  1
  Ga  Ga20  1  0.500000  0.000000  0.490311  1
  Ga  Ga21  1  0.500000  0.000000  0.995798  1
  Ga  Ga22  1  0.000000  0.500000  0.005017  1
  Si  Si23  1  0.613784  0.387353  0.249372  1
  Si  Si24  1  0.113252  0.887058  0.750279  1
  Si  Si25  1  0.387058  0.386748  0.750279  1
  Si  Si26  1  0.386216  0.612647  0.249372  1
  Si  Si27  1  0.887353  0.886216  0.249372  1
  Si  Si28  1  0.612942  0.613252  0.750279  1
  Si  Si29  1  0.886748  0.112942  0.750279  1
  Si  Si30  1  0.112647  0.113784  0.249372  1
  Sb  Sb31  1  0.000000  0.500000  0.506768  1
