# generated using pymatgen
data_Dy3Tm5B24Ir3Rh
_symmetry_space_group_name_H-M   'P 1'
_cell_length_a   3.62422700
_cell_length_b   9.13645484
_cell_length_c   11.48698611
_cell_angle_alpha   90.02826944
_cell_angle_beta   90.00000000
_cell_angle_gamma   90.00000000
_symmetry_Int_Tables_number   1
_chemical_formula_structural   Dy3Tm5B24Ir3Rh
_chemical_formula_sum   'Dy3 Tm5 B24 Ir3 Rh1'
_cell_volume   380.36377278
_cell_formula_units_Z   1
loop_
 _symmetry_equiv_pos_site_id
 _symmetry_equiv_pos_as_xyz
  1  'x, y, z'
loop_
 _atom_site_type_symbol
 _atom_site_label
 _atom_site_symmetry_multiplicity
 _atom_site_fract_x
 _atom_site_fract_y
 _atom_site_fract_z
 _atom_site_occupancy
  Dy  Dy0  1  0.500000  0.322781  0.412757  1
  Dy  Dy1  1  0.500000  0.677525  0.586268  1
  Dy  Dy2  1  0.500000  0.178323  0.913347  1
  Tm  Tm3  1  0.500000  0.821343  0.087599  1
  Tm  Tm4  1  0.500000  0.445245  0.126187  1
  Tm  Tm5  1  0.500000  0.555839  0.875043  1
  Tm  Tm6  1  0.500000  0.055444  0.625151  1
  Tm  Tm7  1  0.500000  0.943236  0.373982  1
  B  B8  1  0.000000  0.108469  0.469992  1
  B  B9  1  0.000000  0.891011  0.529521  1
  B  B10  1  0.000000  0.391417  0.970493  1
  B  B11  1  0.000000  0.610107  0.030140  1
  B  B12  1  0.000000  0.131538  0.315442  1
  B  B13  1  0.000000  0.868087  0.683948  1
  B  B14  1  0.000000  0.368449  0.816235  1
  B  B15  1  0.000000  0.632692  0.183816  1
  B  B16  1  0.000000  0.053100  0.066406  1
  B  B17  1  0.000000  0.946164  0.934170  1
  B  B18  1  0.000000  0.446219  0.566387  1
  B  B19  1  0.000000  0.553406  0.433586  1
  B  B20  1  0.000000  0.482278  0.286726  1
  B  B21  1  0.000000  0.517907  0.713867  1
  B  B22  1  0.000000  0.017906  0.786503  1
  B  B23  1  0.000000  0.981164  0.212991  1
  B  B24  1  0.000000  0.250561  0.079745  1
  B  B25  1  0.000000  0.750017  0.921219  1
  B  B26  1  0.000000  0.249870  0.579322  1
  B  B27  1  0.000000  0.749760  0.420075  1
  B  B28  1  0.000000  0.293898  0.234280  1
  B  B29  1  0.000000  0.706433  0.765818  1
  B  B30  1  0.000000  0.206223  0.734291  1
  B  B31  1  0.000000  0.794077  0.264486  1
  Ir  Ir32  1  0.500000  0.138266  0.178528  1
  Ir  Ir33  1  0.500000  0.861485  0.821412  1
  Ir  Ir34  1  0.500000  0.360396  0.680235  1
  Rh  Rh35  1  0.500000  0.639362  0.320031  1
