# generated using pymatgen
data_Pr3Ni2P6Ru7
_symmetry_space_group_name_H-M   'P 1'
_cell_length_a   3.95670800
_cell_length_b   11.03688100
_cell_length_c   12.64633600
_cell_angle_alpha   90.00000000
_cell_angle_beta   90.00000000
_cell_angle_gamma   90.00000000
_symmetry_Int_Tables_number   1
_chemical_formula_structural   Pr3Ni2P6Ru7
_chemical_formula_sum   'Pr6 Ni4 P12 Ru14'
_cell_volume   552.26189331
_cell_formula_units_Z   2
loop_
 _symmetry_equiv_pos_site_id
 _symmetry_equiv_pos_as_xyz
  1  'x, y, z'
loop_
 _atom_site_type_symbol
 _atom_site_label
 _atom_site_symmetry_multiplicity
 _atom_site_fract_x
 _atom_site_fract_y
 _atom_site_fract_z
 _atom_site_occupancy
  Pr  Pr0  1  0.000000  0.500000  0.525363  1
  Pr  Pr1  1  0.500000  0.000000  0.474632  1
  Pr  Pr2  1  0.500000  0.817591  0.204714  1
  Pr  Pr3  1  0.500000  0.182409  0.204714  1
  Pr  Pr4  1  0.000000  0.682480  0.795187  1
  Pr  Pr5  1  0.000000  0.317520  0.795187  1
  Ni  Ni6  1  0.500000  0.500000  0.699398  1
  Ni  Ni7  1  0.000000  0.000000  0.300667  1
  Ni  Ni8  1  0.000000  0.500000  0.986308  1
  Ni  Ni9  1  0.500000  0.000000  0.013791  1
  P  P10  1  0.500000  0.500000  0.878266  1
  P  P11  1  0.000000  0.000000  0.121836  1
  P  P12  1  0.500000  0.500000  0.339381  1
  P  P13  1  0.000000  0.000000  0.660635  1
  P  P14  1  0.500000  0.305124  0.614609  1
  P  P15  1  0.500000  0.694876  0.614609  1
  P  P16  1  0.000000  0.194424  0.385253  1
  P  P17  1  0.000000  0.805576  0.385253  1
  P  P18  1  0.500000  0.848498  0.897106  1
  P  P19  1  0.500000  0.151502  0.897106  1
  P  P20  1  0.000000  0.651585  0.102949  1
  P  P21  1  0.000000  0.348415  0.102949  1
  Ru  Ru22  1  0.500000  0.500000  0.155928  1
  Ru  Ru23  1  0.000000  0.000000  0.844120  1
  Ru  Ru24  1  0.500000  0.336402  0.990976  1
  Ru  Ru25  1  0.500000  0.663598  0.990976  1
  Ru  Ru26  1  0.000000  0.163550  0.009062  1
  Ru  Ru27  1  0.000000  0.836450  0.009062  1
  Ru  Ru28  1  0.500000  0.299271  0.428789  1
  Ru  Ru29  1  0.500000  0.700729  0.428789  1
  Ru  Ru30  1  0.000000  0.200307  0.571122  1
  Ru  Ru31  1  0.000000  0.799693  0.571122  1
  Ru  Ru32  1  0.500000  0.878647  0.715063  1
  Ru  Ru33  1  0.500000  0.121353  0.715063  1
  Ru  Ru34  1  0.000000  0.621418  0.285009  1
  Ru  Ru35  1  0.000000  0.378582  0.285009  1
