# generated using pymatgen
data_TbThReB6
_symmetry_space_group_name_H-M   'P 1'
_cell_length_a   3.78062900
_cell_length_b   9.29253000
_cell_length_c   11.70922000
_cell_angle_alpha   90.00000000
_cell_angle_beta   90.00000000
_cell_angle_gamma   90.00000000
_symmetry_Int_Tables_number   1
_chemical_formula_structural   TbThReB6
_chemical_formula_sum   'Tb4 Th4 Re4 B24'
_cell_volume   411.36373173
_cell_formula_units_Z   4
loop_
 _symmetry_equiv_pos_site_id
 _symmetry_equiv_pos_as_xyz
  1  'x, y, z'
loop_
 _atom_site_type_symbol
 _atom_site_label
 _atom_site_symmetry_multiplicity
 _atom_site_fract_x
 _atom_site_fract_y
 _atom_site_fract_z
 _atom_site_occupancy
  Tb  Tb0  1  0.000000  0.944900  0.372560  1
  Tb  Tb1  1  0.000000  0.055100  0.627440  1
  Tb  Tb2  1  0.000000  0.444900  0.127440  1
  Tb  Tb3  1  0.000000  0.555100  0.872560  1
  Th  Th4  1  0.000000  0.322694  0.413777  1
  Th  Th5  1  0.000000  0.677306  0.586223  1
  Th  Th6  1  0.000000  0.822694  0.086223  1
  Th  Th7  1  0.000000  0.177306  0.913777  1
  Re  Re8  1  0.000000  0.638944  0.320711  1
  Re  Re9  1  0.000000  0.361056  0.679289  1
  Re  Re10  1  0.000000  0.138944  0.179289  1
  Re  Re11  1  0.000000  0.861056  0.820711  1
  B  B12  1  0.500000  0.556025  0.430476  1
  B  B13  1  0.500000  0.443975  0.569524  1
  B  B14  1  0.500000  0.056025  0.069524  1
  B  B15  1  0.500000  0.943975  0.930476  1
  B  B16  1  0.500000  0.748955  0.417719  1
  B  B17  1  0.500000  0.251045  0.582281  1
  B  B18  1  0.500000  0.248955  0.082281  1
  B  B19  1  0.500000  0.751045  0.917719  1
  B  B20  1  0.500000  0.790692  0.267314  1
  B  B21  1  0.500000  0.209308  0.732686  1
  B  B22  1  0.500000  0.290692  0.232686  1
  B  B23  1  0.500000  0.709308  0.767314  1
  B  B24  1  0.500000  0.631347  0.187095  1
  B  B25  1  0.500000  0.368653  0.812905  1
  B  B26  1  0.500000  0.131347  0.312905  1
  B  B27  1  0.500000  0.868653  0.687095  1
  B  B28  1  0.500000  0.986023  0.213356  1
  B  B29  1  0.500000  0.013977  0.786644  1
  B  B30  1  0.500000  0.486023  0.286644  1
  B  B31  1  0.500000  0.513977  0.713356  1
  B  B32  1  0.500000  0.604859  0.029119  1
  B  B33  1  0.500000  0.395141  0.970881  1
  B  B34  1  0.500000  0.104859  0.470881  1
  B  B35  1  0.500000  0.895141  0.529119  1
