# generated using pymatgen
data_Y4HfRh3
_symmetry_space_group_name_H-M   'P 1'
_cell_length_a   10.92138100
_cell_length_b   10.92138100
_cell_length_c   6.22477500
_cell_angle_alpha   90.00000000
_cell_angle_beta   90.00000000
_cell_angle_gamma   90.00000000
_symmetry_Int_Tables_number   1
_chemical_formula_structural   Y4HfRh3
_chemical_formula_sum   'Y16 Hf4 Rh12'
_cell_volume   742.46976712
_cell_formula_units_Z   4
loop_
 _symmetry_equiv_pos_site_id
 _symmetry_equiv_pos_as_xyz
  1  'x, y, z'
loop_
 _atom_site_type_symbol
 _atom_site_label
 _atom_site_symmetry_multiplicity
 _atom_site_fract_x
 _atom_site_fract_y
 _atom_site_fract_z
 _atom_site_occupancy
  Y  Y0  1  0.288000  0.085981  0.375742  1
  Y  Y1  1  0.288000  0.914019  0.875742  1
  Y  Y2  1  0.712000  0.085981  0.875742  1
  Y  Y3  1  0.712000  0.914019  0.375742  1
  Y  Y4  1  0.585981  0.788000  0.875742  1
  Y  Y5  1  0.585981  0.212000  0.375742  1
  Y  Y6  1  0.414019  0.788000  0.375742  1
  Y  Y7  1  0.414019  0.212000  0.875742  1
  Y  Y8  1  0.212000  0.414019  0.624258  1
  Y  Y9  1  0.212000  0.585981  0.124258  1
  Y  Y10  1  0.788000  0.414019  0.124258  1
  Y  Y11  1  0.788000  0.585981  0.624258  1
  Y  Y12  1  0.914019  0.712000  0.124258  1
  Y  Y13  1  0.914019  0.288000  0.624258  1
  Y  Y14  1  0.085981  0.712000  0.624258  1
  Y  Y15  1  0.085981  0.288000  0.124258  1
  Hf  Hf16  1  0.000000  0.000000  0.500000  1
  Hf  Hf17  1  0.000000  0.000000  0.000000  1
  Hf  Hf18  1  0.500000  0.500000  0.000000  1
  Hf  Hf19  1  0.500000  0.500000  0.500000  1
  Rh  Rh20  1  0.858254  0.141746  0.250000  1
  Rh  Rh21  1  0.858254  0.858254  0.750000  1
  Rh  Rh22  1  0.141746  0.141746  0.750000  1
  Rh  Rh23  1  0.141746  0.858254  0.250000  1
  Rh  Rh24  1  0.641746  0.358254  0.750000  1
  Rh  Rh25  1  0.641746  0.641746  0.250000  1
  Rh  Rh26  1  0.358254  0.358254  0.250000  1
  Rh  Rh27  1  0.358254  0.641746  0.750000  1
  Rh  Rh28  1  0.500000  0.000000  0.120405  1
  Rh  Rh29  1  0.500000  0.000000  0.620405  1
  Rh  Rh30  1  0.000000  0.500000  0.879595  1
  Rh  Rh31  1  0.000000  0.500000  0.379595  1
