# generated using pymatgen
data_CaFe5(AsO4)4
_symmetry_space_group_name_H-M   'P 1'
_cell_length_a   8.86357476
_cell_length_b   5.46798339
_cell_length_c   9.38124765
_cell_angle_alpha   59.73697656
_cell_angle_beta   90.70062465
_cell_angle_gamma   91.11712312
_symmetry_Int_Tables_number   1
_chemical_formula_structural   CaFe5(AsO4)4
_chemical_formula_sum   'Ca1 Fe5 As4 O16'
_cell_volume   392.63221553
_cell_formula_units_Z   1
loop_
 _symmetry_equiv_pos_site_id
 _symmetry_equiv_pos_as_xyz
  1  'x, y, z'
loop_
 _atom_site_type_symbol
 _atom_site_label
 _atom_site_symmetry_multiplicity
 _atom_site_fract_x
 _atom_site_fract_y
 _atom_site_fract_z
 _atom_site_occupancy
  Ca  Ca0  1  0.000000  0.500000  0.500000  1
  Fe  Fe1  1  0.149169  0.474884  0.108729  1
  Fe  Fe2  1  0.639000  0.500090  0.392078  1
  Fe  Fe3  1  0.850831  0.525116  0.891271  1
  Fe  Fe4  1  0.361000  0.499910  0.607922  1
  Fe  Fe5  1  0.500000  0.500000  0.000000  1
  As  As6  1  0.312583  0.840369  0.194487  1
  As  As7  1  0.793535  0.160133  0.290840  1
  As  As8  1  0.687417  0.159631  0.805513  1
  As  As9  1  0.206465  0.839867  0.709160  1
  O  O10  1  0.073905  0.680672  0.864399  1
  O  O11  1  0.566552  0.307552  0.638101  1
  O  O12  1  0.926095  0.319328  0.135601  1
  O  O13  1  0.433448  0.692448  0.361899  1
  O  O14  1  0.208587  0.195522  0.641272  1
  O  O15  1  0.693552  0.801047  0.878019  1
  O  O16  1  0.791413  0.804478  0.358728  1
  O  O17  1  0.306448  0.198953  0.121981  1
  O  O18  1  0.164126  0.784061  0.548284  1
  O  O19  1  0.641554  0.233106  0.957083  1
  O  O20  1  0.137261  0.672370  0.250671  1
  O  O21  1  0.620510  0.328903  0.232654  1
  O  O22  1  0.862739  0.327630  0.749329  1
  O  O23  1  0.379490  0.671097  0.767346  1
  O  O24  1  0.358446  0.766894  0.042917  1
  O  O25  1  0.835874  0.215939  0.451716  1
