# generated using pymatgen
data_Li3Y3Si4Au
_symmetry_space_group_name_H-M   'P 1'
_cell_length_a   8.15459702
_cell_length_b   8.11713476
_cell_length_c   8.11713500
_cell_angle_alpha   149.41081728
_cell_angle_beta   131.18067179
_cell_angle_gamma   58.67358088
_symmetry_Int_Tables_number   1
_chemical_formula_structural   Li3Y3Si4Au
_chemical_formula_sum   'Li3 Y3 Si4 Au1'
_cell_volume   204.23408807
_cell_formula_units_Z   1
loop_
 _symmetry_equiv_pos_site_id
 _symmetry_equiv_pos_as_xyz
  1  'x, y, z'
loop_
 _atom_site_type_symbol
 _atom_site_label
 _atom_site_symmetry_multiplicity
 _atom_site_fract_x
 _atom_site_fract_y
 _atom_site_fract_z
 _atom_site_occupancy
  Li  Li0  1  0.518377  0.825444  0.692934  1
  Li  Li1  1  0.859571  0.168048  0.691523  1
  Li  Li2  1  0.143641  0.830655  0.312986  1
  Y  Y3  1  0.874870  0.372641  0.502228  1
  Y  Y4  1  0.118514  0.628623  0.489890  1
  Y  Y5  1  0.500638  0.502393  0.998244  1
  Si  Si6  1  0.816921  0.997461  0.819460  1
  Si  Si7  1  0.180381  0.002263  0.178118  1
  Si  Si8  1  0.280948  0.286359  0.994588  1
  Si  Si9  1  0.723351  0.713413  0.009937  1
  Au  Au10  1  0.482792  0.172699  0.310093  1
