# generated using pymatgen
data_La2Tb(NdSi2)2
_symmetry_space_group_name_H-M   'P 1'
_cell_length_a   7.88994200
_cell_length_b   7.88994200
_cell_length_c   15.25896900
_cell_angle_alpha   90.00000000
_cell_angle_beta   90.00000000
_cell_angle_gamma   90.00000000
_symmetry_Int_Tables_number   1
_chemical_formula_structural   La2Tb(NdSi2)2
_chemical_formula_sum   'La8 Tb4 Nd8 Si16'
_cell_volume   949.88889852
_cell_formula_units_Z   4
loop_
 _symmetry_equiv_pos_site_id
 _symmetry_equiv_pos_as_xyz
  1  'x, y, z'
loop_
 _atom_site_type_symbol
 _atom_site_label
 _atom_site_symmetry_multiplicity
 _atom_site_fract_x
 _atom_site_fract_y
 _atom_site_fract_z
 _atom_site_occupancy
  La  La0  1  0.987001  0.623214  0.052513  1
  La  La1  1  0.012999  0.376786  0.552513  1
  La  La2  1  0.623214  0.987001  0.947487  1
  La  La3  1  0.123214  0.512999  0.802513  1
  La  La4  1  0.876786  0.487001  0.302513  1
  La  La5  1  0.512999  0.123214  0.197487  1
  La  La6  1  0.487001  0.876786  0.697487  1
  La  La7  1  0.376786  0.012999  0.447487  1
  Tb  Tb8  1  0.690640  0.690640  0.500000  1
  Tb  Tb9  1  0.809360  0.190640  0.750000  1
  Tb  Tb10  1  0.190640  0.809360  0.250000  1
  Tb  Tb11  1  0.309360  0.309360  0.000000  1
  Nd  Nd12  1  0.373295  0.480459  0.373038  1
  Nd  Nd13  1  0.873295  0.019541  0.376962  1
  Nd  Nd14  1  0.980459  0.126705  0.123038  1
  Nd  Nd15  1  0.019541  0.873295  0.623038  1
  Nd  Nd16  1  0.626705  0.519541  0.873038  1
  Nd  Nd17  1  0.480459  0.373295  0.626962  1
  Nd  Nd18  1  0.519541  0.626705  0.126962  1
  Nd  Nd19  1  0.126705  0.980459  0.876962  1
  Si  Si20  1  0.078563  0.714576  0.437502  1
  Si  Si21  1  0.921437  0.285424  0.937502  1
  Si  Si22  1  0.714576  0.078563  0.562498  1
  Si  Si23  1  0.214577  0.421437  0.187502  1
  Si  Si24  1  0.785424  0.578563  0.687502  1
  Si  Si25  1  0.421437  0.214577  0.812498  1
  Si  Si26  1  0.578563  0.785424  0.312498  1
  Si  Si27  1  0.285424  0.921437  0.062498  1
  Si  Si28  1  0.829418  0.808610  0.795163  1
  Si  Si29  1  0.170582  0.191390  0.295163  1
  Si  Si30  1  0.808610  0.829418  0.204837  1
  Si  Si31  1  0.308610  0.670582  0.545163  1
  Si  Si32  1  0.691390  0.329418  0.045163  1
  Si  Si33  1  0.670582  0.308610  0.454837  1
  Si  Si34  1  0.329418  0.691390  0.954837  1
  Si  Si35  1  0.191390  0.170582  0.704837  1
