# generated using pymatgen
data_PrGaSiIr2
_symmetry_space_group_name_H-M   'P 1'
_cell_length_a   4.18428800
_cell_length_b   4.18428800
_cell_length_c   10.40026700
_cell_angle_alpha   90.00000000
_cell_angle_beta   90.00000000
_cell_angle_gamma   90.00000000
_symmetry_Int_Tables_number   1
_chemical_formula_structural   PrGaSiIr2
_chemical_formula_sum   'Pr2 Ga2 Si2 Ir4'
_cell_volume   182.09064180
_cell_formula_units_Z   2
loop_
 _symmetry_equiv_pos_site_id
 _symmetry_equiv_pos_as_xyz
  1  'x, y, z'
loop_
 _atom_site_type_symbol
 _atom_site_label
 _atom_site_symmetry_multiplicity
 _atom_site_fract_x
 _atom_site_fract_y
 _atom_site_fract_z
 _atom_site_occupancy
  Pr  Pr0  1  0.000000  0.500000  0.247789  1
  Pr  Pr1  1  0.500000  0.000000  0.752211  1
  Ga  Ga2  1  0.000000  0.000000  0.500000  1
  Ga  Ga3  1  0.500000  0.500000  0.500000  1
  Si  Si4  1  0.000000  0.500000  0.877099  1
  Si  Si5  1  0.500000  0.000000  0.122901  1
  Ir  Ir6  1  0.000000  0.000000  0.000000  1
  Ir  Ir7  1  0.500000  0.500000  0.000000  1
  Ir  Ir8  1  0.000000  0.500000  0.644111  1
  Ir  Ir9  1  0.500000  0.000000  0.355889  1
