# generated using pymatgen
data_Pu9O16
_symmetry_space_group_name_H-M   'P 1'
_cell_length_a   6.66738804
_cell_length_b   6.65860424
_cell_length_c   8.59066944
_cell_angle_alpha   74.88511570
_cell_angle_beta   82.31671698
_cell_angle_gamma   80.32580082
_symmetry_Int_Tables_number   1
_chemical_formula_structural   Pu9O16
_chemical_formula_sum   'Pu9 O16'
_cell_volume   361.33466553
_cell_formula_units_Z   1
loop_
 _symmetry_equiv_pos_site_id
 _symmetry_equiv_pos_as_xyz
  1  'x, y, z'
loop_
 _atom_site_type_symbol
 _atom_site_label
 _atom_site_symmetry_multiplicity
 _atom_site_fract_x
 _atom_site_fract_y
 _atom_site_fract_z
 _atom_site_occupancy
  Pu  Pu0  1  0.661573  0.323524  0.667743  1
  Pu  Pu1  1  0.338427  0.676476  0.332257  1
  Pu  Pu2  1  0.418843  0.235255  0.101423  1
  Pu  Pu3  1  0.226411  0.122937  0.533809  1
  Pu  Pu4  1  0.000000  0.000000  0.000000  1
  Pu  Pu5  1  0.109313  0.529028  0.772151  1
  Pu  Pu6  1  0.890687  0.470972  0.227849  1
  Pu  Pu7  1  0.581157  0.764745  0.898577  1
  Pu  Pu8  1  0.773589  0.877063  0.466191  1
  O  O9  1  0.070679  0.292479  0.040982  1
  O  O10  1  0.785941  0.609779  0.707106  1
  O  O11  1  0.535166  0.004084  0.659649  1
  O  O12  1  0.664450  0.589399  0.425055  1
  O  O13  1  0.929321  0.707521  0.959018  1
  O  O14  1  0.126895  0.808227  0.548214  1
  O  O15  1  0.335550  0.410601  0.574945  1
  O  O16  1  0.980994  0.796257  0.255448  1
  O  O17  1  0.671375  0.093702  0.940293  1
  O  O18  1  0.214059  0.390221  0.292894  1
  O  O19  1  0.019006  0.203743  0.744552  1
  O  O20  1  0.417090  0.493957  0.861059  1
  O  O21  1  0.464834  0.995916  0.340351  1
  O  O22  1  0.582910  0.506043  0.138941  1
  O  O23  1  0.873105  0.191773  0.451786  1
  O  O24  1  0.328625  0.906298  0.059707  1
