# generated using pymatgen
data_Zr4Ti3NbAs3P
_symmetry_space_group_name_H-M   'P 1'
_cell_length_a   3.64648400
_cell_length_b   6.92944092
_cell_length_c   8.42675301
_cell_angle_alpha   90.34060568
_cell_angle_beta   90.00000000
_cell_angle_gamma   90.00000000
_symmetry_Int_Tables_number   1
_chemical_formula_structural   Zr4Ti3NbAs3P
_chemical_formula_sum   'Zr4 Ti3 Nb1 As3 P1'
_cell_volume   212.92423675
_cell_formula_units_Z   1
loop_
 _symmetry_equiv_pos_site_id
 _symmetry_equiv_pos_as_xyz
  1  'x, y, z'
loop_
 _atom_site_type_symbol
 _atom_site_label
 _atom_site_symmetry_multiplicity
 _atom_site_fract_x
 _atom_site_fract_y
 _atom_site_fract_z
 _atom_site_occupancy
  Zr  Zr0  1  0.250000  0.540773  0.832884  1
  Zr  Zr1  1  0.750000  0.969293  0.331891  1
  Zr  Zr2  1  0.250000  0.044174  0.666283  1
  Zr  Zr3  1  0.750000  0.456687  0.171125  1
  Ti  Ti4  1  0.250000  0.133324  0.065075  1
  Ti  Ti5  1  0.750000  0.866579  0.940839  1
  Ti  Ti6  1  0.250000  0.627586  0.438545  1
  Nb  Nb7  1  0.750000  0.359777  0.554243  1
  As  As8  1  0.750000  0.741869  0.638583  1
  As  As9  1  0.250000  0.759001  0.139591  1
  As  As10  1  0.750000  0.239571  0.866282  1
  P  P11  1  0.250000  0.261367  0.354658  1
