# generated using pymatgen
data_CsLiVF6
_symmetry_space_group_name_H-M   'P 1'
_cell_length_a   10.83883800
_cell_length_b   5.89624557
_cell_length_c   9.31668343
_cell_angle_alpha   88.35467033
_cell_angle_beta   90.00000000
_cell_angle_gamma   90.00000000
_symmetry_Int_Tables_number   1
_chemical_formula_structural   CsLiVF6
_chemical_formula_sum   'Cs4 Li4 V4 F24'
_cell_volume   595.16931960
_cell_formula_units_Z   4
loop_
 _symmetry_equiv_pos_site_id
 _symmetry_equiv_pos_as_xyz
  1  'x, y, z'
loop_
 _atom_site_type_symbol
 _atom_site_label
 _atom_site_symmetry_multiplicity
 _atom_site_fract_x
 _atom_site_fract_y
 _atom_site_fract_z
 _atom_site_occupancy
  Cs  Cs0  1  0.696102  0.303974  0.005677  1
  Cs  Cs1  1  0.196102  0.696026  0.494323  1
  Cs  Cs2  1  0.303898  0.696026  0.994323  1
  Cs  Cs3  1  0.803898  0.303974  0.505677  1
  Li  Li4  1  0.592019  0.755925  0.678821  1
  Li  Li5  1  0.092019  0.244075  0.821179  1
  Li  Li6  1  0.407981  0.244075  0.321179  1
  Li  Li7  1  0.907981  0.755925  0.178821  1
  V  V8  1  0.913889  0.776923  0.775231  1
  V  V9  1  0.413889  0.223077  0.724769  1
  V  V10  1  0.086111  0.223077  0.224769  1
  V  V11  1  0.586111  0.776923  0.275231  1
  F  F12  1  0.751796  0.649635  0.749778  1
  F  F13  1  0.251796  0.350365  0.750222  1
  F  F14  1  0.248204  0.350365  0.250222  1
  F  F15  1  0.748204  0.649635  0.249778  1
  F  F16  1  0.901466  0.714257  0.972730  1
  F  F17  1  0.401466  0.285743  0.527270  1
  F  F18  1  0.098534  0.285743  0.027270  1
  F  F19  1  0.598534  0.714257  0.472730  1
  F  F20  1  0.070513  0.919873  0.798764  1
  F  F21  1  0.570513  0.080127  0.701236  1
  F  F22  1  0.929487  0.080127  0.201236  1
  F  F23  1  0.429487  0.919873  0.298764  1
  F  F24  1  0.922594  0.817375  0.579478  1
  F  F25  1  0.422594  0.182625  0.920522  1
  F  F26  1  0.077406  0.182625  0.420522  1
  F  F27  1  0.577406  0.817375  0.079478  1
  F  F28  1  0.843278  0.060502  0.798577  1
  F  F29  1  0.343278  0.939498  0.701423  1
  F  F30  1  0.156722  0.939498  0.201423  1
  F  F31  1  0.656722  0.060502  0.298577  1
  F  F32  1  0.991851  0.488242  0.749293  1
  F  F33  1  0.491851  0.511758  0.750707  1
  F  F34  1  0.008149  0.511758  0.250707  1
  F  F35  1  0.508149  0.488242  0.249293  1
