# generated using pymatgen
data_Yb8Si13Hg
_symmetry_space_group_name_H-M   'P 1'
_cell_length_a   8.02347931
_cell_length_b   7.80727799
_cell_length_c   8.76364700
_cell_angle_alpha   90.00000000
_cell_angle_beta   90.00000000
_cell_angle_gamma   121.31196839
_symmetry_Int_Tables_number   1
_chemical_formula_structural   Yb8Si13Hg
_chemical_formula_sum   'Yb8 Si13 Hg1'
_cell_volume   469.01121472
_cell_formula_units_Z   1
loop_
 _symmetry_equiv_pos_site_id
 _symmetry_equiv_pos_as_xyz
  1  'x, y, z'
loop_
 _atom_site_type_symbol
 _atom_site_label
 _atom_site_symmetry_multiplicity
 _atom_site_fract_x
 _atom_site_fract_y
 _atom_site_fract_z
 _atom_site_occupancy
  Yb  Yb0  1  0.263224  0.250699  0.988907  1
  Yb  Yb1  1  0.751223  0.757332  0.004549  1
  Yb  Yb2  1  0.751223  0.757332  0.495451  1
  Yb  Yb3  1  0.263224  0.250699  0.511093  1
  Yb  Yb4  1  0.253823  0.751471  0.494552  1
  Yb  Yb5  1  0.740181  0.260263  0.514717  1
  Yb  Yb6  1  0.740181  0.260263  0.985283  1
  Yb  Yb7  1  0.253823  0.751471  0.005448  1
  Si  Si8  1  0.951012  0.651367  0.750000  1
  Si  Si9  1  0.591070  0.430183  0.250000  1
  Si  Si10  1  0.414315  0.585443  0.750000  1
  Si  Si11  1  0.399151  0.578926  0.250000  1
  Si  Si12  1  0.598155  0.427270  0.750000  1
  Si  Si13  1  0.076741  0.935328  0.250000  1
  Si  Si14  1  0.932200  0.069609  0.750000  1
  Si  Si15  1  0.615408  0.942224  0.250000  1
  Si  Si16  1  0.386583  0.064055  0.750000  1
  Si  Si17  1  0.931343  0.574077  0.250000  1
  Si  Si18  1  0.071291  0.423645  0.750000  1
  Si  Si19  1  0.417883  0.083675  0.250000  1
  Si  Si20  1  0.592832  0.932441  0.750000  1
  Hg  Hg21  1  0.005115  0.262227  0.250000  1
