# generated using pymatgen
data_La6PuO12
_symmetry_space_group_name_H-M   'P 1'
_cell_length_a   6.90919800
_cell_length_b   6.90919773
_cell_length_c   6.90919807
_cell_angle_alpha   98.56095228
_cell_angle_beta   98.56095112
_cell_angle_gamma   98.56096219
_symmetry_Int_Tables_number   1
_chemical_formula_structural   La6PuO12
_chemical_formula_sum   'La6 Pu1 O12'
_cell_volume   317.54464933
_cell_formula_units_Z   1
loop_
 _symmetry_equiv_pos_site_id
 _symmetry_equiv_pos_as_xyz
  1  'x, y, z'
loop_
 _atom_site_type_symbol
 _atom_site_label
 _atom_site_symmetry_multiplicity
 _atom_site_fract_x
 _atom_site_fract_y
 _atom_site_fract_z
 _atom_site_occupancy
  La  La0  1  0.309675  0.606199  0.143987  1
  La  La1  1  0.606199  0.143987  0.309675  1
  La  La2  1  0.393801  0.856013  0.690325  1
  La  La3  1  0.690325  0.393801  0.856013  1
  La  La4  1  0.856013  0.690325  0.393801  1
  La  La5  1  0.143987  0.309675  0.606199  1
  Pu  Pu6  1  0.000000  0.000000  0.000000  1
  O  O7  1  0.437377  0.177278  0.592809  1
  O  O8  1  0.930677  0.706761  0.042129  1
  O  O9  1  0.177278  0.592809  0.437377  1
  O  O10  1  0.822722  0.407191  0.562623  1
  O  O11  1  0.562623  0.822722  0.407191  1
  O  O12  1  0.592809  0.437377  0.177278  1
  O  O13  1  0.407191  0.562623  0.822722  1
  O  O14  1  0.957871  0.069323  0.293239  1
  O  O15  1  0.042129  0.930677  0.706761  1
  O  O16  1  0.706761  0.042129  0.930677  1
  O  O17  1  0.069323  0.293239  0.957871  1
  O  O18  1  0.293239  0.957871  0.069323  1
