# generated using pymatgen
data_Si12P12Rh3Au
_symmetry_space_group_name_H-M   'P 1'
_cell_length_a   5.97287840
_cell_length_b   6.17262923
_cell_length_c   13.05753262
_cell_angle_alpha   89.34034863
_cell_angle_beta   90.94573414
_cell_angle_gamma   90.48450529
_symmetry_Int_Tables_number   1
_chemical_formula_structural   Si12P12Rh3Au
_chemical_formula_sum   'Si12 P12 Rh3 Au1'
_cell_volume   481.29593235
_cell_formula_units_Z   1
loop_
 _symmetry_equiv_pos_site_id
 _symmetry_equiv_pos_as_xyz
  1  'x, y, z'
loop_
 _atom_site_type_symbol
 _atom_site_label
 _atom_site_symmetry_multiplicity
 _atom_site_fract_x
 _atom_site_fract_y
 _atom_site_fract_z
 _atom_site_occupancy
  Si  Si0  1  0.960487  0.139235  0.313155  1
  Si  Si1  1  0.463087  0.841865  0.682380  1
  Si  Si2  1  0.935414  0.623759  0.205304  1
  Si  Si3  1  0.430314  0.372934  0.788056  1
  Si  Si4  1  0.342507  0.913936  0.949779  1
  Si  Si5  1  0.842664  0.078453  0.048097  1
  Si  Si6  1  0.910179  0.535857  0.674958  1
  Si  Si7  1  0.437088  0.473300  0.322598  1
  Si  Si8  1  0.985848  0.068424  0.572472  1
  Si  Si9  1  0.485347  0.945106  0.431351  1
  Si  Si10  1  0.912997  0.624175  0.927582  1
  Si  Si11  1  0.414666  0.371475  0.071836  1
  P  P12  1  0.578037  0.030454  0.825752  1
  P  P13  1  0.087075  0.963361  0.173091  1
  P  P14  1  0.522659  0.562524  0.930640  1
  P  P15  1  0.026543  0.426444  0.068066  1
  P  P16  1  0.603460  0.118386  0.575308  1
  P  P17  1  0.101571  0.901399  0.430073  1
  P  P18  1  0.553293  0.645116  0.177719  1
  P  P19  1  0.045177  0.356314  0.819750  1
  P  P20  1  0.576728  0.132016  0.289108  1
  P  P21  1  0.077420  0.869542  0.711140  1
  P  P22  1  0.149514  0.402979  0.560816  1
  P  P23  1  0.638866  0.613419  0.451335  1
  Rh  Rh24  1  0.966221  0.984140  0.878871  1
  Rh  Rh25  1  0.470939  0.012892  0.119492  1
  Rh  Rh26  1  0.532237  0.488110  0.622319  1
  Au  Au27  1  0.043462  0.504385  0.378951  1
