# generated using pymatgen
data_DyLu5Al24Ru5Pt3
_symmetry_space_group_name_H-M   'P 1'
_cell_length_a   8.78770250
_cell_length_b   8.77156542
_cell_length_c   9.49627093
_cell_angle_alpha   89.81438065
_cell_angle_beta   90.06672137
_cell_angle_gamma   119.56913901
_symmetry_Int_Tables_number   1
_chemical_formula_structural   DyLu5Al24Ru5Pt3
_chemical_formula_sum   'Dy1 Lu5 Al24 Ru5 Pt3'
_cell_volume   636.65341486
_cell_formula_units_Z   1
loop_
 _symmetry_equiv_pos_site_id
 _symmetry_equiv_pos_as_xyz
  1  'x, y, z'
loop_
 _atom_site_type_symbol
 _atom_site_label
 _atom_site_symmetry_multiplicity
 _atom_site_fract_x
 _atom_site_fract_y
 _atom_site_fract_z
 _atom_site_occupancy
  Dy  Dy0  1  0.383663  0.189816  0.749742  1
  Lu  Lu1  1  0.193121  0.804793  0.249278  1
  Lu  Lu2  1  0.189683  0.389098  0.248273  1
  Lu  Lu3  1  0.612700  0.809227  0.249768  1
  Lu  Lu4  1  0.807562  0.195423  0.750756  1
  Lu  Lu5  1  0.810665  0.610919  0.751739  1
  Al  Al6  1  0.564526  0.437164  0.250247  1
  Al  Al7  1  0.561913  0.124955  0.246717  1
  Al  Al8  1  0.878102  0.440512  0.250197  1
  Al  Al9  1  0.436021  0.564274  0.749695  1
  Al  Al10  1  0.438800  0.874688  0.753559  1
  Al  Al11  1  0.122033  0.559646  0.749853  1
  Al  Al12  1  0.322962  0.162499  0.420040  1
  Al  Al13  1  0.841836  0.167855  0.419966  1
  Al  Al14  1  0.842058  0.675628  0.421955  1
  Al  Al15  1  0.677260  0.837684  0.578605  1
  Al  Al16  1  0.158103  0.831387  0.579151  1
  Al  Al17  1  0.157756  0.325130  0.577063  1
  Al  Al18  1  0.675516  0.842273  0.924476  1
  Al  Al19  1  0.163918  0.835905  0.922438  1
  Al  Al20  1  0.158396  0.326187  0.923957  1
  Al  Al21  1  0.324755  0.157687  0.076898  1
  Al  Al22  1  0.835973  0.163050  0.078640  1
  Al  Al23  1  0.841454  0.674370  0.076917  1
  Al  Al24  1  0.673467  0.336228  0.531073  1
  Al  Al25  1  0.327511  0.664244  0.467464  1
  Al  Al26  1  0.330801  0.669819  0.031495  1
  Al  Al27  1  0.670091  0.330280  0.969831  1
  Al  Al28  1  0.996856  0.000926  0.249811  1
  Al  Al29  1  0.000015  0.997322  0.750166  1
  Ru  Ru30  1  0.000145  0.000073  0.499991  1
  Ru  Ru31  1  0.000163  0.000044  0.999992  1
  Ru  Ru32  1  0.000365  0.500178  0.499845  1
  Ru  Ru33  1  0.500352  0.999546  0.000667  1
  Ru  Ru34  1  0.000362  0.500148  0.000212  1
  Pt  Pt35  1  0.500393  0.500765  0.499552  1
  Pt  Pt36  1  0.500379  0.999631  0.499547  1
  Pt  Pt37  1  0.500324  0.500627  0.000423  1
