# generated using pymatgen
data_Tb4LuAsPb3
_symmetry_space_group_name_H-M   'P 1'
_cell_length_a   9.15983400
_cell_length_b   9.15983492
_cell_length_c   6.78474700
_cell_angle_alpha   90.00000000
_cell_angle_beta   90.00000000
_cell_angle_gamma   119.99999668
_symmetry_Int_Tables_number   1
_chemical_formula_structural   Tb4LuAsPb3
_chemical_formula_sum   'Tb8 Lu2 As2 Pb6'
_cell_volume   492.99163904
_cell_formula_units_Z   2
loop_
 _symmetry_equiv_pos_site_id
 _symmetry_equiv_pos_as_xyz
  1  'x, y, z'
loop_
 _atom_site_type_symbol
 _atom_site_label
 _atom_site_symmetry_multiplicity
 _atom_site_fract_x
 _atom_site_fract_y
 _atom_site_fract_z
 _atom_site_occupancy
  Tb  Tb0  1  0.245603  0.000000  0.249060  1
  Tb  Tb1  1  0.754397  0.000000  0.750940  1
  Tb  Tb2  1  0.000000  0.245603  0.249060  1
  Tb  Tb3  1  0.333333  0.666667  0.500000  1
  Tb  Tb4  1  0.666667  0.333333  0.500000  1
  Tb  Tb5  1  0.000000  0.754397  0.750940  1
  Tb  Tb6  1  0.245603  0.245603  0.750940  1
  Tb  Tb7  1  0.754397  0.754397  0.249060  1
  Lu  Lu8  1  0.666667  0.333333  0.000000  1
  Lu  Lu9  1  0.333333  0.666667  0.000000  1
  As  As10  1  0.000000  0.000000  0.000000  1
  As  As11  1  0.000000  0.000000  0.500000  1
  Pb  Pb12  1  0.399703  0.000000  0.752731  1
  Pb  Pb13  1  0.000000  0.399703  0.752731  1
  Pb  Pb14  1  0.399703  0.399703  0.247269  1
  Pb  Pb15  1  0.600297  0.000000  0.247269  1
  Pb  Pb16  1  0.000000  0.600297  0.247269  1
  Pb  Pb17  1  0.600297  0.600297  0.752731  1
