# generated using pymatgen
data_V3Si2RhC
_symmetry_space_group_name_H-M   'P 1'
_cell_length_a   7.81324195
_cell_length_b   7.81324096
_cell_length_c   7.81324000
_cell_angle_alpha   59.99999562
_cell_angle_beta   59.99999979
_cell_angle_gamma   59.99999324
_symmetry_Int_Tables_number   1
_chemical_formula_structural   V3Si2RhC
_chemical_formula_sum   'V12 Si8 Rh4 C4'
_cell_volume   337.27070563
_cell_formula_units_Z   4
loop_
 _symmetry_equiv_pos_site_id
 _symmetry_equiv_pos_as_xyz
  1  'x, y, z'
loop_
 _atom_site_type_symbol
 _atom_site_label
 _atom_site_symmetry_multiplicity
 _atom_site_fract_x
 _atom_site_fract_y
 _atom_site_fract_z
 _atom_site_occupancy
  V  V0  1  0.818435  0.818435  0.181565  1
  V  V1  1  0.181565  0.181565  0.818435  1
  V  V2  1  0.818435  0.181565  0.818435  1
  V  V3  1  0.181565  0.818435  0.181565  1
  V  V4  1  0.181565  0.818435  0.818435  1
  V  V5  1  0.818435  0.181565  0.181565  1
  V  V6  1  0.431565  0.431565  0.068435  1
  V  V7  1  0.068435  0.068435  0.431565  1
  V  V8  1  0.431565  0.068435  0.431565  1
  V  V9  1  0.068435  0.431565  0.068435  1
  V  V10  1  0.068435  0.431565  0.431565  1
  V  V11  1  0.431565  0.068435  0.068435  1
  Si  Si12  1  0.771403  0.409533  0.409533  1
  Si  Si13  1  0.409533  0.771403  0.409533  1
  Si  Si14  1  0.409533  0.409533  0.771403  1
  Si  Si15  1  0.409533  0.409533  0.409533  1
  Si  Si16  1  0.478597  0.840467  0.840467  1
  Si  Si17  1  0.840467  0.478597  0.840467  1
  Si  Si18  1  0.840467  0.840467  0.478597  1
  Si  Si19  1  0.840467  0.840467  0.840467  1
  Rh  Rh20  1  0.125000  0.625000  0.625000  1
  Rh  Rh21  1  0.625000  0.125000  0.625000  1
  Rh  Rh22  1  0.625000  0.625000  0.125000  1
  Rh  Rh23  1  0.625000  0.625000  0.625000  1
  C  C24  1  0.625000  0.125000  0.125000  1
  C  C25  1  0.125000  0.625000  0.125000  1
  C  C26  1  0.125000  0.125000  0.625000  1
  C  C27  1  0.125000  0.125000  0.125000  1
