# generated using pymatgen
data_CsRb6TaIn3As5
_symmetry_space_group_name_H-M   'P 1'
_cell_length_a   8.72826054
_cell_length_b   9.65199763
_cell_length_c   14.70871978
_cell_angle_alpha   84.92365488
_cell_angle_beta   83.94009442
_cell_angle_gamma   86.84558426
_symmetry_Int_Tables_number   1
_chemical_formula_structural   CsRb6TaIn3As5
_chemical_formula_sum   'Cs2 Rb12 Ta2 In6 As10'
_cell_volume   1226.07468027
_cell_formula_units_Z   2
loop_
 _symmetry_equiv_pos_site_id
 _symmetry_equiv_pos_as_xyz
  1  'x, y, z'
loop_
 _atom_site_type_symbol
 _atom_site_label
 _atom_site_symmetry_multiplicity
 _atom_site_fract_x
 _atom_site_fract_y
 _atom_site_fract_z
 _atom_site_occupancy
  Cs  Cs0  1  0.831524  0.364409  0.641922  1
  Cs  Cs1  1  0.168476  0.635591  0.358078  1
  Rb  Rb2  1  0.816430  0.811559  0.131600  1
  Rb  Rb3  1  0.183570  0.188441  0.868400  1
  Rb  Rb4  1  0.272334  0.254875  0.251547  1
  Rb  Rb5  1  0.727666  0.745125  0.748453  1
  Rb  Rb6  1  0.741264  0.499779  0.973941  1
  Rb  Rb7  1  0.258736  0.500221  0.026059  1
  Rb  Rb8  1  0.684822  0.082266  0.884798  1
  Rb  Rb9  1  0.315178  0.917734  0.115202  1
  Rb  Rb10  1  0.669082  0.660847  0.393897  1
  Rb  Rb11  1  0.330918  0.339153  0.606103  1
  Rb  Rb12  1  0.756748  0.991182  0.531721  1
  Rb  Rb13  1  0.243252  0.008818  0.468279  1
  Ta  Ta14  1  0.649318  0.394645  0.224437  1
  Ta  Ta15  1  0.350682  0.605355  0.775563  1
  In  In16  1  0.910482  0.275029  0.375108  1
  In  In17  1  0.089518  0.724971  0.624892  1
  In  In18  1  0.945836  0.183607  0.129250  1
  In  In19  1  0.054164  0.816393  0.870750  1
  In  In20  1  0.635127  0.044815  0.299153  1
  In  In21  1  0.364873  0.955185  0.700847  1
  As  As22  1  0.491509  0.600897  0.184224  1
  As  As23  1  0.508491  0.399103  0.815776  1
  As  As24  1  0.928239  0.453021  0.206463  1
  As  As25  1  0.071761  0.546979  0.793537  1
  As  As26  1  0.581402  0.299700  0.389827  1
  As  As27  1  0.418598  0.700300  0.610173  1
  As  As28  1  0.620673  0.196909  0.123956  1
  As  As29  1  0.379327  0.803091  0.876044  1
  As  As30  1  0.972797  0.998278  0.298963  1
  As  As31  1  0.027203  0.001722  0.701037  1
