# generated using pymatgen
data_Li2Pa2Ge6Ir7
_symmetry_space_group_name_H-M   'P 1'
_cell_length_a   7.21066520
_cell_length_b   7.21066409
_cell_length_c   7.11777354
_cell_angle_alpha   109.23682077
_cell_angle_beta   109.23683014
_cell_angle_gamma   110.45928266
_symmetry_Int_Tables_number   1
_chemical_formula_structural   Li2Pa2Ge6Ir7
_chemical_formula_sum   'Li2 Pa2 Ge6 Ir7'
_cell_volume   283.01448638
_cell_formula_units_Z   1
loop_
 _symmetry_equiv_pos_site_id
 _symmetry_equiv_pos_as_xyz
  1  'x, y, z'
loop_
 _atom_site_type_symbol
 _atom_site_label
 _atom_site_symmetry_multiplicity
 _atom_site_fract_x
 _atom_site_fract_y
 _atom_site_fract_z
 _atom_site_occupancy
  Li  Li0  1  0.000000  0.500000  0.000000  1
  Li  Li1  1  0.500000  0.000000  0.000000  1
  Pa  Pa2  1  0.000000  0.000000  0.500000  1
  Pa  Pa3  1  0.500000  0.500000  0.500000  1
  Ge  Ge4  1  0.689537  0.689537  0.000000  1
  Ge  Ge5  1  0.311288  0.977641  0.288929  1
  Ge  Ge6  1  0.977641  0.311288  0.288929  1
  Ge  Ge7  1  0.310463  0.310463  0.000000  1
  Ge  Ge8  1  0.688712  0.022359  0.711071  1
  Ge  Ge9  1  0.022359  0.688712  0.711071  1
  Ir  Ir10  1  0.750000  0.250000  0.500000  1
  Ir  Ir11  1  0.748290  0.503821  0.252111  1
  Ir  Ir12  1  0.496179  0.251710  0.747889  1
  Ir  Ir13  1  0.251710  0.496179  0.747889  1
  Ir  Ir14  1  0.250000  0.750000  0.500000  1
  Ir  Ir15  1  0.503821  0.748290  0.252111  1
  Ir  Ir16  1  0.000000  0.000000  0.000000  1
