# generated using pymatgen
data_Na3Cu4(SeS)2
_symmetry_space_group_name_H-M   'P 1'
_cell_length_a   3.80115900
_cell_length_b   7.38042600
_cell_length_c   14.85492900
_cell_angle_alpha   90.00000000
_cell_angle_beta   90.00000000
_cell_angle_gamma   90.00000000
_symmetry_Int_Tables_number   1
_chemical_formula_structural   Na3Cu4(SeS)2
_chemical_formula_sum   'Na6 Cu8 Se4 S4'
_cell_volume   416.74274382
_cell_formula_units_Z   2
loop_
 _symmetry_equiv_pos_site_id
 _symmetry_equiv_pos_as_xyz
  1  'x, y, z'
loop_
 _atom_site_type_symbol
 _atom_site_label
 _atom_site_symmetry_multiplicity
 _atom_site_fract_x
 _atom_site_fract_y
 _atom_site_fract_z
 _atom_site_occupancy
  Na  Na0  1  0.000000  0.487193  0.737273  1
  Na  Na1  1  0.000000  0.512807  0.262727  1
  Na  Na2  1  0.000000  0.012807  0.237273  1
  Na  Na3  1  0.500000  0.500000  0.500000  1
  Na  Na4  1  0.500000  0.000000  0.000000  1
  Na  Na5  1  0.000000  0.987193  0.762727  1
  Cu  Cu6  1  0.500000  0.913610  0.584139  1
  Cu  Cu7  1  0.000000  0.344778  0.053822  1
  Cu  Cu8  1  0.500000  0.413610  0.915861  1
  Cu  Cu9  1  0.000000  0.844778  0.446178  1
  Cu  Cu10  1  0.500000  0.086390  0.415861  1
  Cu  Cu11  1  0.000000  0.155222  0.553822  1
  Cu  Cu12  1  0.000000  0.655222  0.946178  1
  Cu  Cu13  1  0.500000  0.586390  0.084139  1
  Se  Se14  1  0.500000  0.780536  0.347599  1
  Se  Se15  1  0.500000  0.719464  0.847599  1
  Se  Se16  1  0.500000  0.280536  0.152401  1
  Se  Se17  1  0.500000  0.219464  0.652401  1
  S  S18  1  0.000000  0.745813  0.592561  1
  S  S19  1  0.000000  0.245813  0.907439  1
  S  S20  1  0.000000  0.254187  0.407439  1
  S  S21  1  0.000000  0.754187  0.092561  1
