# generated using pymatgen
data_Cs3Sb(AsSe2)6
_symmetry_space_group_name_H-M   'P 1'
_cell_length_a   10.11231000
_cell_length_b   10.11230996
_cell_length_c   8.66738400
_cell_angle_alpha   90.00000000
_cell_angle_beta   90.00000000
_cell_angle_gamma   119.99999796
_symmetry_Int_Tables_number   1
_chemical_formula_structural   Cs3Sb(AsSe2)6
_chemical_formula_sum   'Cs3 Sb1 As6 Se12'
_cell_volume   767.57253498
_cell_formula_units_Z   1
loop_
 _symmetry_equiv_pos_site_id
 _symmetry_equiv_pos_as_xyz
  1  'x, y, z'
loop_
 _atom_site_type_symbol
 _atom_site_label
 _atom_site_symmetry_multiplicity
 _atom_site_fract_x
 _atom_site_fract_y
 _atom_site_fract_z
 _atom_site_occupancy
  Cs  Cs0  1  0.000000  0.000000  0.000000  1
  Cs  Cs1  1  0.333333  0.666667  0.860035  1
  Cs  Cs2  1  0.666667  0.333333  0.139965  1
  Sb  Sb3  1  0.000000  0.000000  0.500000  1
  As  As4  1  0.285660  0.835549  0.403210  1
  As  As5  1  0.164451  0.450111  0.403210  1
  As  As6  1  0.549889  0.714340  0.403210  1
  As  As7  1  0.714340  0.164451  0.596790  1
  As  As8  1  0.835549  0.549889  0.596790  1
  As  As9  1  0.450111  0.285660  0.596790  1
  Se  Se10  1  0.256646  0.040640  0.308981  1
  Se  Se11  1  0.959360  0.216006  0.308981  1
  Se  Se12  1  0.783994  0.743354  0.308981  1
  Se  Se13  1  0.743354  0.959360  0.691019  1
  Se  Se14  1  0.040640  0.783994  0.691019  1
  Se  Se15  1  0.216006  0.256646  0.691019  1
  Se  Se16  1  0.521006  0.905574  0.251115  1
  Se  Se17  1  0.094426  0.615431  0.251115  1
  Se  Se18  1  0.384569  0.478994  0.251115  1
  Se  Se19  1  0.478994  0.094426  0.748885  1
  Se  Se20  1  0.905574  0.384569  0.748885  1
  Se  Se21  1  0.615431  0.521006  0.748885  1
