# generated using pymatgen
data_RbSb2P5O18
_symmetry_space_group_name_H-M   'P 1'
_cell_length_a   5.09610643
_cell_length_b   10.73094325
_cell_length_c   14.26854300
_cell_angle_alpha   83.54797685
_cell_angle_beta   86.67273958
_cell_angle_gamma   84.56446244
_symmetry_Int_Tables_number   1
_chemical_formula_structural   RbSb2P5O18
_chemical_formula_sum   'Rb2 Sb4 P10 O36'
_cell_volume   770.97496424
_cell_formula_units_Z   2
loop_
 _symmetry_equiv_pos_site_id
 _symmetry_equiv_pos_as_xyz
  1  'x, y, z'
loop_
 _atom_site_type_symbol
 _atom_site_label
 _atom_site_symmetry_multiplicity
 _atom_site_fract_x
 _atom_site_fract_y
 _atom_site_fract_z
 _atom_site_occupancy
  Rb  Rb0  1  0.290580  0.100122  0.380214  1
  Rb  Rb1  1  0.709408  0.899864  0.619788  1
  Sb  Sb2  1  0.300081  0.291184  0.006438  1
  Sb  Sb3  1  0.250023  0.552793  0.356893  1
  Sb  Sb4  1  0.749976  0.447214  0.643106  1
  Sb  Sb5  1  0.699921  0.708813  0.993562  1
  P  P6  1  0.211610  0.553973  0.112761  1
  P  P7  1  0.813145  0.151293  0.136703  1
  P  P8  1  0.575550  0.911886  0.157926  1
  P  P9  1  0.696702  0.768651  0.336188  1
  P  P10  1  0.781871  0.371348  0.419994  1
  P  P11  1  0.218135  0.628686  0.580000  1
  P  P12  1  0.303298  0.231354  0.663817  1
  P  P13  1  0.424448  0.088111  0.842075  1
  P  P14  1  0.186854  0.848702  0.863294  1
  P  P15  1  0.788395  0.446026  0.887240  1
  O  O16  1  0.486528  0.581373  0.067587  1
  O  O17  1  0.528910  0.834325  0.074421  1
  O  O18  1  0.068023  0.170367  0.071288  1
  O  O19  1  0.139763  0.425958  0.083777  1
  O  O20  1  0.991081  0.657917  0.083508  1
  O  O21  1  0.580328  0.248221  0.097768  1
  O  O22  1  0.759499  0.014797  0.106510  1
  O  O23  1  0.333188  0.964440  0.205449  1
  O  O24  1  0.227321  0.543021  0.218806  1
  O  O25  1  0.767236  0.820802  0.225802  1
  O  O26  1  0.835119  0.154558  0.238763  1
  O  O27  1  0.424904  0.711333  0.329948  1
  O  O28  1  0.905620  0.655461  0.354641  1
  O  O29  1  0.581995  0.442643  0.346331  1
  O  O30  1  0.065394  0.395764  0.373102  1
  O  O31  1  0.687949  0.869705  0.398748  1
  O  O32  1  0.756142  0.234870  0.441482  1
  O  O33  1  0.253146  0.547218  0.494333  1
  O  O34  1  0.746858  0.452783  0.505665  1
  O  O35  1  0.243847  0.765116  0.558519  1
  O  O36  1  0.312052  0.130293  0.601252  1
  O  O37  1  0.934601  0.604240  0.626897  1
  O  O38  1  0.418013  0.557370  0.653670  1
  O  O39  1  0.094378  0.344541  0.645361  1
  O  O40  1  0.575088  0.288674  0.670057  1
  O  O41  1  0.164881  0.845433  0.761237  1
  O  O42  1  0.232762  0.179202  0.774202  1
  O  O43  1  0.772692  0.456987  0.781192  1
  O  O44  1  0.666804  0.035558  0.794549  1
  O  O45  1  0.240493  0.985200  0.893487  1
  O  O46  1  0.419675  0.751778  0.902232  1
  O  O47  1  0.008922  0.342080  0.916492  1
  O  O48  1  0.860243  0.574038  0.916225  1
  O  O49  1  0.931977  0.829629  0.928711  1
  O  O50  1  0.471095  0.165666  0.925583  1
  O  O51  1  0.513476  0.418621  0.932409  1
