# generated using pymatgen
data_DyTm4Pa(Al3Os)8
_symmetry_space_group_name_H-M   'P 1'
_cell_length_a   8.77799200
_cell_length_b   8.81251394
_cell_length_c   9.53708300
_cell_angle_alpha   90.00000000
_cell_angle_beta   90.00000000
_cell_angle_gamma   119.87050610
_symmetry_Int_Tables_number   1
_chemical_formula_structural   DyTm4Pa(Al3Os)8
_chemical_formula_sum   'Dy1 Tm4 Pa1 Al24 Os8'
_cell_volume   639.74427803
_cell_formula_units_Z   1
loop_
 _symmetry_equiv_pos_site_id
 _symmetry_equiv_pos_as_xyz
  1  'x, y, z'
loop_
 _atom_site_type_symbol
 _atom_site_label
 _atom_site_symmetry_multiplicity
 _atom_site_fract_x
 _atom_site_fract_y
 _atom_site_fract_z
 _atom_site_occupancy
  Dy  Dy0  1  0.807816  0.615630  0.750000  1
  Tm  Tm1  1  0.608427  0.801924  0.250000  1
  Tm  Tm2  1  0.389924  0.192592  0.750000  1
  Tm  Tm3  1  0.193497  0.801924  0.250000  1
  Tm  Tm4  1  0.802667  0.192592  0.750000  1
  Pa  Pa5  1  0.196788  0.393575  0.250000  1
  Al  Al6  1  0.336490  0.672981  0.020025  1
  Al  Al7  1  0.667734  0.335465  0.978219  1
  Al  Al8  1  0.667734  0.335465  0.521781  1
  Al  Al9  1  0.336490  0.672981  0.479975  1
  Al  Al10  1  0.162967  0.325936  0.578356  1
  Al  Al11  1  0.836618  0.673236  0.424696  1
  Al  Al12  1  0.672704  0.835699  0.575248  1
  Al  Al13  1  0.836618  0.673236  0.075304  1
  Al  Al14  1  0.326591  0.162142  0.423855  1
  Al  Al15  1  0.162967  0.325936  0.921644  1
  Al  Al16  1  0.162995  0.835699  0.575248  1
  Al  Al17  1  0.326591  0.162142  0.076145  1
  Al  Al18  1  0.835551  0.162142  0.423855  1
  Al  Al19  1  0.672704  0.835699  0.924752  1
  Al  Al20  1  0.835551  0.162142  0.076145  1
  Al  Al21  1  0.162995  0.835699  0.924752  1
  Al  Al22  1  0.559907  0.119815  0.250000  1
  Al  Al23  1  0.437861  0.875723  0.750000  1
  Al  Al24  1  0.872631  0.437534  0.250000  1
  Al  Al25  1  0.120442  0.559455  0.750000  1
  Al  Al26  1  0.564904  0.437534  0.250000  1
  Al  Al27  1  0.439013  0.559455  0.750000  1
  Al  Al28  1  0.000419  0.000838  0.250000  1
  Al  Al29  1  0.000802  0.001602  0.750000  1
  Os  Os30  1  0.501748  0.003495  0.997719  1
  Os  Os31  1  0.003398  0.499723  0.004785  1
  Os  Os32  1  0.501748  0.003495  0.502281  1
  Os  Os33  1  0.496326  0.499723  0.004785  1
  Os  Os34  1  0.003398  0.499723  0.495215  1
  Os  Os35  1  0.496326  0.499723  0.495215  1
  Os  Os36  1  0.999331  0.998661  0.999240  1
  Os  Os37  1  0.999331  0.998661  0.500760  1
