# generated using pymatgen
data_Y12Tc3Pd
_symmetry_space_group_name_H-M   'P 1'
_cell_length_a   6.33603537
_cell_length_b   7.45963415
_cell_length_c   9.27128500
_cell_angle_alpha   90.00000000
_cell_angle_beta   90.00000000
_cell_angle_gamma   90.13271934
_symmetry_Int_Tables_number   1
_chemical_formula_structural   Y12Tc3Pd
_chemical_formula_sum   'Y12 Tc3 Pd1'
_cell_volume   438.20152870
_cell_formula_units_Z   1
loop_
 _symmetry_equiv_pos_site_id
 _symmetry_equiv_pos_as_xyz
  1  'x, y, z'
loop_
 _atom_site_type_symbol
 _atom_site_label
 _atom_site_symmetry_multiplicity
 _atom_site_fract_x
 _atom_site_fract_y
 _atom_site_fract_z
 _atom_site_occupancy
  Y  Y0  1  0.627635  0.046759  0.250000  1
  Y  Y1  1  0.370800  0.956684  0.750000  1
  Y  Y2  1  0.124564  0.460315  0.750000  1
  Y  Y3  1  0.868310  0.535356  0.250000  1
  Y  Y4  1  0.165310  0.183208  0.058278  1
  Y  Y5  1  0.830070  0.824034  0.931809  1
  Y  Y6  1  0.664700  0.322415  0.935607  1
  Y  Y7  1  0.830070  0.824034  0.568191  1
  Y  Y8  1  0.340986  0.670488  0.058681  1
  Y  Y9  1  0.165310  0.183208  0.441722  1
  Y  Y10  1  0.340986  0.670488  0.441319  1
  Y  Y11  1  0.664700  0.322415  0.564393  1
  Tc  Tc12  1  0.455037  0.384743  0.250000  1
  Tc  Tc13  1  0.538134  0.614767  0.750000  1
  Tc  Tc14  1  0.963629  0.113829  0.750000  1
  Pd  Pd15  1  0.049757  0.887256  0.250000  1
