# generated using pymatgen
data_YAl10RuRh
_symmetry_space_group_name_H-M   'P 1'
_cell_length_a   6.86343981
_cell_length_b   6.85905879
_cell_length_c   9.17844400
_cell_angle_alpha   90.00000000
_cell_angle_beta   90.00000000
_cell_angle_gamma   96.97878589
_symmetry_Int_Tables_number   1
_chemical_formula_structural   YAl10RuRh
_chemical_formula_sum   'Y2 Al20 Ru2 Rh2'
_cell_volume   428.88992101
_cell_formula_units_Z   2
loop_
 _symmetry_equiv_pos_site_id
 _symmetry_equiv_pos_as_xyz
  1  'x, y, z'
loop_
 _atom_site_type_symbol
 _atom_site_label
 _atom_site_symmetry_multiplicity
 _atom_site_fract_x
 _atom_site_fract_y
 _atom_site_fract_z
 _atom_site_occupancy
  Y  Y0  1  0.870009  0.125382  0.750000  1
  Y  Y1  1  0.129991  0.874618  0.250000  1
  Al  Al2  1  0.621537  0.375446  0.549762  1
  Al  Al3  1  0.378463  0.624554  0.450238  1
  Al  Al4  1  0.378463  0.624554  0.049762  1
  Al  Al5  1  0.621537  0.375446  0.950238  1
  Al  Al6  1  0.225659  0.223993  0.499208  1
  Al  Al7  1  0.774341  0.776007  0.500792  1
  Al  Al8  1  0.774341  0.776007  0.999208  1
  Al  Al9  1  0.225659  0.223993  0.000792  1
  Al  Al10  1  0.844395  0.154447  0.101267  1
  Al  Al11  1  0.155605  0.845553  0.898733  1
  Al  Al12  1  0.155605  0.845553  0.601267  1
  Al  Al13  1  0.844395  0.154447  0.398733  1
  Al  Al14  1  0.857597  0.588612  0.750000  1
  Al  Al15  1  0.142403  0.411388  0.250000  1
  Al  Al16  1  0.412780  0.140503  0.750000  1
  Al  Al17  1  0.587220  0.859497  0.250000  1
  Al  Al18  1  0.224801  0.480559  0.750000  1
  Al  Al19  1  0.775199  0.519441  0.250000  1
  Al  Al20  1  0.519137  0.777266  0.750000  1
  Al  Al21  1  0.480863  0.222734  0.250000  1
  Ru  Ru22  1  0.500000  0.000000  0.000000  1
  Ru  Ru23  1  0.500000  0.000000  0.500000  1
  Rh  Rh24  1  0.000000  0.500000  0.500000  1
  Rh  Rh25  1  0.000000  0.500000  0.000000  1
