# generated using pymatgen
data_Lu8Hg3BiAu8
_symmetry_space_group_name_H-M   'P 1'
_cell_length_a   7.96281400
_cell_length_b   7.96281400
_cell_length_c   7.16047600
_cell_angle_alpha   90.00000000
_cell_angle_beta   90.00000000
_cell_angle_gamma   90.00000000
_symmetry_Int_Tables_number   1
_chemical_formula_structural   Lu8Hg3BiAu8
_chemical_formula_sum   'Lu8 Hg3 Bi1 Au8'
_cell_volume   454.02005413
_cell_formula_units_Z   1
loop_
 _symmetry_equiv_pos_site_id
 _symmetry_equiv_pos_as_xyz
  1  'x, y, z'
loop_
 _atom_site_type_symbol
 _atom_site_label
 _atom_site_symmetry_multiplicity
 _atom_site_fract_x
 _atom_site_fract_y
 _atom_site_fract_z
 _atom_site_occupancy
  Lu  Lu0  1  0.847853  0.163373  0.501160  1
  Lu  Lu1  1  0.152147  0.836627  0.501160  1
  Lu  Lu2  1  0.336627  0.347853  0.998840  1
  Lu  Lu3  1  0.663373  0.652147  0.998840  1
  Lu  Lu4  1  0.687111  0.676350  0.501090  1
  Lu  Lu5  1  0.312889  0.323650  0.501090  1
  Lu  Lu6  1  0.176351  0.812889  0.998910  1
  Lu  Lu7  1  0.823650  0.187112  0.998910  1
  Hg  Hg8  1  0.000000  0.500000  0.750000  1
  Hg  Hg9  1  0.500000  0.000000  0.750000  1
  Hg  Hg10  1  0.000000  0.500000  0.250000  1
  Bi  Bi11  1  0.500000  0.000000  0.250000  1
  Au  Au12  1  0.630382  0.374570  0.274514  1
  Au  Au13  1  0.369618  0.625430  0.274514  1
  Au  Au14  1  0.130810  0.124841  0.773304  1
  Au  Au15  1  0.869190  0.875159  0.773304  1
  Au  Au16  1  0.375159  0.630810  0.726696  1
  Au  Au17  1  0.624841  0.369190  0.726696  1
  Au  Au18  1  0.874570  0.869618  0.225486  1
  Au  Au19  1  0.125430  0.130382  0.225486  1
