# generated using pymatgen
data_Rb4ReSnCl12
_symmetry_space_group_name_H-M   'P 1'
_cell_length_a   7.30947700
_cell_length_b   7.30962000
_cell_length_c   10.38348200
_cell_angle_alpha   90.00000000
_cell_angle_beta   90.00000000
_cell_angle_gamma   90.00277482
_symmetry_Int_Tables_number   1
_chemical_formula_structural   Rb4ReSnCl12
_chemical_formula_sum   'Rb4 Re1 Sn1 Cl12'
_cell_volume   554.78424360
_cell_formula_units_Z   1
loop_
 _symmetry_equiv_pos_site_id
 _symmetry_equiv_pos_as_xyz
  1  'x, y, z'
loop_
 _atom_site_type_symbol
 _atom_site_label
 _atom_site_symmetry_multiplicity
 _atom_site_fract_x
 _atom_site_fract_y
 _atom_site_fract_z
 _atom_site_occupancy
  Rb  Rb0  1  0.500000  0.000000  0.749426  1
  Rb  Rb1  1  0.000000  0.500000  0.250578  1
  Rb  Rb2  1  0.500000  0.000000  0.250574  1
  Rb  Rb3  1  0.000000  0.500000  0.749422  1
  Re  Re4  1  0.500000  0.500000  0.500000  1
  Sn  Sn5  1  0.000000  0.000000  0.000000  1
  Cl  Cl6  1  0.000000  0.000000  0.761451  1
  Cl  Cl7  1  0.500000  0.500000  0.270543  1
  Cl  Cl8  1  0.730422  0.730409  0.500000  1
  Cl  Cl9  1  0.239135  0.239117  0.000000  1
  Cl  Cl10  1  0.730403  0.269603  0.500000  1
  Cl  Cl11  1  0.239104  0.760898  0.000000  1
  Cl  Cl12  1  0.000000  0.000000  0.238549  1
  Cl  Cl13  1  0.500000  0.500000  0.729457  1
  Cl  Cl14  1  0.269578  0.269591  0.500000  1
  Cl  Cl15  1  0.760865  0.760883  0.000000  1
  Cl  Cl16  1  0.269597  0.730397  0.500000  1
  Cl  Cl17  1  0.760896  0.239102  0.000000  1
