# generated using pymatgen
data_Ca2Pr2Ta3FeO14
_symmetry_space_group_name_H-M   'P 1'
_cell_length_a   7.42030700
_cell_length_b   7.48514928
_cell_length_c   12.87103543
_cell_angle_alpha   55.02295167
_cell_angle_beta   90.00000000
_cell_angle_gamma   90.00000000
_symmetry_Int_Tables_number   1
_chemical_formula_structural   Ca2Pr2Ta3FeO14
_chemical_formula_sum   'Ca4 Pr4 Ta6 Fe2 O28'
_cell_volume   585.76323327
_cell_formula_units_Z   2
loop_
 _symmetry_equiv_pos_site_id
 _symmetry_equiv_pos_as_xyz
  1  'x, y, z'
loop_
 _atom_site_type_symbol
 _atom_site_label
 _atom_site_symmetry_multiplicity
 _atom_site_fract_x
 _atom_site_fract_y
 _atom_site_fract_z
 _atom_site_occupancy
  Ca  Ca0  1  0.500000  0.500000  0.500000  1
  Ca  Ca1  1  0.740524  0.500000  0.250000  1
  Ca  Ca2  1  0.259476  0.500000  0.750000  1
  Ca  Ca3  1  0.500000  0.500000  0.000000  1
  Pr  Pr4  1  0.257000  0.000000  0.750000  1
  Pr  Pr5  1  0.743000  0.000000  0.250000  1
  Pr  Pr6  1  0.000000  0.500000  0.500000  1
  Pr  Pr7  1  0.000000  0.500000  0.000000  1
  Ta  Ta8  1  0.500000  0.000000  0.000000  1
  Ta  Ta9  1  0.500000  0.000000  0.500000  1
  Ta  Ta10  1  0.761573  0.500000  0.750000  1
  Ta  Ta11  1  0.762193  0.000000  0.750000  1
  Ta  Ta12  1  0.238427  0.500000  0.250000  1
  Ta  Ta13  1  0.237807  0.000000  0.250000  1
  Fe  Fe14  1  0.000000  0.000000  0.000000  1
  Fe  Fe15  1  0.000000  0.000000  0.500000  1
  O  O16  1  0.440407  0.317578  0.374703  1
  O  O17  1  0.753790  0.318287  0.680122  1
  O  O18  1  0.743495  0.622233  0.375798  1
  O  O19  1  0.746554  0.931384  0.073167  1
  O  O20  1  0.952073  0.921492  0.874293  1
  O  O21  1  0.947037  0.326588  0.876147  1
  O  O22  1  0.952073  0.078508  0.625707  1
  O  O23  1  0.052963  0.326588  0.376147  1
  O  O24  1  0.246210  0.318287  0.180122  1
  O  O25  1  0.253446  0.068616  0.926833  1
  O  O26  1  0.256505  0.622233  0.875798  1
  O  O27  1  0.246210  0.681713  0.319878  1
  O  O28  1  0.253446  0.931384  0.573167  1
  O  O29  1  0.442081  0.932228  0.372926  1
  O  O30  1  0.440407  0.682422  0.125297  1
  O  O31  1  0.442081  0.067772  0.127074  1
  O  O32  1  0.557919  0.067772  0.627074  1
  O  O33  1  0.557919  0.932228  0.872926  1
  O  O34  1  0.559593  0.317578  0.874703  1
  O  O35  1  0.746554  0.068616  0.426833  1
  O  O36  1  0.753790  0.681713  0.819878  1
  O  O37  1  0.743495  0.377767  0.124202  1
  O  O38  1  0.947037  0.673412  0.623853  1
  O  O39  1  0.047927  0.921492  0.374293  1
  O  O40  1  0.052963  0.673412  0.123853  1
  O  O41  1  0.047927  0.078508  0.125707  1
  O  O42  1  0.256505  0.377767  0.624202  1
  O  O43  1  0.559593  0.682422  0.625297  1
