# generated using pymatgen
data_TbYbHoGa9Pd2
_symmetry_space_group_name_H-M   'P 1'
_cell_length_a   8.13802403
_cell_length_b   8.13802357
_cell_length_c   8.13802461
_cell_angle_alpha   149.14532047
_cell_angle_beta   109.34448928
_cell_angle_gamma   79.06366961
_symmetry_Int_Tables_number   1
_chemical_formula_structural   TbYbHoGa9Pd2
_chemical_formula_sum   'Tb1 Yb1 Ho1 Ga9 Pd2'
_cell_volume   255.77006742
_cell_formula_units_Z   1
loop_
 _symmetry_equiv_pos_site_id
 _symmetry_equiv_pos_as_xyz
  1  'x, y, z'
loop_
 _atom_site_type_symbol
 _atom_site_label
 _atom_site_symmetry_multiplicity
 _atom_site_fract_x
 _atom_site_fract_y
 _atom_site_fract_z
 _atom_site_occupancy
  Tb  Tb0  1  0.499864  0.499864  0.000000  1
  Yb  Yb1  1  0.199985  0.199985  0.000000  1
  Ho  Ho2  1  0.799289  0.799289  0.000000  1
  Ga  Ga3  1  0.644057  0.361726  0.282330  1
  Ga  Ga4  1  0.357098  0.640481  0.716616  1
  Ga  Ga5  1  0.079397  0.361726  0.717670  1
  Ga  Ga6  1  0.923865  0.640481  0.283384  1
  Ga  Ga7  1  0.521901  0.155533  0.366368  1
  Ga  Ga8  1  0.477282  0.841904  0.635379  1
  Ga  Ga9  1  0.789166  0.155533  0.633632  1
  Ga  Ga10  1  0.206526  0.841904  0.364621  1
  Ga  Ga11  1  0.000152  0.500152  0.500000  1
  Pd  Pd12  1  0.182879  0.000709  0.182170  1
  Pd  Pd13  1  0.818541  0.000709  0.817830  1
