# generated using pymatgen
data_Dy10In8Pt3Rh
_symmetry_space_group_name_H-M   'P 1'
_cell_length_a   3.62881900
_cell_length_b   8.13796020
_cell_length_c   18.26244344
_cell_angle_alpha   90.02515983
_cell_angle_beta   90.00000000
_cell_angle_gamma   90.00000000
_symmetry_Int_Tables_number   1
_chemical_formula_structural   Dy10In8Pt3Rh
_chemical_formula_sum   'Dy10 In8 Pt3 Rh1'
_cell_volume   539.31153614
_cell_formula_units_Z   1
loop_
 _symmetry_equiv_pos_site_id
 _symmetry_equiv_pos_as_xyz
  1  'x, y, z'
loop_
 _atom_site_type_symbol
 _atom_site_label
 _atom_site_symmetry_multiplicity
 _atom_site_fract_x
 _atom_site_fract_y
 _atom_site_fract_z
 _atom_site_occupancy
  Dy  Dy0  1  0.000000  0.114859  0.412318  1
  Dy  Dy1  1  0.000000  0.882709  0.585179  1
  Dy  Dy2  1  0.000000  0.383049  0.914861  1
  Dy  Dy3  1  0.000000  0.616941  0.085721  1
  Dy  Dy4  1  0.000000  0.240170  0.221615  1
  Dy  Dy5  1  0.000000  0.756809  0.779501  1
  Dy  Dy6  1  0.000000  0.256493  0.720820  1
  Dy  Dy7  1  0.000000  0.750588  0.279427  1
  Dy  Dy8  1  0.000000  0.000008  0.000041  1
  Dy  Dy9  1  0.000000  0.500104  0.499897  1
  In  In10  1  0.500000  0.423992  0.351420  1
  In  In11  1  0.500000  0.574742  0.648504  1
  In  In12  1  0.500000  0.074935  0.851532  1
  In  In13  1  0.500000  0.927432  0.149446  1
  In  In14  1  0.500000  0.291865  0.067072  1
  In  In15  1  0.500000  0.707838  0.933154  1
  In  In16  1  0.500000  0.207630  0.566700  1
  In  In17  1  0.500000  0.793198  0.431728  1
  Pt  Pt18  1  0.500000  0.974768  0.696531  1
  Pt  Pt19  1  0.500000  0.475034  0.803385  1
  Pt  Pt20  1  0.500000  0.523708  0.196946  1
  Rh  Rh21  1  0.500000  0.023127  0.304201  1
