# generated using pymatgen
data_Cu3Rh(SO4)6
_symmetry_space_group_name_H-M   'P 1'
_cell_length_a   8.26648999
_cell_length_b   8.26648984
_cell_length_c   8.89562000
_cell_angle_alpha   62.31319018
_cell_angle_beta   117.68680927
_cell_angle_gamma   119.99999314
_symmetry_Int_Tables_number   1
_chemical_formula_structural   Cu3Rh(SO4)6
_chemical_formula_sum   'Cu3 Rh1 S6 O24'
_cell_volume   444.25715076
_cell_formula_units_Z   1
loop_
 _symmetry_equiv_pos_site_id
 _symmetry_equiv_pos_as_xyz
  1  'x, y, z'
loop_
 _atom_site_type_symbol
 _atom_site_label
 _atom_site_symmetry_multiplicity
 _atom_site_fract_x
 _atom_site_fract_y
 _atom_site_fract_z
 _atom_site_occupancy
  Cu  Cu0  1  0.144573  0.855517  0.433785  1
  Cu  Cu1  1  0.853751  0.146236  0.561191  1
  Cu  Cu2  1  0.655430  0.344497  0.966315  1
  Rh  Rh3  1  0.345835  0.654096  0.037542  1
  S  S4  1  0.455275  0.250812  0.248390  1
  S  S5  1  0.043954  0.544766  0.248455  1
  S  S6  1  0.749166  0.955985  0.248520  1
  S  S7  1  0.251506  0.043137  0.750165  1
  S  S8  1  0.956815  0.458044  0.750228  1
  S  S9  1  0.541876  0.748524  0.750198  1
  O  O10  1  0.789547  0.149254  0.108660  1
  O  O11  1  0.468307  0.210468  0.108540  1
  O  O12  1  0.850709  0.531680  0.108592  1
  O  O13  1  0.494090  0.466853  0.197969  1
  O  O14  1  0.170770  0.505987  0.198037  1
  O  O15  1  0.533216  0.829213  0.198098  1
  O  O16  1  0.254630  0.131642  0.263273  1
  O  O17  1  0.140285  0.745387  0.263390  1
  O  O18  1  0.868419  0.859700  0.263445  1
  O  O19  1  0.603802  0.209515  0.421500  1
  O  O20  1  0.027195  0.396196  0.421580  1
  O  O21  1  0.790546  0.972792  0.421661  1
  O  O22  1  0.206598  0.022282  0.577578  1
  O  O23  1  0.977730  0.606678  0.577673  1
  O  O24  1  0.393386  0.793503  0.577579  1
  O  O25  1  0.123393  0.127010  0.737949  1
  O  O26  1  0.872954  0.258321  0.737960  1
  O  O27  1  0.741703  0.876670  0.738055  1
  O  O28  1  0.460587  0.163861  0.807025  1
  O  O29  1  0.836124  0.489500  0.807146  1
  O  O30  1  0.510415  0.539456  0.807102  1
  O  O31  1  0.161512  0.473676  0.887527  1
  O  O32  1  0.526157  0.800286  0.887451  1
  O  O33  1  0.199748  0.838455  0.887423  1
