# generated using pymatgen
data_LaZn10Pt
_symmetry_space_group_name_H-M   'P 1'
_cell_length_a   8.34035703
_cell_length_b   8.33875627
_cell_length_c   8.37274382
_cell_angle_alpha   99.82387348
_cell_angle_beta   99.83308643
_cell_angle_gamma   131.08991962
_symmetry_Int_Tables_number   1
_chemical_formula_structural   LaZn10Pt
_chemical_formula_sum   'La2 Zn20 Pt2'
_cell_volume   399.82807920
_cell_formula_units_Z   2
loop_
 _symmetry_equiv_pos_site_id
 _symmetry_equiv_pos_as_xyz
  1  'x, y, z'
loop_
 _atom_site_type_symbol
 _atom_site_label
 _atom_site_symmetry_multiplicity
 _atom_site_fract_x
 _atom_site_fract_y
 _atom_site_fract_z
 _atom_site_occupancy
  La  La0  1  0.246099  0.746099  0.492198  1
  La  La1  1  0.003901  0.003901  0.007802  1
  Zn  Zn2  1  0.900237  0.574127  0.083164  1
  Zn  Zn3  1  0.625000  0.875000  0.250000  1
  Zn  Zn4  1  0.427678  0.512075  0.328143  1
  Zn  Zn5  1  0.489994  0.574123  0.671378  1
  Zn  Zn6  1  0.426857  0.096582  0.914745  1
  Zn  Zn7  1  0.760006  0.175877  0.828622  1
  Zn  Zn8  1  0.487888  0.818163  0.914745  1
  Zn  Zn9  1  0.495760  0.495760  0.991521  1
  Zn  Zn10  1  0.762112  0.931837  0.585255  1
  Zn  Zn11  1  0.754240  0.254240  0.508479  1
  Zn  Zn12  1  0.068616  0.652745  0.828622  1
  Zn  Zn13  1  0.349763  0.175873  0.416836  1
  Zn  Zn14  1  0.823143  0.653418  0.585255  1
  Zn  Zn15  1  0.900465  0.816068  0.328143  1
  Zn  Zn16  1  0.181384  0.097255  0.671378  1
  Zn  Zn17  1  0.067073  0.240964  0.416836  1
  Zn  Zn18  1  0.349535  0.933932  0.171857  1
  Zn  Zn19  1  0.822322  0.237925  0.171857  1
  Zn  Zn20  1  0.182927  0.509036  0.083164  1
  Zn  Zn21  1  0.625000  0.375000  0.250000  1
  Pt  Pt22  1  0.125000  0.375000  0.750000  1
  Pt  Pt23  1  0.625000  0.375000  0.750000  1
