# generated using pymatgen
data_Pr2AlCdRh2
_symmetry_space_group_name_H-M   'P 1'
_cell_length_a   4.18910200
_cell_length_b   7.31816808
_cell_length_c   8.59721440
_cell_angle_alpha   90.47219345
_cell_angle_beta   90.00000000
_cell_angle_gamma   90.00000000
_symmetry_Int_Tables_number   1
_chemical_formula_structural   Pr2AlCdRh2
_chemical_formula_sum   'Pr4 Al2 Cd2 Rh4'
_cell_volume   263.55200447
_cell_formula_units_Z   2
loop_
 _symmetry_equiv_pos_site_id
 _symmetry_equiv_pos_as_xyz
  1  'x, y, z'
loop_
 _atom_site_type_symbol
 _atom_site_label
 _atom_site_symmetry_multiplicity
 _atom_site_fract_x
 _atom_site_fract_y
 _atom_site_fract_z
 _atom_site_occupancy
  Pr  Pr0  1  0.250000  0.546189  0.180599  1
  Pr  Pr1  1  0.750000  0.453811  0.819401  1
  Pr  Pr2  1  0.750000  0.962482  0.687487  1
  Pr  Pr3  1  0.250000  0.037518  0.312513  1
  Al  Al4  1  0.750000  0.868582  0.056989  1
  Al  Al5  1  0.250000  0.131418  0.943011  1
  Cd  Cd6  1  0.250000  0.638877  0.564482  1
  Cd  Cd7  1  0.750000  0.361123  0.435518  1
  Rh  Rh8  1  0.250000  0.772880  0.899416  1
  Rh  Rh9  1  0.750000  0.227120  0.100584  1
  Rh  Rh10  1  0.750000  0.755778  0.352535  1
  Rh  Rh11  1  0.250000  0.244222  0.647465  1
