# generated using pymatgen
data_Ce2YIn3Ru2
_symmetry_space_group_name_H-M   'P 1'
_cell_length_a   8.42872241
_cell_length_b   8.42872109
_cell_length_c   4.95512756
_cell_angle_alpha   83.05392782
_cell_angle_beta   83.05392347
_cell_angle_gamma   33.74204338
_symmetry_Int_Tables_number   1
_chemical_formula_structural   Ce2YIn3Ru2
_chemical_formula_sum   'Ce2 Y1 In3 Ru2'
_cell_volume   193.96842525
_cell_formula_units_Z   1
loop_
 _symmetry_equiv_pos_site_id
 _symmetry_equiv_pos_as_xyz
  1  'x, y, z'
loop_
 _atom_site_type_symbol
 _atom_site_label
 _atom_site_symmetry_multiplicity
 _atom_site_fract_x
 _atom_site_fract_y
 _atom_site_fract_z
 _atom_site_occupancy
  Ce  Ce0  1  0.828525  0.828525  0.572894  1
  Ce  Ce1  1  0.171475  0.171475  0.427106  1
  Y  Y2  1  0.000000  0.000000  0.000000  1
  In  In3  1  0.369842  0.369842  0.042999  1
  In  In4  1  0.500000  0.500000  0.500000  1
  In  In5  1  0.630158  0.630158  0.957001  1
  Ru  Ru6  1  0.792507  0.792507  0.123443  1
  Ru  Ru7  1  0.207493  0.207493  0.876557  1
