# generated using pymatgen
data_LaHo15(ScBi3)4
_symmetry_space_group_name_H-M   'P 1'
_cell_length_a   8.17122104
_cell_length_b   9.45481400
_cell_length_c   12.03669200
_cell_angle_alpha   90.00000000
_cell_angle_beta   89.99411000
_cell_angle_gamma   90.00000000
_symmetry_Int_Tables_number   1
_chemical_formula_structural   LaHo15(ScBi3)4
_chemical_formula_sum   'La1 Ho15 Sc4 Bi12'
_cell_volume   929.92322409
_cell_formula_units_Z   1
loop_
 _symmetry_equiv_pos_site_id
 _symmetry_equiv_pos_as_xyz
  1  'x, y, z'
loop_
 _atom_site_type_symbol
 _atom_site_label
 _atom_site_symmetry_multiplicity
 _atom_site_fract_x
 _atom_site_fract_y
 _atom_site_fract_z
 _atom_site_occupancy
  La  La0  1  0.183217  0.750000  0.721899  1
  Ho  Ho1  1  0.685374  0.750000  0.779596  1
  Ho  Ho2  1  0.814496  0.250000  0.280447  1
  Ho  Ho3  1  0.314233  0.250000  0.220260  1
  Ho  Ho4  1  0.302820  0.434663  0.941479  1
  Ho  Ho5  1  0.804917  0.065518  0.559278  1
  Ho  Ho6  1  0.697472  0.935471  0.060211  1
  Ho  Ho7  1  0.195978  0.565024  0.439597  1
  Ho  Ho8  1  0.697472  0.564529  0.060211  1
  Ho  Ho9  1  0.195978  0.934976  0.439597  1
  Ho  Ho10  1  0.302820  0.065337  0.941479  1
  Ho  Ho11  1  0.804917  0.434482  0.559278  1
  Ho  Ho12  1  0.356705  0.750000  0.216979  1
  Ho  Ho13  1  0.855270  0.750000  0.282493  1
  Ho  Ho14  1  0.644847  0.250000  0.784615  1
  Ho  Ho15  1  0.144845  0.250000  0.715888  1
  Sc  Sc16  1  0.024931  0.750000  0.988244  1
  Sc  Sc17  1  0.524813  0.750000  0.510847  1
  Sc  Sc18  1  0.973656  0.250000  0.013206  1
  Sc  Sc19  1  0.475831  0.250000  0.486568  1
  Bi  Bi20  1  0.438831  0.008342  0.666892  1
  Bi  Bi21  1  0.929632  0.492506  0.833108  1
  Bi  Bi22  1  0.566248  0.503244  0.330809  1
  Bi  Bi23  1  0.066791  0.996268  0.168522  1
  Bi  Bi24  1  0.566248  0.996756  0.330809  1
  Bi  Bi25  1  0.066791  0.503732  0.168522  1
  Bi  Bi26  1  0.438831  0.491658  0.666892  1
  Bi  Bi27  1  0.929632  0.007494  0.833108  1
  Bi  Bi28  1  0.407201  0.750000  0.960632  1
  Bi  Bi29  1  0.897229  0.750000  0.537920  1
  Bi  Bi30  1  0.595379  0.250000  0.042890  1
  Bi  Bi31  1  0.096596  0.250000  0.457725  1
