# generated using pymatgen
data_TbYb3Ru3PtO14
_symmetry_space_group_name_H-M   'P 1'
_cell_length_a   7.20192828
_cell_length_b   7.25668762
_cell_length_c   7.25668835
_cell_angle_alpha   60.01578929
_cell_angle_beta   59.77545466
_cell_angle_gamma   59.77545478
_symmetry_Int_Tables_number   1
_chemical_formula_structural   TbYb3Ru3PtO14
_chemical_formula_sum   'Tb1 Yb3 Ru3 Pt1 O14'
_cell_volume   267.28819095
_cell_formula_units_Z   1
loop_
 _symmetry_equiv_pos_site_id
 _symmetry_equiv_pos_as_xyz
  1  'x, y, z'
loop_
 _atom_site_type_symbol
 _atom_site_label
 _atom_site_symmetry_multiplicity
 _atom_site_fract_x
 _atom_site_fract_y
 _atom_site_fract_z
 _atom_site_occupancy
  Tb  Tb0  1  0.625000  0.625000  0.625000  1
  Yb  Yb1  1  0.625000  0.625000  0.125000  1
  Yb  Yb2  1  0.625000  0.125000  0.625000  1
  Yb  Yb3  1  0.125000  0.625000  0.625000  1
  Ru  Ru4  1  0.125000  0.125000  0.625000  1
  Ru  Ru5  1  0.125000  0.625000  0.125000  1
  Ru  Ru6  1  0.125000  0.125000  0.125000  1
  Pt  Pt7  1  0.625000  0.125000  0.125000  1
  O  O8  1  0.748889  0.747780  0.747780  1
  O  O9  1  0.501111  0.502220  0.502220  1
  O  O10  1  0.062218  0.444085  0.050916  1
  O  O11  1  0.794081  0.209845  0.788999  1
  O  O12  1  0.062218  0.050916  0.444085  1
  O  O13  1  0.452596  0.043687  0.043687  1
  O  O14  1  0.055845  0.448780  0.448780  1
  O  O15  1  0.455919  0.461001  0.040155  1
  O  O16  1  0.455919  0.040155  0.461001  1
  O  O17  1  0.194155  0.801220  0.801220  1
  O  O18  1  0.797404  0.206313  0.206313  1
  O  O19  1  0.187782  0.805915  0.199084  1
  O  O20  1  0.794081  0.788999  0.209845  1
  O  O21  1  0.187782  0.199084  0.805915  1
