# generated using pymatgen
data_La3Hf(Ni4P3)2
_symmetry_space_group_name_H-M   'P 1'
_cell_length_a   3.90973400
_cell_length_b   10.98127700
_cell_length_c   12.62793200
_cell_angle_alpha   90.00000000
_cell_angle_beta   90.00000000
_cell_angle_gamma   90.00000000
_symmetry_Int_Tables_number   1
_chemical_formula_structural   La3Hf(Ni4P3)2
_chemical_formula_sum   'La6 Hf2 Ni16 P12'
_cell_volume   542.16601675
_cell_formula_units_Z   2
loop_
 _symmetry_equiv_pos_site_id
 _symmetry_equiv_pos_as_xyz
  1  'x, y, z'
loop_
 _atom_site_type_symbol
 _atom_site_label
 _atom_site_symmetry_multiplicity
 _atom_site_fract_x
 _atom_site_fract_y
 _atom_site_fract_z
 _atom_site_occupancy
  La  La0  1  0.000000  0.500000  0.524147  1
  La  La1  1  0.500000  0.000000  0.475853  1
  La  La2  1  0.500000  0.818650  0.205014  1
  La  La3  1  0.500000  0.181350  0.205014  1
  La  La4  1  0.000000  0.681350  0.794986  1
  La  La5  1  0.000000  0.318650  0.794986  1
  Hf  Hf6  1  0.500000  0.500000  0.146840  1
  Hf  Hf7  1  0.000000  0.000000  0.853160  1
  Ni  Ni8  1  0.500000  0.500000  0.700244  1
  Ni  Ni9  1  0.000000  0.000000  0.299756  1
  Ni  Ni10  1  0.000000  0.500000  0.982350  1
  Ni  Ni11  1  0.500000  0.000000  0.017650  1
  Ni  Ni12  1  0.500000  0.332983  0.991718  1
  Ni  Ni13  1  0.500000  0.667017  0.991718  1
  Ni  Ni14  1  0.000000  0.167017  0.008282  1
  Ni  Ni15  1  0.000000  0.832983  0.008282  1
  Ni  Ni16  1  0.500000  0.302605  0.423588  1
  Ni  Ni17  1  0.500000  0.697395  0.423588  1
  Ni  Ni18  1  0.000000  0.197395  0.576412  1
  Ni  Ni19  1  0.000000  0.802605  0.576412  1
  Ni  Ni20  1  0.500000  0.882776  0.710604  1
  Ni  Ni21  1  0.500000  0.117224  0.710604  1
  Ni  Ni22  1  0.000000  0.617224  0.289396  1
  Ni  Ni23  1  0.000000  0.382776  0.289396  1
  P  P24  1  0.500000  0.500000  0.884975  1
  P  P25  1  0.000000  0.000000  0.115025  1
  P  P26  1  0.500000  0.500000  0.349222  1
  P  P27  1  0.000000  0.000000  0.650778  1
  P  P28  1  0.500000  0.304776  0.610161  1
  P  P29  1  0.500000  0.695224  0.610161  1
  P  P30  1  0.000000  0.195224  0.389839  1
  P  P31  1  0.000000  0.804776  0.389839  1
  P  P32  1  0.500000  0.842707  0.899328  1
  P  P33  1  0.500000  0.157293  0.899328  1
  P  P34  1  0.000000  0.657293  0.100672  1
  P  P35  1  0.000000  0.342707  0.100672  1
