# generated using pymatgen
data_Li4Nd2DyTmSi6
_symmetry_space_group_name_H-M   'P 1'
_cell_length_a   9.31619915
_cell_length_b   9.31619920
_cell_length_c   6.80483700
_cell_angle_alpha   90.00000000
_cell_angle_beta   90.00000000
_cell_angle_gamma   153.30675872
_symmetry_Int_Tables_number   1
_chemical_formula_structural   Li4Nd2DyTmSi6
_chemical_formula_sum   'Li4 Nd2 Dy1 Tm1 Si6'
_cell_volume   265.30666702
_cell_formula_units_Z   1
loop_
 _symmetry_equiv_pos_site_id
 _symmetry_equiv_pos_as_xyz
  1  'x, y, z'
loop_
 _atom_site_type_symbol
 _atom_site_label
 _atom_site_symmetry_multiplicity
 _atom_site_fract_x
 _atom_site_fract_y
 _atom_site_fract_z
 _atom_site_occupancy
  Li  Li0  1  0.190869  0.809131  0.059613  1
  Li  Li1  1  0.190869  0.809131  0.440387  1
  Li  Li2  1  0.808833  0.191167  0.939770  1
  Li  Li3  1  0.808833  0.191167  0.560230  1
  Nd  Nd4  1  0.554398  0.445602  0.250000  1
  Nd  Nd5  1  0.446025  0.553975  0.750000  1
  Dy  Dy6  1  0.344535  0.655465  0.250000  1
  Tm  Tm7  1  0.655270  0.344730  0.750000  1
  Si  Si8  1  0.723659  0.276341  0.250000  1
  Si  Si9  1  0.275717  0.724283  0.750000  1
  Si  Si10  1  0.059843  0.940157  0.924693  1
  Si  Si11  1  0.940654  0.059346  0.074894  1
  Si  Si12  1  0.940654  0.059346  0.425106  1
  Si  Si13  1  0.059843  0.940157  0.575307  1
