# generated using pymatgen
data_Tb5P12PdRu17Pt
_symmetry_space_group_name_H-M   'P 1'
_cell_length_a   3.98736900
_cell_length_b   12.55311248
_cell_length_c   12.54132010
_cell_angle_alpha   119.43478561
_cell_angle_beta   90.00000000
_cell_angle_gamma   90.00000000
_symmetry_Int_Tables_number   1
_chemical_formula_structural   Tb5P12PdRu17Pt
_chemical_formula_sum   'Tb5 P12 Pd1 Ru17 Pt1'
_cell_volume   546.71020015
_cell_formula_units_Z   1
loop_
 _symmetry_equiv_pos_site_id
 _symmetry_equiv_pos_as_xyz
  1  'x, y, z'
loop_
 _atom_site_type_symbol
 _atom_site_label
 _atom_site_symmetry_multiplicity
 _atom_site_fract_x
 _atom_site_fract_y
 _atom_site_fract_z
 _atom_site_occupancy
  Tb  Tb0  1  0.500000  0.998493  0.181707  1
  Tb  Tb1  1  0.500000  0.181681  0.998658  1
  Tb  Tb2  1  0.500000  0.816238  0.816415  1
  Tb  Tb3  1  0.000000  0.335859  0.663568  1
  Tb  Tb4  1  0.000000  0.663374  0.335761  1
  P  P5  1  0.000000  0.001660  0.812948  1
  P  P6  1  0.000000  0.814051  0.001659  1
  P  P7  1  0.000000  0.182121  0.182152  1
  P  P8  1  0.500000  0.307096  0.476797  1
  P  P9  1  0.500000  0.183326  0.699916  1
  P  P10  1  0.500000  0.522769  0.821633  1
  P  P11  1  0.500000  0.822176  0.522715  1
  P  P12  1  0.500000  0.476549  0.306860  1
  P  P13  1  0.500000  0.700242  0.184031  1
  P  P14  1  0.000000  0.999321  0.364767  1
  P  P15  1  0.000000  0.364792  0.999291  1
  P  P16  1  0.000000  0.625926  0.625822  1
  Pd  Pd17  1  0.000000  0.001673  0.552835  1
  Ru  Ru18  1  0.000000  0.444519  0.444572  1
  Ru  Ru19  1  0.500000  0.002537  0.712544  1
  Ru  Ru20  1  0.500000  0.711597  0.002682  1
  Ru  Ru21  1  0.500000  0.281832  0.281895  1
  Ru  Ru22  1  0.000000  0.191459  0.376084  1
  Ru  Ru23  1  0.000000  0.187389  0.805370  1
  Ru  Ru24  1  0.000000  0.623749  0.816293  1
  Ru  Ru25  1  0.000000  0.815542  0.623557  1
  Ru  Ru26  1  0.000000  0.375849  0.191080  1
  Ru  Ru27  1  0.000000  0.804438  0.186532  1
  Ru  Ru28  1  0.500000  0.128932  0.494160  1
  Ru  Ru29  1  0.500000  0.371688  0.878057  1
  Ru  Ru30  1  0.500000  0.508149  0.631860  1
  Ru  Ru31  1  0.500000  0.632021  0.508143  1
  Ru  Ru32  1  0.500000  0.495171  0.129522  1
  Ru  Ru33  1  0.500000  0.878680  0.371326  1
  Ru  Ru34  1  0.000000  0.997303  0.997018  1
  Pt  Pt35  1  0.000000  0.551696  0.001765  1
