# generated using pymatgen
data_Li6Ta5BeRh12
_symmetry_space_group_name_H-M   'P 1'
_cell_length_a   4.33666200
_cell_length_b   6.04755800
_cell_length_c   12.84718000
_cell_angle_alpha   90.00000000
_cell_angle_beta   89.99761057
_cell_angle_gamma   90.00000000
_symmetry_Int_Tables_number   1
_chemical_formula_structural   Li6Ta5BeRh12
_chemical_formula_sum   'Li6 Ta5 Be1 Rh12'
_cell_volume   336.93290431
_cell_formula_units_Z   1
loop_
 _symmetry_equiv_pos_site_id
 _symmetry_equiv_pos_as_xyz
  1  'x, y, z'
loop_
 _atom_site_type_symbol
 _atom_site_label
 _atom_site_symmetry_multiplicity
 _atom_site_fract_x
 _atom_site_fract_y
 _atom_site_fract_z
 _atom_site_occupancy
  Li  Li0  1  0.000000  0.000000  0.000000  1
  Li  Li1  1  0.499712  0.500001  0.164200  1
  Li  Li2  1  0.999740  0.000000  0.326223  1
  Li  Li3  1  0.500001  0.500001  0.500000  1
  Li  Li4  1  0.000260  0.000000  0.673778  1
  Li  Li5  1  0.500289  0.500001  0.835800  1
  Ta  Ta6  1  0.499812  0.000000  0.156813  1
  Ta  Ta7  1  0.999803  0.500001  0.327967  1
  Ta  Ta8  1  0.500001  0.000000  0.500000  1
  Ta  Ta9  1  0.000197  0.500001  0.672033  1
  Ta  Ta10  1  0.500188  0.000000  0.843187  1
  Be  Be11  1  0.000000  0.500001  0.000000  1
  Rh  Rh12  1  0.500001  0.266117  0.000000  1
  Rh  Rh13  1  0.500001  0.733881  0.000000  1
  Rh  Rh14  1  0.999796  0.258288  0.158344  1
  Rh  Rh15  1  0.999796  0.741713  0.158344  1
  Rh  Rh16  1  0.499803  0.249441  0.330384  1
  Rh  Rh17  1  0.499803  0.750557  0.330384  1
  Rh  Rh18  1  0.000000  0.249344  0.500000  1
  Rh  Rh19  1  0.000000  0.750655  0.500000  1
  Rh  Rh20  1  0.500195  0.249441  0.669617  1
  Rh  Rh21  1  0.500195  0.750557  0.669617  1
  Rh  Rh22  1  0.000202  0.258288  0.841655  1
  Rh  Rh23  1  0.000202  0.741713  0.841655  1
