# generated using pymatgen
data_PrTlRh4Pb5
_symmetry_space_group_name_H-M   'P 1'
_cell_length_a   7.10158366
_cell_length_b   7.31068991
_cell_length_c   7.16241400
_cell_angle_alpha   120.85805970
_cell_angle_beta   119.89360284
_cell_angle_gamma   89.70388844
_symmetry_Int_Tables_number   1
_chemical_formula_structural   PrTlRh4Pb5
_chemical_formula_sum   'Pr1 Tl1 Rh4 Pb5'
_cell_volume   260.60133673
_cell_formula_units_Z   1
loop_
 _symmetry_equiv_pos_site_id
 _symmetry_equiv_pos_as_xyz
  1  'x, y, z'
loop_
 _atom_site_type_symbol
 _atom_site_label
 _atom_site_symmetry_multiplicity
 _atom_site_fract_x
 _atom_site_fract_y
 _atom_site_fract_z
 _atom_site_occupancy
  Pr  Pr0  1  0.010948  0.995990  0.000000  1
  Tl  Tl1  1  0.465653  0.118838  0.000000  1
  Rh  Rh2  1  0.749623  0.401714  0.000000  1
  Rh  Rh3  1  0.388719  0.751759  0.000000  1
  Rh  Rh4  1  0.605639  0.610825  0.359796  1
  Rh  Rh5  1  0.245843  0.251028  0.640204  1
  Pb  Pb6  1  0.123724  0.458003  0.000000  1
  Pb  Pb7  1  0.876938  0.878744  0.339925  1
  Pb  Pb8  1  0.501739  0.000929  0.507580  1
  Pb  Pb9  1  0.994159  0.493349  0.492420  1
  Pb  Pb10  1  0.537011  0.538817  0.660074  1
