# generated using pymatgen
data_Li10FeOsN8
_symmetry_space_group_name_H-M   'P 1'
_cell_length_a   4.88377400
_cell_length_b   6.53742400
_cell_length_c   6.62315500
_cell_angle_alpha   90.00000000
_cell_angle_beta   90.00000000
_cell_angle_gamma   90.00000000
_symmetry_Int_Tables_number   1
_chemical_formula_structural   Li10FeOsN8
_chemical_formula_sum   'Li10 Fe1 Os1 N8'
_cell_volume   211.45946563
_cell_formula_units_Z   1
loop_
 _symmetry_equiv_pos_site_id
 _symmetry_equiv_pos_as_xyz
  1  'x, y, z'
loop_
 _atom_site_type_symbol
 _atom_site_label
 _atom_site_symmetry_multiplicity
 _atom_site_fract_x
 _atom_site_fract_y
 _atom_site_fract_z
 _atom_site_occupancy
  Li  Li0  1  0.758469  0.223680  0.310851  1
  Li  Li1  1  0.758469  0.223680  0.689149  1
  Li  Li2  1  0.758469  0.776320  0.310851  1
  Li  Li3  1  0.758469  0.776320  0.689149  1
  Li  Li4  1  0.244899  0.245516  0.211719  1
  Li  Li5  1  0.244899  0.245516  0.788281  1
  Li  Li6  1  0.244899  0.754484  0.211719  1
  Li  Li7  1  0.244899  0.754484  0.788281  1
  Li  Li8  1  0.294678  0.500000  0.500000  1
  Li  Li9  1  0.665479  0.000000  0.000000  1
  Fe  Fe10  1  0.282478  0.000000  0.500000  1
  Os  Os11  1  0.723810  0.500000  0.000000  1
  N  N12  1  0.085630  0.775163  0.500000  1
  N  N13  1  0.085630  0.224837  0.500000  1
  N  N14  1  0.927463  0.730767  0.000000  1
  N  N15  1  0.927463  0.269233  0.000000  1
  N  N16  1  0.520457  0.500000  0.227520  1
  N  N17  1  0.520457  0.500000  0.772480  1
  N  N18  1  0.476490  0.000000  0.275247  1
  N  N19  1  0.476490  0.000000  0.724753  1
