# generated using pymatgen
data_La8Yb5Dy7Sn16
_symmetry_space_group_name_H-M   'P 1'
_cell_length_a   8.06402873
_cell_length_b   8.47384320
_cell_length_c   16.01236900
_cell_angle_alpha   89.99530753
_cell_angle_beta   89.87985967
_cell_angle_gamma   90.05686767
_symmetry_Int_Tables_number   1
_chemical_formula_structural   La8Yb5Dy7Sn16
_chemical_formula_sum   'La8 Yb5 Dy7 Sn16'
_cell_volume   1094.17530703
_cell_formula_units_Z   1
loop_
 _symmetry_equiv_pos_site_id
 _symmetry_equiv_pos_as_xyz
  1  'x, y, z'
loop_
 _atom_site_type_symbol
 _atom_site_label
 _atom_site_symmetry_multiplicity
 _atom_site_fract_x
 _atom_site_fract_y
 _atom_site_fract_z
 _atom_site_occupancy
  La  La0  1  0.494234  0.318785  0.903106  1
  La  La1  1  0.993633  0.181502  0.595674  1
  La  La2  1  0.506530  0.680593  0.403215  1
  La  La3  1  0.006083  0.819289  0.096771  1
  La  La4  1  0.506145  0.680809  0.096701  1
  La  La5  1  0.006675  0.819807  0.403769  1
  La  La6  1  0.494565  0.318664  0.595458  1
  La  La7  1  0.993124  0.181804  0.903383  1
  Yb  Yb8  1  0.831708  0.668699  0.876877  1
  Yb  Yb9  1  0.165418  0.499237  0.750862  1
  Yb  Yb10  1  0.667415  0.999509  0.750376  1
  Yb  Yb11  1  0.833149  0.502202  0.250527  1
  Yb  Yb12  1  0.333333  0.997979  0.250228  1
  Dy  Dy13  1  0.334256  0.828537  0.874953  1
  Dy  Dy14  1  0.835372  0.672298  0.623882  1
  Dy  Dy15  1  0.665267  0.171009  0.375116  1
  Dy  Dy16  1  0.166022  0.329938  0.125255  1
  Dy  Dy17  1  0.667134  0.171290  0.125207  1
  Dy  Dy18  1  0.165568  0.329172  0.375281  1
  Dy  Dy19  1  0.334556  0.828143  0.623874  1
  Sn  Sn20  1  0.327423  0.040191  0.037755  1
  Sn  Sn21  1  0.825688  0.460334  0.462572  1
  Sn  Sn22  1  0.674268  0.959431  0.536838  1
  Sn  Sn23  1  0.175808  0.538963  0.963389  1
  Sn  Sn24  1  0.667822  0.963583  0.962331  1
  Sn  Sn25  1  0.174063  0.539303  0.537597  1
  Sn  Sn26  1  0.325877  0.040575  0.462750  1
  Sn  Sn27  1  0.830507  0.460022  0.040123  1
  Sn  Sn28  1  0.532427  0.616841  0.747847  1
  Sn  Sn29  1  0.034658  0.885507  0.750048  1
  Sn  Sn30  1  0.467472  0.381741  0.250131  1
  Sn  Sn31  1  0.967426  0.117545  0.249893  1
  Sn  Sn32  1  0.294088  0.132744  0.749258  1
  Sn  Sn33  1  0.792908  0.363703  0.748690  1
  Sn  Sn34  1  0.704696  0.866087  0.250150  1
  Sn  Sn35  1  0.204683  0.634164  0.250114  1
