# generated using pymatgen
data_Y2BeSi2Ge
_symmetry_space_group_name_H-M   'P 1'
_cell_length_a   3.98098466
_cell_length_b   4.06846332
_cell_length_c   7.36640447
_cell_angle_alpha   73.96946000
_cell_angle_beta   74.32312350
_cell_angle_gamma   90.00000497
_symmetry_Int_Tables_number   1
_chemical_formula_structural   Y2BeSi2Ge
_chemical_formula_sum   'Y2 Be1 Si2 Ge1'
_cell_volume   110.04531131
_cell_formula_units_Z   1
loop_
 _symmetry_equiv_pos_site_id
 _symmetry_equiv_pos_as_xyz
  1  'x, y, z'
loop_
 _atom_site_type_symbol
 _atom_site_label
 _atom_site_symmetry_multiplicity
 _atom_site_fract_x
 _atom_site_fract_y
 _atom_site_fract_z
 _atom_site_occupancy
  Y  Y0  1  0.753091  0.253091  0.493817  1
  Y  Y1  1  0.997803  0.997803  0.004396  1
  Be  Be2  1  0.166759  0.666759  0.666484  1
  Si  Si3  1  0.326798  0.826798  0.346402  1
  Si  Si4  1  0.414947  0.414947  0.170107  1
  Ge  Ge5  1  0.590603  0.590603  0.818794  1
