# generated using pymatgen
data_Ac3TmAu4
_symmetry_space_group_name_H-M   'P 1'
_cell_length_a   4.87896400
_cell_length_b   6.06210617
_cell_length_c   7.79252790
_cell_angle_alpha   87.34740155
_cell_angle_beta   90.00000000
_cell_angle_gamma   90.00000000
_symmetry_Int_Tables_number   1
_chemical_formula_structural   Ac3TmAu4
_chemical_formula_sum   'Ac3 Tm1 Au4'
_cell_volume   230.23106580
_cell_formula_units_Z   1
loop_
 _symmetry_equiv_pos_site_id
 _symmetry_equiv_pos_as_xyz
  1  'x, y, z'
loop_
 _atom_site_type_symbol
 _atom_site_label
 _atom_site_symmetry_multiplicity
 _atom_site_fract_x
 _atom_site_fract_y
 _atom_site_fract_z
 _atom_site_occupancy
  Ac  Ac0  1  0.250000  0.347923  0.689154  1
  Ac  Ac1  1  0.250000  0.143516  0.181149  1
  Ac  Ac2  1  0.750000  0.646568  0.310907  1
  Tm  Tm3  1  0.750000  0.854188  0.816912  1
  Au  Au4  1  0.250000  0.848335  0.571885  1
  Au  Au5  1  0.250000  0.673239  0.012402  1
  Au  Au6  1  0.750000  0.139344  0.467675  1
  Au  Au7  1  0.750000  0.346888  0.949915  1
