# generated using pymatgen
data_Er3GaCo2Ir
_symmetry_space_group_name_H-M   'P 1'
_cell_length_a   5.40938024
_cell_length_b   5.40938043
_cell_length_c   13.03425300
_cell_angle_alpha   90.00000000
_cell_angle_beta   90.00000000
_cell_angle_gamma   135.69768734
_symmetry_Int_Tables_number   1
_chemical_formula_structural   Er3GaCo2Ir
_chemical_formula_sum   'Er6 Ga2 Co4 Ir2'
_cell_volume   266.38691021
_cell_formula_units_Z   2
loop_
 _symmetry_equiv_pos_site_id
 _symmetry_equiv_pos_as_xyz
  1  'x, y, z'
loop_
 _atom_site_type_symbol
 _atom_site_label
 _atom_site_symmetry_multiplicity
 _atom_site_fract_x
 _atom_site_fract_y
 _atom_site_fract_z
 _atom_site_occupancy
  Er  Er0  1  0.793522  0.206478  0.396782  1
  Er  Er1  1  0.206478  0.793522  0.603218  1
  Er  Er2  1  0.793522  0.206478  0.103218  1
  Er  Er3  1  0.206478  0.793522  0.896782  1
  Er  Er4  1  0.507170  0.492830  0.250000  1
  Er  Er5  1  0.492830  0.507170  0.750000  1
  Ga  Ga6  1  0.500000  0.500000  0.500000  1
  Ga  Ga7  1  0.500000  0.500000  0.000000  1
  Co  Co8  1  0.079910  0.920090  0.412463  1
  Co  Co9  1  0.920090  0.079910  0.587537  1
  Co  Co10  1  0.079910  0.920090  0.087537  1
  Co  Co11  1  0.920090  0.079910  0.912463  1
  Ir  Ir12  1  0.213399  0.786601  0.250000  1
  Ir  Ir13  1  0.786601  0.213399  0.750000  1
