# generated using pymatgen
data_Te2PS
_symmetry_space_group_name_H-M   'P 1'
_cell_length_a   26.47467333
_cell_length_b   26.47467287
_cell_length_c   8.11510643
_cell_angle_alpha   93.45481617
_cell_angle_beta   93.45481371
_cell_angle_gamma   12.81091900
_symmetry_Int_Tables_number   1
_chemical_formula_structural   Te2PS
_chemical_formula_sum   'Te16 P8 S8'
_cell_volume   1258.89180141
_cell_formula_units_Z   8
loop_
 _symmetry_equiv_pos_site_id
 _symmetry_equiv_pos_as_xyz
  1  'x, y, z'
loop_
 _atom_site_type_symbol
 _atom_site_label
 _atom_site_symmetry_multiplicity
 _atom_site_fract_x
 _atom_site_fract_y
 _atom_site_fract_z
 _atom_site_occupancy
  Te  Te0  1  0.001567  0.001567  0.807167  1
  Te  Te1  1  0.998433  0.998433  0.192833  1
  Te  Te2  1  0.501567  0.501567  0.807168  1
  Te  Te3  1  0.498433  0.498433  0.192832  1
  Te  Te4  1  0.912653  0.912653  0.980899  1
  Te  Te5  1  0.087347  0.087347  0.019101  1
  Te  Te6  1  0.412582  0.912266  0.981143  1
  Te  Te7  1  0.087734  0.587418  0.018857  1
  Te  Te8  1  0.587418  0.087734  0.018857  1
  Te  Te9  1  0.912266  0.412582  0.981143  1
  Te  Te10  1  0.412652  0.412652  0.980848  1
  Te  Te11  1  0.587348  0.587348  0.019152  1
  Te  Te12  1  0.501818  0.001813  0.807318  1
  Te  Te13  1  0.998187  0.498182  0.192682  1
  Te  Te14  1  0.498182  0.998187  0.192682  1
  Te  Te15  1  0.001813  0.501818  0.807318  1
  P  P16  1  0.888398  0.888398  0.258375  1
  P  P17  1  0.111602  0.111602  0.741625  1
  P  P18  1  0.388104  0.888248  0.258591  1
  P  P19  1  0.111752  0.611896  0.741409  1
  P  P20  1  0.611896  0.111752  0.741409  1
  P  P21  1  0.888248  0.388104  0.258591  1
  P  P22  1  0.388407  0.388407  0.258397  1
  P  P23  1  0.611593  0.611593  0.741603  1
  S  S24  1  0.341063  0.341063  0.611080  1
  S  S25  1  0.658937  0.658937  0.388920  1
  S  S26  1  0.340645  0.840664  0.612280  1
  S  S27  1  0.159336  0.659355  0.387720  1
  S  S28  1  0.659355  0.159336  0.387720  1
  S  S29  1  0.840664  0.340645  0.612280  1
  S  S30  1  0.840762  0.840762  0.613062  1
  S  S31  1  0.159238  0.159238  0.386938  1
