# generated using pymatgen
data_Mn8NbMoOs2
_symmetry_space_group_name_H-M   'P 1'
_cell_length_a   4.68868400
_cell_length_b   4.68868224
_cell_length_c   7.74076200
_cell_angle_alpha   90.00000000
_cell_angle_beta   90.00000000
_cell_angle_gamma   119.99999830
_symmetry_Int_Tables_number   1
_chemical_formula_structural   Mn8NbMoOs2
_chemical_formula_sum   'Mn8 Nb1 Mo1 Os2'
_cell_volume   147.37238725
_cell_formula_units_Z   1
loop_
 _symmetry_equiv_pos_site_id
 _symmetry_equiv_pos_as_xyz
  1  'x, y, z'
loop_
 _atom_site_type_symbol
 _atom_site_label
 _atom_site_symmetry_multiplicity
 _atom_site_fract_x
 _atom_site_fract_y
 _atom_site_fract_z
 _atom_site_occupancy
  Mn  Mn0  1  0.173205  0.346409  0.748021  1
  Mn  Mn1  1  0.826165  0.173835  0.252408  1
  Mn  Mn2  1  0.347671  0.173835  0.252408  1
  Mn  Mn3  1  0.653591  0.826795  0.748021  1
  Mn  Mn4  1  0.000000  0.000000  0.001209  1
  Mn  Mn5  1  0.000000  0.000000  0.500445  1
  Mn  Mn6  1  0.826165  0.652329  0.252408  1
  Mn  Mn7  1  0.173205  0.826795  0.748021  1
  Nb  Nb8  1  0.333333  0.666667  0.061286  1
  Mo  Mo9  1  0.333333  0.666667  0.438734  1
  Os  Os10  1  0.666667  0.333333  0.924268  1
  Os  Os11  1  0.666667  0.333333  0.572767  1
