# generated using pymatgen
data_Nd8Si13Rh3
_symmetry_space_group_name_H-M   'P 1'
_cell_length_a   8.23079400
_cell_length_b   8.23079513
_cell_length_c   8.48358800
_cell_angle_alpha   90.00000000
_cell_angle_beta   90.00000000
_cell_angle_gamma   119.99999547
_symmetry_Int_Tables_number   1
_chemical_formula_structural   Nd8Si13Rh3
_chemical_formula_sum   'Nd8 Si13 Rh3'
_cell_volume   497.72991609
_cell_formula_units_Z   1
loop_
 _symmetry_equiv_pos_site_id
 _symmetry_equiv_pos_as_xyz
  1  'x, y, z'
loop_
 _atom_site_type_symbol
 _atom_site_label
 _atom_site_symmetry_multiplicity
 _atom_site_fract_x
 _atom_site_fract_y
 _atom_site_fract_z
 _atom_site_occupancy
  Nd  Nd0  1  0.499804  0.500196  0.752150  1
  Nd  Nd1  1  0.500400  0.499600  0.247773  1
  Nd  Nd2  1  0.000393  0.500196  0.752150  1
  Nd  Nd3  1  0.999198  0.499600  0.247773  1
  Nd  Nd4  1  0.499804  0.999607  0.752150  1
  Nd  Nd5  1  0.500400  0.000802  0.247773  1
  Nd  Nd6  1  0.000000  0.000000  0.751844  1
  Nd  Nd7  1  0.000000  0.000000  0.247889  1
  Si  Si8  1  0.832697  0.167303  0.999512  1
  Si  Si9  1  0.167765  0.832235  0.000205  1
  Si  Si10  1  0.334607  0.167303  0.999512  1
  Si  Si11  1  0.169806  0.830194  0.500974  1
  Si  Si12  1  0.664470  0.832235  0.000205  1
  Si  Si13  1  0.836711  0.163289  0.499217  1
  Si  Si14  1  0.832697  0.665393  0.999512  1
  Si  Si15  1  0.660389  0.830194  0.500974  1
  Si  Si16  1  0.167765  0.335530  0.000205  1
  Si  Si17  1  0.326579  0.163289  0.499217  1
  Si  Si18  1  0.169806  0.339611  0.500974  1
  Si  Si19  1  0.836711  0.673421  0.499217  1
  Si  Si20  1  0.666667  0.333333  0.501699  1
  Rh  Rh21  1  0.666667  0.333333  0.002022  1
  Rh  Rh22  1  0.333333  0.666667  0.999719  1
  Rh  Rh23  1  0.333333  0.666667  0.497337  1
