# generated using pymatgen
data_SrLaNd2(Re2Si)8
_symmetry_space_group_name_H-M   'P 1'
_cell_length_a   4.17621500
_cell_length_b   7.38830264
_cell_length_c   15.55969202
_cell_angle_alpha   89.83486751
_cell_angle_beta   90.00000000
_cell_angle_gamma   90.00000000
_symmetry_Int_Tables_number   1
_chemical_formula_structural   SrLaNd2(Re2Si)8
_chemical_formula_sum   'Sr1 La1 Nd2 Re16 Si8'
_cell_volume   480.09448606
_cell_formula_units_Z   1
loop_
 _symmetry_equiv_pos_site_id
 _symmetry_equiv_pos_as_xyz
  1  'x, y, z'
loop_
 _atom_site_type_symbol
 _atom_site_label
 _atom_site_symmetry_multiplicity
 _atom_site_fract_x
 _atom_site_fract_y
 _atom_site_fract_z
 _atom_site_occupancy
  Sr  Sr0  1  0.000000  0.576332  0.119096  1
  La  La1  1  0.000000  0.421218  0.882339  1
  Nd  Nd2  1  0.500000  0.078002  0.381981  1
  Nd  Nd3  1  0.500000  0.921081  0.617525  1
  Re  Re4  1  0.000000  0.135201  0.052633  1
  Re  Re5  1  0.000000  0.865313  0.946439  1
  Re  Re6  1  0.500000  0.639499  0.448860  1
  Re  Re7  1  0.500000  0.361534  0.551280  1
  Re  Re8  1  0.000000  0.731996  0.322308  1
  Re  Re9  1  0.000000  0.268711  0.677816  1
  Re  Re10  1  0.500000  0.229022  0.181520  1
  Re  Re11  1  0.500000  0.770634  0.819121  1
  Re  Re12  1  0.000000  0.432152  0.418118  1
  Re  Re13  1  0.000000  0.568538  0.581580  1
  Re  Re14  1  0.500000  0.935931  0.081984  1
  Re  Re15  1  0.500000  0.067601  0.917489  1
  Re  Re16  1  0.000000  0.989940  0.207967  1
  Re  Re17  1  0.000000  0.009667  0.792296  1
  Re  Re18  1  0.500000  0.488042  0.295626  1
  Re  Re19  1  0.500000  0.511233  0.704997  1
  Si  Si20  1  0.000000  0.827499  0.476057  1
  Si  Si21  1  0.000000  0.173192  0.523947  1
  Si  Si22  1  0.500000  0.321076  0.025742  1
  Si  Si23  1  0.500000  0.678941  0.974542  1
  Si  Si24  1  0.000000  0.289770  0.274431  1
  Si  Si25  1  0.000000  0.709724  0.725465  1
  Si  Si26  1  0.500000  0.790899  0.227319  1
  Si  Si27  1  0.500000  0.207251  0.771521  1
