# generated using pymatgen
data_TbZnCo3C
_symmetry_space_group_name_H-M   'P 1'
_cell_length_a   5.10806700
_cell_length_b   5.10850528
_cell_length_c   6.67519100
_cell_angle_alpha   90.00000000
_cell_angle_beta   90.00000000
_cell_angle_gamma   119.99718139
_symmetry_Int_Tables_number   1
_chemical_formula_structural   TbZnCo3C
_chemical_formula_sum   'Tb2 Zn2 Co6 C2'
_cell_volume   150.85409187
_cell_formula_units_Z   2
loop_
 _symmetry_equiv_pos_site_id
 _symmetry_equiv_pos_as_xyz
  1  'x, y, z'
loop_
 _atom_site_type_symbol
 _atom_site_label
 _atom_site_symmetry_multiplicity
 _atom_site_fract_x
 _atom_site_fract_y
 _atom_site_fract_z
 _atom_site_occupancy
  Tb  Tb0  1  0.999977  0.000000  0.000000  1
  Tb  Tb1  1  0.999991  0.000000  0.500000  1
  Zn  Zn2  1  0.333359  0.666761  0.000000  1
  Zn  Zn3  1  0.666598  0.333239  0.000000  1
  Co  Co4  1  0.499987  0.000000  0.307985  1
  Co  Co5  1  0.499986  0.500002  0.307937  1
  Co  Co6  1  0.999983  0.499998  0.307937  1
  Co  Co7  1  0.499987  0.000000  0.692015  1
  Co  Co8  1  0.499986  0.500002  0.692063  1
  Co  Co9  1  0.999983  0.499998  0.692063  1
  C  C10  1  0.333286  0.666611  0.500000  1
  C  C11  1  0.666675  0.333389  0.500000  1
