# generated using pymatgen
data_TbSc(Si7Ir3)2
_symmetry_space_group_name_H-M   'P 1'
_cell_length_a   8.02525330
_cell_length_b   8.02525386
_cell_length_c   8.02525437
_cell_angle_alpha   56.55165299
_cell_angle_beta   56.55164767
_cell_angle_gamma   56.55165384
_symmetry_Int_Tables_number   1
_chemical_formula_structural   TbSc(Si7Ir3)2
_chemical_formula_sum   'Tb1 Sc1 Si14 Ir6'
_cell_volume   336.35528544
_cell_formula_units_Z   1
loop_
 _symmetry_equiv_pos_site_id
 _symmetry_equiv_pos_as_xyz
  1  'x, y, z'
loop_
 _atom_site_type_symbol
 _atom_site_label
 _atom_site_symmetry_multiplicity
 _atom_site_fract_x
 _atom_site_fract_y
 _atom_site_fract_z
 _atom_site_occupancy
  Tb  Tb0  1  0.000000  0.000000  0.000000  1
  Sc  Sc1  1  0.500000  0.500000  0.500000  1
  Si  Si2  1  0.750054  0.750054  0.750054  1
  Si  Si3  1  0.249946  0.249946  0.249946  1
  Si  Si4  1  0.850023  0.065233  0.671632  1
  Si  Si5  1  0.671632  0.850023  0.065233  1
  Si  Si6  1  0.065233  0.671632  0.850023  1
  Si  Si7  1  0.648660  0.826807  0.436325  1
  Si  Si8  1  0.436325  0.648660  0.826807  1
  Si  Si9  1  0.826807  0.436325  0.648660  1
  Si  Si10  1  0.173193  0.563675  0.351340  1
  Si  Si11  1  0.563675  0.351340  0.173193  1
  Si  Si12  1  0.351340  0.173193  0.563675  1
  Si  Si13  1  0.934767  0.328368  0.149977  1
  Si  Si14  1  0.328368  0.149977  0.934767  1
  Si  Si15  1  0.149977  0.934767  0.328368  1
  Ir  Ir16  1  0.073530  0.430300  0.747790  1
  Ir  Ir17  1  0.252210  0.926470  0.569700  1
  Ir  Ir18  1  0.569700  0.252210  0.926470  1
  Ir  Ir19  1  0.926470  0.569700  0.252210  1
  Ir  Ir20  1  0.430300  0.747790  0.073530  1
  Ir  Ir21  1  0.747790  0.073530  0.430300  1
