# generated using pymatgen
data_TbEr6Lu3(In2Pt)4
_symmetry_space_group_name_H-M   'P 1'
_cell_length_a   3.59852400
_cell_length_b   8.10051414
_cell_length_c   18.07218306
_cell_angle_alpha   89.94680806
_cell_angle_beta   90.00000000
_cell_angle_gamma   90.00000000
_symmetry_Int_Tables_number   1
_chemical_formula_structural   TbEr6Lu3(In2Pt)4
_chemical_formula_sum   'Tb1 Er6 Lu3 In8 Pt4'
_cell_volume   526.80200373
_cell_formula_units_Z   1
loop_
 _symmetry_equiv_pos_site_id
 _symmetry_equiv_pos_as_xyz
  1  'x, y, z'
loop_
 _atom_site_type_symbol
 _atom_site_label
 _atom_site_symmetry_multiplicity
 _atom_site_fract_x
 _atom_site_fract_y
 _atom_site_fract_z
 _atom_site_occupancy
  Tb  Tb0  1  0.000000  0.499785  0.500487  1
  Er  Er1  1  0.000000  0.617386  0.085233  1
  Er  Er2  1  0.000000  0.242708  0.219653  1
  Er  Er3  1  0.000000  0.759059  0.780854  1
  Er  Er4  1  0.000000  0.258728  0.717935  1
  Er  Er5  1  0.000000  0.741099  0.282073  1
  Er  Er6  1  0.000000  0.999350  0.999351  1
  Lu  Lu7  1  0.000000  0.116217  0.414147  1
  Lu  Lu8  1  0.000000  0.883121  0.586028  1
  Lu  Lu9  1  0.000000  0.382909  0.913291  1
  In  In10  1  0.500000  0.418667  0.351074  1
  In  In11  1  0.500000  0.581394  0.650008  1
  In  In12  1  0.500000  0.080391  0.849889  1
  In  In13  1  0.500000  0.922255  0.150043  1
  In  In14  1  0.500000  0.293866  0.064500  1
  In  In15  1  0.500000  0.704839  0.934135  1
  In  In16  1  0.500000  0.201995  0.564161  1
  In  In17  1  0.500000  0.797221  0.436099  1
  Pt  Pt18  1  0.500000  0.025563  0.305306  1
  Pt  Pt19  1  0.500000  0.974548  0.694890  1
  Pt  Pt20  1  0.500000  0.473457  0.804087  1
  Pt  Pt21  1  0.500000  0.525442  0.196755  1
