# generated using pymatgen
data_Ac7Y13Si15Hg
_symmetry_space_group_name_H-M   'P 1'
_cell_length_a   7.91759706
_cell_length_b   7.89942824
_cell_length_c   15.21266300
_cell_angle_alpha   90.17113120
_cell_angle_beta   89.64257916
_cell_angle_gamma   89.99931231
_symmetry_Int_Tables_number   1
_chemical_formula_structural   Ac7Y13Si15Hg
_chemical_formula_sum   'Ac7 Y13 Si15 Hg1'
_cell_volume   951.44548787
_cell_formula_units_Z   1
loop_
 _symmetry_equiv_pos_site_id
 _symmetry_equiv_pos_as_xyz
  1  'x, y, z'
loop_
 _atom_site_type_symbol
 _atom_site_label
 _atom_site_symmetry_multiplicity
 _atom_site_fract_x
 _atom_site_fract_y
 _atom_site_fract_z
 _atom_site_occupancy
  Ac  Ac0  1  0.357909  0.010855  0.451554  1
  Ac  Ac1  1  0.488407  0.858527  0.704966  1
  Ac  Ac2  1  0.512537  0.135877  0.202467  1
  Ac  Ac3  1  0.859016  0.486232  0.290470  1
  Ac  Ac4  1  0.136113  0.522920  0.797482  1
  Ac  Ac5  1  0.645710  0.986716  0.960748  1
  Ac  Ac6  1  0.006621  0.364259  0.542427  1
  Y  Y7  1  0.317144  0.318472  0.000075  1
  Y  Y8  1  0.179841  0.814748  0.248574  1
  Y  Y9  1  0.807960  0.182849  0.754048  1
  Y  Y10  1  0.678621  0.678278  0.497458  1
  Y  Y11  1  0.002292  0.630632  0.052722  1
  Y  Y12  1  0.131504  0.984372  0.884649  1
  Y  Y13  1  0.513477  0.639842  0.126641  1
  Y  Y14  1  0.492768  0.363523  0.625737  1
  Y  Y15  1  0.644675  0.520694  0.879744  1
  Y  Y16  1  0.362843  0.489824  0.369812  1
  Y  Y17  1  0.860113  0.008242  0.372921  1
  Y  Y18  1  0.993673  0.135671  0.123112  1
  Y  Y19  1  0.000726  0.854616  0.618996  1
  Si  Si20  1  0.338282  0.695654  0.955168  1
  Si  Si21  1  0.652785  0.299297  0.446276  1
  Si  Si22  1  0.715005  0.357645  0.055067  1
  Si  Si23  1  0.300172  0.653517  0.548828  1
  Si  Si24  1  0.807351  0.840798  0.190915  1
  Si  Si25  1  0.154299  0.198271  0.299428  1
  Si  Si26  1  0.839584  0.806918  0.799211  1
  Si  Si27  1  0.281874  0.925514  0.064671  1
  Si  Si28  1  0.569157  0.783862  0.310513  1
  Si  Si29  1  0.443828  0.224393  0.819079  1
  Si  Si30  1  0.783890  0.568129  0.687305  1
  Si  Si31  1  0.215499  0.434727  0.184500  1
  Si  Si32  1  0.711943  0.067707  0.560326  1
  Si  Si33  1  0.937622  0.295941  0.941921  1
  Si  Si34  1  0.066229  0.712500  0.433868  1
  Hg  Hg35  1  0.190531  0.147975  0.698321  1
