# generated using pymatgen
data_Ca3Cd2O5
_symmetry_space_group_name_H-M   'P 1'
_cell_length_a   5.89387011
_cell_length_b   5.88993621
_cell_length_c   9.00642165
_cell_angle_alpha   71.02611676
_cell_angle_beta   77.41339551
_cell_angle_gamma   99.80854617
_symmetry_Int_Tables_number   1
_chemical_formula_structural   Ca3Cd2O5
_chemical_formula_sum   'Ca6 Cd4 O10'
_cell_volume   278.53158361
_cell_formula_units_Z   2
loop_
 _symmetry_equiv_pos_site_id
 _symmetry_equiv_pos_as_xyz
  1  'x, y, z'
loop_
 _atom_site_type_symbol
 _atom_site_label
 _atom_site_symmetry_multiplicity
 _atom_site_fract_x
 _atom_site_fract_y
 _atom_site_fract_z
 _atom_site_occupancy
  Ca  Ca0  1  0.900576  0.799497  0.699533  1
  Ca  Ca1  1  0.400576  0.799498  0.199533  1
  Ca  Ca2  1  0.497118  0.001898  0.497577  1
  Ca  Ca3  1  0.997128  0.001911  0.997573  1
  Ca  Ca4  1  0.804021  0.597077  0.401485  1
  Ca  Ca5  1  0.304033  0.597089  0.901482  1
  Cd  Cd6  1  0.599700  0.202094  0.798381  1
  Cd  Cd7  1  0.201429  0.396883  0.600682  1
  Cd  Cd8  1  0.099691  0.202087  0.298379  1
  Cd  Cd9  1  0.701451  0.396891  0.100683  1
  O  O10  1  0.150597  0.799492  0.449533  1
  O  O11  1  0.650603  0.799524  0.949523  1
  O  O12  1  0.848135  0.198043  0.549225  1
  O  O13  1  0.348145  0.198060  0.049240  1
  O  O14  1  0.952952  0.400939  0.849856  1
  O  O15  1  0.452941  0.400922  0.349843  1
  O  O16  1  0.247382  0.994265  0.750242  1
  O  O17  1  0.747378  0.994251  0.250248  1
  O  O18  1  0.053724  0.604735  0.148825  1
  O  O19  1  0.553719  0.604722  0.648831  1
