# generated using pymatgen
data_Dy8Lu12Ga5Si11
_symmetry_space_group_name_H-M   'P 1'
_cell_length_a   7.29175625
_cell_length_b   7.58156849
_cell_length_c   14.43338800
_cell_angle_alpha   89.99492153
_cell_angle_beta   90.09128190
_cell_angle_gamma   90.08037177
_symmetry_Int_Tables_number   1
_chemical_formula_structural   Dy8Lu12Ga5Si11
_chemical_formula_sum   'Dy8 Lu12 Ga5 Si11'
_cell_volume   797.91845830
_cell_formula_units_Z   1
loop_
 _symmetry_equiv_pos_site_id
 _symmetry_equiv_pos_as_xyz
  1  'x, y, z'
loop_
 _atom_site_type_symbol
 _atom_site_label
 _atom_site_symmetry_multiplicity
 _atom_site_fract_x
 _atom_site_fract_y
 _atom_site_fract_z
 _atom_site_occupancy
  Dy  Dy0  1  0.017286  0.177052  0.400888  1
  Dy  Dy1  1  0.517178  0.322762  0.401133  1
  Dy  Dy2  1  0.484806  0.678495  0.900393  1
  Dy  Dy3  1  0.482880  0.680457  0.598433  1
  Dy  Dy4  1  0.983235  0.819916  0.598187  1
  Dy  Dy5  1  0.982890  0.825274  0.900717  1
  Dy  Dy6  1  0.515853  0.321252  0.100178  1
  Dy  Dy7  1  0.015633  0.178317  0.100459  1
  Lu  Lu8  1  0.326452  0.173532  0.623975  1
  Lu  Lu9  1  0.674810  0.822946  0.375722  1
  Lu  Lu10  1  0.660428  0.992856  0.751002  1
  Lu  Lu11  1  0.173970  0.676978  0.375625  1
  Lu  Lu12  1  0.824957  0.324453  0.875776  1
  Lu  Lu13  1  0.826134  0.326148  0.623860  1
  Lu  Lu14  1  0.839920  0.493093  0.250472  1
  Lu  Lu15  1  0.340556  0.005894  0.251358  1
  Lu  Lu16  1  0.327695  0.175699  0.874379  1
  Lu  Lu17  1  0.173176  0.672900  0.125609  1
  Lu  Lu18  1  0.672111  0.826053  0.125037  1
  Lu  Lu19  1  0.159635  0.506331  0.750719  1
  Ga  Ga20  1  0.158866  0.464195  0.538041  1
  Ga  Ga21  1  0.840205  0.535351  0.039066  1
  Ga  Ga22  1  0.339804  0.964398  0.038483  1
  Ga  Ga23  1  0.159042  0.465280  0.960477  1
  Ga  Ga24  1  0.659133  0.035695  0.538057  1
  Si  Si25  1  0.278792  0.871949  0.749534  1
  Si  Si26  1  0.470169  0.608757  0.251384  1
  Si  Si27  1  0.029296  0.109224  0.749113  1
  Si  Si28  1  0.529769  0.392497  0.749110  1
  Si  Si29  1  0.970535  0.891625  0.250498  1
  Si  Si30  1  0.719868  0.128619  0.251045  1
  Si  Si31  1  0.345363  0.967147  0.460043  1
  Si  Si32  1  0.845247  0.532599  0.459925  1
  Si  Si33  1  0.779641  0.628757  0.749146  1
  Si  Si34  1  0.220269  0.370487  0.251507  1
  Si  Si35  1  0.654394  0.033011  0.960650  1
