# generated using pymatgen
data_LaPrNd2(Zn5Sn)2
_symmetry_space_group_name_H-M   'P 1'
_cell_length_a   8.60832029
_cell_length_b   8.60832075
_cell_length_c   9.11290827
_cell_angle_alpha   89.85102404
_cell_angle_beta   90.14897692
_cell_angle_gamma   149.56473012
_symmetry_Int_Tables_number   1
_chemical_formula_structural   LaPrNd2(Zn5Sn)2
_chemical_formula_sum   'La1 Pr1 Nd2 Zn10 Sn2'
_cell_volume   342.07956070
_cell_formula_units_Z   1
loop_
 _symmetry_equiv_pos_site_id
 _symmetry_equiv_pos_as_xyz
  1  'x, y, z'
loop_
 _atom_site_type_symbol
 _atom_site_label
 _atom_site_symmetry_multiplicity
 _atom_site_fract_x
 _atom_site_fract_y
 _atom_site_fract_z
 _atom_site_occupancy
  La  La0  1  0.000000  0.000000  0.500000  1
  Pr  Pr1  1  0.000000  0.000000  0.000000  1
  Nd  Nd2  1  0.205536  0.794464  0.249833  1
  Nd  Nd3  1  0.794464  0.205536  0.750167  1
  Zn  Zn4  1  0.813237  0.186763  0.391054  1
  Zn  Zn5  1  0.186763  0.813237  0.608946  1
  Zn  Zn6  1  0.813489  0.186511  0.109087  1
  Zn  Zn7  1  0.186511  0.813489  0.890913  1
  Zn  Zn8  1  0.656732  0.343268  0.483696  1
  Zn  Zn9  1  0.343268  0.656732  0.516304  1
  Zn  Zn10  1  0.656612  0.343388  0.016244  1
  Zn  Zn11  1  0.343388  0.656612  0.983756  1
  Zn  Zn12  1  0.395258  0.604742  0.249875  1
  Zn  Zn13  1  0.604742  0.395258  0.750125  1
  Sn  Sn14  1  0.556322  0.443678  0.249187  1
  Sn  Sn15  1  0.443678  0.556322  0.750813  1
