# generated using pymatgen
data_Tb2Er6Si12NiPd2Au
_symmetry_space_group_name_H-M   'P 1'
_cell_length_a   8.10471900
_cell_length_b   8.10471705
_cell_length_c   8.06889500
_cell_angle_alpha   90.00000000
_cell_angle_beta   90.00000000
_cell_angle_gamma   120.00001206
_symmetry_Int_Tables_number   1
_chemical_formula_structural   Tb2Er6Si12NiPd2Au
_chemical_formula_sum   'Tb2 Er6 Si12 Ni1 Pd2 Au1'
_cell_volume   459.00821914
_cell_formula_units_Z   1
loop_
 _symmetry_equiv_pos_site_id
 _symmetry_equiv_pos_as_xyz
  1  'x, y, z'
loop_
 _atom_site_type_symbol
 _atom_site_label
 _atom_site_symmetry_multiplicity
 _atom_site_fract_x
 _atom_site_fract_y
 _atom_site_fract_z
 _atom_site_occupancy
  Tb  Tb0  1  0.000000  0.000000  0.251127  1
  Tb  Tb1  1  0.000000  0.000000  0.748571  1
  Er  Er2  1  0.502905  0.005810  0.250225  1
  Er  Er3  1  0.502453  0.004906  0.749842  1
  Er  Er4  1  0.994190  0.497095  0.250225  1
  Er  Er5  1  0.995094  0.497547  0.749842  1
  Er  Er6  1  0.502905  0.497095  0.250225  1
  Er  Er7  1  0.502453  0.497547  0.749842  1
  Si  Si8  1  0.161099  0.322199  0.999624  1
  Si  Si9  1  0.826202  0.652406  0.000016  1
  Si  Si10  1  0.677801  0.838901  0.999624  1
  Si  Si11  1  0.834579  0.669158  0.500758  1
  Si  Si12  1  0.347594  0.173798  0.000016  1
  Si  Si13  1  0.166471  0.332943  0.499258  1
  Si  Si14  1  0.161099  0.838901  0.999624  1
  Si  Si15  1  0.330842  0.165421  0.500758  1
  Si  Si16  1  0.826202  0.173798  0.000016  1
  Si  Si17  1  0.667057  0.833529  0.499258  1
  Si  Si18  1  0.834579  0.165421  0.500758  1
  Si  Si19  1  0.166471  0.833529  0.499258  1
  Ni  Ni20  1  0.666667  0.333333  0.000553  1
  Pd  Pd21  1  0.666667  0.333333  0.500613  1
  Pd  Pd22  1  0.333333  0.666667  0.499358  1
  Au  Au23  1  0.333333  0.666667  0.000605  1
