# generated using pymatgen
data_Sc5Nb3Si6(P3Ir8)2
_symmetry_space_group_name_H-M   'P 1'
_cell_length_a   12.74772000
_cell_length_b   12.74771969
_cell_length_c   3.93843900
_cell_angle_alpha   90.00000000
_cell_angle_beta   90.00000000
_cell_angle_gamma   120.00000081
_symmetry_Int_Tables_number   1
_chemical_formula_structural   Sc5Nb3Si6(P3Ir8)2
_chemical_formula_sum   'Sc5 Nb3 Si6 P6 Ir16'
_cell_volume   554.26795728
_cell_formula_units_Z   1
loop_
 _symmetry_equiv_pos_site_id
 _symmetry_equiv_pos_as_xyz
  1  'x, y, z'
loop_
 _atom_site_type_symbol
 _atom_site_label
 _atom_site_symmetry_multiplicity
 _atom_site_fract_x
 _atom_site_fract_y
 _atom_site_fract_z
 _atom_site_occupancy
  Sc  Sc0  1  0.333333  0.666667  0.000000  1
  Sc  Sc1  1  0.666667  0.333333  0.000000  1
  Sc  Sc2  1  0.811944  0.000000  0.500000  1
  Sc  Sc3  1  0.000000  0.811944  0.500000  1
  Sc  Sc4  1  0.188056  0.188056  0.500000  1
  Nb  Nb5  1  0.444266  0.000000  0.000000  1
  Nb  Nb6  1  0.000000  0.444266  0.000000  1
  Nb  Nb7  1  0.555734  0.555734  0.000000  1
  Si  Si8  1  0.170089  0.482814  0.500000  1
  Si  Si9  1  0.517186  0.687274  0.500000  1
  Si  Si10  1  0.312726  0.829911  0.500000  1
  Si  Si11  1  0.687274  0.517186  0.500000  1
  Si  Si12  1  0.829911  0.312726  0.500000  1
  Si  Si13  1  0.482814  0.170089  0.500000  1
  P  P14  1  0.175816  0.000000  0.000000  1
  P  P15  1  0.000000  0.175816  0.000000  1
  P  P16  1  0.824184  0.824184  0.000000  1
  P  P17  1  0.639035  0.000000  0.000000  1
  P  P18  1  0.000000  0.639035  0.000000  1
  P  P19  1  0.360965  0.360965  0.000000  1
  Ir  Ir20  1  0.358246  0.487656  0.500000  1
  Ir  Ir21  1  0.512344  0.870590  0.500000  1
  Ir  Ir22  1  0.129410  0.641754  0.500000  1
  Ir  Ir23  1  0.870590  0.512344  0.500000  1
  Ir  Ir24  1  0.641754  0.129410  0.500000  1
  Ir  Ir25  1  0.487656  0.358246  0.500000  1
  Ir  Ir26  1  0.179919  0.367914  0.000000  1
  Ir  Ir27  1  0.632086  0.812007  0.000000  1
  Ir  Ir28  1  0.187993  0.820081  0.000000  1
  Ir  Ir29  1  0.812007  0.632086  0.000000  1
  Ir  Ir30  1  0.820081  0.187993  0.000000  1
  Ir  Ir31  1  0.367914  0.179919  0.000000  1
  Ir  Ir32  1  0.274176  0.000000  0.500000  1
  Ir  Ir33  1  0.000000  0.274176  0.500000  1
  Ir  Ir34  1  0.725824  0.725824  0.500000  1
  Ir  Ir35  1  0.000000  0.000000  0.000000  1
