# generated using pymatgen
data_Yb3Sn(Pt2O7)2
_symmetry_space_group_name_H-M   'P 1'
_cell_length_a   7.22614513
_cell_length_b   7.19132569
_cell_length_c   7.22614600
_cell_angle_alpha   59.83969868
_cell_angle_beta   59.99999601
_cell_angle_gamma   59.83970268
_symmetry_Int_Tables_number   1
_chemical_formula_structural   Yb3Sn(Pt2O7)2
_chemical_formula_sum   'Yb3 Sn1 Pt4 O14'
_cell_volume   264.88101772
_cell_formula_units_Z   1
loop_
 _symmetry_equiv_pos_site_id
 _symmetry_equiv_pos_as_xyz
  1  'x, y, z'
loop_
 _atom_site_type_symbol
 _atom_site_label
 _atom_site_symmetry_multiplicity
 _atom_site_fract_x
 _atom_site_fract_y
 _atom_site_fract_z
 _atom_site_occupancy
  Yb  Yb0  1  0.125000  0.125000  0.125000  1
  Yb  Yb1  1  0.625000  0.125000  0.125000  1
  Yb  Yb2  1  0.125000  0.125000  0.625000  1
  Sn  Sn3  1  0.125000  0.625000  0.125000  1
  Pt  Pt4  1  0.625000  0.625000  0.625000  1
  Pt  Pt5  1  0.125000  0.625000  0.625000  1
  Pt  Pt6  1  0.625000  0.625000  0.125000  1
  Pt  Pt7  1  0.625000  0.125000  0.625000  1
  O  O8  1  0.011825  0.964525  0.011825  1
  O  O9  1  0.238175  0.285475  0.238175  1
  O  O10  1  0.526906  0.549272  0.961911  1
  O  O11  1  0.287670  0.289383  0.711473  1
  O  O12  1  0.961911  0.549272  0.961911  1
  O  O13  1  0.961911  0.549272  0.526906  1
  O  O14  1  0.538527  0.960617  0.962330  1
  O  O15  1  0.538527  0.960617  0.538527  1
  O  O16  1  0.962330  0.960617  0.538527  1
  O  O17  1  0.711473  0.289383  0.287670  1
  O  O18  1  0.288089  0.700728  0.723094  1
  O  O19  1  0.723094  0.700728  0.288089  1
  O  O20  1  0.711473  0.289383  0.711473  1
  O  O21  1  0.288089  0.700728  0.288089  1
