# generated using pymatgen
data_CePr2Sn3Ir2Rh
_symmetry_space_group_name_H-M   'P 1'
_cell_length_a   7.65916100
_cell_length_b   7.56501859
_cell_length_c   4.08993300
_cell_angle_alpha   90.00000000
_cell_angle_beta   90.00000000
_cell_angle_gamma   120.41252407
_symmetry_Int_Tables_number   1
_chemical_formula_structural   CePr2Sn3Ir2Rh
_chemical_formula_sum   'Ce1 Pr2 Sn3 Ir2 Rh1'
_cell_volume   204.37024647
_cell_formula_units_Z   1
loop_
 _symmetry_equiv_pos_site_id
 _symmetry_equiv_pos_as_xyz
  1  'x, y, z'
loop_
 _atom_site_type_symbol
 _atom_site_label
 _atom_site_symmetry_multiplicity
 _atom_site_fract_x
 _atom_site_fract_y
 _atom_site_fract_z
 _atom_site_occupancy
  Ce  Ce0  1  0.415902  0.000000  0.000000  1
  Pr  Pr1  1  0.999358  0.411342  0.000000  1
  Pr  Pr2  1  0.588016  0.588658  0.000000  1
  Sn  Sn3  1  0.252267  0.255406  0.500000  1
  Sn  Sn4  1  0.996862  0.744594  0.500000  1
  Sn  Sn5  1  0.753227  0.000000  0.500000  1
  Ir  Ir6  1  0.647220  0.308993  0.500000  1
  Ir  Ir7  1  0.338226  0.691007  0.500000  1
  Rh  Rh8  1  0.008922  0.000000  0.000000  1
