# generated using pymatgen
data_Ca2Zn9Pd
_symmetry_space_group_name_H-M   'P 1'
_cell_length_a   6.93093722
_cell_length_b   6.93093745
_cell_length_c   6.93010017
_cell_angle_alpha   135.27976207
_cell_angle_beta   103.91792608
_cell_angle_gamma   92.81044793
_symmetry_Int_Tables_number   1
_chemical_formula_structural   Ca2Zn9Pd
_chemical_formula_sum   'Ca2 Zn9 Pd1'
_cell_volume   215.25947647
_cell_formula_units_Z   1
loop_
 _symmetry_equiv_pos_site_id
 _symmetry_equiv_pos_as_xyz
  1  'x, y, z'
loop_
 _atom_site_type_symbol
 _atom_site_label
 _atom_site_symmetry_multiplicity
 _atom_site_fract_x
 _atom_site_fract_y
 _atom_site_fract_z
 _atom_site_occupancy
  Ca  Ca0  1  0.758490  0.490929  0.749419  1
  Ca  Ca1  1  0.241510  0.509071  0.250581  1
  Zn  Zn2  1  0.082957  0.843080  0.760632  1
  Zn  Zn3  1  0.417553  0.177676  0.760632  1
  Zn  Zn4  1  0.582447  0.822324  0.239368  1
  Zn  Zn5  1  0.917043  0.156920  0.239368  1
  Zn  Zn6  1  0.500000  0.000000  0.000000  1
  Zn  Zn7  1  0.749215  0.002759  0.746660  1
  Zn  Zn8  1  0.756099  0.502554  0.253340  1
  Zn  Zn9  1  0.243901  0.497446  0.746660  1
  Zn  Zn10  1  0.250785  0.997241  0.253340  1
  Pd  Pd11  1  0.000000  0.000000  0.500000  1
