# generated using pymatgen
data_Ho10In8CuPd2Pt
_symmetry_space_group_name_H-M   'P 1'
_cell_length_a   3.62066500
_cell_length_b   8.11945080
_cell_length_c   18.18637855
_cell_angle_alpha   90.00013141
_cell_angle_beta   90.00000000
_cell_angle_gamma   90.00000000
_symmetry_Int_Tables_number   1
_chemical_formula_structural   Ho10In8CuPd2Pt
_chemical_formula_sum   'Ho10 In8 Cu1 Pd2 Pt1'
_cell_volume   534.63972553
_cell_formula_units_Z   1
loop_
 _symmetry_equiv_pos_site_id
 _symmetry_equiv_pos_as_xyz
  1  'x, y, z'
loop_
 _atom_site_type_symbol
 _atom_site_label
 _atom_site_symmetry_multiplicity
 _atom_site_fract_x
 _atom_site_fract_y
 _atom_site_fract_z
 _atom_site_occupancy
  Ho  Ho0  1  0.000000  0.118024  0.414940  1
  Ho  Ho1  1  0.000000  0.883144  0.583079  1
  Ho  Ho2  1  0.000000  0.382982  0.916630  1
  Ho  Ho3  1  0.000000  0.617889  0.084799  1
  Ho  Ho4  1  0.000000  0.246345  0.219866  1
  Ho  Ho5  1  0.000000  0.757436  0.780638  1
  Ho  Ho6  1  0.000000  0.257421  0.719531  1
  Ho  Ho7  1  0.000000  0.736075  0.280239  1
  Ho  Ho8  1  0.000000  0.999220  0.000567  1
  Ho  Ho9  1  0.000000  0.499401  0.499241  1
  In  In10  1  0.500000  0.419709  0.352046  1
  In  In11  1  0.500000  0.578006  0.648470  1
  In  In12  1  0.500000  0.077120  0.851102  1
  In  In13  1  0.500000  0.925083  0.151457  1
  In  In14  1  0.500000  0.291844  0.066821  1
  In  In15  1  0.500000  0.708558  0.933122  1
  In  In16  1  0.500000  0.208624  0.566710  1
  In  In17  1  0.500000  0.793788  0.431681  1
  Cu  Cu18  1  0.500000  0.023585  0.302054  1
  Pd  Pd19  1  0.500000  0.974943  0.696018  1
  Pd  Pd20  1  0.500000  0.475077  0.803492  1
  Pt  Pt21  1  0.500000  0.525728  0.197493  1
