# generated using pymatgen
data_Ho9Tm(Tl2Bi)2
_symmetry_space_group_name_H-M   'P 1'
_cell_length_a   6.60951103
_cell_length_b   9.00326798
_cell_length_c   8.97173400
_cell_angle_alpha   119.76900730
_cell_angle_beta   89.99488547
_cell_angle_gamma   90.00979422
_symmetry_Int_Tables_number   1
_chemical_formula_structural   Ho9Tm(Tl2Bi)2
_chemical_formula_sum   'Ho9 Tm1 Tl4 Bi2'
_cell_volume   463.42846223
_cell_formula_units_Z   1
loop_
 _symmetry_equiv_pos_site_id
 _symmetry_equiv_pos_as_xyz
  1  'x, y, z'
loop_
 _atom_site_type_symbol
 _atom_site_label
 _atom_site_symmetry_multiplicity
 _atom_site_fract_x
 _atom_site_fract_y
 _atom_site_fract_z
 _atom_site_occupancy
  Ho  Ho0  1  0.493410  0.329144  0.667528  1
  Ho  Ho1  1  0.493413  0.670952  0.338523  1
  Ho  Ho2  1  0.006372  0.670736  0.338305  1
  Ho  Ho3  1  0.750250  0.229345  0.990885  1
  Ho  Ho4  1  0.750135  0.770363  0.761252  1
  Ho  Ho5  1  0.750195  0.000045  0.239512  1
  Ho  Ho6  1  0.249881  0.764377  0.000208  1
  Ho  Ho7  1  0.249886  0.235281  0.236000  1
  Ho  Ho8  1  0.249766  0.000255  0.763344  1
  Tm  Tm9  1  0.006863  0.329114  0.667556  1
  Tl  Tl10  1  0.750674  0.000838  0.596259  1
  Tl  Tl11  1  0.249461  0.397170  0.002598  1
  Tl  Tl12  1  0.249498  0.602338  0.605701  1
  Tl  Tl13  1  0.249344  0.000466  0.397914  1
  Bi  Bi14  1  0.750440  0.604249  0.999009  1
  Bi  Bi15  1  0.750411  0.395327  0.395409  1
