# generated using pymatgen
data_CuSiRhS4
_symmetry_space_group_name_H-M   'P 1'
_cell_length_a   6.91537389
_cell_length_b   6.91537432
_cell_length_c   7.04599500
_cell_angle_alpha   59.37317833
_cell_angle_beta   59.37317627
_cell_angle_gamma   59.36168326
_symmetry_Int_Tables_number   1
_chemical_formula_structural   CuSiRhS4
_chemical_formula_sum   'Cu2 Si2 Rh2 S8'
_cell_volume   234.84407484
_cell_formula_units_Z   2
loop_
 _symmetry_equiv_pos_site_id
 _symmetry_equiv_pos_as_xyz
  1  'x, y, z'
loop_
 _atom_site_type_symbol
 _atom_site_label
 _atom_site_symmetry_multiplicity
 _atom_site_fract_x
 _atom_site_fract_y
 _atom_site_fract_z
 _atom_site_occupancy
  Cu  Cu0  1  0.748189  0.748189  0.751811  1
  Cu  Cu1  1  0.501811  0.501811  0.498189  1
  Si  Si2  1  0.125000  0.625000  0.125000  1
  Si  Si3  1  0.625000  0.125000  0.125000  1
  Rh  Rh4  1  0.125000  0.125000  0.625000  1
  Rh  Rh5  1  0.125000  0.125000  0.125000  1
  S  S6  1  0.878853  0.341706  0.889720  1
  S  S7  1  0.368341  0.368341  0.902081  1
  S  S8  1  0.368341  0.368341  0.361239  1
  S  S9  1  0.908294  0.371147  0.360280  1
  S  S10  1  0.881659  0.881659  0.888761  1
  S  S11  1  0.341706  0.878853  0.889720  1
  S  S12  1  0.371147  0.908294  0.360280  1
  S  S13  1  0.881659  0.881659  0.347919  1
