# generated using pymatgen
data_Sm5ErSi10
_symmetry_space_group_name_H-M   'P 1'
_cell_length_a   6.74690800
_cell_length_b   6.77067512
_cell_length_c   8.42776782
_cell_angle_alpha   90.02617414
_cell_angle_beta   90.00000000
_cell_angle_gamma   119.88395764
_symmetry_Int_Tables_number   1
_chemical_formula_structural   Sm5ErSi10
_chemical_formula_sum   'Sm5 Er1 Si10'
_cell_volume   333.80015961
_cell_formula_units_Z   1
loop_
 _symmetry_equiv_pos_site_id
 _symmetry_equiv_pos_as_xyz
  1  'x, y, z'
loop_
 _atom_site_type_symbol
 _atom_site_label
 _atom_site_symmetry_multiplicity
 _atom_site_fract_x
 _atom_site_fract_y
 _atom_site_fract_z
 _atom_site_occupancy
  Sm  Sm0  1  0.668852  0.668403  0.499655  1
  Sm  Sm1  1  0.000449  0.331597  0.500345  1
  Sm  Sm2  1  0.999710  0.331001  0.999801  1
  Sm  Sm3  1  0.668710  0.668999  0.000199  1
  Sm  Sm4  1  0.330467  0.000000  0.000000  1
  Er  Er5  1  0.329846  0.000000  0.500000  1
  Si  Si6  1  0.000667  0.000483  0.747436  1
  Si  Si7  1  0.666581  0.041431  0.747362  1
  Si  Si8  1  0.373139  0.328407  0.746836  1
  Si  Si9  1  0.960454  0.630715  0.748987  1
  Si  Si10  1  0.334048  0.666779  0.747903  1
  Si  Si11  1  0.000184  0.999517  0.252564  1
  Si  Si12  1  0.667270  0.333221  0.252097  1
  Si  Si13  1  0.329739  0.369285  0.251013  1
  Si  Si14  1  0.044732  0.671593  0.253164  1
  Si  Si15  1  0.625150  0.958569  0.252638  1
