# generated using pymatgen
data_Tb6Er9Th(CdPt)4
_symmetry_space_group_name_H-M   'P 1'
_cell_length_a   9.64066804
_cell_length_b   9.64066782
_cell_length_c   9.64066717
_cell_angle_alpha   60.31651058
_cell_angle_beta   60.31650136
_cell_angle_gamma   60.31651416
_symmetry_Int_Tables_number   1
_chemical_formula_structural   Tb6Er9Th(CdPt)4
_chemical_formula_sum   'Tb6 Er9 Th1 Cd4 Pt4'
_cell_volume   638.12460741
_cell_formula_units_Z   1
loop_
 _symmetry_equiv_pos_site_id
 _symmetry_equiv_pos_as_xyz
  1  'x, y, z'
loop_
 _atom_site_type_symbol
 _atom_site_label
 _atom_site_symmetry_multiplicity
 _atom_site_fract_x
 _atom_site_fract_y
 _atom_site_fract_z
 _atom_site_occupancy
  Tb  Tb0  1  0.936139  0.565790  0.565790  1
  Tb  Tb1  1  0.563686  0.937256  0.937256  1
  Tb  Tb2  1  0.565790  0.936139  0.565790  1
  Tb  Tb3  1  0.937256  0.563686  0.937256  1
  Tb  Tb4  1  0.565790  0.565790  0.936139  1
  Tb  Tb5  1  0.937256  0.937256  0.563686  1
  Er  Er6  1  0.353465  0.353465  0.939986  1
  Er  Er7  1  0.353465  0.939986  0.353465  1
  Er  Er8  1  0.939986  0.353465  0.353465  1
  Er  Er9  1  0.813659  0.187854  0.187854  1
  Er  Er10  1  0.190184  0.811425  0.811425  1
  Er  Er11  1  0.187854  0.813659  0.187854  1
  Er  Er12  1  0.811425  0.190184  0.811425  1
  Er  Er13  1  0.187854  0.187854  0.813659  1
  Er  Er14  1  0.811425  0.811425  0.190184  1
  Th  Th15  1  0.349472  0.349472  0.349472  1
  Cd  Cd16  1  0.581489  0.581489  0.581489  1
  Cd  Cd17  1  0.582051  0.582051  0.254664  1
  Cd  Cd18  1  0.582051  0.254664  0.582051  1
  Cd  Cd19  1  0.254664  0.582051  0.582051  1
  Pt  Pt20  1  0.143983  0.143983  0.143983  1
  Pt  Pt21  1  0.139926  0.139926  0.571201  1
  Pt  Pt22  1  0.139926  0.571201  0.139926  1
  Pt  Pt23  1  0.571201  0.139926  0.139926  1
