# generated using pymatgen
data_BaNaCoH6
_symmetry_space_group_name_H-M   'P 1'
_cell_length_a   5.40344866
_cell_length_b   5.40344894
_cell_length_c   5.40344900
_cell_angle_alpha   60.00000577
_cell_angle_beta   60.00000405
_cell_angle_gamma   60.00000796
_symmetry_Int_Tables_number   1
_chemical_formula_structural   BaNaCoH6
_chemical_formula_sum   'Ba1 Na1 Co1 H6'
_cell_volume   111.55735253
_cell_formula_units_Z   1
loop_
 _symmetry_equiv_pos_site_id
 _symmetry_equiv_pos_as_xyz
  1  'x, y, z'
loop_
 _atom_site_type_symbol
 _atom_site_label
 _atom_site_symmetry_multiplicity
 _atom_site_fract_x
 _atom_site_fract_y
 _atom_site_fract_z
 _atom_site_occupancy
  Ba  Ba0  1  0.750000  0.750000  0.750000  1
  Na  Na1  1  0.250000  0.250000  0.250000  1
  Co  Co2  1  0.000000  0.000000  0.000000  1
  H  H3  1  0.796224  0.203776  0.203776  1
  H  H4  1  0.203776  0.796224  0.203776  1
  H  H5  1  0.796224  0.796224  0.203776  1
  H  H6  1  0.203776  0.796224  0.796224  1
  H  H7  1  0.796224  0.203776  0.796224  1
  H  H8  1  0.203776  0.203776  0.796224  1
