# generated using pymatgen
data_IrPd2Rh(Pb2O7)2
_symmetry_space_group_name_H-M   'P 1'
_cell_length_a   7.37502346
_cell_length_b   7.34385376
_cell_length_c   7.35188776
_cell_angle_alpha   60.03614210
_cell_angle_beta   60.17855133
_cell_angle_gamma   60.13971506
_symmetry_Int_Tables_number   1
_chemical_formula_structural   IrPd2Rh(Pb2O7)2
_chemical_formula_sum   'Ir1 Pd2 Rh1 Pb4 O14'
_cell_volume   282.31287121
_cell_formula_units_Z   1
loop_
 _symmetry_equiv_pos_site_id
 _symmetry_equiv_pos_as_xyz
  1  'x, y, z'
loop_
 _atom_site_type_symbol
 _atom_site_label
 _atom_site_symmetry_multiplicity
 _atom_site_fract_x
 _atom_site_fract_y
 _atom_site_fract_z
 _atom_site_occupancy
  Ir  Ir0  1  0.125000  0.625000  0.625000  1
  Pd  Pd1  1  0.625000  0.125000  0.625000  1
  Pd  Pd2  1  0.625000  0.625000  0.625000  1
  Rh  Rh3  1  0.625000  0.625000  0.125000  1
  Pb  Pb4  1  0.625000  0.125000  0.125000  1
  Pb  Pb5  1  0.125000  0.625000  0.125000  1
  Pb  Pb6  1  0.125000  0.125000  0.625000  1
  Pb  Pb7  1  0.125000  0.125000  0.125000  1
  O  O8  1  0.707854  0.706275  0.290473  1
  O  O9  1  0.289128  0.300229  0.706683  1
  O  O10  1  0.707699  0.291653  0.708995  1
  O  O11  1  0.293140  0.704356  0.298148  1
  O  O12  1  0.289128  0.703961  0.706683  1
  O  O13  1  0.707854  0.295398  0.290473  1
  O  O14  1  0.542146  0.543725  0.959527  1
  O  O15  1  0.960872  0.949771  0.543317  1
  O  O16  1  0.542301  0.958347  0.541005  1
  O  O17  1  0.956860  0.545644  0.951852  1
  O  O18  1  0.960872  0.546039  0.543317  1
  O  O19  1  0.542146  0.954602  0.959527  1
  O  O20  1  0.256391  0.246745  0.250119  1
  O  O21  1  0.993609  0.003255  0.999881  1
