# generated using pymatgen
data_TbU(FeGe)2
_symmetry_space_group_name_H-M   'P 1'
_cell_length_a   4.37439300
_cell_length_b   7.20562689
_cell_length_c   6.83606860
_cell_angle_alpha   94.82619210
_cell_angle_beta   90.00000000
_cell_angle_gamma   90.00000000
_symmetry_Int_Tables_number   1
_chemical_formula_structural   TbU(FeGe)2
_chemical_formula_sum   'Tb2 U2 Fe4 Ge4'
_cell_volume   214.71058482
_cell_formula_units_Z   2
loop_
 _symmetry_equiv_pos_site_id
 _symmetry_equiv_pos_as_xyz
  1  'x, y, z'
loop_
 _atom_site_type_symbol
 _atom_site_label
 _atom_site_symmetry_multiplicity
 _atom_site_fract_x
 _atom_site_fract_y
 _atom_site_fract_z
 _atom_site_occupancy
  Tb  Tb0  1  0.250000  0.974569  0.769776  1
  Tb  Tb1  1  0.750000  0.025431  0.230224  1
  U  U2  1  0.250000  0.486375  0.699067  1
  U  U3  1  0.750000  0.513625  0.300933  1
  Fe  Fe4  1  0.750000  0.727913  0.535139  1
  Fe  Fe5  1  0.250000  0.272087  0.464861  1
  Fe  Fe6  1  0.750000  0.375417  0.974192  1
  Fe  Fe7  1  0.250000  0.624583  0.025808  1
  Ge  Ge8  1  0.250000  0.287786  0.099844  1
  Ge  Ge9  1  0.750000  0.712214  0.900156  1
  Ge  Ge10  1  0.250000  0.793184  0.379130  1
  Ge  Ge11  1  0.750000  0.206816  0.620870  1
