# generated using pymatgen
data_Na3LaSn12
_symmetry_space_group_name_H-M   'P 1'
_cell_length_a   11.82300622
_cell_length_b   11.82300633
_cell_length_c   11.82300631
_cell_angle_alpha   33.14997126
_cell_angle_beta   33.14997145
_cell_angle_gamma   33.14997422
_symmetry_Int_Tables_number   1
_chemical_formula_structural   Na3LaSn12
_chemical_formula_sum   'Na3 La1 Sn12'
_cell_volume   439.89179586
_cell_formula_units_Z   1
loop_
 _symmetry_equiv_pos_site_id
 _symmetry_equiv_pos_as_xyz
  1  'x, y, z'
loop_
 _atom_site_type_symbol
 _atom_site_label
 _atom_site_symmetry_multiplicity
 _atom_site_fract_x
 _atom_site_fract_y
 _atom_site_fract_z
 _atom_site_occupancy
  Na  Na0  1  0.875481  0.875481  0.875481  1
  Na  Na1  1  0.125013  0.125013  0.125013  1
  Na  Na2  1  0.708653  0.708653  0.708653  1
  La  La3  1  0.289994  0.289994  0.289994  1
  Sn  Sn4  1  0.290329  0.793606  0.793606  1
  Sn  Sn5  1  0.793606  0.793606  0.290329  1
  Sn  Sn6  1  0.852189  0.385458  0.385458  1
  Sn  Sn7  1  0.385458  0.385458  0.852189  1
  Sn  Sn8  1  0.385458  0.852189  0.385458  1
  Sn  Sn9  1  0.619330  0.136593  0.619330  1
  Sn  Sn10  1  0.136593  0.619330  0.619330  1
  Sn  Sn11  1  0.619330  0.619330  0.136593  1
  Sn  Sn12  1  0.793606  0.290329  0.793606  1
  Sn  Sn13  1  0.204543  0.715876  0.204543  1
  Sn  Sn14  1  0.204543  0.204543  0.715876  1
  Sn  Sn15  1  0.715876  0.204543  0.204543  1
