# generated using pymatgen
data_Ta7Ti3Ge6C
_symmetry_space_group_name_H-M   'P 1'
_cell_length_a   7.65183300
_cell_length_b   7.65183382
_cell_length_c   5.22605900
_cell_angle_alpha   90.00000000
_cell_angle_beta   90.00000000
_cell_angle_gamma   119.99999213
_symmetry_Int_Tables_number   1
_chemical_formula_structural   Ta7Ti3Ge6C
_chemical_formula_sum   'Ta7 Ti3 Ge6 C1'
_cell_volume   264.99396736
_cell_formula_units_Z   1
loop_
 _symmetry_equiv_pos_site_id
 _symmetry_equiv_pos_as_xyz
  1  'x, y, z'
loop_
 _atom_site_type_symbol
 _atom_site_label
 _atom_site_symmetry_multiplicity
 _atom_site_fract_x
 _atom_site_fract_y
 _atom_site_fract_z
 _atom_site_occupancy
  Ta  Ta0  1  0.000954  0.764411  0.250053  1
  Ta  Ta1  1  0.235589  0.236543  0.250053  1
  Ta  Ta2  1  0.763457  0.999046  0.250053  1
  Ta  Ta3  1  0.000954  0.236543  0.749947  1
  Ta  Ta4  1  0.763457  0.764411  0.749947  1
  Ta  Ta5  1  0.235589  0.999046  0.749947  1
  Ta  Ta6  1  0.333333  0.666667  0.000000  1
  Ti  Ti7  1  0.666667  0.333333  0.000000  1
  Ti  Ti8  1  0.666667  0.333333  0.500000  1
  Ti  Ti9  1  0.333333  0.666667  0.500000  1
  Ge  Ge10  1  0.996646  0.401293  0.248440  1
  Ge  Ge11  1  0.598707  0.595352  0.248440  1
  Ge  Ge12  1  0.404648  0.003354  0.248440  1
  Ge  Ge13  1  0.996646  0.595352  0.751560  1
  Ge  Ge14  1  0.404648  0.401293  0.751560  1
  Ge  Ge15  1  0.598707  0.003354  0.751560  1
  C  C16  1  0.000000  0.000000  0.500000  1
