# generated using pymatgen
data_La6Pr2ScPd24
_symmetry_space_group_name_H-M   'P 1'
_cell_length_a   8.59475305
_cell_length_b   8.59475310
_cell_length_c   8.59475400
_cell_angle_alpha   90.02833873
_cell_angle_beta   90.02833873
_cell_angle_gamma   90.02834471
_symmetry_Int_Tables_number   1
_chemical_formula_structural   La6Pr2ScPd24
_chemical_formula_sum   'La6 Pr2 Sc1 Pd24'
_cell_volume   634.89235806
_cell_formula_units_Z   1
loop_
 _symmetry_equiv_pos_site_id
 _symmetry_equiv_pos_as_xyz
  1  'x, y, z'
loop_
 _atom_site_type_symbol
 _atom_site_label
 _atom_site_symmetry_multiplicity
 _atom_site_fract_x
 _atom_site_fract_y
 _atom_site_fract_z
 _atom_site_occupancy
  La  La0  1  0.747355  0.747355  0.252738  1
  La  La1  1  0.747355  0.252738  0.747355  1
  La  La2  1  0.252645  0.252645  0.747262  1
  La  La3  1  0.252645  0.747262  0.252645  1
  La  La4  1  0.252738  0.747355  0.747355  1
  La  La5  1  0.747262  0.252645  0.252645  1
  Pr  Pr6  1  0.251767  0.251767  0.251767  1
  Pr  Pr7  1  0.748233  0.748233  0.748233  1
  Sc  Sc8  1  0.000000  0.000000  0.000000  1
  Pd  Pd9  1  0.267150  0.500034  0.999980  1
  Pd  Pd10  1  0.732850  0.499966  0.000020  1
  Pd  Pd11  1  0.999980  0.267150  0.500034  1
  Pd  Pd12  1  0.500034  0.267150  0.999980  1
  Pd  Pd13  1  0.000020  0.732850  0.499966  1
  Pd  Pd14  1  0.499966  0.732850  0.000020  1
  Pd  Pd15  1  0.500034  0.999980  0.267150  1
  Pd  Pd16  1  0.267150  0.999980  0.500034  1
  Pd  Pd17  1  0.499966  0.000020  0.732850  1
  Pd  Pd18  1  0.732850  0.000020  0.499966  1
  Pd  Pd19  1  0.999980  0.500034  0.267150  1
  Pd  Pd20  1  0.000020  0.499966  0.732850  1
  Pd  Pd21  1  0.255544  0.499833  0.499833  1
  Pd  Pd22  1  0.744456  0.500167  0.500167  1
  Pd  Pd23  1  0.499833  0.255544  0.499833  1
  Pd  Pd24  1  0.500167  0.744456  0.500167  1
  Pd  Pd25  1  0.499833  0.499833  0.255544  1
  Pd  Pd26  1  0.500167  0.500167  0.744456  1
  Pd  Pd27  1  0.312554  0.000343  0.000343  1
  Pd  Pd28  1  0.687446  0.999657  0.999657  1
  Pd  Pd29  1  0.000343  0.312554  0.000343  1
  Pd  Pd30  1  0.999657  0.687446  0.999657  1
  Pd  Pd31  1  0.000343  0.000343  0.312554  1
  Pd  Pd32  1  0.999657  0.999657  0.687446  1
