# generated using pymatgen
data_EuHoEr4(SbO7)2
_symmetry_space_group_name_H-M   'P 1'
_cell_length_a   6.44053885
_cell_length_b   6.44053906
_cell_length_c   7.48935641
_cell_angle_alpha   90.01012202
_cell_angle_beta   89.98987516
_cell_angle_gamma   109.00060043
_symmetry_Int_Tables_number   1
_chemical_formula_structural   EuHoEr4(SbO7)2
_chemical_formula_sum   'Eu1 Ho1 Er4 Sb2 O14'
_cell_volume   293.73615792
_cell_formula_units_Z   1
loop_
 _symmetry_equiv_pos_site_id
 _symmetry_equiv_pos_as_xyz
  1  'x, y, z'
loop_
 _atom_site_type_symbol
 _atom_site_label
 _atom_site_symmetry_multiplicity
 _atom_site_fract_x
 _atom_site_fract_y
 _atom_site_fract_z
 _atom_site_occupancy
  Eu  Eu0  1  0.501275  0.501275  0.500000  1
  Ho  Ho1  1  0.488969  0.488969  0.000000  1
  Er  Er2  1  0.998561  0.469319  0.749482  1
  Er  Er3  1  0.000038  0.532282  0.247856  1
  Er  Er4  1  0.532282  0.000038  0.752144  1
  Er  Er5  1  0.469319  0.998561  0.250518  1
  Sb  Sb6  1  0.000141  0.000141  0.500000  1
  Sb  Sb7  1  0.000285  0.000285  0.000000  1
  O  O8  1  0.638471  0.360939  0.754226  1
  O  O9  1  0.360939  0.638471  0.245774  1
  O  O10  1  0.928386  0.072444  0.749940  1
  O  O11  1  0.072444  0.928386  0.250060  1
  O  O12  1  0.930609  0.676923  0.529422  1
  O  O13  1  0.075820  0.324849  0.029481  1
  O  O14  1  0.324849  0.075820  0.970519  1
  O  O15  1  0.676923  0.930609  0.470578  1
  O  O16  1  0.366886  0.632382  0.755729  1
  O  O17  1  0.632382  0.366886  0.244271  1
  O  O18  1  0.932997  0.679199  0.968184  1
  O  O19  1  0.067053  0.322171  0.468181  1
  O  O20  1  0.322171  0.067053  0.531819  1
  O  O21  1  0.679199  0.932997  0.031816  1
