# generated using pymatgen
data_Pr7Nd3(IrRh2)2
_symmetry_space_group_name_H-M   'P 1'
_cell_length_a   11.32093400
_cell_length_b   11.31974900
_cell_length_c   6.65105400
_cell_angle_alpha   90.00000000
_cell_angle_beta   90.00000000
_cell_angle_gamma   90.00065797
_symmetry_Int_Tables_number   1
_chemical_formula_structural   Pr7Nd3(IrRh2)2
_chemical_formula_sum   'Pr14 Nd6 Ir4 Rh8'
_cell_volume   852.33344353
_cell_formula_units_Z   2
loop_
 _symmetry_equiv_pos_site_id
 _symmetry_equiv_pos_as_xyz
  1  'x, y, z'
loop_
 _atom_site_type_symbol
 _atom_site_label
 _atom_site_symmetry_multiplicity
 _atom_site_fract_x
 _atom_site_fract_y
 _atom_site_fract_z
 _atom_site_occupancy
  Pr  Pr0  1  0.091149  0.291039  0.115276  1
  Pr  Pr1  1  0.790868  0.409189  0.115276  1
  Pr  Pr2  1  0.209132  0.590811  0.115276  1
  Pr  Pr3  1  0.908851  0.708961  0.115276  1
  Pr  Pr4  1  0.409043  0.790897  0.384779  1
  Pr  Pr5  1  0.590957  0.209103  0.384779  1
  Pr  Pr6  1  0.290892  0.091134  0.384794  1
  Pr  Pr7  1  0.709108  0.908866  0.384794  1
  Pr  Pr8  1  0.409631  0.208784  0.882682  1
  Pr  Pr9  1  0.708658  0.090220  0.882837  1
  Pr  Pr10  1  0.291342  0.909780  0.882837  1
  Pr  Pr11  1  0.590369  0.791216  0.882682  1
  Pr  Pr12  1  0.090063  0.708402  0.617162  1
  Pr  Pr13  1  0.909937  0.291598  0.617162  1
  Nd  Nd14  1  0.208306  0.409773  0.616844  1
  Nd  Nd15  1  0.791694  0.590227  0.616844  1
  Nd  Nd16  1  0.000000  0.000000  0.000122  1
  Nd  Nd17  1  0.500000  0.500000  0.000089  1
  Nd  Nd18  1  0.500000  0.500000  0.500014  1
  Nd  Nd19  1  0.000000  0.000000  0.499883  1
  Ir  Ir20  1  0.346675  0.652914  0.749840  1
  Ir  Ir21  1  0.153345  0.153640  0.749843  1
  Ir  Ir22  1  0.846655  0.846360  0.749843  1
  Ir  Ir23  1  0.653325  0.347086  0.749840  1
  Rh  Rh24  1  0.153782  0.846224  0.250013  1
  Rh  Rh25  1  0.346027  0.346349  0.250603  1
  Rh  Rh26  1  0.653973  0.653651  0.250603  1
  Rh  Rh27  1  0.846218  0.153776  0.250013  1
  Rh  Rh28  1  0.000000  0.500000  0.378819  1
  Rh  Rh29  1  0.500000  0.000000  0.121753  1
  Rh  Rh30  1  0.500000  0.000000  0.619812  1
  Rh  Rh31  1  0.000000  0.500000  0.879608  1
