# generated using pymatgen
data_Tb2TiV2P7Rh9
_symmetry_space_group_name_H-M   'P 1'
_cell_length_a   3.85802000
_cell_length_b   9.59151554
_cell_length_c   9.60339736
_cell_angle_alpha   120.03980615
_cell_angle_beta   90.00055776
_cell_angle_gamma   89.99912017
_symmetry_Int_Tables_number   1
_chemical_formula_structural   Tb2TiV2P7Rh9
_chemical_formula_sum   'Tb2 Ti1 V2 P7 Rh9'
_cell_volume   307.63298467
_cell_formula_units_Z   1
loop_
 _symmetry_equiv_pos_site_id
 _symmetry_equiv_pos_as_xyz
  1  'x, y, z'
loop_
 _atom_site_type_symbol
 _atom_site_label
 _atom_site_symmetry_multiplicity
 _atom_site_fract_x
 _atom_site_fract_y
 _atom_site_fract_z
 _atom_site_occupancy
  Tb  Tb0  1  0.261826  0.666087  0.333083  1
  Tb  Tb1  1  0.761756  0.333647  0.666503  1
  Ti  Ti2  1  0.762006  0.097855  0.879646  1
  V  V3  1  0.761983  0.123869  0.218855  1
  V  V4  1  0.761965  0.782366  0.908030  1
  P  P5  1  0.262125  0.998535  0.002038  1
  P  P6  1  0.761856  0.878715  0.589431  1
  P  P7  1  0.761863  0.402019  0.288307  1
  P  P8  1  0.761921  0.712741  0.116295  1
  P  P9  1  0.261837  0.116711  0.411761  1
  P  P10  1  0.261799  0.587793  0.704137  1
  P  P11  1  0.261903  0.298618  0.882914  1
  Rh  Rh12  1  0.261954  0.884628  0.159275  1
  Rh  Rh13  1  0.261926  0.841283  0.726865  1
  Rh  Rh14  1  0.261952  0.273190  0.114596  1
  Rh  Rh15  1  0.761870  0.611326  0.560509  1
  Rh  Rh16  1  0.761919  0.441048  0.052329  1
  Rh  Rh17  1  0.761901  0.948557  0.387019  1
  Rh  Rh18  1  0.261866  0.367386  0.436475  1
  Rh  Rh19  1  0.261897  0.564781  0.931071  1
  Rh  Rh20  1  0.261877  0.068845  0.630861  1
