# generated using pymatgen
data_TbErTc5(PRh)7
_symmetry_space_group_name_H-M   'P 1'
_cell_length_a   3.93748200
_cell_length_b   9.45850130
_cell_length_c   9.48588203
_cell_angle_alpha   119.61732346
_cell_angle_beta   90.00001031
_cell_angle_gamma   90.00165784
_symmetry_Int_Tables_number   1
_chemical_formula_structural   TbErTc5(PRh)7
_chemical_formula_sum   'Tb1 Er1 Tc5 P7 Rh7'
_cell_volume   307.12209508
_cell_formula_units_Z   1
loop_
 _symmetry_equiv_pos_site_id
 _symmetry_equiv_pos_as_xyz
  1  'x, y, z'
loop_
 _atom_site_type_symbol
 _atom_site_label
 _atom_site_symmetry_multiplicity
 _atom_site_fract_x
 _atom_site_fract_y
 _atom_site_fract_z
 _atom_site_occupancy
  Tb  Tb0  1  0.262014  0.668717  0.333366  1
  Er  Er1  1  0.762169  0.333420  0.666537  1
  Tc  Tc2  1  0.761858  0.093627  0.870531  1
  Tc  Tc3  1  0.761796  0.127797  0.219530  1
  Tc  Tc4  1  0.761803  0.780313  0.906856  1
  Tc  Tc5  1  0.261836  0.885801  0.160258  1
  Tc  Tc6  1  0.261897  0.840428  0.725988  1
  P  P7  1  0.261420  0.996553  0.997675  1
  P  P8  1  0.761942  0.881240  0.599295  1
  P  P9  1  0.761869  0.402396  0.286585  1
  P  P10  1  0.761811  0.718825  0.120972  1
  P  P11  1  0.262163  0.116062  0.411006  1
  P  P12  1  0.262065  0.587390  0.704036  1
  P  P13  1  0.261985  0.294689  0.881118  1
  Rh  Rh14  1  0.261818  0.272845  0.112386  1
  Rh  Rh15  1  0.761984  0.607833  0.556727  1
  Rh  Rh16  1  0.761837  0.443229  0.055062  1
  Rh  Rh17  1  0.761976  0.947672  0.392551  1
  Rh  Rh18  1  0.261933  0.368501  0.436659  1
  Rh  Rh19  1  0.261828  0.561378  0.930880  1
  Rh  Rh20  1  0.261996  0.071284  0.631984  1
