# generated using pymatgen
data_HoLuPa2(Al3Rh)6
_symmetry_space_group_name_H-M   'P 1'
_cell_length_a   7.59146106
_cell_length_b   7.59661847
_cell_length_c   9.36753700
_cell_angle_alpha   90.00000000
_cell_angle_beta   90.00000000
_cell_angle_gamma   119.64435166
_symmetry_Int_Tables_number   1
_chemical_formula_structural   HoLuPa2(Al3Rh)6
_chemical_formula_sum   'Ho1 Lu1 Pa2 Al18 Rh6'
_cell_volume   469.51233426
_cell_formula_units_Z   1
loop_
 _symmetry_equiv_pos_site_id
 _symmetry_equiv_pos_as_xyz
  1  'x, y, z'
loop_
 _atom_site_type_symbol
 _atom_site_label
 _atom_site_symmetry_multiplicity
 _atom_site_fract_x
 _atom_site_fract_y
 _atom_site_fract_z
 _atom_site_occupancy
  Ho  Ho0  1  0.669973  0.993574  0.250000  1
  Lu  Lu1  1  0.329739  0.006436  0.750000  1
  Pa  Pa2  1  0.996970  0.670687  0.250000  1
  Pa  Pa3  1  0.003066  0.329300  0.750000  1
  Al  Al4  1  0.129901  0.126115  0.250000  1
  Al  Al5  1  0.870805  0.874196  0.750000  1
  Al  Al6  1  0.000104  0.331719  0.077774  1
  Al  Al7  1  0.000613  0.668954  0.921597  1
  Al  Al8  1  0.000613  0.668954  0.578403  1
  Al  Al9  1  0.337930  0.002493  0.425628  1
  Al  Al10  1  0.000104  0.331719  0.422226  1
  Al  Al11  1  0.661375  0.997429  0.575620  1
  Al  Al12  1  0.661375  0.997429  0.924380  1
  Al  Al13  1  0.337930  0.002493  0.074372  1
  Al  Al14  1  0.334800  0.332519  0.553750  1
  Al  Al15  1  0.665228  0.666983  0.447062  1
  Al  Al16  1  0.665228  0.666983  0.052938  1
  Al  Al17  1  0.334800  0.332519  0.946250  1
  Al  Al18  1  0.340432  0.549075  0.250000  1
  Al  Al19  1  0.659128  0.450177  0.750000  1
  Al  Al20  1  0.549336  0.341032  0.250000  1
  Al  Al21  1  0.450277  0.659057  0.750000  1
  Rh  Rh22  1  0.674887  0.329105  0.999518  1
  Rh  Rh23  1  0.324965  0.670901  0.000142  1
  Rh  Rh24  1  0.324965  0.670901  0.499858  1
  Rh  Rh25  1  0.674887  0.329105  0.500482  1
  Rh  Rh26  1  0.000286  0.000072  0.999783  1
  Rh  Rh27  1  0.000286  0.000072  0.500217  1
