# generated using pymatgen
data_Hf2CuNi2Rh3
_symmetry_space_group_name_H-M   'P 1'
_cell_length_a   3.92035900
_cell_length_b   5.41363200
_cell_length_c   10.87073000
_cell_angle_alpha   90.00000000
_cell_angle_beta   90.00000000
_cell_angle_gamma   90.00000000
_symmetry_Int_Tables_number   1
_chemical_formula_structural   Hf2CuNi2Rh3
_chemical_formula_sum   'Hf4 Cu2 Ni4 Rh6'
_cell_volume   230.71364382
_cell_formula_units_Z   2
loop_
 _symmetry_equiv_pos_site_id
 _symmetry_equiv_pos_as_xyz
  1  'x, y, z'
loop_
 _atom_site_type_symbol
 _atom_site_label
 _atom_site_symmetry_multiplicity
 _atom_site_fract_x
 _atom_site_fract_y
 _atom_site_fract_z
 _atom_site_occupancy
  Hf  Hf0  1  0.500000  0.227443  0.628874  1
  Hf  Hf1  1  0.500000  0.772557  0.371126  1
  Hf  Hf2  1  0.500000  0.727443  0.871126  1
  Hf  Hf3  1  0.500000  0.272557  0.128874  1
  Cu  Cu4  1  0.000000  0.500000  0.500000  1
  Cu  Cu5  1  0.000000  0.000000  0.000000  1
  Ni  Ni6  1  0.000000  0.472790  0.749280  1
  Ni  Ni7  1  0.000000  0.527210  0.250720  1
  Ni  Ni8  1  0.000000  0.027210  0.249280  1
  Ni  Ni9  1  0.000000  0.972790  0.750720  1
  Rh  Rh10  1  0.500000  0.225289  0.872886  1
  Rh  Rh11  1  0.500000  0.774711  0.127114  1
  Rh  Rh12  1  0.500000  0.725289  0.627114  1
  Rh  Rh13  1  0.500000  0.274711  0.372886  1
  Rh  Rh14  1  0.000000  0.000000  0.500000  1
  Rh  Rh15  1  0.000000  0.500000  0.000000  1
