# generated using pymatgen
data_Co(BrO3)3
_symmetry_space_group_name_H-M   'P 1'
_cell_length_a   8.78676300
_cell_length_b   8.78676308
_cell_length_c   5.54302600
_cell_angle_alpha   90.00000000
_cell_angle_beta   90.00000000
_cell_angle_gamma   120.00000061
_symmetry_Int_Tables_number   1
_chemical_formula_structural   Co(BrO3)3
_chemical_formula_sum   'Co2 Br6 O18'
_cell_volume   370.62556608
_cell_formula_units_Z   2
loop_
 _symmetry_equiv_pos_site_id
 _symmetry_equiv_pos_as_xyz
  1  'x, y, z'
loop_
 _atom_site_type_symbol
 _atom_site_label
 _atom_site_symmetry_multiplicity
 _atom_site_fract_x
 _atom_site_fract_y
 _atom_site_fract_z
 _atom_site_occupancy
  Co  Co0  1  0.333333  0.666667  0.635557  1
  Co  Co1  1  0.666667  0.333333  0.135557  1
  Br  Br2  1  0.344223  0.323054  0.467133  1
  Br  Br3  1  0.978831  0.655777  0.467133  1
  Br  Br4  1  0.021169  0.344223  0.967133  1
  Br  Br5  1  0.323054  0.978831  0.967133  1
  Br  Br6  1  0.655777  0.676946  0.967133  1
  Br  Br7  1  0.676946  0.021169  0.467133  1
  O  O8  1  0.801269  0.279314  0.911199  1
  O  O9  1  0.521955  0.801269  0.411199  1
  O  O10  1  0.279314  0.478045  0.411199  1
  O  O11  1  0.720686  0.521955  0.911199  1
  O  O12  1  0.478045  0.198731  0.911199  1
  O  O13  1  0.198731  0.720686  0.411199  1
  O  O14  1  0.430861  0.876369  0.834042  1
  O  O15  1  0.554492  0.430861  0.334042  1
  O  O16  1  0.831251  0.047545  0.278105  1
  O  O17  1  0.783706  0.831251  0.778105  1
  O  O18  1  0.047545  0.216294  0.778105  1
  O  O19  1  0.952455  0.783706  0.278105  1
  O  O20  1  0.216294  0.168749  0.278105  1
  O  O21  1  0.876369  0.445508  0.334042  1
  O  O22  1  0.569139  0.123631  0.334042  1
  O  O23  1  0.445508  0.569139  0.834042  1
  O  O24  1  0.123631  0.554492  0.834042  1
  O  O25  1  0.168749  0.952455  0.778105  1
