# generated using pymatgen
data_DySc5Al14(Si5Tc3)2
_symmetry_space_group_name_H-M   'P 1'
_cell_length_a   8.53033211
_cell_length_b   8.53033177
_cell_length_c   9.24304200
_cell_angle_alpha   90.00000000
_cell_angle_beta   90.00000000
_cell_angle_gamma   120.01862435
_symmetry_Int_Tables_number   1
_chemical_formula_structural   DySc5Al14(Si5Tc3)2
_chemical_formula_sum   'Dy1 Sc5 Al14 Si10 Tc6'
_cell_volume   582.36583051
_cell_formula_units_Z   1
loop_
 _symmetry_equiv_pos_site_id
 _symmetry_equiv_pos_as_xyz
  1  'x, y, z'
loop_
 _atom_site_type_symbol
 _atom_site_label
 _atom_site_symmetry_multiplicity
 _atom_site_fract_x
 _atom_site_fract_y
 _atom_site_fract_z
 _atom_site_occupancy
  Dy  Dy0  1  0.197329  0.802671  0.250000  1
  Sc  Sc1  1  0.200731  0.400134  0.250000  1
  Sc  Sc2  1  0.599866  0.799269  0.250000  1
  Sc  Sc3  1  0.799453  0.200547  0.750000  1
  Sc  Sc4  1  0.799185  0.598920  0.750000  1
  Sc  Sc5  1  0.401080  0.200815  0.750000  1
  Al  Al6  1  0.162615  0.837385  0.914754  1
  Al  Al7  1  0.162698  0.324808  0.917098  1
  Al  Al8  1  0.675192  0.837302  0.917098  1
  Al  Al9  1  0.837379  0.162621  0.081946  1
  Al  Al10  1  0.835158  0.673464  0.080616  1
  Al  Al11  1  0.326536  0.164842  0.080616  1
  Al  Al12  1  0.837379  0.162621  0.418054  1
  Al  Al13  1  0.835158  0.673464  0.419384  1
  Al  Al14  1  0.326536  0.164842  0.419384  1
  Al  Al15  1  0.162615  0.837385  0.585246  1
  Al  Al16  1  0.162698  0.324808  0.582902  1
  Al  Al17  1  0.675192  0.837302  0.582902  1
  Al  Al18  1  0.996674  0.003326  0.250000  1
  Al  Al19  1  0.999923  0.000077  0.750000  1
  Si  Si20  1  0.563238  0.436762  0.250000  1
  Si  Si21  1  0.566611  0.130100  0.250000  1
  Si  Si22  1  0.869900  0.433389  0.250000  1
  Si  Si23  1  0.436274  0.563726  0.750000  1
  Si  Si24  1  0.436844  0.872570  0.750000  1
  Si  Si25  1  0.127430  0.563156  0.750000  1
  Si  Si26  1  0.335165  0.664835  0.455336  1
  Si  Si27  1  0.666913  0.333087  0.548660  1
  Si  Si28  1  0.666913  0.333087  0.951340  1
  Si  Si29  1  0.335165  0.664835  0.044664  1
  Tc  Tc30  1  0.500417  0.499583  0.500720  1
  Tc  Tc31  1  0.501043  0.000386  0.501170  1
  Tc  Tc32  1  0.999614  0.498957  0.501170  1
  Tc  Tc33  1  0.500417  0.499583  0.999280  1
  Tc  Tc34  1  0.501043  0.000386  0.998830  1
  Tc  Tc35  1  0.999614  0.498957  0.998830  1
