# generated using pymatgen
data_Lu2ScTi2(Co2Si5)2
_symmetry_space_group_name_H-M   'P 1'
_cell_length_a   11.95536800
_cell_length_b   11.95536800
_cell_length_c   3.90890700
_cell_angle_alpha   90.00000000
_cell_angle_beta   90.00000000
_cell_angle_gamma   90.00000000
_symmetry_Int_Tables_number   1
_chemical_formula_structural   Lu2ScTi2(Co2Si5)2
_chemical_formula_sum   'Lu4 Sc2 Ti4 Co8 Si20'
_cell_volume   558.70329851
_cell_formula_units_Z   2
loop_
 _symmetry_equiv_pos_site_id
 _symmetry_equiv_pos_as_xyz
  1  'x, y, z'
loop_
 _atom_site_type_symbol
 _atom_site_label
 _atom_site_symmetry_multiplicity
 _atom_site_fract_x
 _atom_site_fract_y
 _atom_site_fract_z
 _atom_site_occupancy
  Lu  Lu0  1  0.886042  0.386042  0.500000  1
  Lu  Lu1  1  0.386042  0.113958  0.500000  1
  Lu  Lu2  1  0.613958  0.886042  0.500000  1
  Lu  Lu3  1  0.113958  0.613958  0.500000  1
  Sc  Sc4  1  0.000000  0.000000  0.000000  1
  Sc  Sc5  1  0.500000  0.500000  0.000000  1
  Ti  Ti6  1  0.674634  0.174634  0.500000  1
  Ti  Ti7  1  0.174634  0.325366  0.500000  1
  Ti  Ti8  1  0.825366  0.674634  0.500000  1
  Ti  Ti9  1  0.325366  0.825366  0.500000  1
  Co  Co10  1  0.522081  0.254157  0.000000  1
  Co  Co11  1  0.254157  0.477919  0.000000  1
  Co  Co12  1  0.745843  0.522081  0.000000  1
  Co  Co13  1  0.477919  0.745843  0.000000  1
  Co  Co14  1  0.977919  0.754157  0.000000  1
  Co  Co15  1  0.022081  0.245843  0.000000  1
  Co  Co16  1  0.754157  0.022081  0.000000  1
  Co  Co17  1  0.245843  0.977919  0.000000  1
  Si  Si18  1  0.570588  0.070588  0.000000  1
  Si  Si19  1  0.070588  0.429412  0.000000  1
  Si  Si20  1  0.929412  0.570588  0.000000  1
  Si  Si21  1  0.429412  0.929412  0.000000  1
  Si  Si22  1  0.194644  0.160790  0.000000  1
  Si  Si23  1  0.160790  0.805356  0.000000  1
  Si  Si24  1  0.839210  0.194644  0.000000  1
  Si  Si25  1  0.805356  0.839210  0.000000  1
  Si  Si26  1  0.305356  0.660790  0.000000  1
  Si  Si27  1  0.694644  0.339210  0.000000  1
  Si  Si28  1  0.660790  0.694644  0.000000  1
  Si  Si29  1  0.339210  0.305356  0.000000  1
  Si  Si30  1  0.012779  0.162984  0.500000  1
  Si  Si31  1  0.162984  0.987221  0.500000  1
  Si  Si32  1  0.837016  0.012779  0.500000  1
  Si  Si33  1  0.987221  0.837016  0.500000  1
  Si  Si34  1  0.487221  0.662984  0.500000  1
  Si  Si35  1  0.512779  0.337016  0.500000  1
  Si  Si36  1  0.662984  0.512779  0.500000  1
  Si  Si37  1  0.337016  0.487221  0.500000  1
