# generated using pymatgen
data_Pr8YTmSn6
_symmetry_space_group_name_H-M   'P 1'
_cell_length_a   6.82681200
_cell_length_b   9.28278244
_cell_length_c   9.28315900
_cell_angle_alpha   119.99786313
_cell_angle_beta   90.00157065
_cell_angle_gamma   89.99836256
_symmetry_Int_Tables_number   1
_chemical_formula_structural   Pr8YTmSn6
_chemical_formula_sum   'Pr8 Y1 Tm1 Sn6'
_cell_volume   509.48556882
_cell_formula_units_Z   1
loop_
 _symmetry_equiv_pos_site_id
 _symmetry_equiv_pos_as_xyz
  1  'x, y, z'
loop_
 _atom_site_type_symbol
 _atom_site_label
 _atom_site_symmetry_multiplicity
 _atom_site_fract_x
 _atom_site_fract_y
 _atom_site_fract_z
 _atom_site_occupancy
  Pr  Pr0  1  0.500001  0.333306  0.666628  1
  Pr  Pr1  1  0.499997  0.666677  0.333369  1
  Pr  Pr2  1  0.752799  0.242514  0.999949  1
  Pr  Pr3  1  0.752810  0.757440  0.757498  1
  Pr  Pr4  1  0.752810  0.000044  0.242556  1
  Pr  Pr5  1  0.247196  0.757442  0.999948  1
  Pr  Pr6  1  0.247193  0.242510  0.242552  1
  Pr  Pr7  1  0.247195  0.000059  0.757499  1
  Y  Y8  1  0.999997  0.666666  0.333326  1
  Tm  Tm9  1  0.000002  0.333340  0.666676  1
  Sn  Sn10  1  0.762280  0.602413  0.999810  1
  Sn  Sn11  1  0.762332  0.397386  0.397574  1
  Sn  Sn12  1  0.762341  0.000192  0.602618  1
  Sn  Sn13  1  0.237720  0.397400  0.999811  1
  Sn  Sn14  1  0.237667  0.602427  0.602618  1
  Sn  Sn15  1  0.237662  0.000185  0.397569  1
