# generated using pymatgen
data_Y2Ga2NiRh
_symmetry_space_group_name_H-M   'P 1'
_cell_length_a   4.33587300
_cell_length_b   6.83465600
_cell_length_c   7.55431700
_cell_angle_alpha   90.00000000
_cell_angle_beta   90.00000000
_cell_angle_gamma   90.00000000
_symmetry_Int_Tables_number   1
_chemical_formula_structural   Y2Ga2NiRh
_chemical_formula_sum   'Y4 Ga4 Ni2 Rh2'
_cell_volume   223.86614397
_cell_formula_units_Z   2
loop_
 _symmetry_equiv_pos_site_id
 _symmetry_equiv_pos_as_xyz
  1  'x, y, z'
loop_
 _atom_site_type_symbol
 _atom_site_label
 _atom_site_symmetry_multiplicity
 _atom_site_fract_x
 _atom_site_fract_y
 _atom_site_fract_z
 _atom_site_occupancy
  Y  Y0  1  0.250000  0.979811  0.307940  1
  Y  Y1  1  0.250000  0.479811  0.192060  1
  Y  Y2  1  0.750000  0.022386  0.690112  1
  Y  Y3  1  0.750000  0.522386  0.809888  1
  Ga  Ga4  1  0.250000  0.337519  0.581214  1
  Ga  Ga5  1  0.250000  0.837519  0.918786  1
  Ga  Ga6  1  0.750000  0.666783  0.434487  1
  Ga  Ga7  1  0.750000  0.166783  0.065513  1
  Ni  Ni8  1  0.250000  0.216501  0.896446  1
  Ni  Ni9  1  0.250000  0.716501  0.603554  1
  Rh  Rh10  1  0.750000  0.776999  0.102744  1
  Rh  Rh11  1  0.750000  0.276999  0.397256  1
