# generated using pymatgen
data_Lu3AlGa4Ru
_symmetry_space_group_name_H-M   'P 1'
_cell_length_a   6.79470800
_cell_length_b   6.84456507
_cell_length_c   4.26665700
_cell_angle_alpha   90.00000000
_cell_angle_beta   90.00000000
_cell_angle_gamma   119.75933226
_symmetry_Int_Tables_number   1
_chemical_formula_structural   Lu3AlGa4Ru
_chemical_formula_sum   'Lu3 Al1 Ga4 Ru1'
_cell_volume   172.25948180
_cell_formula_units_Z   1
loop_
 _symmetry_equiv_pos_site_id
 _symmetry_equiv_pos_as_xyz
  1  'x, y, z'
loop_
 _atom_site_type_symbol
 _atom_site_label
 _atom_site_symmetry_multiplicity
 _atom_site_fract_x
 _atom_site_fract_y
 _atom_site_fract_z
 _atom_site_occupancy
  Lu  Lu0  1  0.585714  0.000000  0.500000  1
  Lu  Lu1  1  0.415205  0.415527  0.500000  1
  Lu  Lu2  1  0.999678  0.584473  0.500000  1
  Al  Al3  1  0.227412  0.000000  0.000000  1
  Ga  Ga4  1  0.003601  0.238153  0.000000  1
  Ga  Ga5  1  0.664010  0.329278  0.000000  1
  Ga  Ga6  1  0.334732  0.670722  0.000000  1
  Ga  Ga7  1  0.765448  0.761847  0.000000  1
  Ru  Ru8  1  0.004200  0.000000  0.500000  1
