# generated using pymatgen
data_Th14Re2TcPt3
_symmetry_space_group_name_H-M   'P 1'
_cell_length_a   10.07555435
_cell_length_b   10.07555377
_cell_length_c   6.34712150
_cell_angle_alpha   90.10409797
_cell_angle_beta   89.89590170
_cell_angle_gamma   119.86305599
_symmetry_Int_Tables_number   1
_chemical_formula_structural   Th14Re2TcPt3
_chemical_formula_sum   'Th14 Re2 Tc1 Pt3'
_cell_volume   558.78148690
_cell_formula_units_Z   1
loop_
 _symmetry_equiv_pos_site_id
 _symmetry_equiv_pos_as_xyz
  1  'x, y, z'
loop_
 _atom_site_type_symbol
 _atom_site_label
 _atom_site_symmetry_multiplicity
 _atom_site_fract_x
 _atom_site_fract_y
 _atom_site_fract_z
 _atom_site_occupancy
  Th  Th0  1  0.666862  0.333138  0.596421  1
  Th  Th1  1  0.333234  0.666766  0.028588  1
  Th  Th2  1  0.877782  0.752006  0.754832  1
  Th  Th3  1  0.247994  0.122218  0.754832  1
  Th  Th4  1  0.875720  0.124280  0.754620  1
  Th  Th5  1  0.128003  0.256174  0.248353  1
  Th  Th6  1  0.743826  0.871997  0.248353  1
  Th  Th7  1  0.127865  0.872135  0.246455  1
  Th  Th8  1  0.456156  0.914252  0.543905  1
  Th  Th9  1  0.085748  0.543844  0.543905  1
  Th  Th10  1  0.457720  0.542280  0.543753  1
  Th  Th11  1  0.537823  0.073590  0.034194  1
  Th  Th12  1  0.926410  0.462177  0.034194  1
  Th  Th13  1  0.536570  0.463430  0.032485  1
  Re  Re14  1  0.184104  0.368032  0.801396  1
  Re  Re15  1  0.631968  0.815896  0.801396  1
  Tc  Tc16  1  0.181906  0.818094  0.797884  1
  Pt  Pt17  1  0.809679  0.618256  0.307650  1
  Pt  Pt18  1  0.381744  0.190321  0.307650  1
  Pt  Pt19  1  0.808888  0.191112  0.307230  1
