# generated using pymatgen
data_Ba3Na(Si2Au5)4
_symmetry_space_group_name_H-M   'P 1'
_cell_length_a   7.10079500
_cell_length_b   9.04447638
_cell_length_c   10.26429063
_cell_angle_alpha   89.25771273
_cell_angle_beta   90.00000000
_cell_angle_gamma   90.00000000
_symmetry_Int_Tables_number   1
_chemical_formula_structural   Ba3Na(Si2Au5)4
_chemical_formula_sum   'Ba3 Na1 Si8 Au20'
_cell_volume   659.14793689
_cell_formula_units_Z   1
loop_
 _symmetry_equiv_pos_site_id
 _symmetry_equiv_pos_as_xyz
  1  'x, y, z'
loop_
 _atom_site_type_symbol
 _atom_site_label
 _atom_site_symmetry_multiplicity
 _atom_site_fract_x
 _atom_site_fract_y
 _atom_site_fract_z
 _atom_site_occupancy
  Ba  Ba0  1  0.250000  0.743808  0.382375  1
  Ba  Ba1  1  0.750000  0.755393  0.885209  1
  Ba  Ba2  1  0.750000  0.256198  0.617688  1
  Na  Na3  1  0.250000  0.240643  0.120762  1
  Si  Si4  1  0.250000  0.044477  0.631129  1
  Si  Si5  1  0.250000  0.541942  0.872869  1
  Si  Si6  1  0.750000  0.957147  0.366042  1
  Si  Si7  1  0.750000  0.458509  0.128526  1
  Si  Si8  1  0.250000  0.328116  0.452268  1
  Si  Si9  1  0.250000  0.830537  0.043356  1
  Si  Si10  1  0.750000  0.672345  0.543591  1
  Si  Si11  1  0.750000  0.168010  0.956103  1
  Au  Au12  1  0.048834  0.099754  0.388586  1
  Au  Au13  1  0.448617  0.594024  0.106991  1
  Au  Au14  1  0.548145  0.904127  0.606310  1
  Au  Au15  1  0.956320  0.396880  0.898598  1
  Au  Au16  1  0.951855  0.904127  0.606310  1
  Au  Au17  1  0.543680  0.396880  0.898598  1
  Au  Au18  1  0.451166  0.099754  0.388586  1
  Au  Au19  1  0.051383  0.594024  0.106991  1
  Au  Au20  1  0.039776  0.073812  0.861847  1
  Au  Au21  1  0.465927  0.573890  0.647468  1
  Au  Au22  1  0.529744  0.933022  0.142361  1
  Au  Au23  1  0.965727  0.424354  0.350109  1
  Au  Au24  1  0.970256  0.933022  0.142361  1
  Au  Au25  1  0.534273  0.424354  0.350109  1
  Au  Au26  1  0.460224  0.073812  0.861847  1
  Au  Au27  1  0.034073  0.573890  0.647468  1
  Au  Au28  1  0.250000  0.306392  0.693387  1
  Au  Au29  1  0.250000  0.806300  0.805382  1
  Au  Au30  1  0.750000  0.695168  0.304438  1
  Au  Au31  1  0.750000  0.195287  0.192335  1
