# generated using pymatgen
data_TbDy2GaAg3Ge2
_symmetry_space_group_name_H-M   'P 1'
_cell_length_a   7.22416748
_cell_length_b   7.21959950
_cell_length_c   4.19152600
_cell_angle_alpha   90.00000000
_cell_angle_beta   90.00000000
_cell_angle_gamma   119.97907877
_symmetry_Int_Tables_number   1
_chemical_formula_structural   TbDy2GaAg3Ge2
_chemical_formula_sum   'Tb1 Dy2 Ga1 Ag3 Ge2'
_cell_volume   189.36304374
_cell_formula_units_Z   1
loop_
 _symmetry_equiv_pos_site_id
 _symmetry_equiv_pos_as_xyz
  1  'x, y, z'
loop_
 _atom_site_type_symbol
 _atom_site_label
 _atom_site_symmetry_multiplicity
 _atom_site_fract_x
 _atom_site_fract_y
 _atom_site_fract_z
 _atom_site_occupancy
  Tb  Tb0  1  0.000000  0.580061  0.000000  1
  Dy  Dy1  1  0.580032  0.999952  0.000000  1
  Dy  Dy2  1  0.419968  0.419920  0.000000  1
  Ga  Ga3  1  0.000000  0.000174  0.000000  1
  Ag  Ag4  1  0.751512  0.751654  0.500000  1
  Ag  Ag5  1  0.248488  0.000142  0.500000  1
  Ag  Ag6  1  0.000000  0.248193  0.500000  1
  Ge  Ge7  1  0.666404  0.333153  0.500000  1
  Ge  Ge8  1  0.333596  0.666750  0.500000  1
