# generated using pymatgen
data_Ho3Lu2AlSb2
_symmetry_space_group_name_H-M   'P 1'
_cell_length_a   8.79255227
_cell_length_b   8.82832434
_cell_length_c   6.32615600
_cell_angle_alpha   90.00000000
_cell_angle_beta   90.00000000
_cell_angle_gamma   120.13467850
_symmetry_Int_Tables_number   1
_chemical_formula_structural   Ho3Lu2AlSb2
_chemical_formula_sum   'Ho6 Lu4 Al2 Sb4'
_cell_volume   424.69073004
_cell_formula_units_Z   2
loop_
 _symmetry_equiv_pos_site_id
 _symmetry_equiv_pos_as_xyz
  1  'x, y, z'
loop_
 _atom_site_type_symbol
 _atom_site_label
 _atom_site_symmetry_multiplicity
 _atom_site_fract_x
 _atom_site_fract_y
 _atom_site_fract_z
 _atom_site_occupancy
  Ho  Ho0  1  0.755554  0.998985  0.750000  1
  Ho  Ho1  1  0.755554  0.756569  0.250000  1
  Ho  Ho2  1  0.008934  0.243434  0.250000  1
  Ho  Ho3  1  0.008934  0.765500  0.750000  1
  Ho  Ho4  1  0.242035  0.232415  0.750000  1
  Ho  Ho5  1  0.242035  0.009619  0.250000  1
  Lu  Lu6  1  0.335802  0.667902  0.000000  1
  Lu  Lu7  1  0.655462  0.327730  0.500000  1
  Lu  Lu8  1  0.655462  0.327730  0.000000  1
  Lu  Lu9  1  0.335802  0.667902  0.500000  1
  Al  Al10  1  0.398376  0.997041  0.750000  1
  Al  Al11  1  0.398376  0.401334  0.250000  1
  Sb  Sb12  1  0.998648  0.606189  0.250000  1
  Sb  Sb13  1  0.998648  0.392459  0.750000  1
  Sb  Sb14  1  0.605189  0.604221  0.750000  1
  Sb  Sb15  1  0.605189  0.000968  0.250000  1
