# generated using pymatgen
data_Dy5TmAl24(Ir3Ru)2
_symmetry_space_group_name_H-M   'P 1'
_cell_length_a   8.82128820
_cell_length_b   8.82128822
_cell_length_c   9.48160000
_cell_angle_alpha   90.00000000
_cell_angle_beta   90.00000000
_cell_angle_gamma   120.05989387
_symmetry_Int_Tables_number   1
_chemical_formula_structural   Dy5TmAl24(Ir3Ru)2
_chemical_formula_sum   'Dy5 Tm1 Al24 Ir6 Ru2'
_cell_volume   638.57786182
_cell_formula_units_Z   1
loop_
 _symmetry_equiv_pos_site_id
 _symmetry_equiv_pos_as_xyz
  1  'x, y, z'
loop_
 _atom_site_type_symbol
 _atom_site_label
 _atom_site_symmetry_multiplicity
 _atom_site_fract_x
 _atom_site_fract_y
 _atom_site_fract_z
 _atom_site_occupancy
  Dy  Dy0  1  0.192784  0.385691  0.250000  1
  Dy  Dy1  1  0.614309  0.807216  0.250000  1
  Dy  Dy2  1  0.807517  0.192483  0.750000  1
  Dy  Dy3  1  0.807484  0.615097  0.750000  1
  Dy  Dy4  1  0.384903  0.192516  0.750000  1
  Tm  Tm5  1  0.193505  0.806495  0.250000  1
  Al  Al6  1  0.562349  0.437651  0.250000  1
  Al  Al7  1  0.561574  0.124106  0.250000  1
  Al  Al8  1  0.875894  0.438426  0.250000  1
  Al  Al9  1  0.437725  0.562275  0.750000  1
  Al  Al10  1  0.437885  0.875601  0.750000  1
  Al  Al11  1  0.124399  0.562115  0.750000  1
  Al  Al12  1  0.325960  0.162741  0.423789  1
  Al  Al13  1  0.837014  0.162986  0.423874  1
  Al  Al14  1  0.837259  0.674040  0.423789  1
  Al  Al15  1  0.673895  0.836935  0.576093  1
  Al  Al16  1  0.162956  0.837044  0.575723  1
  Al  Al17  1  0.163065  0.326105  0.576093  1
  Al  Al18  1  0.673895  0.836935  0.923907  1
  Al  Al19  1  0.162956  0.837044  0.924277  1
  Al  Al20  1  0.163065  0.326105  0.923907  1
  Al  Al21  1  0.325960  0.162741  0.076211  1
  Al  Al22  1  0.837014  0.162986  0.076126  1
  Al  Al23  1  0.837259  0.674040  0.076211  1
  Al  Al24  1  0.666524  0.333476  0.528983  1
  Al  Al25  1  0.333208  0.666792  0.470746  1
  Al  Al26  1  0.333208  0.666792  0.029254  1
  Al  Al27  1  0.666524  0.333476  0.971017  1
  Al  Al28  1  0.000342  0.999658  0.250000  1
  Al  Al29  1  0.999984  0.000016  0.750000  1
  Ir  Ir30  1  0.499883  0.500117  0.499851  1
  Ir  Ir31  1  0.499642  0.999803  0.499687  1
  Ir  Ir32  1  0.000197  0.500358  0.499687  1
  Ir  Ir33  1  0.499883  0.500117  0.000149  1
  Ir  Ir34  1  0.499642  0.999803  0.000313  1
  Ir  Ir35  1  0.000197  0.500358  0.000313  1
  Ru  Ru36  1  0.000071  0.999929  0.499680  1
  Ru  Ru37  1  0.000071  0.999929  0.000320  1
