# generated using pymatgen
data_LaSmFe2(TeO6)2
_symmetry_space_group_name_H-M   'P 1'
_cell_length_a   5.25308900
_cell_length_b   5.25308278
_cell_length_c   10.24881000
_cell_angle_alpha   90.00011969
_cell_angle_beta   90.00000192
_cell_angle_gamma   120.00030838
_symmetry_Int_Tables_number   1
_chemical_formula_structural   LaSmFe2(TeO6)2
_chemical_formula_sum   'La1 Sm1 Fe2 Te2 O12'
_cell_volume   244.92421664
_cell_formula_units_Z   1
loop_
 _symmetry_equiv_pos_site_id
 _symmetry_equiv_pos_as_xyz
  1  'x, y, z'
loop_
 _atom_site_type_symbol
 _atom_site_label
 _atom_site_symmetry_multiplicity
 _atom_site_fract_x
 _atom_site_fract_y
 _atom_site_fract_z
 _atom_site_occupancy
  La  La0  1  0.000000  0.000000  0.500000  1
  Sm  Sm1  1  0.000000  0.000000  0.000000  1
  Fe  Fe2  1  0.333334  0.666664  0.246301  1
  Fe  Fe3  1  0.666666  0.333336  0.753699  1
  Te  Te4  1  0.666665  0.333333  0.246128  1
  Te  Te5  1  0.333335  0.666667  0.753872  1
  O  O6  1  0.644666  0.630665  0.139879  1
  O  O7  1  0.369333  0.013998  0.139879  1
  O  O8  1  0.985998  0.355332  0.139878  1
  O  O9  1  0.987902  0.620997  0.354387  1
  O  O10  1  0.379003  0.366906  0.354388  1
  O  O11  1  0.633094  0.012100  0.354388  1
  O  O12  1  0.012098  0.379003  0.645613  1
  O  O13  1  0.366906  0.987900  0.645612  1
  O  O14  1  0.620997  0.633094  0.645613  1
  O  O15  1  0.630669  0.986002  0.860120  1
  O  O16  1  0.355336  0.369335  0.860121  1
  O  O17  1  0.014004  0.644668  0.860122  1
