# generated using pymatgen
data_Hf3Np(NiAs)4
_symmetry_space_group_name_H-M   'P 1'
_cell_length_a   3.97770700
_cell_length_b   3.97770611
_cell_length_c   14.40005700
_cell_angle_alpha   90.00000000
_cell_angle_beta   90.00000000
_cell_angle_gamma   120.00001568
_symmetry_Int_Tables_number   1
_chemical_formula_structural   Hf3Np(NiAs)4
_chemical_formula_sum   'Hf3 Np1 Ni4 As4'
_cell_volume   197.31507042
_cell_formula_units_Z   1
loop_
 _symmetry_equiv_pos_site_id
 _symmetry_equiv_pos_as_xyz
  1  'x, y, z'
loop_
 _atom_site_type_symbol
 _atom_site_label
 _atom_site_symmetry_multiplicity
 _atom_site_fract_x
 _atom_site_fract_y
 _atom_site_fract_z
 _atom_site_occupancy
  Hf  Hf0  1  0.000000  0.000000  0.242990  1
  Hf  Hf1  1  0.000000  0.000000  0.757010  1
  Hf  Hf2  1  0.000000  0.000000  0.000000  1
  Np  Np3  1  0.000000  0.000000  0.500000  1
  Ni  Ni4  1  0.333333  0.666667  0.144639  1
  Ni  Ni5  1  0.666667  0.333333  0.855361  1
  Ni  Ni6  1  0.666667  0.333333  0.669478  1
  Ni  Ni7  1  0.333333  0.666667  0.330522  1
  As  As8  1  0.333333  0.666667  0.626387  1
  As  As9  1  0.666667  0.333333  0.373613  1
  As  As10  1  0.666667  0.333333  0.110849  1
  As  As11  1  0.333333  0.666667  0.889151  1
