# generated using pymatgen
data_Rb2BrOF5
_symmetry_space_group_name_H-M   'P 1'
_cell_length_a   6.40659152
_cell_length_b   6.40659154
_cell_length_c   8.59719600
_cell_angle_alpha   90.00000000
_cell_angle_beta   90.00000000
_cell_angle_gamma   90.10207360
_symmetry_Int_Tables_number   1
_chemical_formula_structural   Rb2BrOF5
_chemical_formula_sum   'Rb4 Br2 O2 F10'
_cell_volume   352.86632075
_cell_formula_units_Z   2
loop_
 _symmetry_equiv_pos_site_id
 _symmetry_equiv_pos_as_xyz
  1  'x, y, z'
loop_
 _atom_site_type_symbol
 _atom_site_label
 _atom_site_symmetry_multiplicity
 _atom_site_fract_x
 _atom_site_fract_y
 _atom_site_fract_z
 _atom_site_occupancy
  Rb  Rb0  1  0.714514  0.285486  0.000000  1
  Rb  Rb1  1  0.714514  0.285486  0.500000  1
  Rb  Rb2  1  0.285486  0.714514  0.000000  1
  Rb  Rb3  1  0.285486  0.714514  0.500000  1
  Br  Br4  1  0.211356  0.211356  0.750000  1
  Br  Br5  1  0.788644  0.788644  0.250000  1
  O  O6  1  0.030787  0.030787  0.750000  1
  O  O7  1  0.969213  0.969213  0.250000  1
  F  F8  1  0.464940  0.464940  0.750000  1
  F  F9  1  0.535060  0.535060  0.250000  1
  F  F10  1  0.553928  0.989521  0.250000  1
  F  F11  1  0.010479  0.446072  0.750000  1
  F  F12  1  0.446072  0.010479  0.750000  1
  F  F13  1  0.989521  0.553928  0.250000  1
  F  F14  1  0.227734  0.227734  0.978564  1
  F  F15  1  0.772266  0.772266  0.021436  1
  F  F16  1  0.227734  0.227734  0.521436  1
  F  F17  1  0.772266  0.772266  0.478564  1
