# generated using pymatgen
data_NdEu2BeO5
_symmetry_space_group_name_H-M   'P 1'
_cell_length_a   6.58129500
_cell_length_b   7.26201200
_cell_length_c   9.58746900
_cell_angle_alpha   90.00000000
_cell_angle_beta   90.00000000
_cell_angle_gamma   90.00000000
_symmetry_Int_Tables_number   1
_chemical_formula_structural   NdEu2BeO5
_chemical_formula_sum   'Nd4 Eu8 Be4 O20'
_cell_volume   458.21815571
_cell_formula_units_Z   4
loop_
 _symmetry_equiv_pos_site_id
 _symmetry_equiv_pos_as_xyz
  1  'x, y, z'
loop_
 _atom_site_type_symbol
 _atom_site_label
 _atom_site_symmetry_multiplicity
 _atom_site_fract_x
 _atom_site_fract_y
 _atom_site_fract_z
 _atom_site_occupancy
  Nd  Nd0  1  0.403968  0.750000  0.976442  1
  Nd  Nd1  1  0.096032  0.750000  0.476442  1
  Nd  Nd2  1  0.596032  0.250000  0.023558  1
  Nd  Nd3  1  0.903968  0.250000  0.523558  1
  Eu  Eu4  1  0.921533  0.522917  0.826554  1
  Eu  Eu5  1  0.421533  0.022917  0.673446  1
  Eu  Eu6  1  0.578467  0.977083  0.326554  1
  Eu  Eu7  1  0.078467  0.477083  0.173446  1
  Eu  Eu8  1  0.421533  0.477083  0.673446  1
  Eu  Eu9  1  0.921533  0.977083  0.826554  1
  Eu  Eu10  1  0.578467  0.522917  0.326554  1
  Eu  Eu11  1  0.078467  0.022917  0.173446  1
  Be  Be12  1  0.192291  0.250000  0.898450  1
  Be  Be13  1  0.807709  0.750000  0.101550  1
  Be  Be14  1  0.307709  0.250000  0.398450  1
  Be  Be15  1  0.692291  0.750000  0.601550  1
  O  O16  1  0.135803  0.250000  0.725949  1
  O  O17  1  0.309181  0.441409  0.930713  1
  O  O18  1  0.835359  0.250000  0.276103  1
  O  O19  1  0.664641  0.250000  0.776103  1
  O  O20  1  0.690819  0.941409  0.069287  1
  O  O21  1  0.309181  0.058591  0.930713  1
  O  O22  1  0.364197  0.250000  0.225949  1
  O  O23  1  0.479595  0.750000  0.510487  1
  O  O24  1  0.864197  0.750000  0.274051  1
  O  O25  1  0.335359  0.750000  0.223897  1
  O  O26  1  0.020405  0.750000  0.010487  1
  O  O27  1  0.809181  0.558591  0.569287  1
  O  O28  1  0.520405  0.250000  0.489513  1
  O  O29  1  0.164641  0.750000  0.723897  1
  O  O30  1  0.690819  0.558591  0.069287  1
  O  O31  1  0.190819  0.441409  0.430713  1
  O  O32  1  0.809181  0.941409  0.569287  1
  O  O33  1  0.635803  0.750000  0.774051  1
  O  O34  1  0.979595  0.250000  0.989513  1
  O  O35  1  0.190819  0.058591  0.430713  1
