# generated using pymatgen
data_Y7Er9(TmPt4)4
_symmetry_space_group_name_H-M   'P 1'
_cell_length_a   7.44151492
_cell_length_b   7.52115224
_cell_length_c   14.66344603
_cell_angle_alpha   90.00547887
_cell_angle_beta   90.02218803
_cell_angle_gamma   89.96930910
_symmetry_Int_Tables_number   1
_chemical_formula_structural   Y7Er9(TmPt4)4
_chemical_formula_sum   'Y7 Er9 Tm4 Pt16'
_cell_volume   820.69480566
_cell_formula_units_Z   1
loop_
 _symmetry_equiv_pos_site_id
 _symmetry_equiv_pos_as_xyz
  1  'x, y, z'
loop_
 _atom_site_type_symbol
 _atom_site_label
 _atom_site_symmetry_multiplicity
 _atom_site_fract_x
 _atom_site_fract_y
 _atom_site_fract_z
 _atom_site_occupancy
  Y  Y0  1  0.498697  0.679386  0.093316  1
  Y  Y1  1  0.501418  0.320614  0.593059  1
  Y  Y2  1  0.001361  0.179417  0.906803  1
  Y  Y3  1  0.000916  0.178526  0.592827  1
  Y  Y4  1  0.501451  0.320741  0.906823  1
  Y  Y5  1  0.498720  0.679553  0.406960  1
  Y  Y6  1  0.998664  0.820418  0.093033  1
  Er  Er7  1  0.655790  0.832211  0.622386  1
  Er  Er8  1  0.155929  0.667868  0.877567  1
  Er  Er9  1  0.844194  0.331952  0.377576  1
  Er  Er10  1  0.343982  0.167996  0.122498  1
  Er  Er11  1  0.343662  0.167702  0.377750  1
  Er  Er12  1  0.844107  0.332000  0.122573  1
  Er  Er13  1  0.155348  0.668348  0.622195  1
  Er  Er14  1  0.655927  0.832014  0.877707  1
  Er  Er15  1  0.997718  0.819490  0.406675  1
  Tm  Tm16  1  0.681344  0.988971  0.250240  1
  Tm  Tm17  1  0.181427  0.511207  0.250276  1
  Tm  Tm18  1  0.818766  0.488884  0.749907  1
  Tm  Tm19  1  0.318678  0.011083  0.750042  1
  Pt  Pt20  1  0.817859  0.642703  0.251112  1
  Pt  Pt21  1  0.316124  0.858132  0.250477  1
  Pt  Pt22  1  0.683370  0.141932  0.749750  1
  Pt  Pt23  1  0.183441  0.358257  0.749708  1
  Pt  Pt24  1  0.546967  0.384884  0.250186  1
  Pt  Pt25  1  0.046404  0.114553  0.250516  1
  Pt  Pt26  1  0.953332  0.884661  0.749910  1
  Pt  Pt27  1  0.453312  0.615470  0.749837  1
  Pt  Pt28  1  0.817777  0.534352  0.541379  1
  Pt  Pt29  1  0.317617  0.966519  0.958115  1
  Pt  Pt30  1  0.684480  0.032038  0.457710  1
  Pt  Pt31  1  0.182235  0.466737  0.042051  1
  Pt  Pt32  1  0.181793  0.468253  0.457508  1
  Pt  Pt33  1  0.682349  0.033544  0.041996  1
  Pt  Pt34  1  0.317232  0.966113  0.541407  1
  Pt  Pt35  1  0.817612  0.533466  0.958125  1
