# generated using pymatgen
data_Y2Er6Re3RuC8
_symmetry_space_group_name_H-M   'P 1'
_cell_length_a   5.07261300
_cell_length_b   6.53298844
_cell_length_c   9.77844100
_cell_angle_alpha   89.88718047
_cell_angle_beta   90.00000000
_cell_angle_gamma   90.00000000
_symmetry_Int_Tables_number   1
_chemical_formula_structural   Y2Er6Re3RuC8
_chemical_formula_sum   'Y2 Er6 Re3 Ru1 C8'
_cell_volume   324.05027747
_cell_formula_units_Z   1
loop_
 _symmetry_equiv_pos_site_id
 _symmetry_equiv_pos_as_xyz
  1  'x, y, z'
loop_
 _atom_site_type_symbol
 _atom_site_label
 _atom_site_symmetry_multiplicity
 _atom_site_fract_x
 _atom_site_fract_y
 _atom_site_fract_z
 _atom_site_occupancy
  Y  Y0  1  0.750000  0.532092  0.785743  1
  Y  Y1  1  0.250000  0.967130  0.282675  1
  Er  Er2  1  0.750000  0.677251  0.442762  1
  Er  Er3  1  0.250000  0.827116  0.944007  1
  Er  Er4  1  0.750000  0.177727  0.057680  1
  Er  Er5  1  0.250000  0.321894  0.557608  1
  Er  Er6  1  0.250000  0.466356  0.216072  1
  Er  Er7  1  0.750000  0.034042  0.716089  1
  Re  Re8  1  0.250000  0.782181  0.633009  1
  Re  Re9  1  0.750000  0.218834  0.368503  1
  Re  Re10  1  0.750000  0.719034  0.132128  1
  Ru  Ru11  1  0.250000  0.281063  0.866934  1
  C  C12  1  0.250000  0.673676  0.448360  1
  C  C13  1  0.250000  0.549589  0.756757  1
  C  C14  1  0.750000  0.451771  0.240885  1
  C  C15  1  0.750000  0.825171  0.946835  1
  C  C16  1  0.250000  0.047199  0.740026  1
  C  C17  1  0.250000  0.172773  0.050940  1
  C  C18  1  0.750000  0.323715  0.553436  1
  C  C19  1  0.750000  0.951385  0.259550  1
