# generated using pymatgen
data_Dy4Er3CoBr12
_symmetry_space_group_name_H-M   'P 1'
_cell_length_a   9.14466083
_cell_length_b   9.15464903
_cell_length_c   9.15776903
_cell_angle_alpha   106.70379034
_cell_angle_beta   106.76188467
_cell_angle_gamma   106.67309163
_symmetry_Int_Tables_number   1
_chemical_formula_structural   Dy4Er3CoBr12
_chemical_formula_sum   'Dy4 Er3 Co1 Br12'
_cell_volume   643.41039527
_cell_formula_units_Z   1
loop_
 _symmetry_equiv_pos_site_id
 _symmetry_equiv_pos_as_xyz
  1  'x, y, z'
loop_
 _atom_site_type_symbol
 _atom_site_label
 _atom_site_symmetry_multiplicity
 _atom_site_fract_x
 _atom_site_fract_y
 _atom_site_fract_z
 _atom_site_occupancy
  Dy  Dy0  1  0.095654  0.020610  0.300665  1
  Dy  Dy1  1  0.301922  0.096095  0.021018  1
  Dy  Dy2  1  0.020849  0.301792  0.096378  1
  Dy  Dy3  1  0.902940  0.979096  0.698787  1
  Er  Er4  1  0.700812  0.903512  0.978636  1
  Er  Er5  1  0.979418  0.701217  0.904336  1
  Er  Er6  1  0.499751  0.499344  0.500298  1
  Co  Co7  1  0.000168  0.000295  0.999828  1
  Br  Br8  1  0.068043  0.675573  0.220451  1
  Br  Br9  1  0.222718  0.068974  0.676080  1
  Br  Br10  1  0.675325  0.220398  0.068124  1
  Br  Br11  1  0.931797  0.326342  0.777950  1
  Br  Br12  1  0.774983  0.930268  0.321593  1
  Br  Br13  1  0.324497  0.776250  0.931223  1
  Br  Br14  1  0.463441  0.168317  0.387919  1
  Br  Br15  1  0.388137  0.463223  0.169535  1
  Br  Br16  1  0.168104  0.387665  0.463278  1
  Br  Br17  1  0.536073  0.830726  0.613690  1
  Br  Br18  1  0.613350  0.538088  0.831752  1
  Br  Br19  1  0.832016  0.612214  0.538458  1
