# generated using pymatgen
data_La8Dy2IrOs3
_symmetry_space_group_name_H-M   'P 1'
_cell_length_a   6.72439466
_cell_length_b   7.34883879
_cell_length_c   9.02019341
_cell_angle_alpha   95.18664312
_cell_angle_beta   111.90615845
_cell_angle_gamma   89.82497653
_symmetry_Int_Tables_number   1
_chemical_formula_structural   La8Dy2IrOs3
_chemical_formula_sum   'La8 Dy2 Ir1 Os3'
_cell_volume   411.64140306
_cell_formula_units_Z   1
loop_
 _symmetry_equiv_pos_site_id
 _symmetry_equiv_pos_as_xyz
  1  'x, y, z'
loop_
 _atom_site_type_symbol
 _atom_site_label
 _atom_site_symmetry_multiplicity
 _atom_site_fract_x
 _atom_site_fract_y
 _atom_site_fract_z
 _atom_site_occupancy
  La  La0  1  0.795872  0.089038  0.821824  1
  La  La1  1  0.978499  0.413061  0.180865  1
  La  La2  1  0.202392  0.911755  0.182425  1
  La  La3  1  0.020595  0.584504  0.821959  1
  La  La4  1  0.213299  0.184065  0.569297  1
  La  La5  1  0.643654  0.317303  0.429215  1
  La  La6  1  0.783747  0.818122  0.424912  1
  La  La7  1  0.361336  0.680766  0.570431  1
  Dy  Dy8  1  0.434768  0.251191  0.002124  1
  Dy  Dy9  1  0.565073  0.749638  0.999924  1
  Ir  Ir10  1  0.184331  0.926295  0.783305  1
  Os  Os11  1  0.603810  0.426008  0.784472  1
  Os  Os12  1  0.818278  0.072875  0.215507  1
  Os  Os13  1  0.394347  0.575377  0.213740  1
