# generated using pymatgen
data_GdTm(SeI)2
_symmetry_space_group_name_H-M   'P 1'
_cell_length_a   4.25593500
_cell_length_b   5.64812400
_cell_length_c   10.22001200
_cell_angle_alpha   90.00000000
_cell_angle_beta   90.00000000
_cell_angle_gamma   90.00000000
_symmetry_Int_Tables_number   1
_chemical_formula_structural   GdTm(SeI)2
_chemical_formula_sum   'Gd1 Tm1 Se2 I2'
_cell_volume   245.66914531
_cell_formula_units_Z   1
loop_
 _symmetry_equiv_pos_site_id
 _symmetry_equiv_pos_as_xyz
  1  'x, y, z'
loop_
 _atom_site_type_symbol
 _atom_site_label
 _atom_site_symmetry_multiplicity
 _atom_site_fract_x
 _atom_site_fract_y
 _atom_site_fract_z
 _atom_site_occupancy
  Gd  Gd0  1  0.500000  0.000000  0.884790  1
  Tm  Tm1  1  0.000000  0.500000  0.114553  1
  Se  Se2  1  0.500000  0.500000  0.929689  1
  Se  Se3  1  0.000000  0.000000  0.078348  1
  I  I4  1  0.000000  0.000000  0.666673  1
  I  I5  1  0.500000  0.500000  0.325947  1
