# generated using pymatgen
data_Pr6Cd22PPd
_symmetry_space_group_name_H-M   'P 1'
_cell_length_a   10.06067042
_cell_length_b   10.06067132
_cell_length_c   10.01767600
_cell_angle_alpha   60.14126927
_cell_angle_beta   60.14126631
_cell_angle_gamma   60.11727461
_symmetry_Int_Tables_number   1
_chemical_formula_structural   Pr6Cd22PPd
_chemical_formula_sum   'Pr6 Cd22 P1 Pd1'
_cell_volume   719.14254577
_cell_formula_units_Z   1
loop_
 _symmetry_equiv_pos_site_id
 _symmetry_equiv_pos_as_xyz
  1  'x, y, z'
loop_
 _atom_site_type_symbol
 _atom_site_label
 _atom_site_symmetry_multiplicity
 _atom_site_fract_x
 _atom_site_fract_y
 _atom_site_fract_z
 _atom_site_occupancy
  Pr  Pr0  1  0.794828  0.794828  0.205172  1
  Pr  Pr1  1  0.205435  0.794565  0.203358  1
  Pr  Pr2  1  0.794565  0.205435  0.203358  1
  Pr  Pr3  1  0.205172  0.205172  0.794828  1
  Pr  Pr4  1  0.794565  0.205435  0.796642  1
  Pr  Pr5  1  0.205435  0.794565  0.796642  1
  Cd  Cd6  1  0.833265  0.833265  0.500066  1
  Cd  Cd7  1  0.823908  0.504260  0.835916  1
  Cd  Cd8  1  0.504260  0.823908  0.835916  1
  Cd  Cd9  1  0.833265  0.833265  0.833403  1
  Cd  Cd10  1  0.166735  0.166735  0.499934  1
  Cd  Cd11  1  0.176092  0.495740  0.164084  1
  Cd  Cd12  1  0.495740  0.176092  0.164084  1
  Cd  Cd13  1  0.166735  0.166735  0.166597  1
  Cd  Cd14  1  0.616901  0.616901  0.134760  1
  Cd  Cd15  1  0.621347  0.136134  0.621259  1
  Cd  Cd16  1  0.136134  0.621347  0.621259  1
  Cd  Cd17  1  0.616901  0.616901  0.631438  1
  Cd  Cd18  1  0.383099  0.383099  0.865240  1
  Cd  Cd19  1  0.378653  0.863866  0.378741  1
  Cd  Cd20  1  0.863866  0.378653  0.378741  1
  Cd  Cd21  1  0.383099  0.383099  0.368562  1
  Cd  Cd22  1  0.000000  0.000000  0.500000  1
  Cd  Cd23  1  0.500000  0.000000  0.500000  1
  Cd  Cd24  1  0.000000  0.500000  0.500000  1
  Cd  Cd25  1  0.000000  0.500000  0.000000  1
  Cd  Cd26  1  0.500000  0.000000  0.000000  1
  Cd  Cd27  1  0.500000  0.500000  0.500000  1
  P  P28  1  0.000000  0.000000  0.000000  1
  Pd  Pd29  1  0.500000  0.500000  0.000000  1
