# generated using pymatgen
data_Ho8Mg2SiGe3B16
_symmetry_space_group_name_H-M   'P 1'
_cell_length_a   7.16625333
_cell_length_b   7.16625333
_cell_length_c   7.86353300
_cell_angle_alpha   90.00000000
_cell_angle_beta   90.00000000
_cell_angle_gamma   89.93028167
_symmetry_Int_Tables_number   1
_chemical_formula_structural   Ho8Mg2SiGe3B16
_chemical_formula_sum   'Ho8 Mg2 Si1 Ge3 B16'
_cell_volume   403.83290666
_cell_formula_units_Z   1
loop_
 _symmetry_equiv_pos_site_id
 _symmetry_equiv_pos_as_xyz
  1  'x, y, z'
loop_
 _atom_site_type_symbol
 _atom_site_label
 _atom_site_symmetry_multiplicity
 _atom_site_fract_x
 _atom_site_fract_y
 _atom_site_fract_z
 _atom_site_occupancy
  Ho  Ho0  1  0.682564  0.181858  0.230159  1
  Ho  Ho1  1  0.318142  0.817436  0.769841  1
  Ho  Ho2  1  0.318142  0.817436  0.230159  1
  Ho  Ho3  1  0.816401  0.683599  0.230375  1
  Ho  Ho4  1  0.816401  0.683599  0.769625  1
  Ho  Ho5  1  0.682564  0.181858  0.769841  1
  Ho  Ho6  1  0.182799  0.317201  0.770474  1
  Ho  Ho7  1  0.182799  0.317201  0.229526  1
  Mg  Mg8  1  0.998439  0.998719  0.500000  1
  Mg  Mg9  1  0.501281  0.501561  0.500000  1
  Si  Si10  1  0.617917  0.882083  0.500000  1
  Ge  Ge11  1  0.120477  0.620782  0.500000  1
  Ge  Ge12  1  0.879218  0.379523  0.500000  1
  Ge  Ge13  1  0.381278  0.118722  0.500000  1
  B  B14  1  0.173596  0.039984  0.000000  1
  B  B15  1  0.826713  0.959803  0.000000  1
  B  B16  1  0.959960  0.173591  0.000000  1
  B  B17  1  0.326409  0.540040  0.000000  1
  B  B18  1  0.040212  0.826240  0.000000  1
  B  B19  1  0.673760  0.459788  0.000000  1
  B  B20  1  0.540197  0.673287  0.000000  1
  B  B21  1  0.460016  0.326404  0.000000  1
  B  B22  1  0.089439  0.589455  0.000000  1
  B  B23  1  0.910545  0.410561  0.000000  1
  B  B24  1  0.410330  0.089670  0.000000  1
  B  B25  1  0.589924  0.910076  0.000000  1
  B  B26  1  0.000165  0.999924  0.162758  1
  B  B27  1  0.000165  0.999924  0.837242  1
  B  B28  1  0.500076  0.499835  0.837242  1
  B  B29  1  0.500076  0.499835  0.162758  1
