# generated using pymatgen
data_LiEr3ZnIn3Ir
_symmetry_space_group_name_H-M   'P 1'
_cell_length_a   7.89646600
_cell_length_b   7.89646636
_cell_length_c   3.62624800
_cell_angle_alpha   90.00000000
_cell_angle_beta   90.00000000
_cell_angle_gamma   119.99999959
_symmetry_Int_Tables_number   1
_chemical_formula_structural   LiEr3ZnIn3Ir
_chemical_formula_sum   'Li1 Er3 Zn1 In3 Ir1'
_cell_volume   195.81848911
_cell_formula_units_Z   1
loop_
 _symmetry_equiv_pos_site_id
 _symmetry_equiv_pos_as_xyz
  1  'x, y, z'
loop_
 _atom_site_type_symbol
 _atom_site_label
 _atom_site_symmetry_multiplicity
 _atom_site_fract_x
 _atom_site_fract_y
 _atom_site_fract_z
 _atom_site_occupancy
  Li  Li0  1  0.000000  0.000000  0.500000  1
  Er  Er1  1  0.392119  0.973418  0.500000  1
  Er  Er2  1  0.026582  0.418700  0.500000  1
  Er  Er3  1  0.581300  0.607881  0.500000  1
  Zn  Zn4  1  0.666667  0.333333  0.000000  1
  In  In5  1  0.742211  0.010415  0.000000  1
  In  In6  1  0.989585  0.731795  0.000000  1
  In  In7  1  0.268205  0.257789  0.000000  1
  Ir  Ir8  1  0.333333  0.666667  0.000000  1
