# generated using pymatgen
data_Zn20Cu2IrPd3
_symmetry_space_group_name_H-M   'P 1'
_cell_length_a   7.89742780
_cell_length_b   7.89742748
_cell_length_c   7.88614439
_cell_angle_alpha   70.63550683
_cell_angle_beta   70.63550680
_cell_angle_gamma   109.78553864
_symmetry_Int_Tables_number   1
_chemical_formula_structural   Zn20Cu2IrPd3
_chemical_formula_sum   'Zn20 Cu2 Ir1 Pd3'
_cell_volume   378.15207975
_cell_formula_units_Z   1
loop_
 _symmetry_equiv_pos_site_id
 _symmetry_equiv_pos_as_xyz
  1  'x, y, z'
loop_
 _atom_site_type_symbol
 _atom_site_label
 _atom_site_symmetry_multiplicity
 _atom_site_fract_x
 _atom_site_fract_y
 _atom_site_fract_z
 _atom_site_occupancy
  Zn  Zn0  1  0.004257  0.004257  0.789328  1
  Zn  Zn1  1  0.770711  0.770711  0.231752  1
  Zn  Zn2  1  0.218773  0.000048  0.997000  1
  Zn  Zn3  1  0.000048  0.218773  0.997000  1
  Zn  Zn4  1  0.259525  0.259525  0.393718  1
  Zn  Zn5  1  0.008999  0.743147  0.645594  1
  Zn  Zn6  1  0.743147  0.008999  0.645594  1
  Zn  Zn7  1  0.651978  0.651978  0.628544  1
  Zn  Zn8  1  0.362371  0.640604  0.348953  1
  Zn  Zn9  1  0.640604  0.362371  0.348953  1
  Zn  Zn10  1  0.357273  0.735435  0.978532  1
  Zn  Zn11  1  0.626785  0.266990  0.718052  1
  Zn  Zn12  1  0.353809  0.005852  0.272075  1
  Zn  Zn13  1  0.735435  0.357273  0.978532  1
  Zn  Zn14  1  0.005852  0.353809  0.272075  1
  Zn  Zn15  1  0.266990  0.626785  0.718052  1
  Zn  Zn16  1  0.638232  0.638232  0.010983  1
  Zn  Zn17  1  0.001283  0.641169  0.362084  1
  Zn  Zn18  1  0.641169  0.001283  0.362084  1
  Zn  Zn19  1  0.356917  0.356917  0.003752  1
  Cu  Cu20  1  0.997875  0.361734  0.648233  1
  Cu  Cu21  1  0.361734  0.997875  0.648233  1
  Ir  Ir22  1  0.000384  0.000384  0.337935  1
  Pd  Pd23  1  0.354319  0.354319  0.651001  1
  Pd  Pd24  1  0.648372  0.993156  0.005970  1
  Pd  Pd25  1  0.993156  0.648372  0.005970  1
