# generated using pymatgen
data_Tm2Th(RhPb)3
_symmetry_space_group_name_H-M   'P 1'
_cell_length_a   7.70095768
_cell_length_b   7.80288541
_cell_length_c   3.91032800
_cell_angle_alpha   90.00000000
_cell_angle_beta   90.00000000
_cell_angle_gamma   120.43881560
_symmetry_Int_Tables_number   1
_chemical_formula_structural   Tm2Th(RhPb)3
_chemical_formula_sum   'Tm2 Th1 Rh3 Pb3'
_cell_volume   202.58458217
_cell_formula_units_Z   1
loop_
 _symmetry_equiv_pos_site_id
 _symmetry_equiv_pos_as_xyz
  1  'x, y, z'
loop_
 _atom_site_type_symbol
 _atom_site_label
 _atom_site_symmetry_multiplicity
 _atom_site_fract_x
 _atom_site_fract_y
 _atom_site_fract_z
 _atom_site_occupancy
  Tm  Tm0  1  0.595825  0.595899  0.500000  1
  Tm  Tm1  1  0.404175  0.000074  0.500000  1
  Th  Th2  1  0.000000  0.411040  0.500000  1
  Rh  Rh3  1  0.318509  0.651821  0.000000  1
  Rh  Rh4  1  0.000000  0.008144  0.500000  1
  Rh  Rh5  1  0.681491  0.333311  0.000000  1
  Pb  Pb6  1  0.276267  0.262533  0.000000  1
  Pb  Pb7  1  0.000000  0.750910  0.000000  1
  Pb  Pb8  1  0.723733  0.986267  0.000000  1
