# generated using pymatgen
data_TbZrCo3P7Ru9
_symmetry_space_group_name_H-M   'P 1'
_cell_length_a   9.29864000
_cell_length_b   9.29864047
_cell_length_c   3.80269700
_cell_angle_alpha   90.00000000
_cell_angle_beta   90.00000000
_cell_angle_gamma   120.00000450
_symmetry_Int_Tables_number   1
_chemical_formula_structural   TbZrCo3P7Ru9
_chemical_formula_sum   'Tb1 Zr1 Co3 P7 Ru9'
_cell_volume   284.74835528
_cell_formula_units_Z   1
loop_
 _symmetry_equiv_pos_site_id
 _symmetry_equiv_pos_as_xyz
  1  'x, y, z'
loop_
 _atom_site_type_symbol
 _atom_site_label
 _atom_site_symmetry_multiplicity
 _atom_site_fract_x
 _atom_site_fract_y
 _atom_site_fract_z
 _atom_site_occupancy
  Tb  Tb0  1  0.000000  0.000000  0.000000  1
  Zr  Zr1  1  0.333333  0.666667  0.500000  1
  Co  Co2  1  0.824951  0.604851  0.000000  1
  Co  Co3  1  0.395149  0.220100  0.000000  1
  Co  Co4  1  0.779900  0.175049  0.000000  1
  P  P5  1  0.784639  0.734313  0.500000  1
  P  P6  1  0.265687  0.050327  0.500000  1
  P  P7  1  0.949673  0.215361  0.500000  1
  P  P8  1  0.666667  0.333333  0.000000  1
  P  P9  1  0.080243  0.636151  0.000000  1
  P  P10  1  0.363849  0.444092  0.000000  1
  P  P11  1  0.555908  0.919757  0.000000  1
  Ru  Ru12  1  0.095328  0.401584  0.000000  1
  Ru  Ru13  1  0.598416  0.693744  0.000000  1
  Ru  Ru14  1  0.306256  0.904672  0.000000  1
  Ru  Ru15  1  0.053245  0.768090  0.500000  1
  Ru  Ru16  1  0.231910  0.285153  0.500000  1
  Ru  Ru17  1  0.714847  0.946755  0.500000  1
  Ru  Ru18  1  0.873920  0.418778  0.500000  1
  Ru  Ru19  1  0.581222  0.455141  0.500000  1
  Ru  Ru20  1  0.544859  0.126080  0.500000  1
