# generated using pymatgen
data_Gd2DyTaO7
_symmetry_space_group_name_H-M   'P 1'
_cell_length_a   6.53594369
_cell_length_b   6.53594374
_cell_length_c   7.55729709
_cell_angle_alpha   90.04927533
_cell_angle_beta   90.04927408
_cell_angle_gamma   108.93740954
_symmetry_Int_Tables_number   1
_chemical_formula_structural   Gd2DyTaO7
_chemical_formula_sum   'Gd4 Dy2 Ta2 O14'
_cell_volume   305.36254134
_cell_formula_units_Z   2
loop_
 _symmetry_equiv_pos_site_id
 _symmetry_equiv_pos_as_xyz
  1  'x, y, z'
loop_
 _atom_site_type_symbol
 _atom_site_label
 _atom_site_symmetry_multiplicity
 _atom_site_fract_x
 _atom_site_fract_y
 _atom_site_fract_z
 _atom_site_occupancy
  Gd  Gd0  1  0.999848  0.533247  0.244688  1
  Gd  Gd1  1  0.466753  0.000152  0.255312  1
  Gd  Gd2  1  0.471656  0.472282  0.998026  1
  Gd  Gd3  1  0.527718  0.528344  0.501974  1
  Dy  Dy4  1  0.999968  0.464499  0.744351  1
  Dy  Dy5  1  0.535501  0.000032  0.755649  1
  Ta  Ta6  1  0.003215  0.002146  0.501773  1
  Ta  Ta7  1  0.997854  0.996785  0.998227  1
  O  O8  1  0.932776  0.067224  0.750000  1
  O  O9  1  0.640833  0.359167  0.750000  1
  O  O10  1  0.309467  0.053478  0.542675  1
  O  O11  1  0.946522  0.690533  0.957325  1
  O  O12  1  0.629081  0.370919  0.250000  1
  O  O13  1  0.922687  0.676474  0.530321  1
  O  O14  1  0.323526  0.077313  0.969679  1
  O  O15  1  0.080194  0.325513  0.023787  1
  O  O16  1  0.674487  0.919806  0.476213  1
  O  O17  1  0.368860  0.631140  0.750000  1
  O  O18  1  0.688255  0.942999  0.035647  1
  O  O19  1  0.057001  0.311745  0.464353  1
  O  O20  1  0.362130  0.637870  0.250000  1
  O  O21  1  0.061668  0.938332  0.250000  1
