# generated using pymatgen
data_HoB3W
_symmetry_space_group_name_H-M   'P 1'
_cell_length_a   3.16212000
_cell_length_b   5.44819568
_cell_length_c   6.81830523
_cell_angle_alpha   77.95023714
_cell_angle_beta   90.00000000
_cell_angle_gamma   90.00000000
_symmetry_Int_Tables_number   1
_chemical_formula_structural   HoB3W
_chemical_formula_sum   'Ho2 B6 W2'
_cell_volume   114.87658882
_cell_formula_units_Z   2
loop_
 _symmetry_equiv_pos_site_id
 _symmetry_equiv_pos_as_xyz
  1  'x, y, z'
loop_
 _atom_site_type_symbol
 _atom_site_label
 _atom_site_symmetry_multiplicity
 _atom_site_fract_x
 _atom_site_fract_y
 _atom_site_fract_z
 _atom_site_occupancy
  Ho  Ho0  1  0.250000  0.324282  0.708673  1
  Ho  Ho1  1  0.750000  0.675718  0.291327  1
  B  B2  1  0.250000  0.917118  0.524701  1
  B  B3  1  0.750000  0.082882  0.475299  1
  B  B4  1  0.250000  0.912529  0.005259  1
  B  B5  1  0.750000  0.087471  0.994741  1
  B  B6  1  0.250000  0.583148  0.007203  1
  B  B7  1  0.750000  0.416852  0.992797  1
  W  W8  1  0.250000  0.188312  0.220246  1
  W  W9  1  0.750000  0.811688  0.779754  1
