# generated using pymatgen
data_NdEr7(Tm3Pt4)4
_symmetry_space_group_name_H-M   'P 1'
_cell_length_a   7.42533204
_cell_length_b   7.49779080
_cell_length_c   14.64190722
_cell_angle_alpha   89.97311207
_cell_angle_beta   90.11075035
_cell_angle_gamma   90.07455764
_symmetry_Int_Tables_number   1
_chemical_formula_structural   NdEr7(Tm3Pt4)4
_chemical_formula_sum   'Nd1 Er7 Tm12 Pt16'
_cell_volume   815.16518282
_cell_formula_units_Z   1
loop_
 _symmetry_equiv_pos_site_id
 _symmetry_equiv_pos_as_xyz
  1  'x, y, z'
loop_
 _atom_site_type_symbol
 _atom_site_label
 _atom_site_symmetry_multiplicity
 _atom_site_fract_x
 _atom_site_fract_y
 _atom_site_fract_z
 _atom_site_occupancy
  Nd  Nd0  1  0.498822  0.676667  0.591833  1
  Er  Er1  1  0.000878  0.820888  0.908150  1
  Er  Er2  1  0.499032  0.320554  0.093046  1
  Er  Er3  1  0.999703  0.179395  0.407188  1
  Er  Er4  1  0.498700  0.316994  0.405247  1
  Er  Er5  1  0.999490  0.179726  0.092761  1
  Er  Er6  1  0.501079  0.678702  0.907364  1
  Er  Er7  1  0.001067  0.822343  0.593604  1
  Tm  Tm8  1  0.655179  0.167236  0.622491  1
  Tm  Tm9  1  0.154999  0.333109  0.878598  1
  Tm  Tm10  1  0.344623  0.832570  0.122014  1
  Tm  Tm11  1  0.845774  0.668150  0.377295  1
  Tm  Tm12  1  0.342150  0.834108  0.376338  1
  Tm  Tm13  1  0.843983  0.666475  0.122561  1
  Tm  Tm14  1  0.655680  0.166931  0.878765  1
  Tm  Tm15  1  0.152551  0.331630  0.623402  1
  Tm  Tm16  1  0.818180  0.510274  0.751699  1
  Tm  Tm17  1  0.318765  0.990134  0.751775  1
  Tm  Tm18  1  0.181867  0.489997  0.249337  1
  Tm  Tm19  1  0.681669  0.009456  0.249279  1
  Pt  Pt20  1  0.685016  0.970451  0.456648  1
  Pt  Pt21  1  0.184181  0.532693  0.042087  1
  Pt  Pt22  1  0.314615  0.034167  0.958920  1
  Pt  Pt23  1  0.823343  0.461669  0.540002  1
  Pt  Pt24  1  0.313014  0.040510  0.538377  1
  Pt  Pt25  1  0.815446  0.467278  0.958524  1
  Pt  Pt26  1  0.684055  0.966691  0.041928  1
  Pt  Pt27  1  0.183819  0.529185  0.455245  1
  Pt  Pt28  1  0.451747  0.382773  0.751930  1
  Pt  Pt29  1  0.954173  0.115697  0.750750  1
  Pt  Pt30  1  0.547499  0.614019  0.249922  1
  Pt  Pt31  1  0.047094  0.886818  0.249131  1
  Pt  Pt32  1  0.684905  0.858773  0.753809  1
  Pt  Pt33  1  0.178725  0.644343  0.752124  1
  Pt  Pt34  1  0.318814  0.143892  0.248593  1
  Pt  Pt35  1  0.819365  0.355701  0.249265  1
