# generated using pymatgen
data_Ho8Tc3B24Ir
_symmetry_space_group_name_H-M   'P 1'
_cell_length_a   3.66564900
_cell_length_b   9.13921844
_cell_length_c   11.52186059
_cell_angle_alpha   90.10801506
_cell_angle_beta   90.00000000
_cell_angle_gamma   90.00000000
_symmetry_Int_Tables_number   1
_chemical_formula_structural   Ho8Tc3B24Ir
_chemical_formula_sum   'Ho8 Tc3 B24 Ir1'
_cell_volume   385.99508929
_cell_formula_units_Z   1
loop_
 _symmetry_equiv_pos_site_id
 _symmetry_equiv_pos_as_xyz
  1  'x, y, z'
loop_
 _atom_site_type_symbol
 _atom_site_label
 _atom_site_symmetry_multiplicity
 _atom_site_fract_x
 _atom_site_fract_y
 _atom_site_fract_z
 _atom_site_occupancy
  Ho  Ho0  1  0.000000  0.318842  0.415957  1
  Ho  Ho1  1  0.000000  0.678022  0.591532  1
  Ho  Ho2  1  0.000000  0.827804  0.081180  1
  Ho  Ho3  1  0.000000  0.176594  0.912556  1
  Ho  Ho4  1  0.000000  0.944538  0.370094  1
  Ho  Ho5  1  0.000000  0.056291  0.629572  1
  Ho  Ho6  1  0.000000  0.440230  0.128370  1
  Ho  Ho7  1  0.000000  0.557108  0.871135  1
  Tc  Tc8  1  0.000000  0.362916  0.677654  1
  Tc  Tc9  1  0.000000  0.138358  0.180014  1
  Tc  Tc10  1  0.000000  0.861786  0.820944  1
  B  B11  1  0.500000  0.553518  0.433798  1
  B  B12  1  0.500000  0.446729  0.566655  1
  B  B13  1  0.500000  0.053400  0.066644  1
  B  B14  1  0.500000  0.947141  0.932614  1
  B  B15  1  0.500000  0.748845  0.420284  1
  B  B16  1  0.500000  0.250900  0.580828  1
  B  B17  1  0.500000  0.248468  0.080854  1
  B  B18  1  0.500000  0.752004  0.919132  1
  B  B19  1  0.500000  0.791223  0.265232  1
  B  B20  1  0.500000  0.208663  0.734066  1
  B  B21  1  0.500000  0.291472  0.234900  1
  B  B22  1  0.500000  0.708376  0.766039  1
  B  B23  1  0.500000  0.631692  0.184360  1
  B  B24  1  0.500000  0.369166  0.814047  1
  B  B25  1  0.500000  0.131128  0.314811  1
  B  B26  1  0.500000  0.868280  0.685588  1
  B  B27  1  0.500000  0.982963  0.211959  1
  B  B28  1  0.500000  0.017371  0.787157  1
  B  B29  1  0.500000  0.482575  0.287803  1
  B  B30  1  0.500000  0.518074  0.712301  1
  B  B31  1  0.500000  0.604299  0.029580  1
  B  B32  1  0.500000  0.396188  0.971419  1
  B  B33  1  0.500000  0.102737  0.471050  1
  B  B34  1  0.500000  0.894721  0.528524  1
  Ir  Ir35  1  0.000000  0.637576  0.321348  1
