# generated using pymatgen
data_K3ScP2
_symmetry_space_group_name_H-M   'P 1'
_cell_length_a   8.96459630
_cell_length_b   8.96459632
_cell_length_c   8.96459600
_cell_angle_alpha   128.33029095
_cell_angle_beta   70.55664228
_cell_angle_gamma   135.45346002
_symmetry_Int_Tables_number   1
_chemical_formula_structural   K3ScP2
_chemical_formula_sum   'K6 Sc2 P4'
_cell_volume   388.56630698
_cell_formula_units_Z   2
loop_
 _symmetry_equiv_pos_site_id
 _symmetry_equiv_pos_as_xyz
  1  'x, y, z'
loop_
 _atom_site_type_symbol
 _atom_site_label
 _atom_site_symmetry_multiplicity
 _atom_site_fract_x
 _atom_site_fract_y
 _atom_site_fract_z
 _atom_site_occupancy
  K  K0  1  0.808314  0.198787  0.007101  1
  K  K1  1  0.691686  0.698786  0.390473  1
  K  K2  1  0.750000  0.250000  0.500000  1
  K  K3  1  0.250000  0.750001  0.500001  1
  K  K4  1  0.308314  0.301213  0.609526  1
  K  K5  1  0.191686  0.801212  0.992898  1
  Sc  Sc6  1  0.250000  0.250000  0.000000  1
  Sc  Sc7  1  0.750000  0.750000  0.000000  1
  P  P8  1  0.407339  0.684553  0.091892  1
  P  P9  1  0.092661  0.184553  0.277214  1
  P  P10  1  0.907339  0.815446  0.722785  1
  P  P11  1  0.592661  0.315447  0.908109  1
