# generated using pymatgen
data_NdGd15(TmIr3)4
_symmetry_space_group_name_H-M   'P 1'
_cell_length_a   10.96710626
_cell_length_b   10.97439743
_cell_length_c   6.38134600
_cell_angle_alpha   89.99175626
_cell_angle_beta   89.92160891
_cell_angle_gamma   89.92533571
_symmetry_Int_Tables_number   1
_chemical_formula_structural   NdGd15(TmIr3)4
_chemical_formula_sum   'Nd1 Gd15 Tm4 Ir12'
_cell_volume   768.04072453
_cell_formula_units_Z   1
loop_
 _symmetry_equiv_pos_site_id
 _symmetry_equiv_pos_as_xyz
  1  'x, y, z'
loop_
 _atom_site_type_symbol
 _atom_site_label
 _atom_site_symmetry_multiplicity
 _atom_site_fract_x
 _atom_site_fract_y
 _atom_site_fract_z
 _atom_site_occupancy
  Nd  Nd0  1  0.288071  0.088933  0.377572  1
  Gd  Gd1  1  0.290321  0.910819  0.880164  1
  Gd  Gd2  1  0.710628  0.086873  0.879820  1
  Gd  Gd3  1  0.710009  0.911798  0.379837  1
  Gd  Gd4  1  0.587323  0.788938  0.879313  1
  Gd  Gd5  1  0.589477  0.210498  0.380109  1
  Gd  Gd6  1  0.412779  0.788218  0.379627  1
  Gd  Gd7  1  0.413967  0.210803  0.880065  1
  Gd  Gd8  1  0.210362  0.413379  0.620101  1
  Gd  Gd9  1  0.210435  0.588205  0.120271  1
  Gd  Gd10  1  0.788724  0.412971  0.120996  1
  Gd  Gd11  1  0.789466  0.588287  0.620311  1
  Gd  Gd12  1  0.912260  0.709853  0.119945  1
  Gd  Gd13  1  0.911214  0.290225  0.619838  1
  Gd  Gd14  1  0.087417  0.710755  0.620525  1
  Gd  Gd15  1  0.086142  0.291234  0.118238  1
  Tm  Tm16  1  0.998531  0.999749  0.500557  1
  Tm  Tm17  1  0.999936  0.999644  0.000428  1
  Tm  Tm18  1  0.500145  0.500215  0.999887  1
  Tm  Tm19  1  0.500923  0.500001  0.500376  1
  Ir  Ir20  1  0.848593  0.150730  0.250168  1
  Ir  Ir21  1  0.848794  0.849039  0.750094  1
  Ir  Ir22  1  0.149739  0.151034  0.754175  1
  Ir  Ir23  1  0.149730  0.847033  0.248381  1
  Ir  Ir24  1  0.651640  0.349049  0.749997  1
  Ir  Ir25  1  0.651049  0.650699  0.249708  1
  Ir  Ir26  1  0.350076  0.351411  0.249218  1
  Ir  Ir27  1  0.349521  0.650833  0.749932  1
  Ir  Ir28  1  0.501881  0.998893  0.121460  1
  Ir  Ir29  1  0.501752  0.999053  0.623484  1
  Ir  Ir30  1  0.999506  0.500394  0.877399  1
  Ir  Ir31  1  0.999588  0.500434  0.378005  1
