# generated using pymatgen
data_Ti8Al15Ir5OsPt
_symmetry_space_group_name_H-M   'P 1'
_cell_length_a   8.66776494
_cell_length_b   8.66704111
_cell_length_c   8.66704211
_cell_angle_alpha   120.22086535
_cell_angle_beta   119.80957754
_cell_angle_gamma   89.97090194
_symmetry_Int_Tables_number   1
_chemical_formula_structural   Ti8Al15Ir5OsPt
_chemical_formula_sum   'Ti8 Al15 Ir5 Os1 Pt1'
_cell_volume   460.29756275
_cell_formula_units_Z   1
loop_
 _symmetry_equiv_pos_site_id
 _symmetry_equiv_pos_as_xyz
  1  'x, y, z'
loop_
 _atom_site_type_symbol
 _atom_site_label
 _atom_site_symmetry_multiplicity
 _atom_site_fract_x
 _atom_site_fract_y
 _atom_site_fract_z
 _atom_site_occupancy
  Ti  Ti0  1  0.790359  0.290925  0.073595  1
  Ti  Ti1  1  0.217400  0.290928  0.500593  1
  Ti  Ti2  1  0.207276  0.707301  0.500023  1
  Ti  Ti3  1  0.217289  0.716727  0.926301  1
  Ti  Ti4  1  0.790401  0.716789  0.499410  1
  Ti  Ti5  1  0.783353  0.283336  0.499970  1
  Ti  Ti6  1  0.380063  0.122778  0.742759  1
  Ti  Ti7  1  0.380008  0.637308  0.257256  1
  Al  Al8  1  0.996376  0.496209  0.499916  1
  Al  Al9  1  0.154566  0.346179  0.191536  1
  Al  Al10  1  0.154780  0.963248  0.808615  1
  Al  Al11  1  0.150989  0.346910  0.804100  1
  Al  Al12  1  0.542767  0.346788  0.195813  1
  Al  Al13  1  0.845009  0.650303  0.805406  1
  Al  Al14  1  0.845009  0.039748  0.194685  1
  Al  Al15  1  0.842911  0.654624  0.188092  1
  Al  Al16  1  0.466483  0.654702  0.811798  1
  Al  Al17  1  0.384868  0.123104  0.261765  1
  Al  Al18  1  0.861350  0.123240  0.738346  1
  Al  Al19  1  0.620696  0.878056  0.257215  1
  Al  Al20  1  0.620762  0.363445  0.742756  1
  Al  Al21  1  0.615658  0.876780  0.739073  1
  Al  Al22  1  0.137719  0.876708  0.261027  1
  Ir  Ir23  1  0.000971  0.999605  0.501397  1
  Ir  Ir24  1  0.498229  0.999598  0.998650  1
  Ir  Ir25  1  0.497563  0.497576  0.000020  1
  Ir  Ir26  1  0.498218  0.499593  0.498568  1
  Ir  Ir27  1  0.001002  0.499580  0.001359  1
  Os  Os28  1  0.498997  0.999012  0.500003  1
  Pt  Pt29  1  0.998933  0.998896  0.999954  1
