# generated using pymatgen
data_Eu8Er7Tm5Si16
_symmetry_space_group_name_H-M   'P 1'
_cell_length_a   7.91490372
_cell_length_b   7.91424646
_cell_length_c   14.55159400
_cell_angle_alpha   90.03405496
_cell_angle_beta   89.97552503
_cell_angle_gamma   89.99271706
_symmetry_Int_Tables_number   1
_chemical_formula_structural   Eu8Er7Tm5Si16
_chemical_formula_sum   'Eu8 Er7 Tm5 Si16'
_cell_volume   911.51885465
_cell_formula_units_Z   1
loop_
 _symmetry_equiv_pos_site_id
 _symmetry_equiv_pos_as_xyz
  1  'x, y, z'
loop_
 _atom_site_type_symbol
 _atom_site_label
 _atom_site_symmetry_multiplicity
 _atom_site_fract_x
 _atom_site_fract_y
 _atom_site_fract_z
 _atom_site_occupancy
  Eu  Eu0  1  0.640938  0.990000  0.459242  1
  Eu  Eu1  1  0.359007  0.009993  0.959495  1
  Eu  Eu2  1  0.990140  0.640777  0.540772  1
  Eu  Eu3  1  0.489970  0.859181  0.209292  1
  Eu  Eu4  1  0.509999  0.140804  0.709376  1
  Eu  Eu5  1  0.859167  0.490095  0.790777  1
  Eu  Eu6  1  0.140916  0.509880  0.290496  1
  Eu  Eu7  1  0.009921  0.359130  0.040611  1
  Er  Er8  1  0.489023  0.361776  0.124704  1
  Er  Er9  1  0.988808  0.138354  0.625393  1
  Er  Er10  1  0.861672  0.011201  0.874731  1
  Er  Er11  1  0.138371  0.988787  0.374536  1
  Er  Er12  1  0.511156  0.638277  0.624776  1
  Er  Er13  1  0.361590  0.488991  0.875468  1
  Er  Er14  1  0.638386  0.511175  0.375093  1
  Tm  Tm15  1  0.011075  0.861607  0.125306  1
  Tm  Tm16  1  0.316278  0.316209  0.499976  1
  Tm  Tm17  1  0.183761  0.816291  0.750070  1
  Tm  Tm18  1  0.816476  0.183425  0.249886  1
  Tm  Tm19  1  0.683863  0.683985  0.000044  1
  Si  Si20  1  0.284148  0.930354  0.561671  1
  Si  Si21  1  0.715982  0.069206  0.061869  1
  Si  Si22  1  0.930391  0.284123  0.438233  1
  Si  Si23  1  0.430277  0.215660  0.311557  1
  Si  Si24  1  0.569531  0.784196  0.811753  1
  Si  Si25  1  0.215843  0.430411  0.688398  1
  Si  Si26  1  0.784429  0.569930  0.188090  1
  Si  Si27  1  0.069432  0.716238  0.938630  1
  Si  Si28  1  0.796352  0.848545  0.693957  1
  Si  Si29  1  0.203420  0.150975  0.193567  1
  Si  Si30  1  0.848728  0.796587  0.305719  1
  Si  Si31  1  0.348578  0.703629  0.443800  1
  Si  Si32  1  0.651514  0.296380  0.943991  1
  Si  Si33  1  0.703629  0.348498  0.556001  1
  Si  Si34  1  0.295792  0.651642  0.056539  1
  Si  Si35  1  0.151434  0.203686  0.806183  1
