# generated using pymatgen
data_Ac2Fe3Re14C3
_symmetry_space_group_name_H-M   'P 1'
_cell_length_a   7.00298100
_cell_length_b   7.00298050
_cell_length_c   7.00297979
_cell_angle_alpha   83.33881691
_cell_angle_beta   83.33881846
_cell_angle_gamma   83.33881295
_symmetry_Int_Tables_number   1
_chemical_formula_structural   Ac2Fe3Re14C3
_chemical_formula_sum   'Ac2 Fe3 Re14 C3'
_cell_volume   336.98196036
_cell_formula_units_Z   1
loop_
 _symmetry_equiv_pos_site_id
 _symmetry_equiv_pos_as_xyz
  1  'x, y, z'
loop_
 _atom_site_type_symbol
 _atom_site_label
 _atom_site_symmetry_multiplicity
 _atom_site_fract_x
 _atom_site_fract_y
 _atom_site_fract_z
 _atom_site_occupancy
  Ac  Ac0  1  0.646268  0.646268  0.646268  1
  Ac  Ac1  1  0.353732  0.353732  0.353732  1
  Fe  Fe2  1  0.000000  0.000000  0.500000  1
  Fe  Fe3  1  0.500000  0.000000  0.000000  1
  Fe  Fe4  1  0.000000  0.500000  0.000000  1
  Re  Re5  1  0.723124  0.276876  0.000000  1
  Re  Re6  1  0.000000  0.723124  0.276876  1
  Re  Re7  1  0.276876  0.000000  0.723124  1
  Re  Re8  1  0.000000  0.276876  0.723124  1
  Re  Re9  1  0.723124  0.000000  0.276876  1
  Re  Re10  1  0.276876  0.723124  0.000000  1
  Re  Re11  1  0.342620  0.342620  0.868489  1
  Re  Re12  1  0.868489  0.342620  0.342620  1
  Re  Re13  1  0.342620  0.868489  0.342620  1
  Re  Re14  1  0.657380  0.657380  0.131511  1
  Re  Re15  1  0.131511  0.657380  0.657380  1
  Re  Re16  1  0.657380  0.131511  0.657380  1
  Re  Re17  1  0.900802  0.900802  0.900802  1
  Re  Re18  1  0.099198  0.099198  0.099198  1
  C  C19  1  0.500000  0.500000  0.000000  1
  C  C20  1  0.000000  0.500000  0.500000  1
  C  C21  1  0.500000  0.000000  0.500000  1
