# generated using pymatgen
data_LaNd19(SnSb)8
_symmetry_space_group_name_H-M   'P 1'
_cell_length_a   8.35975863
_cell_length_b   8.42521949
_cell_length_c   15.94576754
_cell_angle_alpha   90.02060134
_cell_angle_beta   89.89836185
_cell_angle_gamma   89.96695294
_symmetry_Int_Tables_number   1
_chemical_formula_structural   LaNd19(SnSb)8
_chemical_formula_sum   'La1 Nd19 Sn8 Sb8'
_cell_volume   1123.10305024
_cell_formula_units_Z   1
loop_
 _symmetry_equiv_pos_site_id
 _symmetry_equiv_pos_as_xyz
  1  'x, y, z'
loop_
 _atom_site_type_symbol
 _atom_site_label
 _atom_site_symmetry_multiplicity
 _atom_site_fract_x
 _atom_site_fract_y
 _atom_site_fract_z
 _atom_site_occupancy
  La  La0  1  0.031914  0.180205  0.399182  1
  Nd  Nd1  1  0.378523  0.837179  0.118731  1
  Nd  Nd2  1  0.122579  0.337360  0.619722  1
  Nd  Nd3  1  0.466044  0.677528  0.897042  1
  Nd  Nd4  1  0.878821  0.662911  0.118409  1
  Nd  Nd5  1  0.121399  0.337297  0.880896  1
  Nd  Nd6  1  0.204150  0.496430  0.249775  1
  Nd  Nd7  1  0.704767  0.003354  0.249831  1
  Nd  Nd8  1  0.467195  0.678284  0.602956  1
  Nd  Nd9  1  0.295811  0.996507  0.750429  1
  Nd  Nd10  1  0.621874  0.162569  0.619586  1
  Nd  Nd11  1  0.795647  0.503338  0.750164  1
  Nd  Nd12  1  0.877720  0.662420  0.380395  1
  Nd  Nd13  1  0.033971  0.177429  0.103011  1
  Nd  Nd14  1  0.966073  0.822619  0.897054  1
  Nd  Nd15  1  0.621379  0.162633  0.880853  1
  Nd  Nd16  1  0.533867  0.322664  0.102101  1
  Nd  Nd17  1  0.378379  0.837314  0.380358  1
  Nd  Nd18  1  0.966444  0.821591  0.603300  1
  Nd  Nd19  1  0.533746  0.322960  0.396839  1
  Sn  Sn20  1  0.665109  0.859810  0.750149  1
  Sn  Sn21  1  0.833531  0.360913  0.248845  1
  Sn  Sn22  1  0.573695  0.619788  0.249525  1
  Sn  Sn23  1  0.426142  0.380562  0.750076  1
  Sn  Sn24  1  0.164991  0.640128  0.750171  1
  Sn  Sn25  1  0.926047  0.119421  0.750215  1
  Sn  Sn26  1  0.335908  0.140239  0.249254  1
  Sn  Sn27  1  0.074036  0.879759  0.249435  1
  Sb  Sb28  1  0.777333  0.471694  0.545182  1
  Sb  Sb29  1  0.720279  0.969844  0.455323  1
  Sb  Sb30  1  0.224090  0.529447  0.455220  1
  Sb  Sb31  1  0.276788  0.027305  0.954656  1
  Sb  Sb32  1  0.776707  0.472738  0.954390  1
  Sb  Sb33  1  0.223225  0.527097  0.045127  1
  Sb  Sb34  1  0.278540  0.025764  0.546669  1
  Sb  Sb35  1  0.723278  0.972900  0.045129  1
