# generated using pymatgen
data_Dy5Y4HoSn8
_symmetry_space_group_name_H-M   'P 1'
_cell_length_a   8.04839000
_cell_length_b   8.19555700
_cell_length_c   15.49082900
_cell_angle_alpha   90.00000000
_cell_angle_beta   90.00000000
_cell_angle_gamma   90.00000000
_symmetry_Int_Tables_number   1
_chemical_formula_structural   Dy5Y4HoSn8
_chemical_formula_sum   'Dy10 Y8 Ho2 Sn16'
_cell_volume   1021.79117586
_cell_formula_units_Z   2
loop_
 _symmetry_equiv_pos_site_id
 _symmetry_equiv_pos_as_xyz
  1  'x, y, z'
loop_
 _atom_site_type_symbol
 _atom_site_label
 _atom_site_symmetry_multiplicity
 _atom_site_fract_x
 _atom_site_fract_y
 _atom_site_fract_z
 _atom_site_occupancy
  Dy  Dy0  1  0.367392  0.836221  0.878010  1
  Dy  Dy1  1  0.867392  0.663779  0.621990  1
  Dy  Dy2  1  0.632603  0.163755  0.378028  1
  Dy  Dy3  1  0.132603  0.336245  0.121972  1
  Dy  Dy4  1  0.632603  0.163755  0.121972  1
  Dy  Dy5  1  0.132603  0.336245  0.378028  1
  Dy  Dy6  1  0.367392  0.836221  0.621990  1
  Dy  Dy7  1  0.867392  0.663779  0.878010  1
  Dy  Dy8  1  0.198448  0.502687  0.750000  1
  Dy  Dy9  1  0.698448  0.997313  0.750000  1
  Y  Y10  1  0.520369  0.320078  0.902372  1
  Y  Y11  1  0.020369  0.179922  0.597628  1
  Y  Y12  1  0.479652  0.679891  0.402251  1
  Y  Y13  1  0.979652  0.820109  0.097749  1
  Y  Y14  1  0.479652  0.679891  0.097749  1
  Y  Y15  1  0.979652  0.820109  0.402251  1
  Y  Y16  1  0.520369  0.320078  0.597628  1
  Y  Y17  1  0.020369  0.179922  0.902372  1
  Ho  Ho18  1  0.801447  0.497387  0.250000  1
  Ho  Ho19  1  0.301447  0.002613  0.250000  1
  Sn  Sn20  1  0.293019  0.035684  0.042013  1
  Sn  Sn21  1  0.793019  0.464316  0.457987  1
  Sn  Sn22  1  0.706955  0.964265  0.541937  1
  Sn  Sn23  1  0.206955  0.535735  0.958063  1
  Sn  Sn24  1  0.706955  0.964265  0.958063  1
  Sn  Sn25  1  0.206955  0.535735  0.541937  1
  Sn  Sn26  1  0.293019  0.035684  0.457987  1
  Sn  Sn27  1  0.793019  0.464316  0.042013  1
  Sn  Sn28  1  0.565146  0.619542  0.750000  1
  Sn  Sn29  1  0.065146  0.880458  0.750000  1
  Sn  Sn30  1  0.435079  0.380597  0.250000  1
  Sn  Sn31  1  0.935079  0.119403  0.250000  1
  Sn  Sn32  1  0.328864  0.146516  0.750000  1
  Sn  Sn33  1  0.828864  0.353484  0.750000  1
  Sn  Sn34  1  0.671039  0.853202  0.250000  1
  Sn  Sn35  1  0.171039  0.646798  0.250000  1
