# generated using pymatgen
data_La10Pr6Mg4IrRu3
_symmetry_space_group_name_H-M   'P 1'
_cell_length_a   10.08031657
_cell_length_b   10.10155686
_cell_length_c   10.10155700
_cell_angle_alpha   60.00000281
_cell_angle_beta   59.93027583
_cell_angle_gamma   59.93027635
_symmetry_Int_Tables_number   1
_chemical_formula_structural   La10Pr6Mg4IrRu3
_chemical_formula_sum   'La10 Pr6 Mg4 Ir1 Ru3'
_cell_volume   726.56975662
_cell_formula_units_Z   1
loop_
 _symmetry_equiv_pos_site_id
 _symmetry_equiv_pos_as_xyz
  1  'x, y, z'
loop_
 _atom_site_type_symbol
 _atom_site_label
 _atom_site_symmetry_multiplicity
 _atom_site_fract_x
 _atom_site_fract_y
 _atom_site_fract_z
 _atom_site_occupancy
  La  La0  1  0.344105  0.345928  0.345928  1
  La  La1  1  0.344105  0.345928  0.964042  1
  La  La2  1  0.344105  0.964042  0.345928  1
  La  La3  1  0.965609  0.344798  0.344798  1
  La  La4  1  0.815858  0.187622  0.187622  1
  La  La5  1  0.187612  0.813241  0.813241  1
  La  La6  1  0.187612  0.813241  0.185905  1
  La  La7  1  0.815858  0.187622  0.808897  1
  La  La8  1  0.187612  0.185905  0.813241  1
  La  La9  1  0.815858  0.808897  0.187622  1
  Pr  Pr10  1  0.936544  0.563599  0.563599  1
  Pr  Pr11  1  0.562688  0.936875  0.936875  1
  Pr  Pr12  1  0.562688  0.936875  0.563561  1
  Pr  Pr13  1  0.936544  0.563599  0.936258  1
  Pr  Pr14  1  0.562688  0.563561  0.936875  1
  Pr  Pr15  1  0.936544  0.936258  0.563599  1
  Mg  Mg16  1  0.579104  0.579121  0.579121  1
  Mg  Mg17  1  0.579104  0.579121  0.262654  1
  Mg  Mg18  1  0.579104  0.262654  0.579121  1
  Mg  Mg19  1  0.262721  0.579093  0.579093  1
  Ir  Ir20  1  0.581768  0.139410  0.139410  1
  Ru  Ru21  1  0.137390  0.136773  0.136773  1
  Ru  Ru22  1  0.137390  0.136773  0.589064  1
  Ru  Ru23  1  0.137390  0.589064  0.136773  1
