# generated using pymatgen
data_DyEr3(Tm3Ru2)2
_symmetry_space_group_name_H-M   'P 1'
_cell_length_a   6.27046571
_cell_length_b   7.25315982
_cell_length_c   8.38289578
_cell_angle_alpha   96.85515990
_cell_angle_beta   112.04752902
_cell_angle_gamma   90.01293666
_symmetry_Int_Tables_number   1
_chemical_formula_structural   DyEr3(Tm3Ru2)2
_chemical_formula_sum   'Dy1 Er3 Tm6 Ru4'
_cell_volume   350.43281901
_cell_formula_units_Z   1
loop_
 _symmetry_equiv_pos_site_id
 _symmetry_equiv_pos_as_xyz
  1  'x, y, z'
loop_
 _atom_site_type_symbol
 _atom_site_label
 _atom_site_symmetry_multiplicity
 _atom_site_fract_x
 _atom_site_fract_y
 _atom_site_fract_z
 _atom_site_occupancy
  Dy  Dy0  1  0.790126  0.083715  0.812613  1
  Er  Er1  1  0.977919  0.416180  0.186980  1
  Er  Er2  1  0.209438  0.916150  0.187337  1
  Er  Er3  1  0.022870  0.583724  0.813475  1
  Tm  Tm4  1  0.205148  0.184333  0.565162  1
  Tm  Tm5  1  0.640239  0.315772  0.434602  1
  Tm  Tm6  1  0.794217  0.815334  0.434206  1
  Tm  Tm7  1  0.359440  0.684449  0.565052  1
  Tm  Tm8  1  0.419626  0.249902  0.000131  1
  Tm  Tm9  1  0.580380  0.750036  0.000318  1
  Ru  Ru10  1  0.601378  0.424636  0.779018  1
  Ru  Ru11  1  0.822940  0.076819  0.221062  1
  Ru  Ru12  1  0.397952  0.575982  0.220758  1
  Ru  Ru13  1  0.178326  0.922968  0.779286  1
