# generated using pymatgen
data_ThTiNb5Sn6
_symmetry_space_group_name_H-M   'P 1'
_cell_length_a   5.82504800
_cell_length_b   5.83372415
_cell_length_c   9.61078600
_cell_angle_alpha   90.00000000
_cell_angle_beta   90.00000000
_cell_angle_gamma   119.95080331
_symmetry_Int_Tables_number   1
_chemical_formula_structural   ThTiNb5Sn6
_chemical_formula_sum   'Th1 Ti1 Nb5 Sn6'
_cell_volume   282.97627152
_cell_formula_units_Z   1
loop_
 _symmetry_equiv_pos_site_id
 _symmetry_equiv_pos_as_xyz
  1  'x, y, z'
loop_
 _atom_site_type_symbol
 _atom_site_label
 _atom_site_symmetry_multiplicity
 _atom_site_fract_x
 _atom_site_fract_y
 _atom_site_fract_z
 _atom_site_occupancy
  Th  Th0  1  0.000000  0.000000  0.000596  1
  Ti  Ti1  1  0.500000  0.000000  0.750975  1
  Nb  Nb2  1  0.000000  0.500000  0.750344  1
  Nb  Nb3  1  0.500000  0.500000  0.750344  1
  Nb  Nb4  1  0.000000  0.500000  0.248710  1
  Nb  Nb5  1  0.500000  0.500000  0.248710  1
  Nb  Nb6  1  0.500000  0.000000  0.250414  1
  Sn  Sn7  1  0.665649  0.331296  0.500643  1
  Sn  Sn8  1  0.334351  0.668704  0.500643  1
  Sn  Sn9  1  0.665540  0.331080  0.998625  1
  Sn  Sn10  1  0.334460  0.668920  0.998625  1
  Sn  Sn11  1  0.000000  0.000000  0.660901  1
  Sn  Sn12  1  0.000000  0.000000  0.340472  1
