# generated using pymatgen
data_Ce8Be3Si13
_symmetry_space_group_name_H-M   'P 1'
_cell_length_a   7.95222100
_cell_length_b   7.95222127
_cell_length_c   8.46055400
_cell_angle_alpha   90.00000000
_cell_angle_beta   90.00000000
_cell_angle_gamma   119.99999473
_symmetry_Int_Tables_number   1
_chemical_formula_structural   Ce8Be3Si13
_chemical_formula_sum   'Ce8 Be3 Si13'
_cell_volume   463.34699752
_cell_formula_units_Z   1
loop_
 _symmetry_equiv_pos_site_id
 _symmetry_equiv_pos_as_xyz
  1  'x, y, z'
loop_
 _atom_site_type_symbol
 _atom_site_label
 _atom_site_symmetry_multiplicity
 _atom_site_fract_x
 _atom_site_fract_y
 _atom_site_fract_z
 _atom_site_occupancy
  Ce  Ce0  1  0.000000  0.000000  0.250031  1
  Ce  Ce1  1  0.000000  0.000000  0.749905  1
  Ce  Ce2  1  0.499248  0.500752  0.247643  1
  Ce  Ce3  1  0.499248  0.998495  0.247643  1
  Ce  Ce4  1  0.001505  0.500752  0.247643  1
  Ce  Ce5  1  0.499245  0.500755  0.752433  1
  Ce  Ce6  1  0.499245  0.998491  0.752433  1
  Ce  Ce7  1  0.001509  0.500755  0.752433  1
  Be  Be8  1  0.333333  0.666667  0.499096  1
  Be  Be9  1  0.666667  0.333333  0.500214  1
  Be  Be10  1  0.666667  0.333333  0.000088  1
  Si  Si11  1  0.172831  0.827169  0.499955  1
  Si  Si12  1  0.172831  0.345662  0.499955  1
  Si  Si13  1  0.654338  0.827169  0.499955  1
  Si  Si14  1  0.826852  0.173148  0.500104  1
  Si  Si15  1  0.826852  0.653702  0.500104  1
  Si  Si16  1  0.346298  0.173148  0.500104  1
  Si  Si17  1  0.824878  0.175122  0.000096  1
  Si  Si18  1  0.824878  0.649755  0.000096  1
  Si  Si19  1  0.350245  0.175122  0.000096  1
  Si  Si20  1  0.164266  0.835734  0.999853  1
  Si  Si21  1  0.164266  0.328533  0.999853  1
  Si  Si22  1  0.671467  0.835734  0.999853  1
  Si  Si23  1  0.333333  0.666667  0.000417  1
