# generated using pymatgen
data_LiCa2SmCd2Pb3
_symmetry_space_group_name_H-M   'P 1'
_cell_length_a   7.66437012
_cell_length_b   7.71060065
_cell_length_c   4.78029800
_cell_angle_alpha   90.00000000
_cell_angle_beta   90.00000000
_cell_angle_gamma   119.54967395
_symmetry_Int_Tables_number   1
_chemical_formula_structural   LiCa2SmCd2Pb3
_chemical_formula_sum   'Li1 Ca2 Sm1 Cd2 Pb3'
_cell_volume   245.75546524
_cell_formula_units_Z   1
loop_
 _symmetry_equiv_pos_site_id
 _symmetry_equiv_pos_as_xyz
  1  'x, y, z'
loop_
 _atom_site_type_symbol
 _atom_site_label
 _atom_site_symmetry_multiplicity
 _atom_site_fract_x
 _atom_site_fract_y
 _atom_site_fract_z
 _atom_site_occupancy
  Li  Li0  1  0.235119  0.999254  0.000000  1
  Ca  Ca1  1  0.573133  0.999507  0.500000  1
  Ca  Ca2  1  0.433059  0.439536  0.500000  1
  Sm  Sm3  1  0.994280  0.563410  0.500000  1
  Cd  Cd4  1  0.757284  0.755008  0.000000  1
  Cd  Cd5  1  0.002573  0.243539  0.000000  1
  Pb  Pb6  1  0.024219  0.998288  0.500000  1
  Pb  Pb7  1  0.653959  0.322490  0.000000  1
  Pb  Pb8  1  0.326374  0.678968  0.000000  1
