# generated using pymatgen
data_SrLa3(Pt2O7)2
_symmetry_space_group_name_H-M   'P 1'
_cell_length_a   7.53736066
_cell_length_b   7.49475159
_cell_length_c   7.53736100
_cell_angle_alpha   59.81175953
_cell_angle_beta   60.00000290
_cell_angle_gamma   59.81176366
_symmetry_Int_Tables_number   1
_chemical_formula_structural   SrLa3(Pt2O7)2
_chemical_formula_sum   'Sr1 La3 Pt4 O14'
_cell_volume   300.21979587
_cell_formula_units_Z   1
loop_
 _symmetry_equiv_pos_site_id
 _symmetry_equiv_pos_as_xyz
  1  'x, y, z'
loop_
 _atom_site_type_symbol
 _atom_site_label
 _atom_site_symmetry_multiplicity
 _atom_site_fract_x
 _atom_site_fract_y
 _atom_site_fract_z
 _atom_site_occupancy
  Sr  Sr0  1  0.125000  0.625000  0.125000  1
  La  La1  1  0.625000  0.125000  0.125000  1
  La  La2  1  0.125000  0.125000  0.125000  1
  La  La3  1  0.125000  0.125000  0.625000  1
  Pt  Pt4  1  0.625000  0.625000  0.125000  1
  Pt  Pt5  1  0.625000  0.625000  0.625000  1
  Pt  Pt6  1  0.625000  0.125000  0.625000  1
  Pt  Pt7  1  0.125000  0.625000  0.625000  1
  O  O8  1  0.705921  0.293102  0.295056  1
  O  O9  1  0.699176  0.706665  0.297079  1
  O  O10  1  0.297079  0.706665  0.297079  1
  O  O11  1  0.995830  0.012511  0.995830  1
  O  O12  1  0.705921  0.293102  0.705921  1
  O  O13  1  0.952921  0.543335  0.550824  1
  O  O14  1  0.297079  0.706665  0.699176  1
  O  O15  1  0.544079  0.956898  0.544079  1
  O  O16  1  0.254170  0.237489  0.254170  1
  O  O17  1  0.952921  0.543335  0.952921  1
  O  O18  1  0.550824  0.543335  0.952921  1
  O  O19  1  0.954944  0.956898  0.544079  1
  O  O20  1  0.544079  0.956898  0.954944  1
  O  O21  1  0.295056  0.293102  0.705921  1
