# generated using pymatgen
data_SrGa3IrRu
_symmetry_space_group_name_H-M   'P 1'
_cell_length_a   6.42450097
_cell_length_b   6.43022986
_cell_length_c   5.77875552
_cell_angle_alpha   89.92018829
_cell_angle_beta   90.07479746
_cell_angle_gamma   75.88813362
_symmetry_Int_Tables_number   1
_chemical_formula_structural   SrGa3IrRu
_chemical_formula_sum   'Sr2 Ga6 Ir2 Ru2'
_cell_volume   231.52132414
_cell_formula_units_Z   2
loop_
 _symmetry_equiv_pos_site_id
 _symmetry_equiv_pos_as_xyz
  1  'x, y, z'
loop_
 _atom_site_type_symbol
 _atom_site_label
 _atom_site_symmetry_multiplicity
 _atom_site_fract_x
 _atom_site_fract_y
 _atom_site_fract_z
 _atom_site_occupancy
  Sr  Sr0  1  0.155205  0.844683  0.249625  1
  Sr  Sr1  1  0.845377  0.154865  0.750767  1
  Ga  Ga2  1  0.583051  0.029308  0.251646  1
  Ga  Ga3  1  0.970672  0.417122  0.250718  1
  Ga  Ga4  1  0.551927  0.448287  0.251569  1
  Ga  Ga5  1  0.447815  0.552090  0.748377  1
  Ga  Ga6  1  0.029174  0.583133  0.749160  1
  Ga  Ga7  1  0.416874  0.970663  0.748637  1
  Ir  Ir8  1  0.297750  0.297058  0.999746  1
  Ir  Ir9  1  0.702113  0.702996  0.000106  1
  Ru  Ru10  1  0.298074  0.297896  0.499940  1
  Ru  Ru11  1  0.701966  0.701895  0.499699  1
