# generated using pymatgen
data_Tb3HoHf4F28
_symmetry_space_group_name_H-M   'P 1'
_cell_length_a   5.68222907
_cell_length_b   9.06912235
_cell_length_c   12.21852820
_cell_angle_alpha   62.30458695
_cell_angle_beta   90.01206064
_cell_angle_gamma   89.99276058
_symmetry_Int_Tables_number   1
_chemical_formula_structural   Tb3HoHf4F28
_chemical_formula_sum   'Tb3 Ho1 Hf4 F28'
_cell_volume   557.51622843
_cell_formula_units_Z   1
loop_
 _symmetry_equiv_pos_site_id
 _symmetry_equiv_pos_as_xyz
  1  'x, y, z'
loop_
 _atom_site_type_symbol
 _atom_site_label
 _atom_site_symmetry_multiplicity
 _atom_site_fract_x
 _atom_site_fract_y
 _atom_site_fract_z
 _atom_site_occupancy
  Tb  Tb0  1  0.743273  0.184977  0.735179  1
  Tb  Tb1  1  0.756386  0.184381  0.235223  1
  Tb  Tb2  1  0.243337  0.814538  0.764767  1
  Ho  Ho3  1  0.256721  0.815051  0.264638  1
  Hf  Hf4  1  0.756803  0.725804  0.044455  1
  Hf  Hf5  1  0.243849  0.273446  0.957122  1
  Hf  Hf6  1  0.256289  0.275445  0.456130  1
  Hf  Hf7  1  0.743710  0.725678  0.542347  1
  F  F8  1  0.955712  0.710349  0.417007  1
  F  F9  1  0.046131  0.290500  0.582169  1
  F  F10  1  0.453780  0.289904  0.082625  1
  F  F11  1  0.545933  0.710326  0.918680  1
  F  F12  1  0.479446  0.732638  0.144195  1
  F  F13  1  0.522871  0.267954  0.858168  1
  F  F14  1  0.978340  0.267871  0.357319  1
  F  F15  1  0.021814  0.731812  0.641754  1
  F  F16  1  0.961538  0.746189  0.172491  1
  F  F17  1  0.042047  0.253954  0.828101  1
  F  F18  1  0.458321  0.255073  0.327589  1
  F  F19  1  0.540932  0.745476  0.671123  1
  F  F20  1  0.774229  0.476881  0.140087  1
  F  F21  1  0.225620  0.522607  0.860858  1
  F  F22  1  0.273458  0.524682  0.359760  1
  F  F23  1  0.724591  0.476823  0.639116  1
  F  F24  1  0.948104  0.276913  0.048002  1
  F  F25  1  0.051224  0.722852  0.952427  1
  F  F26  1  0.448472  0.723507  0.450211  1
  F  F27  1  0.552012  0.277617  0.547467  1
  F  F28  1  0.738575  0.974399  0.442488  1
  F  F29  1  0.261125  0.026702  0.557116  1
  F  F30  1  0.239068  0.024769  0.058369  1
  F  F31  1  0.761351  0.974386  0.943082  1
  F  F32  1  0.576814  0.969741  0.232490  1
  F  F33  1  0.419015  0.029791  0.767888  1
  F  F34  1  0.080087  0.027036  0.267556  1
  F  F35  1  0.919018  0.969931  0.731999  1
