# generated using pymatgen
data_Ho4Hg2Pd3Pt
_symmetry_space_group_name_H-M   'P 1'
_cell_length_a   7.71246987
_cell_length_b   7.71247019
_cell_length_c   3.70391400
_cell_angle_alpha   90.00000000
_cell_angle_beta   90.00000000
_cell_angle_gamma   89.98776446
_symmetry_Int_Tables_number   1
_chemical_formula_structural   Ho4Hg2Pd3Pt
_chemical_formula_sum   'Ho4 Hg2 Pd3 Pt1'
_cell_volume   220.31692608
_cell_formula_units_Z   1
loop_
 _symmetry_equiv_pos_site_id
 _symmetry_equiv_pos_as_xyz
  1  'x, y, z'
loop_
 _atom_site_type_symbol
 _atom_site_label
 _atom_site_symmetry_multiplicity
 _atom_site_fract_x
 _atom_site_fract_y
 _atom_site_fract_z
 _atom_site_occupancy
  Ho  Ho0  1  0.670133  0.170133  0.500000  1
  Ho  Ho1  1  0.323453  0.823453  0.500000  1
  Ho  Ho2  1  0.174542  0.333450  0.500000  1
  Ho  Ho3  1  0.833450  0.674542  0.500000  1
  Hg  Hg4  1  0.999786  0.005096  0.000000  1
  Hg  Hg5  1  0.505096  0.499786  0.000000  1
  Pd  Pd6  1  0.868232  0.368232  0.000000  1
  Pd  Pd7  1  0.628137  0.871562  0.000000  1
  Pd  Pd8  1  0.371562  0.128137  0.000000  1
  Pt  Pt9  1  0.125608  0.625608  0.000000  1
