# generated using pymatgen
data_Sr4PrYPa2O12
_symmetry_space_group_name_H-M   'P 1'
_cell_length_a   6.21501491
_cell_length_b   6.05712480
_cell_length_c   10.58359634
_cell_angle_alpha   55.10328280
_cell_angle_beta   89.62053400
_cell_angle_gamma   89.90120878
_symmetry_Int_Tables_number   1
_chemical_formula_structural   Sr4PrYPa2O12
_chemical_formula_sum   'Sr4 Pr1 Y1 Pa2 O12'
_cell_volume   326.77039527
_cell_formula_units_Z   1
loop_
 _symmetry_equiv_pos_site_id
 _symmetry_equiv_pos_as_xyz
  1  'x, y, z'
loop_
 _atom_site_type_symbol
 _atom_site_label
 _atom_site_symmetry_multiplicity
 _atom_site_fract_x
 _atom_site_fract_y
 _atom_site_fract_z
 _atom_site_occupancy
  Sr  Sr0  1  0.452672  0.255428  0.756676  1
  Sr  Sr1  1  0.957148  0.733334  0.755237  1
  Sr  Sr2  1  0.042852  0.266666  0.244763  1
  Sr  Sr3  1  0.547328  0.744572  0.243324  1
  Pr  Pr4  1  0.500000  0.000000  0.500000  1
  Y  Y5  1  0.000000  0.000000  0.000000  1
  Pa  Pa6  1  0.000000  0.500000  0.500000  1
  Pa  Pa7  1  0.500000  0.500000  0.000000  1
  O  O8  1  0.184539  0.734482  0.558268  1
  O  O9  1  0.698764  0.260970  0.948254  1
  O  O10  1  0.815461  0.265518  0.441732  1
  O  O11  1  0.301236  0.739030  0.051746  1
  O  O12  1  0.708359  0.618200  0.563440  1
  O  O13  1  0.211059  0.359815  0.942308  1
  O  O14  1  0.291641  0.381800  0.436560  1
  O  O15  1  0.788941  0.640185  0.057692  1
  O  O16  1  0.044904  0.148864  0.744737  1
  O  O17  1  0.546356  0.846175  0.762978  1
  O  O18  1  0.955096  0.851136  0.255263  1
  O  O19  1  0.453644  0.153825  0.237022  1
