# generated using pymatgen
data_Er3Tm(Bi2O7)2
_symmetry_space_group_name_H-M   'P 1'
_cell_length_a   6.60158367
_cell_length_b   6.68182086
_cell_length_c   7.76346800
_cell_angle_alpha   106.82207453
_cell_angle_beta   89.62463508
_cell_angle_gamma   98.61026685
_symmetry_Int_Tables_number   1
_chemical_formula_structural   Er3Tm(Bi2O7)2
_chemical_formula_sum   'Er3 Tm1 Bi4 O14'
_cell_volume   323.85788905
_cell_formula_units_Z   1
loop_
 _symmetry_equiv_pos_site_id
 _symmetry_equiv_pos_as_xyz
  1  'x, y, z'
loop_
 _atom_site_type_symbol
 _atom_site_label
 _atom_site_symmetry_multiplicity
 _atom_site_fract_x
 _atom_site_fract_y
 _atom_site_fract_z
 _atom_site_occupancy
  Er  Er0  1  0.463429  0.005016  0.249788  1
  Er  Er1  1  0.537339  0.994761  0.750678  1
  Er  Er2  1  0.262116  0.535582  0.887786  1
  Tm  Tm3  1  0.737096  0.463713  0.112821  1
  Bi  Bi4  1  0.999796  0.999762  0.499458  1
  Bi  Bi5  1  0.999766  0.999775  0.000228  1
  Bi  Bi6  1  0.725343  0.466223  0.617867  1
  Bi  Bi7  1  0.274180  0.532746  0.381686  1
  O  O8  1  0.452567  0.653557  0.161660  1
  O  O9  1  0.550537  0.346854  0.839705  1
  O  O10  1  0.302448  0.920098  0.948918  1
  O  O11  1  0.698223  0.080932  0.052419  1
  O  O12  1  0.302747  0.921685  0.512559  1
  O  O13  1  0.696450  0.078560  0.488232  1
  O  O14  1  0.545195  0.360524  0.336384  1
  O  O15  1  0.454574  0.639210  0.662529  1
  O  O16  1  0.931758  0.667516  0.963786  1
  O  O17  1  0.066187  0.332421  0.036900  1
  O  O18  1  0.091589  0.326637  0.632740  1
  O  O19  1  0.907781  0.673969  0.364016  1
  O  O20  1  0.870979  0.917821  0.729992  1
  O  O21  1  0.129899  0.082638  0.269846  1
