# generated using pymatgen
data_Tb3Sc2CdPt3
_symmetry_space_group_name_H-M   'P 1'
_cell_length_a   7.33936400
_cell_length_b   7.24662715
_cell_length_c   4.39417800
_cell_angle_alpha   90.00000000
_cell_angle_beta   90.00000000
_cell_angle_gamma   120.42424008
_symmetry_Int_Tables_number   1
_chemical_formula_structural   Tb3Sc2CdPt3
_chemical_formula_sum   'Tb3 Sc2 Cd1 Pt3'
_cell_volume   201.52555506
_cell_formula_units_Z   1
loop_
 _symmetry_equiv_pos_site_id
 _symmetry_equiv_pos_as_xyz
  1  'x, y, z'
loop_
 _atom_site_type_symbol
 _atom_site_label
 _atom_site_symmetry_multiplicity
 _atom_site_fract_x
 _atom_site_fract_y
 _atom_site_fract_z
 _atom_site_occupancy
  Tb  Tb0  1  0.423630  0.000000  0.000000  1
  Tb  Tb1  1  0.991751  0.397961  0.000000  1
  Tb  Tb2  1  0.593790  0.602039  0.000000  1
  Sc  Sc3  1  0.246004  0.252284  0.500000  1
  Sc  Sc4  1  0.993720  0.747716  0.500000  1
  Cd  Cd5  1  0.754738  0.000000  0.500000  1
  Pt  Pt6  1  0.030576  0.000000  0.000000  1
  Pt  Pt7  1  0.653629  0.341467  0.500000  1
  Pt  Pt8  1  0.312163  0.658533  0.500000  1
