# generated using pymatgen
data_Sm4Y3Sn23Rh6
_symmetry_space_group_name_H-M   'P 1'
_cell_length_a   9.90930400
_cell_length_b   9.90930537
_cell_length_c   10.15593600
_cell_angle_alpha   90.00000000
_cell_angle_beta   90.00000000
_cell_angle_gamma   120.00000211
_symmetry_Int_Tables_number   1
_chemical_formula_structural   Sm4Y3Sn23Rh6
_chemical_formula_sum   'Sm4 Y3 Sn23 Rh6'
_cell_volume   863.64833844
_cell_formula_units_Z   1
loop_
 _symmetry_equiv_pos_site_id
 _symmetry_equiv_pos_as_xyz
  1  'x, y, z'
loop_
 _atom_site_type_symbol
 _atom_site_label
 _atom_site_symmetry_multiplicity
 _atom_site_fract_x
 _atom_site_fract_y
 _atom_site_fract_z
 _atom_site_occupancy
  Sm  Sm0  1  0.000000  0.000000  0.999889  1
  Sm  Sm1  1  0.044476  0.522239  0.307747  1
  Sm  Sm2  1  0.477761  0.955524  0.307747  1
  Sm  Sm3  1  0.477761  0.522239  0.307747  1
  Y  Y4  1  0.956077  0.478038  0.692516  1
  Y  Y5  1  0.521962  0.043923  0.692516  1
  Y  Y6  1  0.521962  0.478038  0.692516  1
  Sn  Sn7  1  0.000000  0.000000  0.500087  1
  Sn  Sn8  1  0.118427  0.881573  0.279943  1
  Sn  Sn9  1  0.763145  0.881573  0.279943  1
  Sn  Sn10  1  0.118427  0.236855  0.279943  1
  Sn  Sn11  1  0.880891  0.119109  0.720025  1
  Sn  Sn12  1  0.238219  0.119109  0.720025  1
  Sn  Sn13  1  0.880891  0.761781  0.720025  1
  Sn  Sn14  1  0.351312  0.999958  0.999627  1
  Sn  Sn15  1  0.648647  0.648688  0.999627  1
  Sn  Sn16  1  0.000042  0.351353  0.999627  1
  Sn  Sn17  1  0.351312  0.351353  0.999627  1
  Sn  Sn18  1  0.000042  0.648688  0.999627  1
  Sn  Sn19  1  0.648647  0.999958  0.999627  1
  Sn  Sn20  1  0.778945  0.557889  0.455498  1
  Sn  Sn21  1  0.778945  0.221055  0.455498  1
  Sn  Sn22  1  0.442111  0.221055  0.455498  1
  Sn  Sn23  1  0.221129  0.442259  0.546676  1
  Sn  Sn24  1  0.221129  0.778871  0.546676  1
  Sn  Sn25  1  0.557741  0.778871  0.546676  1
  Sn  Sn26  1  0.666667  0.333333  0.180410  1
  Sn  Sn27  1  0.333333  0.666667  0.818815  1
  Sn  Sn28  1  0.666667  0.333333  0.882364  1
  Sn  Sn29  1  0.333333  0.666667  0.115490  1
  Rh  Rh30  1  0.168445  0.831555  0.801960  1
  Rh  Rh31  1  0.663110  0.831555  0.801960  1
  Rh  Rh32  1  0.168445  0.336890  0.801960  1
  Rh  Rh33  1  0.831729  0.168271  0.197364  1
  Rh  Rh34  1  0.336541  0.168271  0.197364  1
  Rh  Rh35  1  0.831729  0.663459  0.197364  1
