# generated using pymatgen
data_Tm2Mn5(PIr)7
_symmetry_space_group_name_H-M   'P 1'
_cell_length_a   9.35688384
_cell_length_b   9.40158719
_cell_length_c   3.85116800
_cell_angle_alpha   90.00000000
_cell_angle_beta   90.00000000
_cell_angle_gamma   119.91539740
_symmetry_Int_Tables_number   1
_chemical_formula_structural   Tm2Mn5(PIr)7
_chemical_formula_sum   'Tm2 Mn5 P7 Ir7'
_cell_volume   293.64669851
_cell_formula_units_Z   1
loop_
 _symmetry_equiv_pos_site_id
 _symmetry_equiv_pos_as_xyz
  1  'x, y, z'
loop_
 _atom_site_type_symbol
 _atom_site_label
 _atom_site_symmetry_multiplicity
 _atom_site_fract_x
 _atom_site_fract_y
 _atom_site_fract_z
 _atom_site_occupancy
  Tm  Tm0  1  0.001147  0.999764  0.000000  1
  Tm  Tm1  1  0.666966  0.332331  0.500000  1
  Mn  Mn2  1  0.225984  0.400216  0.000000  1
  Mn  Mn3  1  0.604450  0.825922  0.000000  1
  Mn  Mn4  1  0.171549  0.774636  0.000000  1
  Mn  Mn5  1  0.430981  0.888463  0.500000  1
  Mn  Mn6  1  0.111186  0.543672  0.500000  1
  P  P7  1  0.442340  0.362027  0.000000  1
  P  P8  1  0.631957  0.074584  0.000000  1
  P  P9  1  0.921107  0.553899  0.000000  1
  P  P10  1  0.054797  0.268403  0.500000  1
  P  P11  1  0.733551  0.791797  0.500000  1
  P  P12  1  0.214845  0.941446  0.500000  1
  P  P13  1  0.336095  0.671194  0.000000  1
  Ir  Ir14  1  0.693200  0.596885  0.000000  1
  Ir  Ir15  1  0.398732  0.093429  0.000000  1
  Ir  Ir16  1  0.905277  0.304152  0.000000  1
  Ir  Ir17  1  0.275295  0.220805  0.500000  1
  Ir  Ir18  1  0.777814  0.055155  0.500000  1
  Ir  Ir19  1  0.942833  0.722947  0.500000  1
  Ir  Ir20  1  0.459890  0.578272  0.500000  1
