# generated using pymatgen
data_MnCr4AgSe8
_symmetry_space_group_name_H-M   'P 1'
_cell_length_a   7.55523300
_cell_length_b   7.55523285
_cell_length_c   7.55523400
_cell_angle_alpha   60.00000372
_cell_angle_beta   60.00000439
_cell_angle_gamma   60.00000226
_symmetry_Int_Tables_number   1
_chemical_formula_structural   MnCr4AgSe8
_chemical_formula_sum   'Mn1 Cr4 Ag1 Se8'
_cell_volume   304.95002414
_cell_formula_units_Z   1
loop_
 _symmetry_equiv_pos_site_id
 _symmetry_equiv_pos_as_xyz
  1  'x, y, z'
loop_
 _atom_site_type_symbol
 _atom_site_label
 _atom_site_symmetry_multiplicity
 _atom_site_fract_x
 _atom_site_fract_y
 _atom_site_fract_z
 _atom_site_occupancy
  Mn  Mn0  1  0.500000  0.500000  0.500000  1
  Cr  Cr1  1  0.629577  0.123474  0.123474  1
  Cr  Cr2  1  0.123474  0.629577  0.123474  1
  Cr  Cr3  1  0.123474  0.123474  0.629577  1
  Cr  Cr4  1  0.123474  0.123474  0.123474  1
  Ag  Ag5  1  0.750000  0.750000  0.750000  1
  Se  Se6  1  0.332497  0.889168  0.889168  1
  Se  Se7  1  0.889168  0.332497  0.889168  1
  Se  Se8  1  0.889168  0.889168  0.332497  1
  Se  Se9  1  0.889168  0.889168  0.889168  1
  Se  Se10  1  0.905148  0.364950  0.364950  1
  Se  Se11  1  0.364950  0.905148  0.364950  1
  Se  Se12  1  0.364950  0.364950  0.905148  1
  Se  Se13  1  0.364950  0.364950  0.364950  1
