# generated using pymatgen
data_TbCe2Pr(Pt2Pb)2
_symmetry_space_group_name_H-M   'P 1'
_cell_length_a   8.03810842
_cell_length_b   8.03810804
_cell_length_c   7.38880600
_cell_angle_alpha   90.00000000
_cell_angle_beta   90.00000000
_cell_angle_gamma   90.51123017
_symmetry_Int_Tables_number   1
_chemical_formula_structural   TbCe2Pr(Pt2Pb)2
_chemical_formula_sum   'Tb2 Ce4 Pr2 Pt8 Pb4'
_cell_volume   477.38049968
_cell_formula_units_Z   2
loop_
 _symmetry_equiv_pos_site_id
 _symmetry_equiv_pos_as_xyz
  1  'x, y, z'
loop_
 _atom_site_type_symbol
 _atom_site_label
 _atom_site_symmetry_multiplicity
 _atom_site_fract_x
 _atom_site_fract_y
 _atom_site_fract_z
 _atom_site_occupancy
  Tb  Tb0  1  0.338083  0.338083  0.500000  1
  Tb  Tb1  1  0.661917  0.661917  0.500000  1
  Ce  Ce2  1  0.675471  0.675471  0.000000  1
  Ce  Ce3  1  0.823987  0.176013  0.500000  1
  Ce  Ce4  1  0.324529  0.324529  0.000000  1
  Ce  Ce5  1  0.176013  0.823987  0.500000  1
  Pr  Pr6  1  0.835338  0.164662  0.000000  1
  Pr  Pr7  1  0.164662  0.835338  0.000000  1
  Pt  Pt8  1  0.870234  0.870234  0.729227  1
  Pt  Pt9  1  0.129766  0.129766  0.729227  1
  Pt  Pt10  1  0.625643  0.374357  0.756674  1
  Pt  Pt11  1  0.625643  0.374357  0.243326  1
  Pt  Pt12  1  0.374357  0.625643  0.243326  1
  Pt  Pt13  1  0.129766  0.129766  0.270773  1
  Pt  Pt14  1  0.870234  0.870234  0.270773  1
  Pt  Pt15  1  0.374357  0.625643  0.756674  1
  Pb  Pb16  1  0.500000  0.000000  0.747479  1
  Pb  Pb17  1  0.500000  0.000000  0.252521  1
  Pb  Pb18  1  0.000000  0.500000  0.747479  1
  Pb  Pb19  1  0.000000  0.500000  0.252521  1
