# generated using pymatgen
data_Li2Sc(Ru2W)3
_symmetry_space_group_name_H-M   'P 1'
_cell_length_a   4.33084600
_cell_length_b   6.17687000
_cell_length_c   13.02492800
_cell_angle_alpha   90.00020321
_cell_angle_beta   89.99862579
_cell_angle_gamma   89.99989143
_symmetry_Int_Tables_number   1
_chemical_formula_structural   Li2Sc(Ru2W)3
_chemical_formula_sum   'Li4 Sc2 Ru12 W6'
_cell_volume   348.43079621
_cell_formula_units_Z   2
loop_
 _symmetry_equiv_pos_site_id
 _symmetry_equiv_pos_as_xyz
  1  'x, y, z'
loop_
 _atom_site_type_symbol
 _atom_site_label
 _atom_site_symmetry_multiplicity
 _atom_site_fract_x
 _atom_site_fract_y
 _atom_site_fract_z
 _atom_site_occupancy
  Li  Li0  1  0.999798  0.499996  0.335951  1
  Li  Li1  1  0.499972  0.000010  0.501401  1
  Li  Li2  1  0.000228  0.499996  0.665289  1
  Li  Li3  1  0.500183  0.000004  0.830684  1
  Sc  Sc4  1  0.000001  0.499996  0.996917  1
  Sc  Sc5  1  0.499822  0.000001  0.169741  1
  Ru  Ru6  1  0.499990  0.246958  0.997464  1
  Ru  Ru7  1  0.499994  0.753043  0.997463  1
  Ru  Ru8  1  0.999866  0.253026  0.169181  1
  Ru  Ru9  1  0.999863  0.746973  0.169180  1
  Ru  Ru10  1  0.499856  0.252653  0.337784  1
  Ru  Ru11  1  0.499857  0.747348  0.337785  1
  Ru  Ru12  1  0.999996  0.250634  0.501620  1
  Ru  Ru13  1  0.999997  0.749363  0.501621  1
  Ru  Ru14  1  0.500162  0.249362  0.665051  1
  Ru  Ru15  1  0.500161  0.750636  0.665052  1
  Ru  Ru16  1  0.000144  0.247303  0.828880  1
  Ru  Ru17  1  0.000148  0.752694  0.828879  1
  W  W18  1  0.999965  0.999999  0.990471  1
  W  W19  1  0.499896  0.499998  0.176222  1
  W  W20  1  0.999845  0.000000  0.345632  1
  W  W21  1  0.500005  0.500001  0.502950  1
  W  W22  1  0.000154  0.999998  0.663731  1
  W  W23  1  0.500104  0.499999  0.821050  1
