# generated using pymatgen
data_Nd19HoSi15Sn
_symmetry_space_group_name_H-M   'P 1'
_cell_length_a   7.90484252
_cell_length_b   7.90681146
_cell_length_c   15.26469400
_cell_angle_alpha   90.11241320
_cell_angle_beta   89.74300016
_cell_angle_gamma   90.10537288
_symmetry_Int_Tables_number   1
_chemical_formula_structural   Nd19HoSi15Sn
_chemical_formula_sum   'Nd19 Ho1 Si15 Sn1'
_cell_volume   954.06239034
_cell_formula_units_Z   1
loop_
 _symmetry_equiv_pos_site_id
 _symmetry_equiv_pos_as_xyz
  1  'x, y, z'
loop_
 _atom_site_type_symbol
 _atom_site_label
 _atom_site_symmetry_multiplicity
 _atom_site_fract_x
 _atom_site_fract_y
 _atom_site_fract_z
 _atom_site_occupancy
  Nd  Nd0  1  0.191113  0.809060  0.249147  1
  Nd  Nd1  1  0.799669  0.189684  0.752593  1
  Nd  Nd2  1  0.689260  0.691837  0.497062  1
  Nd  Nd3  1  0.376209  0.011259  0.448101  1
  Nd  Nd4  1  0.494735  0.870759  0.698003  1
  Nd  Nd5  1  0.509865  0.122332  0.196407  1
  Nd  Nd6  1  0.877321  0.488559  0.301118  1
  Nd  Nd7  1  0.120431  0.517854  0.806461  1
  Nd  Nd8  1  0.624438  0.987611  0.949529  1
  Nd  Nd9  1  0.003635  0.383762  0.547831  1
  Nd  Nd10  1  0.989089  0.622035  0.053334  1
  Nd  Nd11  1  0.127155  0.980078  0.880656  1
  Nd  Nd12  1  0.519422  0.628948  0.126241  1
  Nd  Nd13  1  0.490569  0.381244  0.625940  1
  Nd  Nd14  1  0.630523  0.521158  0.876576  1
  Nd  Nd15  1  0.372643  0.480631  0.371985  1
  Nd  Nd16  1  0.872686  0.019144  0.376324  1
  Nd  Nd17  1  0.981269  0.127146  0.123263  1
  Nd  Nd18  1  0.008642  0.859585  0.620648  1
  Ho  Ho19  1  0.310764  0.310884  0.000670  1
  Si  Si20  1  0.330358  0.691205  0.954312  1
  Si  Si21  1  0.665774  0.304170  0.450763  1
  Si  Si22  1  0.692910  0.330551  0.048074  1
  Si  Si23  1  0.305566  0.668729  0.546943  1
  Si  Si24  1  0.805774  0.831503  0.202409  1
  Si  Si25  1  0.168128  0.194728  0.296821  1
  Si  Si26  1  0.834132  0.805818  0.798613  1
  Si  Si27  1  0.289366  0.926013  0.060207  1
  Si  Si28  1  0.576809  0.788433  0.309286  1
  Si  Si29  1  0.429340  0.213337  0.818965  1
  Si  Si30  1  0.788280  0.576320  0.691439  1
  Si  Si31  1  0.214035  0.419584  0.186762  1
  Si  Si32  1  0.709855  0.078251  0.560101  1
  Si  Si33  1  0.927481  0.289631  0.941210  1
  Si  Si34  1  0.079240  0.713126  0.438135  1
  Sn  Sn35  1  0.193509  0.165032  0.694070  1
