# generated using pymatgen
data_Na2Si4PdPt5
_symmetry_space_group_name_H-M   'P 1'
_cell_length_a   6.75070648
_cell_length_b   6.77740911
_cell_length_c   6.72793498
_cell_angle_alpha   128.73566247
_cell_angle_beta   117.18863137
_cell_angle_gamma   84.88308283
_symmetry_Int_Tables_number   1
_chemical_formula_structural   Na2Si4PdPt5
_chemical_formula_sum   'Na2 Si4 Pd1 Pt5'
_cell_volume   204.81656061
_cell_formula_units_Z   1
loop_
 _symmetry_equiv_pos_site_id
 _symmetry_equiv_pos_as_xyz
  1  'x, y, z'
loop_
 _atom_site_type_symbol
 _atom_site_label
 _atom_site_symmetry_multiplicity
 _atom_site_fract_x
 _atom_site_fract_y
 _atom_site_fract_z
 _atom_site_occupancy
  Na  Na0  1  0.000081  0.955027  0.955349  1
  Na  Na1  1  0.500098  0.017750  0.517897  1
  Si  Si2  1  0.309842  0.378579  0.065082  1
  Si  Si3  1  0.847014  0.290649  0.446077  1
  Si  Si4  1  0.688786  0.757786  0.070993  1
  Si  Si5  1  0.153568  0.602680  0.446154  1
  Pd  Pd6  1  0.457480  0.998252  0.951994  1
  Pt  Pt7  1  0.950484  0.494815  0.948392  1
  Pt  Pt8  1  0.541949  0.494586  0.540207  1
  Pt  Pt9  1  0.050447  0.997032  0.545518  1
  Pt  Pt10  1  0.717610  0.496617  0.217272  1
  Pt  Pt11  1  0.282641  0.501231  0.780067  1
