# generated using pymatgen
data_Yb2Th3SiSn3
_symmetry_space_group_name_H-M   'P 1'
_cell_length_a   9.46081100
_cell_length_b   9.46081154
_cell_length_c   6.54185400
_cell_angle_alpha   90.00000000
_cell_angle_beta   90.00000000
_cell_angle_gamma   120.00000161
_symmetry_Int_Tables_number   1
_chemical_formula_structural   Yb2Th3SiSn3
_chemical_formula_sum   'Yb4 Th6 Si2 Sn6'
_cell_volume   507.09371746
_cell_formula_units_Z   2
loop_
 _symmetry_equiv_pos_site_id
 _symmetry_equiv_pos_as_xyz
  1  'x, y, z'
loop_
 _atom_site_type_symbol
 _atom_site_label
 _atom_site_symmetry_multiplicity
 _atom_site_fract_x
 _atom_site_fract_y
 _atom_site_fract_z
 _atom_site_occupancy
  Yb  Yb0  1  0.666667  0.333333  0.000000  1
  Yb  Yb1  1  0.333333  0.666667  0.000000  1
  Yb  Yb2  1  0.333333  0.666667  0.500000  1
  Yb  Yb3  1  0.666667  0.333333  0.500000  1
  Th  Th4  1  0.745976  0.745976  0.750000  1
  Th  Th5  1  0.254024  0.000000  0.750000  1
  Th  Th6  1  0.000000  0.254024  0.750000  1
  Th  Th7  1  0.254024  0.254024  0.250000  1
  Th  Th8  1  0.745976  0.000000  0.250000  1
  Th  Th9  1  0.000000  0.745976  0.250000  1
  Si  Si10  1  0.000000  0.000000  0.000000  1
  Si  Si11  1  0.000000  0.000000  0.500000  1
  Sn  Sn12  1  0.393867  0.393867  0.750000  1
  Sn  Sn13  1  0.606133  0.000000  0.750000  1
  Sn  Sn14  1  0.000000  0.606133  0.750000  1
  Sn  Sn15  1  0.606133  0.606133  0.250000  1
  Sn  Sn16  1  0.393867  0.000000  0.250000  1
  Sn  Sn17  1  0.000000  0.393867  0.250000  1
