# generated using pymatgen
data_YHo11(OsPd)2
_symmetry_space_group_name_H-M   'P 1'
_cell_length_a   6.38707079
_cell_length_b   7.25297930
_cell_length_c   9.20781100
_cell_angle_alpha   90.00000000
_cell_angle_beta   90.00000000
_cell_angle_gamma   90.47325499
_symmetry_Int_Tables_number   1
_chemical_formula_structural   YHo11(OsPd)2
_chemical_formula_sum   'Y1 Ho11 Os2 Pd2'
_cell_volume   426.53998470
_cell_formula_units_Z   1
loop_
 _symmetry_equiv_pos_site_id
 _symmetry_equiv_pos_as_xyz
  1  'x, y, z'
loop_
 _atom_site_type_symbol
 _atom_site_label
 _atom_site_symmetry_multiplicity
 _atom_site_fract_x
 _atom_site_fract_y
 _atom_site_fract_z
 _atom_site_occupancy
  Y  Y0  1  0.877872  0.522292  0.250000  1
  Ho  Ho1  1  0.622553  0.042899  0.250000  1
  Ho  Ho2  1  0.376900  0.957300  0.750000  1
  Ho  Ho3  1  0.123854  0.476075  0.750000  1
  Ho  Ho4  1  0.178170  0.183882  0.061047  1
  Ho  Ho5  1  0.822095  0.815936  0.938310  1
  Ho  Ho6  1  0.663018  0.324952  0.941339  1
  Ho  Ho7  1  0.822095  0.815936  0.561690  1
  Ho  Ho8  1  0.336989  0.675109  0.058250  1
  Ho  Ho9  1  0.178170  0.183882  0.438953  1
  Ho  Ho10  1  0.336989  0.675109  0.441750  1
  Ho  Ho11  1  0.663018  0.324952  0.558661  1
  Os  Os12  1  0.454892  0.385403  0.250000  1
  Os  Os13  1  0.542280  0.614124  0.750000  1
  Pd  Pd14  1  0.952679  0.113586  0.750000  1
  Pd  Pd15  1  0.048427  0.888564  0.250000  1
