# generated using pymatgen
data_Tb4TmPb3Se
_symmetry_space_group_name_H-M   'P 1'
_cell_length_a   9.17822300
_cell_length_b   9.17822437
_cell_length_c   6.75241100
_cell_angle_alpha   90.00000000
_cell_angle_beta   90.00000000
_cell_angle_gamma   120.00000586
_symmetry_Int_Tables_number   1
_chemical_formula_structural   Tb4TmPb3Se
_chemical_formula_sum   'Tb8 Tm2 Pb6 Se2'
_cell_volume   492.61400030
_cell_formula_units_Z   2
loop_
 _symmetry_equiv_pos_site_id
 _symmetry_equiv_pos_as_xyz
  1  'x, y, z'
loop_
 _atom_site_type_symbol
 _atom_site_label
 _atom_site_symmetry_multiplicity
 _atom_site_fract_x
 _atom_site_fract_y
 _atom_site_fract_z
 _atom_site_occupancy
  Tb  Tb0  1  0.749099  0.749099  0.749328  1
  Tb  Tb1  1  0.250901  0.000000  0.749328  1
  Tb  Tb2  1  0.000000  0.250901  0.749328  1
  Tb  Tb3  1  0.250901  0.250901  0.250672  1
  Tb  Tb4  1  0.749099  0.000000  0.250672  1
  Tb  Tb5  1  0.000000  0.749099  0.250672  1
  Tb  Tb6  1  0.666667  0.333333  0.000000  1
  Tb  Tb7  1  0.333333  0.666667  0.000000  1
  Tm  Tm8  1  0.333333  0.666667  0.500000  1
  Tm  Tm9  1  0.666667  0.333333  0.500000  1
  Pb  Pb10  1  0.397321  0.397321  0.748342  1
  Pb  Pb11  1  0.602679  0.000000  0.748342  1
  Pb  Pb12  1  0.000000  0.602679  0.748342  1
  Pb  Pb13  1  0.602679  0.602679  0.251658  1
  Pb  Pb14  1  0.397321  0.000000  0.251658  1
  Pb  Pb15  1  0.000000  0.397321  0.251658  1
  Se  Se16  1  0.000000  0.000000  0.000000  1
  Se  Se17  1  0.000000  0.000000  0.500000  1
