# generated using pymatgen
data_Ca4Pr3Ni4Sn13
_symmetry_space_group_name_H-M   'P 1'
_cell_length_a   11.30031800
_cell_length_b   11.30031800
_cell_length_c   4.61755500
_cell_angle_alpha   90.00000000
_cell_angle_beta   90.00000000
_cell_angle_gamma   90.00000000
_symmetry_Int_Tables_number   1
_chemical_formula_structural   Ca4Pr3Ni4Sn13
_chemical_formula_sum   'Ca4 Pr3 Ni4 Sn13'
_cell_volume   589.64878386
_cell_formula_units_Z   1
loop_
 _symmetry_equiv_pos_site_id
 _symmetry_equiv_pos_as_xyz
  1  'x, y, z'
loop_
 _atom_site_type_symbol
 _atom_site_label
 _atom_site_symmetry_multiplicity
 _atom_site_fract_x
 _atom_site_fract_y
 _atom_site_fract_z
 _atom_site_occupancy
  Ca  Ca0  1  0.838391  0.171619  0.000000  1
  Ca  Ca1  1  0.828381  0.838391  0.000000  1
  Ca  Ca2  1  0.161609  0.828381  0.000000  1
  Ca  Ca3  1  0.171619  0.161609  0.000000  1
  Pr  Pr4  1  0.500000  0.500000  0.500000  1
  Pr  Pr5  1  0.000000  0.500000  0.000000  1
  Pr  Pr6  1  0.500000  0.000000  0.000000  1
  Ni  Ni7  1  0.775801  0.620013  0.500000  1
  Ni  Ni8  1  0.379987  0.775801  0.500000  1
  Ni  Ni9  1  0.620013  0.224199  0.500000  1
  Ni  Ni10  1  0.224199  0.379987  0.500000  1
  Sn  Sn11  1  0.020029  0.283898  0.500000  1
  Sn  Sn12  1  0.979971  0.716102  0.500000  1
  Sn  Sn13  1  0.213623  0.611730  0.500000  1
  Sn  Sn14  1  0.573478  0.303298  0.000000  1
  Sn  Sn15  1  0.696702  0.573478  0.000000  1
  Sn  Sn16  1  0.786377  0.388270  0.500000  1
  Sn  Sn17  1  0.716102  0.020029  0.500000  1
  Sn  Sn18  1  0.000000  0.000000  0.500000  1
  Sn  Sn19  1  0.283898  0.979971  0.500000  1
  Sn  Sn20  1  0.426522  0.696702  0.000000  1
  Sn  Sn21  1  0.611730  0.786377  0.500000  1
  Sn  Sn22  1  0.303298  0.426522  0.000000  1
  Sn  Sn23  1  0.388270  0.213623  0.500000  1
