# generated using pymatgen
data_Sn3BiAsSe3
_symmetry_space_group_name_H-M   'P 1'
_cell_length_a   14.65500952
_cell_length_b   14.65500954
_cell_length_c   14.65500787
_cell_angle_alpha   16.70734376
_cell_angle_beta   16.70734496
_cell_angle_gamma   16.70734615
_symmetry_Int_Tables_number   1
_chemical_formula_structural   Sn3BiAsSe3
_chemical_formula_sum   'Sn3 Bi1 As1 Se3'
_cell_volume   226.87164211
_cell_formula_units_Z   1
loop_
 _symmetry_equiv_pos_site_id
 _symmetry_equiv_pos_as_xyz
  1  'x, y, z'
loop_
 _atom_site_type_symbol
 _atom_site_label
 _atom_site_symmetry_multiplicity
 _atom_site_fract_x
 _atom_site_fract_y
 _atom_site_fract_z
 _atom_site_occupancy
  Sn  Sn0  1  0.253403  0.253403  0.253403  1
  Sn  Sn1  1  0.502478  0.502478  0.502478  1
  Sn  Sn2  1  0.752769  0.752769  0.752769  1
  Bi  Bi3  1  0.006725  0.006725  0.006725  1
  As  As4  1  0.373173  0.373173  0.373173  1
  Se  Se5  1  0.120101  0.120101  0.120101  1
  Se  Se6  1  0.620992  0.620992  0.620992  1
  Se  Se7  1  0.870360  0.870360  0.870360  1
