# generated using pymatgen
data_SmCdCu3Pt
_symmetry_space_group_name_H-M   'P 1'
_cell_length_a   5.21066082
_cell_length_b   5.21066069
_cell_length_c   5.21900862
_cell_angle_alpha   60.05289588
_cell_angle_beta   60.05289212
_cell_angle_gamma   59.99999572
_symmetry_Int_Tables_number   1
_chemical_formula_structural   SmCdCu3Pt
_chemical_formula_sum   'Sm1 Cd1 Cu3 Pt1'
_cell_volume   100.27792826
_cell_formula_units_Z   1
loop_
 _symmetry_equiv_pos_site_id
 _symmetry_equiv_pos_as_xyz
  1  'x, y, z'
loop_
 _atom_site_type_symbol
 _atom_site_label
 _atom_site_symmetry_multiplicity
 _atom_site_fract_x
 _atom_site_fract_y
 _atom_site_fract_z
 _atom_site_occupancy
  Sm  Sm0  1  0.251049  0.251049  0.246853  1
  Cd  Cd1  1  0.001145  0.001145  0.996564  1
  Cu  Cu2  1  0.625080  0.122256  0.627585  1
  Cu  Cu3  1  0.122256  0.625080  0.627585  1
  Cu  Cu4  1  0.625080  0.625080  0.627585  1
  Pt  Pt5  1  0.625390  0.625390  0.123829  1
