# generated using pymatgen
data_Ce8BeAl8Ru7
_symmetry_space_group_name_H-M   'P 1'
_cell_length_a   4.17423800
_cell_length_b   7.15658040
_cell_length_c   15.58055846
_cell_angle_alpha   90.31393079
_cell_angle_beta   90.00000000
_cell_angle_gamma   90.00000000
_symmetry_Int_Tables_number   1
_chemical_formula_structural   Ce8BeAl8Ru7
_chemical_formula_sum   'Ce8 Be1 Al8 Ru7'
_cell_volume   465.43524116
_cell_formula_units_Z   1
loop_
 _symmetry_equiv_pos_site_id
 _symmetry_equiv_pos_as_xyz
  1  'x, y, z'
loop_
 _atom_site_type_symbol
 _atom_site_label
 _atom_site_symmetry_multiplicity
 _atom_site_fract_x
 _atom_site_fract_y
 _atom_site_fract_z
 _atom_site_occupancy
  Ce  Ce0  1  0.750000  0.957145  0.217680  1
  Ce  Ce1  1  0.250000  0.167590  0.562552  1
  Ce  Ce2  1  0.750000  0.832263  0.438530  1
  Ce  Ce3  1  0.750000  0.456221  0.281226  1
  Ce  Ce4  1  0.750000  0.330680  0.061326  1
  Ce  Ce5  1  0.250000  0.664199  0.939726  1
  Ce  Ce6  1  0.250000  0.049320  0.779044  1
  Ce  Ce7  1  0.250000  0.543668  0.719878  1
  Be  Be8  1  0.750000  0.756193  0.813801  1
  Al  Al9  1  0.750000  0.504105  0.564458  1
  Al  Al10  1  0.750000  0.366947  0.849249  1
  Al  Al11  1  0.750000  0.997791  0.934325  1
  Al  Al12  1  0.750000  0.864710  0.652303  1
  Al  Al13  1  0.250000  0.496071  0.437508  1
  Al  Al14  1  0.250000  0.995331  0.061843  1
  Al  Al15  1  0.250000  0.633020  0.150415  1
  Al  Al16  1  0.250000  0.133991  0.349648  1
  Ru  Ru17  1  0.250000  0.233907  0.930869  1
  Ru  Ru18  1  0.750000  0.264002  0.434091  1
  Ru  Ru19  1  0.250000  0.759981  0.319118  1
  Ru  Ru20  1  0.750000  0.763316  0.067676  1
  Ru  Ru21  1  0.750000  0.239967  0.682252  1
  Ru  Ru22  1  0.250000  0.258234  0.181387  1
  Ru  Ru23  1  0.250000  0.731346  0.571097  1
