# generated using pymatgen
data_Zn21Co2NiPt2
_symmetry_space_group_name_H-M   'P 1'
_cell_length_a   7.82055539
_cell_length_b   7.82055547
_cell_length_c   7.83576039
_cell_angle_alpha   109.56986806
_cell_angle_beta   109.56986497
_cell_angle_gamma   109.19507514
_symmetry_Int_Tables_number   1
_chemical_formula_structural   Zn21Co2NiPt2
_chemical_formula_sum   'Zn21 Co2 Ni1 Pt2'
_cell_volume   369.27655137
_cell_formula_units_Z   1
loop_
 _symmetry_equiv_pos_site_id
 _symmetry_equiv_pos_as_xyz
  1  'x, y, z'
loop_
 _atom_site_type_symbol
 _atom_site_label
 _atom_site_symmetry_multiplicity
 _atom_site_fract_x
 _atom_site_fract_y
 _atom_site_fract_z
 _atom_site_occupancy
  Zn  Zn0  1  0.990231  0.639515  0.637526  1
  Zn  Zn1  1  0.352706  0.001990  0.362474  1
  Zn  Zn2  1  0.001990  0.352706  0.362474  1
  Zn  Zn3  1  0.639515  0.990231  0.637526  1
  Zn  Zn4  1  0.635906  0.635906  0.000000  1
  Zn  Zn5  1  0.195841  0.195841  0.199003  1
  Zn  Zn6  1  0.996838  0.996838  0.800997  1
  Zn  Zn7  1  0.991160  0.768753  0.000000  1
  Zn  Zn8  1  0.768753  0.991160  0.000000  1
  Zn  Zn9  1  0.373217  0.725774  0.705542  1
  Zn  Zn10  1  0.667675  0.020231  0.294458  1
  Zn  Zn11  1  0.642166  0.284002  0.000000  1
  Zn  Zn12  1  0.020231  0.667675  0.294458  1
  Zn  Zn13  1  0.725774  0.373217  0.705542  1
  Zn  Zn14  1  0.284002  0.642166  0.000000  1
  Zn  Zn15  1  0.028046  0.257759  0.660407  1
  Zn  Zn16  1  0.257759  0.028046  0.660407  1
  Zn  Zn17  1  0.748688  0.748688  0.391148  1
  Zn  Zn18  1  0.597352  0.367639  0.339593  1
  Zn  Zn19  1  0.367639  0.597352  0.339593  1
  Zn  Zn20  1  0.357540  0.357540  0.608852  1
  Co  Co21  1  0.000274  0.000274  0.336458  1
  Co  Co22  1  0.663816  0.663816  0.663542  1
  Ni  Ni23  1  0.353194  0.353194  0.000000  1
  Pt  Pt24  1  0.351676  0.988008  0.000000  1
  Pt  Pt25  1  0.988008  0.351676  0.000000  1
