# generated using pymatgen
data_Hf6Cr5FeSi11As
_symmetry_space_group_name_H-M   'P 1'
_cell_length_a   9.86490808
_cell_length_b   9.88315673
_cell_length_c   9.87942124
_cell_angle_alpha   149.97993846
_cell_angle_beta   132.48317545
_cell_angle_gamma   57.32186425
_symmetry_Int_Tables_number   1
_chemical_formula_structural   Hf6Cr5FeSi11As
_chemical_formula_sum   'Hf6 Cr5 Fe1 Si11 As1'
_cell_volume   352.75093884
_cell_formula_units_Z   1
loop_
 _symmetry_equiv_pos_site_id
 _symmetry_equiv_pos_as_xyz
  1  'x, y, z'
loop_
 _atom_site_type_symbol
 _atom_site_label
 _atom_site_symmetry_multiplicity
 _atom_site_fract_x
 _atom_site_fract_y
 _atom_site_fract_z
 _atom_site_occupancy
  Hf  Hf0  1  0.847194  0.595580  0.257104  1
  Hf  Hf1  1  0.148207  0.405083  0.738511  1
  Hf  Hf2  1  0.665081  0.404626  0.259085  1
  Hf  Hf3  1  0.337595  0.594446  0.742592  1
  Hf  Hf4  1  0.140563  0.139488  0.996604  1
  Hf  Hf5  1  0.859191  0.862343  0.001491  1
  Cr  Cr6  1  0.750360  0.001861  0.748405  1
  Cr  Cr7  1  0.999138  0.001966  0.501530  1
  Cr  Cr8  1  0.500944  0.503569  0.502924  1
  Cr  Cr9  1  0.501795  0.997839  0.997686  1
  Cr  Cr10  1  0.248940  0.997880  0.250503  1
  Fe  Fe11  1  0.998335  0.498477  0.997472  1
  Si  Si12  1  0.512563  0.863114  0.645825  1
  Si  Si13  1  0.211083  0.860473  0.347935  1
  Si  Si14  1  0.790919  0.139670  0.655848  1
  Si  Si15  1  0.708812  0.694689  0.999253  1
  Si  Si16  1  0.297314  0.308166  0.006649  1
  Si  Si17  1  0.497727  0.735509  0.241756  1
  Si  Si18  1  0.497510  0.255670  0.761099  1
  Si  Si19  1  0.000768  0.256347  0.255426  1
  Si  Si20  1  0.205140  0.702560  0.490024  1
  Si  Si21  1  0.000026  0.744945  0.743732  1
  Si  Si22  1  0.797008  0.300139  0.510201  1
  As  As23  1  0.483786  0.135559  0.348341  1
