# generated using pymatgen
data_Zr8Co16SiP11
_symmetry_space_group_name_H-M   'P 1'
_cell_length_a   12.15119700
_cell_length_b   12.15119749
_cell_length_c   3.66846400
_cell_angle_alpha   90.00000000
_cell_angle_beta   90.00000000
_cell_angle_gamma   120.00261895
_symmetry_Int_Tables_number   1
_chemical_formula_structural   Zr8Co16SiP11
_chemical_formula_sum   'Zr8 Co16 Si1 P11'
_cell_volume   469.07422847
_cell_formula_units_Z   1
loop_
 _symmetry_equiv_pos_site_id
 _symmetry_equiv_pos_as_xyz
  1  'x, y, z'
loop_
 _atom_site_type_symbol
 _atom_site_label
 _atom_site_symmetry_multiplicity
 _atom_site_fract_x
 _atom_site_fract_y
 _atom_site_fract_z
 _atom_site_occupancy
  Zr  Zr0  1  0.441538  0.441538  0.000000  1
  Zr  Zr1  1  0.555976  0.000470  0.000000  1
  Zr  Zr2  1  0.000470  0.555976  0.000000  1
  Zr  Zr3  1  0.666917  0.333780  0.000000  1
  Zr  Zr4  1  0.333780  0.666917  0.000000  1
  Zr  Zr5  1  0.825122  0.825122  0.500000  1
  Zr  Zr6  1  0.176188  0.999914  0.500000  1
  Zr  Zr7  1  0.999914  0.176188  0.500000  1
  Co  Co8  1  0.192265  0.371398  0.000000  1
  Co  Co9  1  0.178366  0.807183  0.000000  1
  Co  Co10  1  0.825016  0.628047  0.000000  1
  Co  Co11  1  0.807183  0.178366  0.000000  1
  Co  Co12  1  0.371398  0.192265  0.000000  1
  Co  Co13  1  0.125973  0.480392  0.500000  1
  Co  Co14  1  0.354007  0.874164  0.500000  1
  Co  Co15  1  0.517833  0.644883  0.500000  1
  Co  Co16  1  0.644883  0.517833  0.500000  1
  Co  Co17  1  0.874164  0.354007  0.500000  1
  Co  Co18  1  0.480392  0.125973  0.500000  1
  Co  Co19  1  0.000695  0.000695  0.000000  1
  Co  Co20  1  0.723188  0.001677  0.500000  1
  Co  Co21  1  0.001677  0.723188  0.500000  1
  Co  Co22  1  0.628047  0.825016  0.000000  1
  Co  Co23  1  0.276723  0.276723  0.500000  1
  Si  Si24  1  0.654285  0.654285  0.000000  1
  P  P25  1  0.345183  0.999768  0.000000  1
  P  P26  1  0.999768  0.345183  0.000000  1
  P  P27  1  0.481267  0.307408  0.500000  1
  P  P28  1  0.692179  0.173967  0.500000  1
  P  P29  1  0.826247  0.518705  0.500000  1
  P  P30  1  0.518705  0.826247  0.500000  1
  P  P31  1  0.173967  0.692179  0.500000  1
  P  P32  1  0.824491  0.999390  0.000000  1
  P  P33  1  0.999390  0.824491  0.000000  1
  P  P34  1  0.307408  0.481267  0.500000  1
  P  P35  1  0.175395  0.175395  0.000000  1
