# generated using pymatgen
data_YbHo2(BPt2)3
_symmetry_space_group_name_H-M   'P 1'
_cell_length_a   5.39500778
_cell_length_b   5.39500873
_cell_length_c   7.78063800
_cell_angle_alpha   90.00000000
_cell_angle_beta   90.00000000
_cell_angle_gamma   119.84748346
_symmetry_Int_Tables_number   1
_chemical_formula_structural   YbHo2(BPt2)3
_chemical_formula_sum   'Yb1 Ho2 B3 Pt6'
_cell_volume   196.42441472
_cell_formula_units_Z   1
loop_
 _symmetry_equiv_pos_site_id
 _symmetry_equiv_pos_as_xyz
  1  'x, y, z'
loop_
 _atom_site_type_symbol
 _atom_site_label
 _atom_site_symmetry_multiplicity
 _atom_site_fract_x
 _atom_site_fract_y
 _atom_site_fract_z
 _atom_site_occupancy
  Yb  Yb0  1  0.500000  0.500000  0.833333  1
  Ho  Ho1  1  0.500000  0.000000  0.503079  1
  Ho  Ho2  1  0.000000  0.500000  0.163588  1
  B  B3  1  0.500000  0.500000  0.333333  1
  B  B4  1  0.500000  0.000000  0.998168  1
  B  B5  1  0.000000  0.500000  0.668499  1
  Pt  Pt6  1  0.148140  0.851860  0.833333  1
  Pt  Pt7  1  0.148220  0.300408  0.499424  1
  Pt  Pt8  1  0.699592  0.851780  0.167243  1
  Pt  Pt9  1  0.851860  0.148140  0.833333  1
  Pt  Pt10  1  0.851780  0.699592  0.499424  1
  Pt  Pt11  1  0.300408  0.148220  0.167243  1
