# generated using pymatgen
data_Ti5GeSb2
_symmetry_space_group_name_H-M   'P 1'
_cell_length_a   5.19429806
_cell_length_b   7.83521447
_cell_length_c   7.83521425
_cell_angle_alpha   83.69199962
_cell_angle_beta   70.64189975
_cell_angle_gamma   70.64189840
_symmetry_Int_Tables_number   1
_chemical_formula_structural   Ti5GeSb2
_chemical_formula_sum   'Ti10 Ge2 Sb4'
_cell_volume   283.84451263
_cell_formula_units_Z   2
loop_
 _symmetry_equiv_pos_site_id
 _symmetry_equiv_pos_as_xyz
  1  'x, y, z'
loop_
 _atom_site_type_symbol
 _atom_site_label
 _atom_site_symmetry_multiplicity
 _atom_site_fract_x
 _atom_site_fract_y
 _atom_site_fract_z
 _atom_site_occupancy
  Ti  Ti0  1  0.250000  0.500000  0.500000  1
  Ti  Ti1  1  0.750000  0.500000  0.500000  1
  Ti  Ti2  1  0.073642  0.140287  0.712430  1
  Ti  Ti3  1  0.926358  0.859713  0.287570  1
  Ti  Ti4  1  0.786072  0.287570  0.140287  1
  Ti  Ti5  1  0.426358  0.287570  0.859713  1
  Ti  Ti6  1  0.213928  0.712430  0.859713  1
  Ti  Ti7  1  0.573642  0.712430  0.140287  1
  Ti  Ti8  1  0.713928  0.859713  0.712430  1
  Ti  Ti9  1  0.286072  0.140287  0.287570  1
  Ge  Ge10  1  0.250000  0.000000  0.000000  1
  Ge  Ge11  1  0.750000  0.000000  0.000000  1
  Sb  Sb12  1  0.164074  0.500000  0.171852  1
  Sb  Sb13  1  0.835926  0.500000  0.828148  1
  Sb  Sb14  1  0.335926  0.828148  0.500000  1
  Sb  Sb15  1  0.664074  0.171852  0.500000  1
