# generated using pymatgen
data_Tb16MgCd3(OsPd)2
_symmetry_space_group_name_H-M   'P 1'
_cell_length_a   9.73144990
_cell_length_b   9.73144912
_cell_length_c   9.80060484
_cell_angle_alpha   59.50769760
_cell_angle_beta   59.50769885
_cell_angle_gamma   59.34281891
_symmetry_Int_Tables_number   1
_chemical_formula_structural   Tb16MgCd3(OsPd)2
_chemical_formula_sum   'Tb16 Mg1 Cd3 Os2 Pd2'
_cell_volume   648.11147849
_cell_formula_units_Z   1
loop_
 _symmetry_equiv_pos_site_id
 _symmetry_equiv_pos_as_xyz
  1  'x, y, z'
loop_
 _atom_site_type_symbol
 _atom_site_label
 _atom_site_symmetry_multiplicity
 _atom_site_fract_x
 _atom_site_fract_y
 _atom_site_fract_z
 _atom_site_occupancy
  Tb  Tb0  1  0.349928  0.349928  0.355473  1
  Tb  Tb1  1  0.349351  0.349351  0.947374  1
  Tb  Tb2  1  0.343998  0.957594  0.349272  1
  Tb  Tb3  1  0.957594  0.343998  0.349272  1
  Tb  Tb4  1  0.815494  0.188268  0.190920  1
  Tb  Tb5  1  0.185526  0.816888  0.806668  1
  Tb  Tb6  1  0.188268  0.815494  0.190920  1
  Tb  Tb7  1  0.816888  0.185526  0.806668  1
  Tb  Tb8  1  0.188361  0.188361  0.810919  1
  Tb  Tb9  1  0.809755  0.809755  0.190282  1
  Tb  Tb10  1  0.937698  0.557260  0.568632  1
  Tb  Tb11  1  0.556831  0.936895  0.938810  1
  Tb  Tb12  1  0.557260  0.937698  0.568632  1
  Tb  Tb13  1  0.936895  0.556831  0.938810  1
  Tb  Tb14  1  0.564842  0.564842  0.937453  1
  Tb  Tb15  1  0.938678  0.938678  0.561551  1
  Mg  Mg16  1  0.575341  0.575341  0.575176  1
  Cd  Cd17  1  0.580897  0.580897  0.256086  1
  Cd  Cd18  1  0.581790  0.254102  0.581408  1
  Cd  Cd19  1  0.254102  0.581790  0.581408  1
  Os  Os20  1  0.144856  0.144856  0.137583  1
  Os  Os21  1  0.146112  0.146112  0.573799  1
  Pd  Pd22  1  0.146741  0.572794  0.141443  1
  Pd  Pd23  1  0.572794  0.146741  0.141443  1
