# generated using pymatgen
data_NdDy4Th3(ReB6)4
_symmetry_space_group_name_H-M   'P 1'
_cell_length_a   3.76666300
_cell_length_b   9.26815611
_cell_length_c   11.69989219
_cell_angle_alpha   90.09483831
_cell_angle_beta   90.00000000
_cell_angle_gamma   90.00000000
_symmetry_Int_Tables_number   1
_chemical_formula_structural   NdDy4Th3(ReB6)4
_chemical_formula_sum   'Nd1 Dy4 Th3 Re4 B24'
_cell_volume   408.44291869
_cell_formula_units_Z   1
loop_
 _symmetry_equiv_pos_site_id
 _symmetry_equiv_pos_as_xyz
  1  'x, y, z'
loop_
 _atom_site_type_symbol
 _atom_site_label
 _atom_site_symmetry_multiplicity
 _atom_site_fract_x
 _atom_site_fract_y
 _atom_site_fract_z
 _atom_site_occupancy
  Nd  Nd0  1  0.000000  0.177423  0.913617  1
  Dy  Dy1  1  0.000000  0.944681  0.372734  1
  Dy  Dy2  1  0.000000  0.056255  0.628619  1
  Dy  Dy3  1  0.000000  0.442794  0.127867  1
  Dy  Dy4  1  0.000000  0.555655  0.871530  1
  Th  Th5  1  0.000000  0.321560  0.414503  1
  Th  Th6  1  0.000000  0.678406  0.586113  1
  Th  Th7  1  0.000000  0.823681  0.085566  1
  Re  Re8  1  0.000000  0.638680  0.319980  1
  Re  Re9  1  0.000000  0.362549  0.679054  1
  Re  Re10  1  0.000000  0.139113  0.180391  1
  Re  Re11  1  0.000000  0.859678  0.820108  1
  B  B12  1  0.500000  0.555919  0.429553  1
  B  B13  1  0.500000  0.444317  0.570172  1
  B  B14  1  0.500000  0.055494  0.069574  1
  B  B15  1  0.500000  0.944291  0.930424  1
  B  B16  1  0.500000  0.749396  0.416559  1
  B  B17  1  0.500000  0.250551  0.583577  1
  B  B18  1  0.500000  0.248844  0.083111  1
  B  B19  1  0.500000  0.751119  0.916688  1
  B  B20  1  0.500000  0.790640  0.266664  1
  B  B21  1  0.500000  0.209108  0.733359  1
  B  B22  1  0.500000  0.290382  0.233116  1
  B  B23  1  0.500000  0.709297  0.766813  1
  B  B24  1  0.500000  0.630427  0.186263  1
  B  B25  1  0.500000  0.369391  0.813701  1
  B  B26  1  0.500000  0.130734  0.313589  1
  B  B27  1  0.500000  0.869461  0.686751  1
  B  B28  1  0.500000  0.985564  0.213409  1
  B  B29  1  0.500000  0.015079  0.786447  1
  B  B30  1  0.500000  0.485150  0.286149  1
  B  B31  1  0.500000  0.514868  0.713728  1
  B  B32  1  0.500000  0.600721  0.028006  1
  B  B33  1  0.500000  0.398666  0.971643  1
  B  B34  1  0.500000  0.103970  0.471742  1
  B  B35  1  0.500000  0.896135  0.528880  1
