# generated using pymatgen
data_Nd16MgHg3Rh4
_symmetry_space_group_name_H-M   'P 1'
_cell_length_a   9.91391449
_cell_length_b   9.95633162
_cell_length_c   9.95633200
_cell_angle_alpha   60.00000538
_cell_angle_beta   59.85837108
_cell_angle_gamma   59.85836808
_symmetry_Int_Tables_number   1
_chemical_formula_structural   Nd16MgHg3Rh4
_chemical_formula_sum   'Nd16 Mg1 Hg3 Rh4'
_cell_volume   693.41921872
_cell_formula_units_Z   1
loop_
 _symmetry_equiv_pos_site_id
 _symmetry_equiv_pos_as_xyz
  1  'x, y, z'
loop_
 _atom_site_type_symbol
 _atom_site_label
 _atom_site_symmetry_multiplicity
 _atom_site_fract_x
 _atom_site_fract_y
 _atom_site_fract_z
 _atom_site_occupancy
  Nd  Nd0  1  0.599154  0.597805  0.597805  1
  Nd  Nd1  1  0.599154  0.597805  0.205236  1
  Nd  Nd2  1  0.599154  0.205236  0.597805  1
  Nd  Nd3  1  0.198512  0.600496  0.600496  1
  Nd  Nd4  1  0.058487  0.440991  0.440991  1
  Nd  Nd5  1  0.436977  0.062011  0.062011  1
  Nd  Nd6  1  0.436977  0.062011  0.439001  1
  Nd  Nd7  1  0.058487  0.440991  0.059531  1
  Nd  Nd8  1  0.436977  0.439001  0.062011  1
  Nd  Nd9  1  0.058487  0.059531  0.440991  1
  Nd  Nd10  1  0.186292  0.813426  0.813426  1
  Nd  Nd11  1  0.811414  0.187549  0.187549  1
  Nd  Nd12  1  0.811414  0.187549  0.813489  1
  Nd  Nd13  1  0.186292  0.813426  0.186856  1
  Nd  Nd14  1  0.811414  0.813489  0.187549  1
  Nd  Nd15  1  0.186292  0.186856  0.813426  1
  Mg  Mg16  1  0.537287  0.820905  0.820905  1
  Hg  Hg17  1  0.829984  0.835916  0.835916  1
  Hg  Hg18  1  0.829984  0.835916  0.498186  1
  Hg  Hg19  1  0.829984  0.498186  0.835916  1
  Rh  Rh20  1  0.391544  0.392445  0.392445  1
  Rh  Rh21  1  0.391544  0.392445  0.823566  1
  Rh  Rh22  1  0.391544  0.823566  0.392445  1
  Rh  Rh23  1  0.822649  0.392450  0.392450  1
