# generated using pymatgen
data_Ba6La2Cd15GaAu12
_symmetry_space_group_name_H-M   'P 1'
_cell_length_a   15.52134555
_cell_length_b   15.52134609
_cell_length_c   4.58820500
_cell_angle_alpha   90.00000000
_cell_angle_beta   90.00000000
_cell_angle_gamma   120.06363309
_symmetry_Int_Tables_number   1
_chemical_formula_structural   Ba6La2Cd15GaAu12
_chemical_formula_sum   'Ba6 La2 Cd15 Ga1 Au12'
_cell_volume   956.65063742
_cell_formula_units_Z   1
loop_
 _symmetry_equiv_pos_site_id
 _symmetry_equiv_pos_as_xyz
  1  'x, y, z'
loop_
 _atom_site_type_symbol
 _atom_site_label
 _atom_site_symmetry_multiplicity
 _atom_site_fract_x
 _atom_site_fract_y
 _atom_site_fract_z
 _atom_site_occupancy
  Ba  Ba0  1  0.546865  0.546865  0.000000  1
  Ba  Ba1  1  0.331608  0.667646  0.000000  1
  Ba  Ba2  1  0.667646  0.331608  0.000000  1
  Ba  Ba3  1  0.821174  0.001091  0.500000  1
  Ba  Ba4  1  0.001091  0.821174  0.500000  1
  Ba  Ba5  1  0.178314  0.178314  0.500000  1
  La  La6  1  0.450827  0.001360  0.000000  1
  La  La7  1  0.001360  0.450827  0.000000  1
  Cd  Cd8  1  0.177799  0.379487  0.000000  1
  Cd  Cd9  1  0.625129  0.805745  0.000000  1
  Cd  Cd10  1  0.379487  0.177799  0.000000  1
  Cd  Cd11  1  0.199011  0.819146  0.000000  1
  Cd  Cd12  1  0.805745  0.625129  0.000000  1
  Cd  Cd13  1  0.819146  0.199011  0.000000  1
  Cd  Cd14  1  0.277542  0.000928  0.500000  1
  Cd  Cd15  1  0.000928  0.277542  0.500000  1
  Cd  Cd16  1  0.724223  0.724223  0.500000  1
  Cd  Cd17  1  0.339751  0.468224  0.500000  1
  Cd  Cd18  1  0.530186  0.879144  0.500000  1
  Cd  Cd19  1  0.468224  0.339751  0.500000  1
  Cd  Cd20  1  0.126786  0.656594  0.500000  1
  Cd  Cd21  1  0.879144  0.530186  0.500000  1
  Cd  Cd22  1  0.656594  0.126786  0.500000  1
  Ga  Ga23  1  0.999877  0.999877  0.000000  1
  Au  Au24  1  0.159300  0.487822  0.500000  1
  Au  Au25  1  0.507819  0.681059  0.500000  1
  Au  Au26  1  0.487822  0.159300  0.500000  1
  Au  Au27  1  0.326454  0.840313  0.500000  1
  Au  Au28  1  0.681059  0.507819  0.500000  1
  Au  Au29  1  0.840313  0.326454  0.500000  1
  Au  Au30  1  0.166555  0.999023  0.000000  1
  Au  Au31  1  0.999023  0.166555  0.000000  1
  Au  Au32  1  0.833162  0.833162  0.000000  1
  Au  Au33  1  0.647869  0.001438  0.000000  1
  Au  Au34  1  0.001438  0.647869  0.000000  1
  Au  Au35  1  0.340727  0.340727  0.000000  1
