# generated using pymatgen
data_Ho4IrRu6W
_symmetry_space_group_name_H-M   'P 1'
_cell_length_a   5.48137629
_cell_length_b   5.18477680
_cell_length_c   9.02829697
_cell_angle_alpha   89.90083241
_cell_angle_beta   89.99477605
_cell_angle_gamma   121.91733014
_symmetry_Int_Tables_number   1
_chemical_formula_structural   Ho4IrRu6W
_chemical_formula_sum   'Ho4 Ir1 Ru6 W1'
_cell_volume   217.78901816
_cell_formula_units_Z   1
loop_
 _symmetry_equiv_pos_site_id
 _symmetry_equiv_pos_as_xyz
  1  'x, y, z'
loop_
 _atom_site_type_symbol
 _atom_site_label
 _atom_site_symmetry_multiplicity
 _atom_site_fract_x
 _atom_site_fract_y
 _atom_site_fract_z
 _atom_site_occupancy
  Ho  Ho0  1  0.672700  0.345433  0.563252  1
  Ho  Ho1  1  0.334991  0.670336  0.431470  1
  Ho  Ho2  1  0.334317  0.669113  0.068837  1
  Ho  Ho3  1  0.672951  0.346153  0.936724  1
  Ir  Ir4  1  0.009298  0.018076  0.498407  1
  Ru  Ru5  1  0.010057  0.020509  0.001055  1
  Ru  Ru6  1  0.170123  0.817954  0.749423  1
  Ru  Ru7  1  0.647889  0.818289  0.749417  1
  Ru  Ru8  1  0.823806  0.648155  0.249080  1
  Ru  Ru9  1  0.831717  0.164063  0.250145  1
  Ru  Ru10  1  0.333989  0.165610  0.250315  1
  W  W11  1  0.158160  0.316309  0.751875  1
