# generated using pymatgen
data_SrAc3H11
_symmetry_space_group_name_H-M   'P 1'
_cell_length_a   7.07920099
_cell_length_b   7.07920083
_cell_length_c   7.07920037
_cell_angle_alpha   131.13731952
_cell_angle_beta   131.13732047
_cell_angle_gamma   71.59499995
_symmetry_Int_Tables_number   1
_chemical_formula_structural   SrAc3H11
_chemical_formula_sum   'Sr1 Ac3 H11'
_cell_volume   196.90088842
_cell_formula_units_Z   1
loop_
 _symmetry_equiv_pos_site_id
 _symmetry_equiv_pos_as_xyz
  1  'x, y, z'
loop_
 _atom_site_type_symbol
 _atom_site_label
 _atom_site_symmetry_multiplicity
 _atom_site_fract_x
 _atom_site_fract_y
 _atom_site_fract_z
 _atom_site_occupancy
  Sr  Sr0  1  0.257368  0.257368  0.000000  1
  Ac  Ac1  1  0.498214  0.998214  0.500000  1
  Ac  Ac2  1  0.998214  0.498214  0.500000  1
  Ac  Ac3  1  0.739300  0.739300  0.000000  1
  H  H4  1  0.657803  0.107476  0.000000  1
  H  H5  1  0.355895  0.355895  0.475615  1
  H  H6  1  0.107476  0.657803  0.000000  1
  H  H7  1  0.880281  0.880281  0.524385  1
  H  H8  1  0.880281  0.355895  0.000000  1
  H  H9  1  0.657803  0.657803  0.550328  1
  H  H10  1  0.355895  0.880281  0.000000  1
  H  H11  1  0.107476  0.107476  0.449672  1
  H  H12  1  0.752840  0.252840  0.500000  1
  H  H13  1  0.498313  0.498313  0.000000  1
  H  H14  1  0.252840  0.752840  0.500000  1
