# generated using pymatgen
data_Lu12TcAgTe4
_symmetry_space_group_name_H-M   'P 1'
_cell_length_a   4.01728900
_cell_length_b   11.33756400
_cell_length_c   21.17749400
_cell_angle_alpha   90.00000000
_cell_angle_beta   90.00000000
_cell_angle_gamma   90.00000000
_symmetry_Int_Tables_number   1
_chemical_formula_structural   Lu12TcAgTe4
_chemical_formula_sum   'Lu24 Tc2 Ag2 Te8'
_cell_volume   964.55588387
_cell_formula_units_Z   2
loop_
 _symmetry_equiv_pos_site_id
 _symmetry_equiv_pos_as_xyz
  1  'x, y, z'
loop_
 _atom_site_type_symbol
 _atom_site_label
 _atom_site_symmetry_multiplicity
 _atom_site_fract_x
 _atom_site_fract_y
 _atom_site_fract_z
 _atom_site_occupancy
  Lu  Lu0  1  0.750000  0.688806  0.892554  1
  Lu  Lu1  1  0.250000  0.392127  0.466843  1
  Lu  Lu2  1  0.750000  0.892127  0.033157  1
  Lu  Lu3  1  0.750000  0.972397  0.841152  1
  Lu  Lu4  1  0.250000  0.188806  0.607446  1
  Lu  Lu5  1  0.250000  0.730673  0.270814  1
  Lu  Lu6  1  0.750000  0.102826  0.492754  1
  Lu  Lu7  1  0.750000  0.559553  0.140989  1
  Lu  Lu8  1  0.250000  0.313416  0.110398  1
  Lu  Lu9  1  0.250000  0.033565  0.152536  1
  Lu  Lu10  1  0.250000  0.472397  0.658848  1
  Lu  Lu11  1  0.250000  0.760974  0.768218  1
  Lu  Lu12  1  0.750000  0.533565  0.347464  1
  Lu  Lu13  1  0.750000  0.937593  0.638227  1
  Lu  Lu14  1  0.250000  0.602826  0.007246  1
  Lu  Lu15  1  0.750000  0.260974  0.731782  1
  Lu  Lu16  1  0.750000  0.230673  0.229186  1
  Lu  Lu17  1  0.750000  0.626440  0.515475  1
  Lu  Lu18  1  0.750000  0.813416  0.389602  1
  Lu  Lu19  1  0.250000  0.126440  0.984525  1
  Lu  Lu20  1  0.250000  0.875543  0.503795  1
  Lu  Lu21  1  0.750000  0.375543  0.996205  1
  Lu  Lu22  1  0.250000  0.437593  0.861773  1
  Lu  Lu23  1  0.250000  0.059553  0.359011  1
  Tc  Tc24  1  0.750000  0.148040  0.080784  1
  Tc  Tc25  1  0.250000  0.648040  0.419216  1
  Ag  Ag26  1  0.250000  0.867295  0.926450  1
  Ag  Ag27  1  0.750000  0.367295  0.573550  1
  Te  Te28  1  0.250000  0.763770  0.127244  1
  Te  Te29  1  0.250000  0.731789  0.626710  1
  Te  Te30  1  0.250000  0.042803  0.735804  1
  Te  Te31  1  0.750000  0.263770  0.372756  1
  Te  Te32  1  0.750000  0.542803  0.764196  1
  Te  Te33  1  0.250000  0.452391  0.238404  1
  Te  Te34  1  0.750000  0.952391  0.261596  1
  Te  Te35  1  0.750000  0.231789  0.873290  1
