# generated using pymatgen
data_Y9Tm(SiSb)4
_symmetry_space_group_name_H-M   'P 1'
_cell_length_a   8.45336301
_cell_length_b   8.45336274
_cell_length_c   7.79191700
_cell_angle_alpha   89.99800731
_cell_angle_beta   89.99801408
_cell_angle_gamma   125.29996575
_symmetry_Int_Tables_number   1
_chemical_formula_structural   Y9Tm(SiSb)4
_chemical_formula_sum   'Y9 Tm1 Si4 Sb4'
_cell_volume   454.42990735
_cell_formula_units_Z   1
loop_
 _symmetry_equiv_pos_site_id
 _symmetry_equiv_pos_as_xyz
  1  'x, y, z'
loop_
 _atom_site_type_symbol
 _atom_site_label
 _atom_site_symmetry_multiplicity
 _atom_site_fract_x
 _atom_site_fract_y
 _atom_site_fract_z
 _atom_site_occupancy
  Y  Y0  1  0.541775  0.795874  0.168074  1
  Y  Y1  1  0.295247  0.042137  0.331664  1
  Y  Y2  1  0.204126  0.458225  0.831926  1
  Y  Y3  1  0.957863  0.704753  0.668336  1
  Y  Y4  1  0.704753  0.957863  0.668336  1
  Y  Y5  1  0.458225  0.204126  0.831926  1
  Y  Y6  1  0.795874  0.541775  0.168074  1
  Y  Y7  1  0.042137  0.295247  0.331664  1
  Y  Y8  1  0.500000  0.500000  0.500000  1
  Tm  Tm9  1  0.000000  0.000000  0.000000  1
  Si  Si10  1  0.628469  0.628469  0.873453  1
  Si  Si11  1  0.127665  0.127665  0.628662  1
  Si  Si12  1  0.872335  0.872335  0.371338  1
  Si  Si13  1  0.371531  0.371531  0.126547  1
  Sb  Sb14  1  0.293003  0.706997  0.500000  1
  Sb  Sb15  1  0.205853  0.794147  0.000000  1
  Sb  Sb16  1  0.706997  0.293003  0.500000  1
  Sb  Sb17  1  0.794147  0.205853  0.000000  1
