# generated using pymatgen
data_Ti16Pt3Rh5O4
_symmetry_space_group_name_H-M   'P 1'
_cell_length_a   8.25334239
_cell_length_b   8.25334115
_cell_length_c   8.25334176
_cell_angle_alpha   60.10266834
_cell_angle_beta   60.10266316
_cell_angle_gamma   60.10266617
_symmetry_Int_Tables_number   1
_chemical_formula_structural   Ti16Pt3Rh5O4
_chemical_formula_sum   'Ti16 Pt3 Rh5 O4'
_cell_volume   398.45893038
_cell_formula_units_Z   1
loop_
 _symmetry_equiv_pos_site_id
 _symmetry_equiv_pos_as_xyz
  1  'x, y, z'
loop_
 _atom_site_type_symbol
 _atom_site_label
 _atom_site_symmetry_multiplicity
 _atom_site_fract_x
 _atom_site_fract_y
 _atom_site_fract_z
 _atom_site_occupancy
  Ti  Ti0  1  0.116396  0.626410  0.626410  1
  Ti  Ti1  1  0.626410  0.116396  0.626410  1
  Ti  Ti2  1  0.626410  0.626410  0.116396  1
  Ti  Ti3  1  0.630117  0.630117  0.630117  1
  Ti  Ti4  1  0.818321  0.818321  0.181142  1
  Ti  Ti5  1  0.181662  0.181662  0.818071  1
  Ti  Ti6  1  0.818321  0.181142  0.818321  1
  Ti  Ti7  1  0.181662  0.818071  0.181662  1
  Ti  Ti8  1  0.181142  0.818321  0.818321  1
  Ti  Ti9  1  0.818071  0.181662  0.181662  1
  Ti  Ti10  1  0.431851  0.431851  0.070498  1
  Ti  Ti11  1  0.067702  0.067702  0.432243  1
  Ti  Ti12  1  0.431851  0.070498  0.431851  1
  Ti  Ti13  1  0.067702  0.432243  0.067702  1
  Ti  Ti14  1  0.070498  0.431851  0.431851  1
  Ti  Ti15  1  0.432243  0.067702  0.067702  1
  Pt  Pt16  1  0.771820  0.409860  0.409860  1
  Pt  Pt17  1  0.409860  0.771820  0.409860  1
  Pt  Pt18  1  0.409860  0.409860  0.771820  1
  Rh  Rh19  1  0.407424  0.407424  0.407424  1
  Rh  Rh20  1  0.468731  0.844757  0.844757  1
  Rh  Rh21  1  0.844757  0.468731  0.844757  1
  Rh  Rh22  1  0.844757  0.844757  0.468731  1
  Rh  Rh23  1  0.842689  0.842689  0.842689  1
  O  O24  1  0.625228  0.124767  0.124767  1
  O  O25  1  0.124767  0.625228  0.124767  1
  O  O26  1  0.124767  0.124767  0.625228  1
  O  O27  1  0.124976  0.124976  0.124976  1
