# generated using pymatgen
data_Tb3Pa(Ta3Ge4)2
_symmetry_space_group_name_H-M   'P 1'
_cell_length_a   7.04460900
_cell_length_b   7.16885511
_cell_length_c   13.57394121
_cell_angle_alpha   89.97966158
_cell_angle_beta   90.00000000
_cell_angle_gamma   90.00000000
_symmetry_Int_Tables_number   1
_chemical_formula_structural   Tb3Pa(Ta3Ge4)2
_chemical_formula_sum   'Tb6 Pa2 Ta12 Ge16'
_cell_volume   685.50816667
_cell_formula_units_Z   2
loop_
 _symmetry_equiv_pos_site_id
 _symmetry_equiv_pos_as_xyz
  1  'x, y, z'
loop_
 _atom_site_type_symbol
 _atom_site_label
 _atom_site_symmetry_multiplicity
 _atom_site_fract_x
 _atom_site_fract_y
 _atom_site_fract_z
 _atom_site_occupancy
  Tb  Tb0  1  0.504513  0.326244  0.095266  1
  Tb  Tb1  1  0.004513  0.173756  0.404734  1
  Tb  Tb2  1  0.504525  0.327578  0.405534  1
  Tb  Tb3  1  0.004525  0.172422  0.094466  1
  Tb  Tb4  1  0.491200  0.673784  0.906561  1
  Tb  Tb5  1  0.991200  0.826216  0.593439  1
  Pa  Pa6  1  0.493518  0.673337  0.592840  1
  Pa  Pa7  1  0.993518  0.826663  0.907160  1
  Ta  Ta8  1  0.656779  0.168245  0.627019  1
  Ta  Ta9  1  0.156779  0.331755  0.872981  1
  Ta  Ta10  1  0.338986  0.831501  0.126189  1
  Ta  Ta11  1  0.838986  0.668499  0.373811  1
  Ta  Ta12  1  0.343913  0.828762  0.375257  1
  Ta  Ta13  1  0.843913  0.671238  0.124743  1
  Ta  Ta14  1  0.664924  0.163701  0.874152  1
  Ta  Ta15  1  0.164924  0.336299  0.625848  1
  Ta  Ta16  1  0.834878  0.491621  0.751233  1
  Ta  Ta17  1  0.334878  0.008379  0.748767  1
  Ta  Ta18  1  0.165579  0.513204  0.249384  1
  Ta  Ta19  1  0.665579  0.986796  0.250616  1
  Ge  Ge20  1  0.676327  0.960110  0.457060  1
  Ge  Ge21  1  0.176327  0.539890  0.042940  1
  Ge  Ge22  1  0.326609  0.042857  0.957029  1
  Ge  Ge23  1  0.826609  0.457143  0.542971  1
  Ge  Ge24  1  0.322033  0.041875  0.542836  1
  Ge  Ge25  1  0.822033  0.458125  0.957164  1
  Ge  Ge26  1  0.675017  0.958446  0.043594  1
  Ge  Ge27  1  0.175017  0.541554  0.456406  1
  Ge  Ge28  1  0.461126  0.376400  0.751748  1
  Ge  Ge29  1  0.961126  0.123600  0.748252  1
  Ge  Ge30  1  0.540443  0.622576  0.249234  1
  Ge  Ge31  1  0.040443  0.877424  0.250766  1
  Ge  Ge32  1  0.692778  0.859818  0.750612  1
  Ge  Ge33  1  0.192778  0.640182  0.749388  1
  Ge  Ge34  1  0.306850  0.139127  0.250014  1
  Ge  Ge35  1  0.806850  0.360873  0.249986  1
