# generated using pymatgen
data_LaBiPtO6
_symmetry_space_group_name_H-M   'P 1'
_cell_length_a   5.50735270
_cell_length_b   5.50594029
_cell_length_c   7.49817300
_cell_angle_alpha   111.40120947
_cell_angle_beta   111.40136163
_cell_angle_gamma   120.13293346
_symmetry_Int_Tables_number   1
_chemical_formula_structural   LaBiPtO6
_chemical_formula_sum   'La1 Bi1 Pt1 O6'
_cell_volume   134.12846245
_cell_formula_units_Z   1
loop_
 _symmetry_equiv_pos_site_id
 _symmetry_equiv_pos_as_xyz
  1  'x, y, z'
loop_
 _atom_site_type_symbol
 _atom_site_label
 _atom_site_symmetry_multiplicity
 _atom_site_fract_x
 _atom_site_fract_y
 _atom_site_fract_z
 _atom_site_occupancy
  La  La0  1  0.999310  0.000736  0.499913  1
  Bi  Bi1  1  0.165956  0.834085  0.999961  1
  Pt  Pt2  1  0.833093  0.166966  0.000067  1
  O  O3  1  0.739061  0.086794  0.218982  1
  O  O4  1  0.064564  0.697044  0.219277  1
  O  O5  1  0.350049  0.372618  0.220496  1
  O  O6  1  0.627413  0.649765  0.779655  1
  O  O7  1  0.302882  0.935118  0.780488  1
  O  O8  1  0.913650  0.260912  0.781160  1
