# generated using pymatgen
data_Pr3YTmP12Ru19
_symmetry_space_group_name_H-M   'P 1'
_cell_length_a   12.60661200
_cell_length_b   12.60661352
_cell_length_c   4.01184300
_cell_angle_alpha   90.00000000
_cell_angle_beta   90.00000000
_cell_angle_gamma   119.99999602
_symmetry_Int_Tables_number   1
_chemical_formula_structural   Pr3YTmP12Ru19
_chemical_formula_sum   'Pr3 Y1 Tm1 P12 Ru19'
_cell_volume   552.16821516
_cell_formula_units_Z   1
loop_
 _symmetry_equiv_pos_site_id
 _symmetry_equiv_pos_as_xyz
  1  'x, y, z'
loop_
 _atom_site_type_symbol
 _atom_site_label
 _atom_site_symmetry_multiplicity
 _atom_site_fract_x
 _atom_site_fract_y
 _atom_site_fract_z
 _atom_site_occupancy
  Pr  Pr0  1  0.999365  0.183756  0.500000  1
  Pr  Pr1  1  0.816244  0.815609  0.500000  1
  Pr  Pr2  1  0.184391  0.000635  0.500000  1
  Y  Y3  1  0.333333  0.666667  0.000000  1
  Tm  Tm4  1  0.666667  0.333333  0.000000  1
  P  P5  1  0.000414  0.811490  0.000000  1
  P  P6  1  0.188510  0.188924  0.000000  1
  P  P7  1  0.811076  0.999586  0.000000  1
  P  P8  1  0.694536  0.173570  0.500000  1
  P  P9  1  0.826430  0.520966  0.500000  1
  P  P10  1  0.479034  0.305464  0.500000  1
  P  P11  1  0.174324  0.695670  0.500000  1
  P  P12  1  0.521347  0.825676  0.500000  1
  P  P13  1  0.304330  0.478653  0.500000  1
  P  P14  1  0.999562  0.374215  0.000000  1
  P  P15  1  0.625785  0.625347  0.000000  1
  P  P16  1  0.374653  0.000438  0.000000  1
  Ru  Ru17  1  0.999802  0.553910  0.000000  1
  Ru  Ru18  1  0.446090  0.445891  0.000000  1
  Ru  Ru19  1  0.554109  0.000198  0.000000  1
  Ru  Ru20  1  0.000334  0.712929  0.500000  1
  Ru  Ru21  1  0.287071  0.287404  0.500000  1
  Ru  Ru22  1  0.712596  0.999666  0.500000  1
  Ru  Ru23  1  0.803406  0.185317  0.000000  1
  Ru  Ru24  1  0.814683  0.618091  0.000000  1
  Ru  Ru25  1  0.381909  0.196594  0.000000  1
  Ru  Ru26  1  0.185791  0.804453  0.000000  1
  Ru  Ru27  1  0.618664  0.814209  0.000000  1
  Ru  Ru28  1  0.195547  0.381336  0.000000  1
  Ru  Ru29  1  0.872955  0.367264  0.500000  1
  Ru  Ru30  1  0.632736  0.505691  0.500000  1
  Ru  Ru31  1  0.494309  0.127045  0.500000  1
  Ru  Ru32  1  0.368465  0.875023  0.500000  1
  Ru  Ru33  1  0.506557  0.631535  0.500000  1
  Ru  Ru34  1  0.124977  0.493443  0.500000  1
  Ru  Ru35  1  0.000000  0.000000  0.000000  1
