# generated using pymatgen
data_Ba6TmLu(WO6)3
_symmetry_space_group_name_H-M   'P 1'
_cell_length_a   5.93412839
_cell_length_b   5.93412717
_cell_length_c   14.84863452
_cell_angle_alpha   90.00000171
_cell_angle_beta   78.47352754
_cell_angle_gamma   120.00001767
_symmetry_Int_Tables_number   1
_chemical_formula_structural   Ba6TmLu(WO6)3
_chemical_formula_sum   'Ba6 Tm1 Lu1 W3 O18'
_cell_volume   440.60693392
_cell_formula_units_Z   1
loop_
 _symmetry_equiv_pos_site_id
 _symmetry_equiv_pos_as_xyz
  1  'x, y, z'
loop_
 _atom_site_type_symbol
 _atom_site_label
 _atom_site_symmetry_multiplicity
 _atom_site_fract_x
 _atom_site_fract_y
 _atom_site_fract_z
 _atom_site_occupancy
  Ba  Ba0  1  0.273366  0.636683  0.089952  1
  Ba  Ba1  1  0.823336  0.911668  0.264996  1
  Ba  Ba2  1  0.373177  0.186588  0.440235  1
  Ba  Ba3  1  0.626298  0.813149  0.560552  1
  Ba  Ba4  1  0.176121  0.088061  0.735818  1
  Ba  Ba5  1  0.727121  0.363560  0.909318  1
  Tm  Tm6  1  0.551091  0.275545  0.173363  1
  Lu  Lu7  1  0.449201  0.724601  0.826198  1
  W  W8  1  0.000617  0.000309  0.999074  1
  W  W9  1  0.104155  0.552077  0.343768  1
  W  W10  1  0.895227  0.447613  0.657160  1
  O  O11  1  0.262015  0.131007  0.076822  1
  O  O12  1  0.792170  0.131008  0.076822  1
  O  O13  1  0.792171  0.661163  0.076822  1
  O  O14  1  0.319881  0.426818  0.253301  1
  O  O15  1  0.853637  0.426819  0.253301  1
  O  O16  1  0.319879  0.893061  0.253301  1
  O  O17  1  0.901934  0.212466  0.408599  1
  O  O18  1  0.901934  0.689466  0.408599  1
  O  O19  1  0.378935  0.689467  0.408599  1
  O  O20  1  0.097330  0.310458  0.592212  1
  O  O21  1  0.620917  0.310459  0.592212  1
  O  O22  1  0.097330  0.786870  0.592212  1
  O  O23  1  0.678892  0.105255  0.747469  1
  O  O24  1  0.147277  0.573637  0.747469  1
  O  O25  1  0.678893  0.573638  0.747469  1
  O  O26  1  0.209435  0.340323  0.921451  1
  O  O27  1  0.209435  0.869113  0.921451  1
  O  O28  1  0.738225  0.869113  0.921451  1
