# generated using pymatgen
data_SrNd(Cu4Pt)2
_symmetry_space_group_name_H-M   'P 1'
_cell_length_a   4.10488500
_cell_length_b   5.34782288
_cell_length_c   8.88511248
_cell_angle_alpha   93.43612118
_cell_angle_beta   90.00000000
_cell_angle_gamma   90.00000000
_symmetry_Int_Tables_number   1
_chemical_formula_structural   SrNd(Cu4Pt)2
_chemical_formula_sum   'Sr1 Nd1 Cu8 Pt2'
_cell_volume   194.69709881
_cell_formula_units_Z   1
loop_
 _symmetry_equiv_pos_site_id
 _symmetry_equiv_pos_as_xyz
  1  'x, y, z'
loop_
 _atom_site_type_symbol
 _atom_site_label
 _atom_site_symmetry_multiplicity
 _atom_site_fract_x
 _atom_site_fract_y
 _atom_site_fract_z
 _atom_site_occupancy
  Sr  Sr0  1  0.000000  0.000000  0.000000  1
  Nd  Nd1  1  0.000000  0.500000  0.500000  1
  Cu  Cu2  1  0.000000  0.985250  0.340990  1
  Cu  Cu3  1  0.000000  0.480891  0.834930  1
  Cu  Cu4  1  0.000000  0.519109  0.165070  1
  Cu  Cu5  1  0.000000  0.014750  0.659010  1
  Cu  Cu6  1  0.500000  0.500000  0.000000  1
  Cu  Cu7  1  0.500000  0.000000  0.500000  1
  Cu  Cu8  1  0.500000  0.754466  0.252669  1
  Cu  Cu9  1  0.500000  0.245534  0.747331  1
  Pt  Pt10  1  0.500000  0.261915  0.259881  1
  Pt  Pt11  1  0.500000  0.738085  0.740119  1
