# generated using pymatgen
data_CeDy2(SiIr)2
_symmetry_space_group_name_H-M   'P 1'
_cell_length_a   5.66525918
_cell_length_b   5.66525867
_cell_length_c   13.22143745
_cell_angle_alpha   90.04954651
_cell_angle_beta   89.95045330
_cell_angle_gamma   137.84333587
_symmetry_Int_Tables_number   1
_chemical_formula_structural   CeDy2(SiIr)2
_chemical_formula_sum   'Ce2 Dy4 Si4 Ir4'
_cell_volume   284.80272259
_cell_formula_units_Z   2
loop_
 _symmetry_equiv_pos_site_id
 _symmetry_equiv_pos_as_xyz
  1  'x, y, z'
loop_
 _atom_site_type_symbol
 _atom_site_label
 _atom_site_symmetry_multiplicity
 _atom_site_fract_x
 _atom_site_fract_y
 _atom_site_fract_z
 _atom_site_occupancy
  Ce  Ce0  1  0.770882  0.229118  0.600484  1
  Ce  Ce1  1  0.229118  0.770882  0.399516  1
  Dy  Dy2  1  0.514896  0.485104  0.247693  1
  Dy  Dy3  1  0.776980  0.223020  0.896102  1
  Dy  Dy4  1  0.485104  0.514896  0.752307  1
  Dy  Dy5  1  0.223020  0.776980  0.103898  1
  Si  Si6  1  0.058743  0.941257  0.592025  1
  Si  Si7  1  0.064931  0.935069  0.910378  1
  Si  Si8  1  0.941257  0.058743  0.407975  1
  Si  Si9  1  0.935069  0.064931  0.089622  1
  Ir  Ir10  1  0.806089  0.193911  0.251950  1
  Ir  Ir11  1  0.193911  0.806089  0.748050  1
  Ir  Ir12  1  0.500000  0.500000  0.000000  1
  Ir  Ir13  1  0.500000  0.500000  0.500000  1
