# generated using pymatgen
data_HoLu5Al14(Si5Ru4)2
_symmetry_space_group_name_H-M   'P 1'
_cell_length_a   8.64450539
_cell_length_b   8.64450542
_cell_length_c   9.28080500
_cell_angle_alpha   90.00000000
_cell_angle_beta   90.00000000
_cell_angle_gamma   120.05258236
_symmetry_Int_Tables_number   1
_chemical_formula_structural   HoLu5Al14(Si5Ru4)2
_chemical_formula_sum   'Ho1 Lu5 Al14 Si10 Ru8'
_cell_volume   600.29706923
_cell_formula_units_Z   1
loop_
 _symmetry_equiv_pos_site_id
 _symmetry_equiv_pos_as_xyz
  1  'x, y, z'
loop_
 _atom_site_type_symbol
 _atom_site_label
 _atom_site_symmetry_multiplicity
 _atom_site_fract_x
 _atom_site_fract_y
 _atom_site_fract_z
 _atom_site_occupancy
  Ho  Ho0  1  0.808062  0.191938  0.750000  1
  Lu  Lu1  1  0.192467  0.389619  0.250000  1
  Lu  Lu2  1  0.806094  0.611277  0.750000  1
  Lu  Lu3  1  0.610381  0.807533  0.250000  1
  Lu  Lu4  1  0.388723  0.193906  0.750000  1
  Lu  Lu5  1  0.195463  0.804537  0.250000  1
  Al  Al6  1  0.165825  0.331336  0.581062  1
  Al  Al7  1  0.836064  0.673348  0.418125  1
  Al  Al8  1  0.668664  0.834175  0.581062  1
  Al  Al9  1  0.836064  0.673348  0.081875  1
  Al  Al10  1  0.326652  0.163936  0.418125  1
  Al  Al11  1  0.165825  0.331336  0.918938  1
  Al  Al12  1  0.164771  0.835229  0.581013  1
  Al  Al13  1  0.326652  0.163936  0.081875  1
  Al  Al14  1  0.835829  0.164171  0.417588  1
  Al  Al15  1  0.668664  0.834175  0.918938  1
  Al  Al16  1  0.835829  0.164171  0.082412  1
  Al  Al17  1  0.164771  0.835229  0.918987  1
  Al  Al18  1  0.564416  0.435584  0.250000  1
  Al  Al19  1  0.000520  0.999480  0.250000  1
  Si  Si20  1  0.333988  0.666012  0.042756  1
  Si  Si21  1  0.665581  0.334419  0.958862  1
  Si  Si22  1  0.665581  0.334419  0.541138  1
  Si  Si23  1  0.333988  0.666012  0.457244  1
  Si  Si24  1  0.563011  0.124535  0.250000  1
  Si  Si25  1  0.436269  0.874548  0.750000  1
  Si  Si26  1  0.875465  0.436989  0.250000  1
  Si  Si27  1  0.125452  0.563731  0.750000  1
  Si  Si28  1  0.438432  0.561568  0.750000  1
  Si  Si29  1  0.003970  0.996030  0.750000  1
  Ru  Ru30  1  0.498821  0.998580  0.999478  1
  Ru  Ru31  1  0.001420  0.501179  0.999478  1
  Ru  Ru32  1  0.498821  0.998580  0.500522  1
  Ru  Ru33  1  0.499410  0.500590  0.993721  1
  Ru  Ru34  1  0.001420  0.501179  0.500522  1
  Ru  Ru35  1  0.499410  0.500590  0.506279  1
  Ru  Ru36  1  0.998613  0.001387  0.992668  1
  Ru  Ru37  1  0.998613  0.001387  0.507332  1
