# generated using pymatgen
data_YbZrB6Os
_symmetry_space_group_name_H-M   'P 1'
_cell_length_a   3.56643100
_cell_length_b   9.02787300
_cell_length_c   11.40115500
_cell_angle_alpha   90.00000000
_cell_angle_beta   90.00000000
_cell_angle_gamma   90.00000000
_symmetry_Int_Tables_number   1
_chemical_formula_structural   YbZrB6Os
_chemical_formula_sum   'Yb4 Zr4 B24 Os4'
_cell_volume   367.08624976
_cell_formula_units_Z   4
loop_
 _symmetry_equiv_pos_site_id
 _symmetry_equiv_pos_as_xyz
  1  'x, y, z'
loop_
 _atom_site_type_symbol
 _atom_site_label
 _atom_site_symmetry_multiplicity
 _atom_site_fract_x
 _atom_site_fract_y
 _atom_site_fract_z
 _atom_site_occupancy
  Yb  Yb0  1  0.000000  0.322797  0.413660  1
  Yb  Yb1  1  0.000000  0.677203  0.586340  1
  Yb  Yb2  1  0.000000  0.822797  0.086340  1
  Yb  Yb3  1  0.000000  0.177203  0.913660  1
  Zr  Zr4  1  0.000000  0.944666  0.373235  1
  Zr  Zr5  1  0.000000  0.055334  0.626765  1
  Zr  Zr6  1  0.000000  0.444666  0.126765  1
  Zr  Zr7  1  0.000000  0.555334  0.873235  1
  B  B8  1  0.500000  0.553921  0.433141  1
  B  B9  1  0.500000  0.446079  0.566859  1
  B  B10  1  0.500000  0.053921  0.066859  1
  B  B11  1  0.500000  0.946079  0.933141  1
  B  B12  1  0.500000  0.750438  0.417637  1
  B  B13  1  0.500000  0.249562  0.582363  1
  B  B14  1  0.500000  0.250438  0.082363  1
  B  B15  1  0.500000  0.749562  0.917637  1
  B  B16  1  0.500000  0.793530  0.263437  1
  B  B17  1  0.500000  0.206470  0.736563  1
  B  B18  1  0.500000  0.293530  0.236563  1
  B  B19  1  0.500000  0.706470  0.763437  1
  B  B20  1  0.500000  0.631127  0.182962  1
  B  B21  1  0.500000  0.368873  0.817038  1
  B  B22  1  0.500000  0.131127  0.317038  1
  B  B23  1  0.500000  0.868873  0.682962  1
  B  B24  1  0.500000  0.982605  0.212559  1
  B  B25  1  0.500000  0.017395  0.787441  1
  B  B26  1  0.500000  0.482605  0.287441  1
  B  B27  1  0.500000  0.517395  0.712559  1
  B  B28  1  0.500000  0.601155  0.026953  1
  B  B29  1  0.500000  0.398845  0.973047  1
  B  B30  1  0.500000  0.101155  0.473047  1
  B  B31  1  0.500000  0.898845  0.526953  1
  Os  Os32  1  0.000000  0.640556  0.318168  1
  Os  Os33  1  0.000000  0.359444  0.681832  1
  Os  Os34  1  0.000000  0.140556  0.181832  1
  Os  Os35  1  0.000000  0.859444  0.818168  1
