# generated using pymatgen
data_Dy16CdAg(HgIr2)2
_symmetry_space_group_name_H-M   'P 1'
_cell_length_a   9.60158861
_cell_length_b   9.59583914
_cell_length_c   9.59583846
_cell_angle_alpha   59.90770201
_cell_angle_beta   59.94607350
_cell_angle_gamma   59.94608189
_symmetry_Int_Tables_number   1
_chemical_formula_structural   Dy16CdAg(HgIr2)2
_chemical_formula_sum   'Dy16 Cd1 Ag1 Hg2 Ir4'
_cell_volume   624.21784002
_cell_formula_units_Z   1
loop_
 _symmetry_equiv_pos_site_id
 _symmetry_equiv_pos_as_xyz
  1  'x, y, z'
loop_
 _atom_site_type_symbol
 _atom_site_label
 _atom_site_symmetry_multiplicity
 _atom_site_fract_x
 _atom_site_fract_y
 _atom_site_fract_z
 _atom_site_occupancy
  Dy  Dy0  1  0.600022  0.599537  0.599537  1
  Dy  Dy1  1  0.600696  0.600332  0.200242  1
  Dy  Dy2  1  0.600696  0.200242  0.600332  1
  Dy  Dy3  1  0.197496  0.601138  0.601138  1
  Dy  Dy4  1  0.058754  0.440339  0.440339  1
  Dy  Dy5  1  0.437048  0.060811  0.060811  1
  Dy  Dy6  1  0.439347  0.059586  0.439872  1
  Dy  Dy7  1  0.059673  0.438472  0.059910  1
  Dy  Dy8  1  0.439347  0.439872  0.059586  1
  Dy  Dy9  1  0.059673  0.059910  0.438472  1
  Dy  Dy10  1  0.186747  0.811516  0.811516  1
  Dy  Dy11  1  0.811684  0.187202  0.187202  1
  Dy  Dy12  1  0.811245  0.187448  0.811621  1
  Dy  Dy13  1  0.186503  0.811704  0.187973  1
  Dy  Dy14  1  0.811245  0.811621  0.187448  1
  Dy  Dy15  1  0.186503  0.187973  0.811704  1
  Cd  Cd16  1  0.510282  0.831100  0.831100  1
  Ag  Ag17  1  0.832276  0.834279  0.834279  1
  Hg  Hg18  1  0.834617  0.836934  0.496351  1
  Hg  Hg19  1  0.834617  0.496351  0.836934  1
  Ir  Ir20  1  0.391341  0.391826  0.391826  1
  Ir  Ir21  1  0.392641  0.393603  0.824897  1
  Ir  Ir22  1  0.392641  0.824897  0.393603  1
  Ir  Ir23  1  0.824905  0.393307  0.393307  1
