# generated using pymatgen
data_MgNbGeB2Ru5
_symmetry_space_group_name_H-M   'P 1'
_cell_length_a   9.36844124
_cell_length_b   9.36844124
_cell_length_c   2.97631900
_cell_angle_alpha   90.00000000
_cell_angle_beta   90.00000000
_cell_angle_gamma   89.42672431
_symmetry_Int_Tables_number   1
_chemical_formula_structural   MgNbGeB2Ru5
_chemical_formula_sum   'Mg2 Nb2 Ge2 B4 Ru10'
_cell_volume   261.21157122
_cell_formula_units_Z   2
loop_
 _symmetry_equiv_pos_site_id
 _symmetry_equiv_pos_as_xyz
  1  'x, y, z'
loop_
 _atom_site_type_symbol
 _atom_site_label
 _atom_site_symmetry_multiplicity
 _atom_site_fract_x
 _atom_site_fract_y
 _atom_site_fract_z
 _atom_site_occupancy
  Mg  Mg0  1  0.824181  0.675819  0.000000  1
  Mg  Mg1  1  0.175819  0.324181  0.000000  1
  Nb  Nb2  1  0.324818  0.824818  0.000000  1
  Nb  Nb3  1  0.675182  0.175182  0.000000  1
  Ge  Ge4  1  0.500000  0.500000  0.000000  1
  Ge  Ge5  1  0.000000  0.000000  0.000000  1
  B  B6  1  0.626241  0.873759  0.000000  1
  B  B7  1  0.373759  0.126241  0.000000  1
  B  B8  1  0.121587  0.621587  0.000000  1
  B  B9  1  0.878413  0.378413  0.000000  1
  Ru  Ru10  1  0.564410  0.714296  0.500000  1
  Ru  Ru11  1  0.435590  0.285704  0.500000  1
  Ru  Ru12  1  0.076654  0.788817  0.500000  1
  Ru  Ru13  1  0.923346  0.211183  0.500000  1
  Ru  Ru14  1  0.288817  0.576654  0.500000  1
  Ru  Ru15  1  0.711183  0.423346  0.500000  1
  Ru  Ru16  1  0.214296  0.064410  0.500000  1
  Ru  Ru17  1  0.785704  0.935590  0.500000  1
  Ru  Ru18  1  0.500000  0.000000  0.500000  1
  Ru  Ru19  1  0.000000  0.500000  0.500000  1
