# generated using pymatgen
data_Tm2V3Co9P7
_symmetry_space_group_name_H-M   'P 1'
_cell_length_a   9.02245100
_cell_length_b   9.02245145
_cell_length_c   3.62351100
_cell_angle_alpha   90.00000000
_cell_angle_beta   90.00000000
_cell_angle_gamma   120.00000202
_symmetry_Int_Tables_number   1
_chemical_formula_structural   Tm2V3Co9P7
_chemical_formula_sum   'Tm2 V3 Co9 P7'
_cell_volume   255.45199149
_cell_formula_units_Z   1
loop_
 _symmetry_equiv_pos_site_id
 _symmetry_equiv_pos_as_xyz
  1  'x, y, z'
loop_
 _atom_site_type_symbol
 _atom_site_label
 _atom_site_symmetry_multiplicity
 _atom_site_fract_x
 _atom_site_fract_y
 _atom_site_fract_z
 _atom_site_occupancy
  Tm  Tm0  1  0.000000  0.000000  0.000000  1
  Tm  Tm1  1  0.666667  0.333333  0.500000  1
  V  V2  1  0.453395  0.567788  0.500000  1
  V  V3  1  0.432212  0.885608  0.500000  1
  V  V4  1  0.114392  0.546605  0.500000  1
  Co  Co5  1  0.704377  0.605320  0.000000  1
  Co  Co6  1  0.394680  0.099057  0.000000  1
  Co  Co7  1  0.900943  0.295623  0.000000  1
  Co  Co8  1  0.213056  0.387874  0.000000  1
  Co  Co9  1  0.612126  0.825182  0.000000  1
  Co  Co10  1  0.174818  0.786944  0.000000  1
  Co  Co11  1  0.283207  0.230969  0.500000  1
  Co  Co12  1  0.769031  0.052237  0.500000  1
  Co  Co13  1  0.947763  0.716793  0.500000  1
  P  P14  1  0.446655  0.367499  0.000000  1
  P  P15  1  0.632501  0.079157  0.000000  1
  P  P16  1  0.920843  0.553345  0.000000  1
  P  P17  1  0.042668  0.257792  0.500000  1
  P  P18  1  0.742208  0.784877  0.500000  1
  P  P19  1  0.215123  0.957332  0.500000  1
  P  P20  1  0.333333  0.666667  0.000000  1
