# generated using pymatgen
data_Mn3Re10NiAs24
_symmetry_space_group_name_H-M   'P 1'
_cell_length_a   3.10935200
_cell_length_b   12.93780672
_cell_length_c   15.90455358
_cell_angle_alpha   90.09582990
_cell_angle_beta   90.00000000
_cell_angle_gamma   90.00000000
_symmetry_Int_Tables_number   1
_chemical_formula_structural   Mn3Re10NiAs24
_chemical_formula_sum   'Mn3 Re10 Ni1 As24'
_cell_volume   639.81059111
_cell_formula_units_Z   1
loop_
 _symmetry_equiv_pos_site_id
 _symmetry_equiv_pos_as_xyz
  1  'x, y, z'
loop_
 _atom_site_type_symbol
 _atom_site_label
 _atom_site_symmetry_multiplicity
 _atom_site_fract_x
 _atom_site_fract_y
 _atom_site_fract_z
 _atom_site_occupancy
  Mn  Mn0  1  0.000000  0.375743  0.844210  1
  Mn  Mn1  1  0.000000  0.624628  0.155958  1
  Mn  Mn2  1  0.500000  0.876318  0.654450  1
  Re  Re3  1  0.000000  0.184784  0.603655  1
  Re  Re4  1  0.000000  0.813753  0.394292  1
  Re  Re5  1  0.500000  0.685273  0.895484  1
  Re  Re6  1  0.500000  0.315243  0.102910  1
  Re  Re7  1  0.000000  0.587162  0.760950  1
  Re  Re8  1  0.000000  0.412358  0.238210  1
  Re  Re9  1  0.500000  0.085357  0.740028  1
  Re  Re10  1  0.500000  0.914840  0.262892  1
  Re  Re11  1  0.000000  0.000722  0.001270  1
  Re  Re12  1  0.500000  0.499198  0.499689  1
  Ni  Ni13  1  0.500000  0.128965  0.347611  1
  As  As14  1  0.000000  0.596179  0.596758  1
  As  As15  1  0.000000  0.402913  0.402770  1
  As  As16  1  0.500000  0.096379  0.903254  1
  As  As17  1  0.500000  0.902616  0.097211  1
  As  As18  1  0.000000  0.931964  0.760384  1
  As  As19  1  0.000000  0.066355  0.239493  1
  As  As20  1  0.500000  0.432690  0.739169  1
  As  As21  1  0.500000  0.567368  0.260794  1
  As  As22  1  0.000000  0.768583  0.240614  1
  As  As23  1  0.000000  0.230835  0.759160  1
  As  As24  1  0.500000  0.268115  0.255942  1
  As  As25  1  0.500000  0.732221  0.740394  1
  As  As26  1  0.000000  0.846467  0.905670  1
  As  As27  1  0.000000  0.155778  0.091491  1
  As  As28  1  0.500000  0.346013  0.594406  1
  As  As29  1  0.500000  0.653421  0.406727  1
  As  As30  1  0.000000  0.533269  0.919173  1
  As  As31  1  0.000000  0.467538  0.079942  1
  As  As32  1  0.500000  0.033240  0.581639  1
  As  As33  1  0.500000  0.964315  0.421777  1
  As  As34  1  0.000000  0.791961  0.559473  1
  As  As35  1  0.000000  0.208131  0.443758  1
  As  As36  1  0.500000  0.292458  0.938967  1
  As  As37  1  0.500000  0.706844  0.059428  1
