# generated using pymatgen
data_Zr6Ti4Al12CoPd6
_symmetry_space_group_name_H-M   'P 1'
_cell_length_a   8.81397453
_cell_length_b   8.81397426
_cell_length_c   8.81397400
_cell_angle_alpha   60.00000098
_cell_angle_beta   60.00000198
_cell_angle_gamma   60.00000248
_symmetry_Int_Tables_number   1
_chemical_formula_structural   Zr6Ti4Al12CoPd6
_chemical_formula_sum   'Zr6 Ti4 Al12 Co1 Pd6'
_cell_volume   484.17276218
_cell_formula_units_Z   1
loop_
 _symmetry_equiv_pos_site_id
 _symmetry_equiv_pos_as_xyz
  1  'x, y, z'
loop_
 _atom_site_type_symbol
 _atom_site_label
 _atom_site_symmetry_multiplicity
 _atom_site_fract_x
 _atom_site_fract_y
 _atom_site_fract_z
 _atom_site_occupancy
  Zr  Zr0  1  0.689951  0.310049  0.310049  1
  Zr  Zr1  1  0.689951  0.310049  0.689951  1
  Zr  Zr2  1  0.689951  0.689951  0.310049  1
  Zr  Zr3  1  0.310049  0.689951  0.689951  1
  Zr  Zr4  1  0.310049  0.689951  0.310049  1
  Zr  Zr5  1  0.310049  0.310049  0.689951  1
  Ti  Ti6  1  0.656042  0.114653  0.114653  1
  Ti  Ti7  1  0.114653  0.656042  0.114653  1
  Ti  Ti8  1  0.114653  0.114653  0.656042  1
  Ti  Ti9  1  0.114653  0.114653  0.114653  1
  Al  Al10  1  0.352441  0.882519  0.882519  1
  Al  Al11  1  0.882519  0.352441  0.882519  1
  Al  Al12  1  0.882519  0.882519  0.352441  1
  Al  Al13  1  0.882519  0.882519  0.882519  1
  Al  Al14  1  0.001159  0.332947  0.332947  1
  Al  Al15  1  0.332947  0.001159  0.332947  1
  Al  Al16  1  0.332947  0.332947  0.001159  1
  Al  Al17  1  0.332947  0.332947  0.332947  1
  Al  Al18  1  0.999598  0.666800  0.666800  1
  Al  Al19  1  0.666800  0.999598  0.666800  1
  Al  Al20  1  0.666800  0.666800  0.999598  1
  Al  Al21  1  0.666800  0.666800  0.666800  1
  Co  Co22  1  0.000000  0.000000  0.000000  1
  Pd  Pd23  1  0.499879  0.000121  0.000121  1
  Pd  Pd24  1  0.499879  0.000121  0.499879  1
  Pd  Pd25  1  0.499879  0.499879  0.000121  1
  Pd  Pd26  1  0.000121  0.499879  0.499879  1
  Pd  Pd27  1  0.000121  0.499879  0.000121  1
  Pd  Pd28  1  0.000121  0.000121  0.499879  1
