# generated using pymatgen
data_Tm2ScB2Rh5
_symmetry_space_group_name_H-M   'P 1'
_cell_length_a   9.62602300
_cell_length_b   9.62602300
_cell_length_c   3.20875500
_cell_angle_alpha   90.00000000
_cell_angle_beta   90.00000000
_cell_angle_gamma   90.00000000
_symmetry_Int_Tables_number   1
_chemical_formula_structural   Tm2ScB2Rh5
_chemical_formula_sum   'Tm4 Sc2 B4 Rh10'
_cell_volume   297.32426124
_cell_formula_units_Z   2
loop_
 _symmetry_equiv_pos_site_id
 _symmetry_equiv_pos_as_xyz
  1  'x, y, z'
loop_
 _atom_site_type_symbol
 _atom_site_label
 _atom_site_symmetry_multiplicity
 _atom_site_fract_x
 _atom_site_fract_y
 _atom_site_fract_z
 _atom_site_occupancy
  Tm  Tm0  1  0.825662  0.325662  0.000000  1
  Tm  Tm1  1  0.325662  0.174338  0.000000  1
  Tm  Tm2  1  0.674338  0.825662  0.000000  1
  Tm  Tm3  1  0.174338  0.674338  0.000000  1
  Sc  Sc4  1  0.000000  0.000000  0.000000  1
  Sc  Sc5  1  0.500000  0.500000  0.000000  1
  B  B6  1  0.620775  0.120775  0.000000  1
  B  B7  1  0.120775  0.379225  0.000000  1
  B  B8  1  0.879225  0.620775  0.000000  1
  B  B9  1  0.379225  0.879225  0.000000  1
  Rh  Rh10  1  0.071899  0.224697  0.500000  1
  Rh  Rh11  1  0.224697  0.928101  0.500000  1
  Rh  Rh12  1  0.775303  0.071899  0.500000  1
  Rh  Rh13  1  0.928101  0.775303  0.500000  1
  Rh  Rh14  1  0.428101  0.724697  0.500000  1
  Rh  Rh15  1  0.571899  0.275303  0.500000  1
  Rh  Rh16  1  0.724697  0.571899  0.500000  1
  Rh  Rh17  1  0.275303  0.428101  0.500000  1
  Rh  Rh18  1  0.500000  0.000000  0.500000  1
  Rh  Rh19  1  0.000000  0.500000  0.500000  1
