# generated using pymatgen
data_Lu2BPtRh5
_symmetry_space_group_name_H-M   'P 1'
_cell_length_a   5.78043054
_cell_length_b   5.78043096
_cell_length_c   5.81088200
_cell_angle_alpha   59.82558396
_cell_angle_beta   59.82558152
_cell_angle_gamma   60.34882332
_symmetry_Int_Tables_number   1
_chemical_formula_structural   Lu2BPtRh5
_chemical_formula_sum   'Lu2 B1 Pt1 Rh5'
_cell_volume   137.28503365
_cell_formula_units_Z   1
loop_
 _symmetry_equiv_pos_site_id
 _symmetry_equiv_pos_as_xyz
  1  'x, y, z'
loop_
 _atom_site_type_symbol
 _atom_site_label
 _atom_site_symmetry_multiplicity
 _atom_site_fract_x
 _atom_site_fract_y
 _atom_site_fract_z
 _atom_site_occupancy
  Lu  Lu0  1  0.750480  0.750480  0.749520  1
  Lu  Lu1  1  0.250480  0.250480  0.249520  1
  B  B2  1  0.496242  0.496242  0.503758  1
  Pt  Pt3  1  0.759445  0.759445  0.240555  1
  Rh  Rh4  1  0.757175  0.244351  0.242825  1
  Rh  Rh5  1  0.244351  0.757175  0.242825  1
  Rh  Rh6  1  0.240301  0.240301  0.759699  1
  Rh  Rh7  1  0.757175  0.244351  0.755649  1
  Rh  Rh8  1  0.244351  0.757175  0.755649  1
