# generated using pymatgen
data_NdEr2Sc(Co4P3)2
_symmetry_space_group_name_H-M   'P 1'
_cell_length_a   3.72726900
_cell_length_b   10.66537800
_cell_length_c   12.35335700
_cell_angle_alpha   90.00000000
_cell_angle_beta   90.00000000
_cell_angle_gamma   90.00000000
_symmetry_Int_Tables_number   1
_chemical_formula_structural   NdEr2Sc(Co4P3)2
_chemical_formula_sum   'Nd2 Er4 Sc2 Co16 P12'
_cell_volume   491.07969991
_cell_formula_units_Z   2
loop_
 _symmetry_equiv_pos_site_id
 _symmetry_equiv_pos_as_xyz
  1  'x, y, z'
loop_
 _atom_site_type_symbol
 _atom_site_label
 _atom_site_symmetry_multiplicity
 _atom_site_fract_x
 _atom_site_fract_y
 _atom_site_fract_z
 _atom_site_occupancy
  Nd  Nd0  1  0.750000  0.250000  0.471110  1
  Nd  Nd1  1  0.250000  0.750000  0.528890  1
  Er  Er2  1  0.250000  0.927661  0.795238  1
  Er  Er3  1  0.250000  0.572339  0.795238  1
  Er  Er4  1  0.750000  0.072339  0.204762  1
  Er  Er5  1  0.750000  0.427661  0.204762  1
  Sc  Sc6  1  0.250000  0.250000  0.845535  1
  Sc  Sc7  1  0.750000  0.750000  0.154465  1
  Co  Co8  1  0.250000  0.250000  0.290911  1
  Co  Co9  1  0.750000  0.750000  0.709089  1
  Co  Co10  1  0.750000  0.250000  0.012634  1
  Co  Co11  1  0.250000  0.750000  0.987366  1
  Co  Co12  1  0.250000  0.418954  0.005373  1
  Co  Co13  1  0.250000  0.081046  0.005373  1
  Co  Co14  1  0.750000  0.581046  0.994627  1
  Co  Co15  1  0.750000  0.918954  0.994627  1
  Co  Co16  1  0.250000  0.454635  0.568449  1
  Co  Co17  1  0.250000  0.045365  0.568449  1
  Co  Co18  1  0.750000  0.545365  0.431551  1
  Co  Co19  1  0.750000  0.954635  0.431551  1
  Co  Co20  1  0.250000  0.871959  0.294138  1
  Co  Co21  1  0.250000  0.628041  0.294138  1
  Co  Co22  1  0.750000  0.128041  0.705862  1
  Co  Co23  1  0.750000  0.371959  0.705862  1
  P  P24  1  0.250000  0.250000  0.113652  1
  P  P25  1  0.750000  0.750000  0.886348  1
  P  P26  1  0.250000  0.250000  0.643843  1
  P  P27  1  0.750000  0.750000  0.356157  1
  P  P28  1  0.250000  0.443478  0.382608  1
  P  P29  1  0.250000  0.056522  0.382608  1
  P  P30  1  0.750000  0.556522  0.617392  1
  P  P31  1  0.750000  0.943478  0.617392  1
  P  P32  1  0.250000  0.910951  0.107181  1
  P  P33  1  0.250000  0.589049  0.107181  1
  P  P34  1  0.750000  0.089049  0.892819  1
  P  P35  1  0.750000  0.410951  0.892819  1
