# generated using pymatgen
data_HfSc2Ru4W
_symmetry_space_group_name_H-M   'P 1'
_cell_length_a   6.37939001
_cell_length_b   6.37666501
_cell_length_c   6.39790802
_cell_angle_alpha   90.00478995
_cell_angle_beta   89.99256527
_cell_angle_gamma   89.99717033
_symmetry_Int_Tables_number   1
_chemical_formula_structural   HfSc2Ru4W
_chemical_formula_sum   'Hf2 Sc4 Ru8 W2'
_cell_volume   260.26198812
_cell_formula_units_Z   2
loop_
 _symmetry_equiv_pos_site_id
 _symmetry_equiv_pos_as_xyz
  1  'x, y, z'
loop_
 _atom_site_type_symbol
 _atom_site_label
 _atom_site_symmetry_multiplicity
 _atom_site_fract_x
 _atom_site_fract_y
 _atom_site_fract_z
 _atom_site_occupancy
  Hf  Hf0  1  0.249967  0.749997  0.499974  1
  Hf  Hf1  1  0.750034  0.250002  0.500027  1
  Sc  Sc2  1  0.750130  0.749984  0.000339  1
  Sc  Sc3  1  0.250048  0.250018  0.499626  1
  Sc  Sc4  1  0.749952  0.749980  0.500375  1
  Sc  Sc5  1  0.249871  0.250014  0.999660  1
  Ru  Ru6  1  0.500000  0.499990  0.241365  1
  Ru  Ru7  1  0.499998  0.000003  0.241354  1
  Ru  Ru8  1  0.000010  0.499990  0.241398  1
  Ru  Ru9  1  0.999995  0.000016  0.241403  1
  Ru  Ru10  1  0.999990  0.500011  0.758601  1
  Ru  Ru11  1  0.000005  0.999984  0.758596  1
  Ru  Ru12  1  0.500002  0.500010  0.758635  1
  Ru  Ru13  1  0.500003  0.999997  0.758647  1
  W  W14  1  0.749925  0.249994  0.000013  1
  W  W15  1  0.250075  0.750005  0.999987  1
