# generated using pymatgen
data_LaAl7ZnCu4
_symmetry_space_group_name_H-M   'P 1'
_cell_length_a   6.80098694
_cell_length_b   6.80098614
_cell_length_c   6.80098791
_cell_angle_alpha   98.18968822
_cell_angle_beta   98.53839025
_cell_angle_gamma   135.15988303
_symmetry_Int_Tables_number   1
_chemical_formula_structural   LaAl7ZnCu4
_chemical_formula_sum   'La1 Al7 Zn1 Cu4'
_cell_volume   205.04476668
_cell_formula_units_Z   1
loop_
 _symmetry_equiv_pos_site_id
 _symmetry_equiv_pos_as_xyz
  1  'x, y, z'
loop_
 _atom_site_type_symbol
 _atom_site_label
 _atom_site_symmetry_multiplicity
 _atom_site_fract_x
 _atom_site_fract_y
 _atom_site_fract_z
 _atom_site_occupancy
  La  La0  1  0.999874  0.000000  0.999874  1
  Al  Al1  1  0.502041  0.279033  0.781074  1
  Al  Al2  1  0.350131  0.000000  0.350131  1
  Al  Al3  1  0.997765  0.649963  0.647727  1
  Al  Al4  1  0.649458  0.000000  0.649458  1
  Al  Al5  1  0.997765  0.350037  0.347803  1
  Al  Al6  1  0.275383  0.500000  0.775383  1
  Al  Al7  1  0.502041  0.720967  0.223008  1
  Zn  Zn8  1  0.722220  0.500000  0.222220  1
  Cu  Cu9  1  0.500019  0.500519  0.502161  1
  Cu  Cu10  1  0.001643  0.002143  0.502161  1
  Cu  Cu11  1  0.001643  0.499481  0.999500  1
  Cu  Cu12  1  0.500019  0.997857  0.999500  1
