# generated using pymatgen
data_Zn22Ir2Pd
_symmetry_space_group_name_H-M   'P 1'
_cell_length_a   7.79710857
_cell_length_b   7.79711039
_cell_length_c   7.82902273
_cell_angle_alpha   72.13828857
_cell_angle_beta   72.13828550
_cell_angle_gamma   58.00428777
_symmetry_Int_Tables_number   1
_chemical_formula_structural   Zn22Ir2Pd
_chemical_formula_sum   'Zn22 Ir2 Pd1'
_cell_volume   378.02296036
_cell_formula_units_Z   1
loop_
 _symmetry_equiv_pos_site_id
 _symmetry_equiv_pos_as_xyz
  1  'x, y, z'
loop_
 _atom_site_type_symbol
 _atom_site_label
 _atom_site_symmetry_multiplicity
 _atom_site_fract_x
 _atom_site_fract_y
 _atom_site_fract_z
 _atom_site_occupancy
  Zn  Zn0  1  0.342206  0.737535  0.315345  1
  Zn  Zn1  1  0.656413  0.261451  0.686344  1
  Zn  Zn2  1  0.261451  0.656413  0.686344  1
  Zn  Zn3  1  0.737535  0.342206  0.315345  1
  Zn  Zn4  1  0.680702  0.318585  0.999277  1
  Zn  Zn5  1  0.318585  0.680702  0.999277  1
  Zn  Zn6  1  0.830819  0.830819  0.782563  1
  Zn  Zn7  1  0.169760  0.169760  0.217587  1
  Zn  Zn8  1  0.974566  0.974566  0.173334  1
  Zn  Zn9  1  0.026287  0.026287  0.825477  1
  Zn  Zn10  1  0.353517  0.353517  0.276858  1
  Zn  Zn11  1  0.647749  0.647749  0.722372  1
  Zn  Zn12  1  0.685612  0.685612  0.379743  1
  Zn  Zn13  1  0.314409  0.314409  0.620417  1
  Zn  Zn14  1  0.658890  0.024641  0.457530  1
  Zn  Zn15  1  0.343301  0.973641  0.541468  1
  Zn  Zn16  1  0.973641  0.343301  0.541468  1
  Zn  Zn17  1  0.024641  0.658890  0.457530  1
  Zn  Zn18  1  0.620445  0.996992  0.105704  1
  Zn  Zn19  1  0.380012  0.002402  0.894009  1
  Zn  Zn20  1  0.002402  0.380012  0.894009  1
  Zn  Zn21  1  0.996992  0.620445  0.105704  1
  Ir  Ir22  1  0.341684  0.341684  0.946177  1
  Ir  Ir23  1  0.000829  0.000829  0.500614  1
  Pd  Pd24  1  0.657549  0.657549  0.055503  1
