# generated using pymatgen
data_Sr2Cd8Pd3Au
_symmetry_space_group_name_H-M   'P 1'
_cell_length_a   8.46559947
_cell_length_b   8.46559978
_cell_length_c   4.53016200
_cell_angle_alpha   90.00000000
_cell_angle_beta   90.00000000
_cell_angle_gamma   90.33042501
_symmetry_Int_Tables_number   1
_chemical_formula_structural   Sr2Cd8Pd3Au
_chemical_formula_sum   'Sr2 Cd8 Pd3 Au1'
_cell_volume   324.65489905
_cell_formula_units_Z   1
loop_
 _symmetry_equiv_pos_site_id
 _symmetry_equiv_pos_as_xyz
  1  'x, y, z'
loop_
 _atom_site_type_symbol
 _atom_site_label
 _atom_site_symmetry_multiplicity
 _atom_site_fract_x
 _atom_site_fract_y
 _atom_site_fract_z
 _atom_site_occupancy
  Sr  Sr0  1  0.497869  0.502131  0.500000  1
  Sr  Sr1  1  0.004841  0.995159  0.000000  1
  Cd  Cd2  1  0.338693  0.091912  0.500000  1
  Cd  Cd3  1  0.648083  0.902281  0.500000  1
  Cd  Cd4  1  0.845023  0.413816  0.000000  1
  Cd  Cd5  1  0.156856  0.591665  0.000000  1
  Cd  Cd6  1  0.097719  0.351917  0.500000  1
  Cd  Cd7  1  0.908088  0.661307  0.500000  1
  Cd  Cd8  1  0.408335  0.843144  0.000000  1
  Cd  Cd9  1  0.586184  0.154977  0.000000  1
  Pd  Pd10  1  0.218845  0.781155  0.500000  1
  Pd  Pd11  1  0.281650  0.282344  0.000000  1
  Pd  Pd12  1  0.717656  0.718350  0.000000  1
  Au  Au13  1  0.790159  0.209841  0.500000  1
