# generated using pymatgen
data_Er11TmCo6Sn
_symmetry_space_group_name_H-M   'P 1'
_cell_length_a   8.27263739
_cell_length_b   8.27263856
_cell_length_c   8.27153009
_cell_angle_alpha   109.48333906
_cell_angle_beta   109.46804124
_cell_angle_gamma   109.46771782
_symmetry_Int_Tables_number   1
_chemical_formula_structural   Er11TmCo6Sn
_chemical_formula_sum   'Er11 Tm1 Co6 Sn1'
_cell_volume   435.73540923
_cell_formula_units_Z   1
loop_
 _symmetry_equiv_pos_site_id
 _symmetry_equiv_pos_as_xyz
  1  'x, y, z'
loop_
 _atom_site_type_symbol
 _atom_site_label
 _atom_site_symmetry_multiplicity
 _atom_site_fract_x
 _atom_site_fract_y
 _atom_site_fract_z
 _atom_site_occupancy
  Er  Er0  1  0.805059  0.502748  0.697844  1
  Er  Er1  1  0.497223  0.302196  0.194805  1
  Er  Er2  1  0.805071  0.107312  0.302113  1
  Er  Er3  1  0.502852  0.697865  0.805107  1
  Er  Er4  1  0.194802  0.497042  0.302113  1
  Er  Er5  1  0.107243  0.302255  0.805107  1
  Er  Er6  1  0.892608  0.697582  0.194805  1
  Er  Er7  1  0.195096  0.892784  0.697844  1
  Er  Er8  1  0.697784  0.805138  0.502922  1
  Er  Er9  1  0.302299  0.195003  0.497302  1
  Er  Er10  1  0.302227  0.805042  0.107270  1
  Tm  Tm11  1  0.697518  0.194883  0.892400  1
  Co  Co12  1  0.613913  0.113940  0.500231  1
  Co  Co13  1  0.886141  0.499938  0.386079  1
  Co  Co14  1  0.500073  0.386058  0.886130  1
  Co  Co15  1  0.113846  0.500000  0.613846  1
  Co  Co16  1  0.499999  0.613838  0.113837  1
  Co  Co17  1  0.386290  0.886318  0.500231  1
  Sn  Sn18  1  0.999956  0.000058  0.000013  1
