# generated using pymatgen
data_ZrCrFe4P3
_symmetry_space_group_name_H-M   'P 1'
_cell_length_a   3.62393700
_cell_length_b   10.18358400
_cell_length_c   11.71939200
_cell_angle_alpha   90.00000000
_cell_angle_beta   90.00000000
_cell_angle_gamma   90.00000000
_symmetry_Int_Tables_number   1
_chemical_formula_structural   ZrCrFe4P3
_chemical_formula_sum   'Zr4 Cr4 Fe16 P12'
_cell_volume   432.50025745
_cell_formula_units_Z   4
loop_
 _symmetry_equiv_pos_site_id
 _symmetry_equiv_pos_as_xyz
  1  'x, y, z'
loop_
 _atom_site_type_symbol
 _atom_site_label
 _atom_site_symmetry_multiplicity
 _atom_site_fract_x
 _atom_site_fract_y
 _atom_site_fract_z
 _atom_site_occupancy
  Zr  Zr0  1  0.250000  0.579667  0.704963  1
  Zr  Zr1  1  0.250000  0.920333  0.204963  1
  Zr  Zr2  1  0.750000  0.420333  0.295037  1
  Zr  Zr3  1  0.750000  0.079667  0.795037  1
  Cr  Cr4  1  0.250000  0.704086  0.990590  1
  Cr  Cr5  1  0.250000  0.795914  0.490590  1
  Cr  Cr6  1  0.750000  0.295914  0.009410  1
  Cr  Cr7  1  0.750000  0.204086  0.509410  1
  Fe  Fe8  1  0.250000  0.406165  0.487888  1
  Fe  Fe9  1  0.250000  0.093835  0.987888  1
  Fe  Fe10  1  0.750000  0.593835  0.512112  1
  Fe  Fe11  1  0.750000  0.906165  0.012112  1
  Fe  Fe12  1  0.250000  0.220670  0.174692  1
  Fe  Fe13  1  0.250000  0.279330  0.674692  1
  Fe  Fe14  1  0.750000  0.779330  0.825308  1
  Fe  Fe15  1  0.750000  0.720670  0.325308  1
  Fe  Fe16  1  0.250000  0.876528  0.701450  1
  Fe  Fe17  1  0.250000  0.623472  0.201450  1
  Fe  Fe18  1  0.750000  0.123472  0.298550  1
  Fe  Fe19  1  0.750000  0.376528  0.798550  1
  Fe  Fe20  1  0.250000  0.463733  0.931491  1
  Fe  Fe21  1  0.250000  0.036267  0.431491  1
  Fe  Fe22  1  0.750000  0.536267  0.068509  1
  Fe  Fe23  1  0.750000  0.963733  0.568509  1
  P  P24  1  0.250000  0.423150  0.114980  1
  P  P25  1  0.250000  0.076850  0.614980  1
  P  P26  1  0.750000  0.576850  0.885020  1
  P  P27  1  0.750000  0.923150  0.385020  1
  P  P28  1  0.250000  0.263232  0.866721  1
  P  P29  1  0.250000  0.236768  0.366721  1
  P  P30  1  0.750000  0.736768  0.133279  1
  P  P31  1  0.750000  0.763232  0.633279  1
  P  P32  1  0.250000  0.596877  0.391596  1
  P  P33  1  0.250000  0.903123  0.891596  1
  P  P34  1  0.750000  0.403123  0.608404  1
  P  P35  1  0.750000  0.096877  0.108404  1
