# generated using pymatgen
data_La2MgCd(GeH)2
_symmetry_space_group_name_H-M   'P 1'
_cell_length_a   4.33188900
_cell_length_b   4.33188900
_cell_length_c   8.10110300
_cell_angle_alpha   90.00000000
_cell_angle_beta   90.00000000
_cell_angle_gamma   90.00000000
_symmetry_Int_Tables_number   1
_chemical_formula_structural   La2MgCd(GeH)2
_chemical_formula_sum   'La2 Mg1 Cd1 Ge2 H2'
_cell_volume   152.01932278
_cell_formula_units_Z   1
loop_
 _symmetry_equiv_pos_site_id
 _symmetry_equiv_pos_as_xyz
  1  'x, y, z'
loop_
 _atom_site_type_symbol
 _atom_site_label
 _atom_site_symmetry_multiplicity
 _atom_site_fract_x
 _atom_site_fract_y
 _atom_site_fract_z
 _atom_site_occupancy
  La  La0  1  0.500000  0.000000  0.355497  1
  La  La1  1  0.000000  0.500000  0.644503  1
  Mg  Mg2  1  0.000000  0.000000  0.000000  1
  Cd  Cd3  1  0.500000  0.500000  0.000000  1
  Ge  Ge4  1  0.500000  0.000000  0.778536  1
  Ge  Ge5  1  0.000000  0.500000  0.221464  1
  H  H6  1  0.000000  0.000000  0.500000  1
  H  H7  1  0.500000  0.500000  0.500000  1
