# generated using pymatgen
data_NaDyP2S7
_symmetry_space_group_name_H-M   'P 1'
_cell_length_a   9.01882600
_cell_length_b   9.71323184
_cell_length_c   12.46408700
_cell_angle_alpha   90.00000000
_cell_angle_beta   90.00000000
_cell_angle_gamma   89.82786286
_symmetry_Int_Tables_number   1
_chemical_formula_structural   NaDyP2S7
_chemical_formula_sum   'Na4 Dy4 P8 S28'
_cell_volume   1091.87337141
_cell_formula_units_Z   4
loop_
 _symmetry_equiv_pos_site_id
 _symmetry_equiv_pos_as_xyz
  1  'x, y, z'
loop_
 _atom_site_type_symbol
 _atom_site_label
 _atom_site_symmetry_multiplicity
 _atom_site_fract_x
 _atom_site_fract_y
 _atom_site_fract_z
 _atom_site_occupancy
  Na  Na0  1  0.876175  0.598098  0.324451  1
  Na  Na1  1  0.623825  0.401902  0.824451  1
  Na  Na2  1  0.123825  0.401902  0.675549  1
  Na  Na3  1  0.376175  0.598098  0.175549  1
  Dy  Dy4  1  0.892479  0.858391  0.641128  1
  Dy  Dy5  1  0.607521  0.141609  0.141128  1
  Dy  Dy6  1  0.107521  0.141609  0.358872  1
  Dy  Dy7  1  0.392479  0.858391  0.858872  1
  P  P8  1  0.523289  0.722575  0.606586  1
  P  P9  1  0.023289  0.722575  0.893414  1
  P  P10  1  0.803499  0.182859  0.536668  1
  P  P11  1  0.696501  0.817141  0.036668  1
  P  P12  1  0.303499  0.182859  0.963332  1
  P  P13  1  0.196501  0.817141  0.463332  1
  P  P14  1  0.476711  0.277425  0.393414  1
  P  P15  1  0.976711  0.277425  0.106586  1
  S  S16  1  0.392284  0.622960  0.714002  1
  S  S17  1  0.675995  0.989988  0.945201  1
  S  S18  1  0.214675  0.637448  0.946140  1
  S  S19  1  0.175995  0.989988  0.554799  1
  S  S20  1  0.824005  0.010012  0.445201  1
  S  S21  1  0.077949  0.905009  0.821607  1
  S  S22  1  0.352435  0.148827  0.806327  1
  S  S23  1  0.324005  0.010012  0.054799  1
  S  S24  1  0.421399  0.751052  0.452037  1
  S  S25  1  0.921399  0.751052  0.047963  1
  S  S26  1  0.647565  0.851173  0.193673  1
  S  S27  1  0.107716  0.377040  0.214002  1
  S  S28  1  0.285325  0.362552  0.446140  1
  S  S29  1  0.607716  0.377040  0.285998  1
  S  S30  1  0.714675  0.637448  0.553860  1
  S  S31  1  0.062958  0.668988  0.525623  1
  S  S32  1  0.577949  0.905009  0.678393  1
  S  S33  1  0.785325  0.362552  0.053860  1
  S  S34  1  0.562958  0.668988  0.974377  1
  S  S35  1  0.078601  0.248948  0.952037  1
  S  S36  1  0.422051  0.094991  0.321607  1
  S  S37  1  0.852435  0.148827  0.693673  1
  S  S38  1  0.147565  0.851173  0.306327  1
  S  S39  1  0.892284  0.622960  0.785998  1
  S  S40  1  0.437042  0.331012  0.025623  1
  S  S41  1  0.937042  0.331012  0.474377  1
  S  S42  1  0.578601  0.248948  0.547963  1
  S  S43  1  0.922051  0.094991  0.178393  1
