# generated using pymatgen
data_Mn8Mo3Os
_symmetry_space_group_name_H-M   'P 1'
_cell_length_a   4.68823100
_cell_length_b   4.68823112
_cell_length_c   7.72236600
_cell_angle_alpha   90.00000000
_cell_angle_beta   90.00000000
_cell_angle_gamma   120.00000618
_symmetry_Int_Tables_number   1
_chemical_formula_structural   Mn8Mo3Os
_chemical_formula_sum   'Mn8 Mo3 Os1'
_cell_volume   146.99379478
_cell_formula_units_Z   1
loop_
 _symmetry_equiv_pos_site_id
 _symmetry_equiv_pos_as_xyz
  1  'x, y, z'
loop_
 _atom_site_type_symbol
 _atom_site_label
 _atom_site_symmetry_multiplicity
 _atom_site_fract_x
 _atom_site_fract_y
 _atom_site_fract_z
 _atom_site_occupancy
  Mn  Mn0  1  0.000000  0.000000  0.000247  1
  Mn  Mn1  1  0.172722  0.345444  0.248740  1
  Mn  Mn2  1  0.172721  0.827277  0.248740  1
  Mn  Mn3  1  0.654556  0.827277  0.248740  1
  Mn  Mn4  1  0.000000  0.000000  0.498743  1
  Mn  Mn5  1  0.344824  0.172411  0.750947  1
  Mn  Mn6  1  0.827588  0.172411  0.750947  1
  Mn  Mn7  1  0.827590  0.655176  0.750947  1
  Mo  Mo8  1  0.666667  0.333333  0.430320  1
  Mo  Mo9  1  0.333333  0.666666  0.565382  1
  Mo  Mo10  1  0.333333  0.666666  0.937935  1
  Os  Os11  1  0.666667  0.333333  0.068312  1
