# generated using pymatgen
data_LuTh3Ni4
_symmetry_space_group_name_H-M   'P 1'
_cell_length_a   4.22873700
_cell_length_b   5.59574484
_cell_length_c   14.08323616
_cell_angle_alpha   90.06322685
_cell_angle_beta   90.00000000
_cell_angle_gamma   90.00000000
_symmetry_Int_Tables_number   1
_chemical_formula_structural   LuTh3Ni4
_chemical_formula_sum   'Lu2 Th6 Ni8'
_cell_volume   333.25047457
_cell_formula_units_Z   2
loop_
 _symmetry_equiv_pos_site_id
 _symmetry_equiv_pos_as_xyz
  1  'x, y, z'
loop_
 _atom_site_type_symbol
 _atom_site_label
 _atom_site_symmetry_multiplicity
 _atom_site_fract_x
 _atom_site_fract_y
 _atom_site_fract_z
 _atom_site_occupancy
  Lu  Lu0  1  0.250000  0.545012  0.284375  1
  Lu  Lu1  1  0.750000  0.454988  0.715625  1
  Th  Th2  1  0.250000  0.954842  0.779512  1
  Th  Th3  1  0.250000  0.750074  0.534687  1
  Th  Th4  1  0.250000  0.752871  0.037706  1
  Th  Th5  1  0.750000  0.247129  0.962294  1
  Th  Th6  1  0.750000  0.045158  0.220488  1
  Th  Th7  1  0.750000  0.249926  0.465313  1
  Ni  Ni8  1  0.250000  0.045714  0.355675  1
  Ni  Ni9  1  0.750000  0.536482  0.148483  1
  Ni  Ni10  1  0.750000  0.748491  0.394048  1
  Ni  Ni11  1  0.250000  0.463518  0.851517  1
  Ni  Ni12  1  0.750000  0.954286  0.644325  1
  Ni  Ni13  1  0.750000  0.735058  0.894407  1
  Ni  Ni14  1  0.250000  0.264942  0.105593  1
  Ni  Ni15  1  0.250000  0.251509  0.605952  1
