# generated using pymatgen
data_YbHo(SnPt)2
_symmetry_space_group_name_H-M   'P 1'
_cell_length_a   7.62195754
_cell_length_b   7.63408739
_cell_length_c   7.77945500
_cell_angle_alpha   90.00000000
_cell_angle_beta   90.00000000
_cell_angle_gamma   119.93678831
_symmetry_Int_Tables_number   1
_chemical_formula_structural   YbHo(SnPt)2
_chemical_formula_sum   'Yb3 Ho3 Sn6 Pt6'
_cell_volume   392.26515743
_cell_formula_units_Z   3
loop_
 _symmetry_equiv_pos_site_id
 _symmetry_equiv_pos_as_xyz
  1  'x, y, z'
loop_
 _atom_site_type_symbol
 _atom_site_label
 _atom_site_symmetry_multiplicity
 _atom_site_fract_x
 _atom_site_fract_y
 _atom_site_fract_z
 _atom_site_occupancy
  Yb  Yb0  1  0.404281  0.004538  0.250000  1
  Yb  Yb1  1  0.595271  0.592327  0.250000  1
  Yb  Yb2  1  0.399322  0.993383  0.750000  1
  Ho  Ho3  1  0.001308  0.404721  0.250000  1
  Ho  Ho4  1  0.599318  0.600182  0.750000  1
  Ho  Ho5  1  0.000584  0.402542  0.750000  1
  Sn  Sn6  1  0.268104  0.261499  0.993908  1
  Sn  Sn7  1  0.002425  0.740513  0.003175  1
  Sn  Sn8  1  0.002425  0.740513  0.496825  1
  Sn  Sn9  1  0.729207  0.997219  0.497486  1
  Sn  Sn10  1  0.268104  0.261499  0.506092  1
  Sn  Sn11  1  0.729207  0.997219  0.002514  1
  Pt  Pt12  1  0.991356  0.998326  0.750000  1
  Pt  Pt13  1  0.002686  0.012053  0.250000  1
  Pt  Pt14  1  0.674839  0.338156  0.991035  1
  Pt  Pt15  1  0.328361  0.658577  0.502556  1
  Pt  Pt16  1  0.328361  0.658577  0.997444  1
  Pt  Pt17  1  0.674839  0.338156  0.508965  1
