# generated using pymatgen
data_KSmY9(C2I9)2
_symmetry_space_group_name_H-M   'P 1'
_cell_length_a   11.41507388
_cell_length_b   11.44235140
_cell_length_c   11.52294854
_cell_angle_alpha   113.36611738
_cell_angle_beta   86.99366163
_cell_angle_gamma   119.70440316
_symmetry_Int_Tables_number   1
_chemical_formula_structural   KSmY9(C2I9)2
_chemical_formula_sum   'K1 Sm1 Y9 C4 I18'
_cell_volume   1180.32934216
_cell_formula_units_Z   1
loop_
 _symmetry_equiv_pos_site_id
 _symmetry_equiv_pos_as_xyz
  1  'x, y, z'
loop_
 _atom_site_type_symbol
 _atom_site_label
 _atom_site_symmetry_multiplicity
 _atom_site_fract_x
 _atom_site_fract_y
 _atom_site_fract_z
 _atom_site_occupancy
  K  K0  1  0.500026  0.999915  0.500218  1
  Sm  Sm1  1  0.892121  0.056453  0.999653  1
  Y  Y2  1  0.675554  0.722980  0.709831  1
  Y  Y3  1  0.277430  0.354031  0.017354  1
  Y  Y4  1  0.093948  0.393357  0.293675  1
  Y  Y5  1  0.966218  0.038330  0.323927  1
  Y  Y6  1  0.906325  0.605764  0.705809  1
  Y  Y7  1  0.105134  0.944525  0.000471  1
  Y  Y8  1  0.034320  0.961354  0.676058  1
  Y  Y9  1  0.325446  0.277232  0.290555  1
  Y  Y10  1  0.723015  0.645652  0.982575  1
  C  C11  1  0.154019  0.222007  0.123466  1
  C  C12  1  0.847607  0.777018  0.876437  1
  C  C13  1  0.922803  0.853020  0.801190  1
  C  C14  1  0.078808  0.145963  0.198694  1
  I  I15  1  0.447680  0.529364  0.831915  1
  I  I16  1  0.384742  0.039131  0.158269  1
  I  I17  1  0.775909  0.857570  0.500780  1
  I  I18  1  0.837012  0.316598  0.157158  1
  I  I19  1  0.552832  0.470957  0.168140  1
  I  I20  1  0.224442  0.142353  0.499454  1
  I  I21  1  0.317446  0.096147  0.830011  1
  I  I22  1  0.681678  0.902596  0.171396  1
  I  I23  1  0.975734  0.755236  0.168365  1
  I  I24  1  0.932466  0.298705  0.501521  1
  I  I25  1  0.026128  0.246001  0.830218  1
  I  I26  1  0.067896  0.701338  0.498435  1
  I  I27  1  0.265277  0.627675  0.188543  1
  I  I28  1  0.734581  0.371785  0.811312  1
  I  I29  1  0.640763  0.432240  0.498266  1
  I  I30  1  0.162771  0.688681  0.846419  1
  I  I31  1  0.610860  0.958505  0.838316  1
  I  I32  1  0.359013  0.567518  0.501570  1
