# generated using pymatgen
data_Sc6NbAl12V3Ru7
_symmetry_space_group_name_H-M   'P 1'
_cell_length_a   8.75988347
_cell_length_b   8.75861305
_cell_length_c   8.77012810
_cell_angle_alpha   60.03639791
_cell_angle_beta   60.04833531
_cell_angle_gamma   59.99987544
_symmetry_Int_Tables_number   1
_chemical_formula_structural   Sc6NbAl12V3Ru7
_chemical_formula_sum   'Sc6 Nb1 Al12 V3 Ru7'
_cell_volume   476.10418837
_cell_formula_units_Z   1
loop_
 _symmetry_equiv_pos_site_id
 _symmetry_equiv_pos_as_xyz
  1  'x, y, z'
loop_
 _atom_site_type_symbol
 _atom_site_label
 _atom_site_symmetry_multiplicity
 _atom_site_fract_x
 _atom_site_fract_y
 _atom_site_fract_z
 _atom_site_occupancy
  Sc  Sc0  1  0.709877  0.709862  0.286983  1
  Sc  Sc1  1  0.293276  0.709908  0.286917  1
  Sc  Sc2  1  0.709899  0.293236  0.286995  1
  Sc  Sc3  1  0.287995  0.287875  0.711536  1
  Sc  Sc4  1  0.712555  0.287961  0.711463  1
  Sc  Sc5  1  0.287961  0.712610  0.711527  1
  Nb  Nb6  1  0.879903  0.879946  0.360255  1
  Al  Al7  1  0.120590  0.120637  0.638134  1
  Al  Al8  1  0.121022  0.640447  0.117472  1
  Al  Al9  1  0.640515  0.121018  0.117434  1
  Al  Al10  1  0.121034  0.121053  0.117478  1
  Al  Al11  1  0.665861  0.665821  0.002496  1
  Al  Al12  1  0.662450  0.006439  0.668718  1
  Al  Al13  1  0.006480  0.662397  0.668729  1
  Al  Al14  1  0.662458  0.662387  0.668736  1
  Al  Al15  1  0.335047  0.335082  0.994795  1
  Al  Al16  1  0.334707  0.995377  0.335182  1
  Al  Al17  1  0.995433  0.334700  0.335155  1
  Al  Al18  1  0.334706  0.334723  0.335180  1
  V  V19  1  0.880078  0.360031  0.879697  1
  V  V20  1  0.360065  0.880210  0.879587  1
  V  V21  1  0.880001  0.880236  0.879678  1
  Ru  Ru22  1  0.002795  0.002610  0.992049  1
  Ru  Ru23  1  0.996343  0.996288  0.506913  1
  Ru  Ru24  1  0.500398  0.996254  0.507053  1
  Ru  Ru25  1  0.996348  0.500441  0.506880  1
  Ru  Ru26  1  0.502813  0.503059  0.997656  1
  Ru  Ru27  1  0.996528  0.502932  0.997665  1
  Ru  Ru28  1  0.502859  0.996457  0.997639  1
