# generated using pymatgen
data_Tb7HoSc12Si15Ge
_symmetry_space_group_name_H-M   'P 1'
_cell_length_a   7.11446363
_cell_length_b   7.39492878
_cell_length_c   14.02505322
_cell_angle_alpha   89.99782374
_cell_angle_beta   89.83964953
_cell_angle_gamma   90.04798310
_symmetry_Int_Tables_number   1
_chemical_formula_structural   Tb7HoSc12Si15Ge
_chemical_formula_sum   'Tb7 Ho1 Sc12 Si15 Ge1'
_cell_volume   737.86825127
_cell_formula_units_Z   1
loop_
 _symmetry_equiv_pos_site_id
 _symmetry_equiv_pos_as_xyz
  1  'x, y, z'
loop_
 _atom_site_type_symbol
 _atom_site_label
 _atom_site_symmetry_multiplicity
 _atom_site_fract_x
 _atom_site_fract_y
 _atom_site_fract_z
 _atom_site_occupancy
  Tb  Tb0  1  0.011323  0.175065  0.096798  1
  Tb  Tb1  1  0.988794  0.825265  0.902783  1
  Tb  Tb2  1  0.489176  0.675009  0.903186  1
  Tb  Tb3  1  0.988996  0.825071  0.597093  1
  Tb  Tb4  1  0.511034  0.325238  0.096947  1
  Tb  Tb5  1  0.009930  0.174530  0.402942  1
  Tb  Tb6  1  0.510944  0.323852  0.402569  1
  Ho  Ho7  1  0.492247  0.676855  0.597757  1
  Sc  Sc8  1  0.162590  0.502093  0.751285  1
  Sc  Sc9  1  0.837248  0.497915  0.250118  1
  Sc  Sc10  1  0.337500  0.002134  0.250021  1
  Sc  Sc11  1  0.662301  0.997950  0.749925  1
  Sc  Sc12  1  0.335090  0.173834  0.626647  1
  Sc  Sc13  1  0.666133  0.824070  0.374137  1
  Sc  Sc14  1  0.165954  0.676993  0.374556  1
  Sc  Sc15  1  0.667786  0.823284  0.124983  1
  Sc  Sc16  1  0.831566  0.324248  0.625238  1
  Sc  Sc17  1  0.332078  0.176385  0.874392  1
  Sc  Sc18  1  0.831864  0.323282  0.874556  1
  Sc  Sc19  1  0.167732  0.676830  0.124948  1
  Si  Si20  1  0.035217  0.118202  0.749898  1
  Si  Si21  1  0.964306  0.882641  0.249651  1
  Si  Si22  1  0.463611  0.617901  0.249688  1
  Si  Si23  1  0.535288  0.383263  0.750129  1
  Si  Si24  1  0.287549  0.873190  0.749972  1
  Si  Si25  1  0.713037  0.125359  0.249600  1
  Si  Si26  1  0.212379  0.374745  0.249986  1
  Si  Si27  1  0.787333  0.625948  0.749722  1
  Si  Si28  1  0.835422  0.537454  0.459990  1
  Si  Si29  1  0.341300  0.963177  0.461206  1
  Si  Si30  1  0.842220  0.535593  0.039244  1
  Si  Si31  1  0.658670  0.035350  0.539553  1
  Si  Si32  1  0.157349  0.464391  0.960473  1
  Si  Si33  1  0.657561  0.035840  0.960563  1
  Si  Si34  1  0.342288  0.964503  0.039201  1
  Ge  Ge35  1  0.166181  0.462535  0.540248  1
