# generated using pymatgen
data_Zr10TlSi2Bi3Pb2
_symmetry_space_group_name_H-M   'P 1'
_cell_length_a   8.84298625
_cell_length_b   8.81128365
_cell_length_c   5.95172600
_cell_angle_alpha   90.00000000
_cell_angle_beta   90.00000000
_cell_angle_gamma   119.88148187
_symmetry_Int_Tables_number   1
_chemical_formula_structural   Zr10TlSi2Bi3Pb2
_chemical_formula_sum   'Zr10 Tl1 Si2 Bi3 Pb2'
_cell_volume   402.09541306
_cell_formula_units_Z   1
loop_
 _symmetry_equiv_pos_site_id
 _symmetry_equiv_pos_as_xyz
  1  'x, y, z'
loop_
 _atom_site_type_symbol
 _atom_site_label
 _atom_site_symmetry_multiplicity
 _atom_site_fract_x
 _atom_site_fract_y
 _atom_site_fract_z
 _atom_site_occupancy
  Zr  Zr0  1  0.667330  0.333277  0.002145  1
  Zr  Zr1  1  0.332670  0.665948  0.002145  1
  Zr  Zr2  1  0.332670  0.665948  0.497855  1
  Zr  Zr3  1  0.667330  0.333277  0.497855  1
  Zr  Zr4  1  0.748961  0.748685  0.750000  1
  Zr  Zr5  1  0.251039  0.999724  0.750000  1
  Zr  Zr6  1  0.000000  0.249766  0.750000  1
  Zr  Zr7  1  0.256944  0.259357  0.250000  1
  Zr  Zr8  1  0.743056  0.002413  0.250000  1
  Zr  Zr9  1  0.000000  0.741454  0.250000  1
  Tl  Tl10  1  0.000000  0.390196  0.250000  1
  Si  Si11  1  0.000000  0.000291  0.005268  1
  Si  Si12  1  0.000000  0.000291  0.494732  1
  Bi  Bi13  1  0.399014  0.398423  0.750000  1
  Bi  Bi14  1  0.600986  0.999409  0.750000  1
  Bi  Bi15  1  0.000000  0.599654  0.750000  1
  Pb  Pb16  1  0.610362  0.611125  0.250000  1
  Pb  Pb17  1  0.389638  0.000763  0.250000  1
