# generated using pymatgen
data_Tm3GeSe2O10F
_symmetry_space_group_name_H-M   'P 1'
_cell_length_a   5.97926500
_cell_length_b   10.34770300
_cell_length_c   15.60447100
_cell_angle_alpha   90.00000000
_cell_angle_beta   90.00000000
_cell_angle_gamma   90.00000000
_symmetry_Int_Tables_number   1
_chemical_formula_structural   Tm3GeSe2O10F
_chemical_formula_sum   'Tm12 Ge4 Se8 O40 F4'
_cell_volume   965.47449889
_cell_formula_units_Z   4
loop_
 _symmetry_equiv_pos_site_id
 _symmetry_equiv_pos_as_xyz
  1  'x, y, z'
loop_
 _atom_site_type_symbol
 _atom_site_label
 _atom_site_symmetry_multiplicity
 _atom_site_fract_x
 _atom_site_fract_y
 _atom_site_fract_z
 _atom_site_occupancy
  Tm  Tm0  1  0.926902  0.886135  0.655522  1
  Tm  Tm1  1  0.073098  0.113865  0.344478  1
  Tm  Tm2  1  0.250000  0.374679  0.500000  1
  Tm  Tm3  1  0.750000  0.625321  0.500000  1
  Tm  Tm4  1  0.426902  0.113865  0.655522  1
  Tm  Tm5  1  0.426902  0.386135  0.844478  1
  Tm  Tm6  1  0.573098  0.613865  0.155522  1
  Tm  Tm7  1  0.750000  0.874679  0.000000  1
  Tm  Tm8  1  0.926902  0.613865  0.844478  1
  Tm  Tm9  1  0.073098  0.386135  0.155522  1
  Tm  Tm10  1  0.573098  0.886135  0.344478  1
  Tm  Tm11  1  0.250000  0.125321  0.000000  1
  Ge  Ge12  1  0.750000  0.357606  0.000000  1
  Ge  Ge13  1  0.250000  0.857606  0.500000  1
  Ge  Ge14  1  0.750000  0.142394  0.500000  1
  Ge  Ge15  1  0.250000  0.642394  0.000000  1
  Se  Se16  1  0.028027  0.883937  0.173791  1
  Se  Se17  1  0.971973  0.116063  0.826209  1
  Se  Se18  1  0.971973  0.383937  0.673791  1
  Se  Se19  1  0.528027  0.116063  0.173791  1
  Se  Se20  1  0.528027  0.383937  0.326209  1
  Se  Se21  1  0.471973  0.616063  0.673791  1
  Se  Se22  1  0.028027  0.616063  0.326209  1
  Se  Se23  1  0.471973  0.883937  0.826209  1
  O  O24  1  0.482572  0.984341  0.915272  1
  O  O25  1  0.982572  0.015659  0.915272  1
  O  O26  1  0.241881  0.548908  0.095642  1
  O  O27  1  0.007698  0.772323  0.532494  1
  O  O28  1  0.380000  0.032559  0.252929  1
  O  O29  1  0.741881  0.451092  0.095642  1
  O  O30  1  0.017428  0.984341  0.084728  1
  O  O31  1  0.741881  0.048908  0.404358  1
  O  O32  1  0.492302  0.727677  0.032494  1
  O  O33  1  0.992302  0.227677  0.467506  1
  O  O34  1  0.492302  0.772323  0.467506  1
  O  O35  1  0.880000  0.967441  0.252929  1
  O  O36  1  0.517428  0.015659  0.084728  1
  O  O37  1  0.818497  0.781816  0.137787  1
  O  O38  1  0.982572  0.484341  0.584728  1
  O  O39  1  0.181503  0.218184  0.862213  1
  O  O40  1  0.880000  0.532559  0.247071  1
  O  O41  1  0.758119  0.048908  0.595642  1
  O  O42  1  0.241881  0.951092  0.404358  1
  O  O43  1  0.120000  0.467441  0.752929  1
  O  O44  1  0.380000  0.467441  0.247071  1
  O  O45  1  0.507698  0.227677  0.532494  1
  O  O46  1  0.318497  0.281816  0.362213  1
  O  O47  1  0.758119  0.451092  0.904358  1
  O  O48  1  0.258119  0.548908  0.904358  1
  O  O49  1  0.318497  0.218184  0.137787  1
  O  O50  1  0.507698  0.272323  0.967506  1
  O  O51  1  0.181503  0.281816  0.637787  1
  O  O52  1  0.482572  0.515659  0.584728  1
  O  O53  1  0.007698  0.727677  0.967506  1
  O  O54  1  0.818497  0.718184  0.362213  1
  O  O55  1  0.620000  0.532559  0.752929  1
  O  O56  1  0.681503  0.781816  0.862213  1
  O  O57  1  0.517428  0.484341  0.415272  1
  O  O58  1  0.258119  0.951092  0.595642  1
  O  O59  1  0.120000  0.032559  0.747071  1
  O  O60  1  0.681503  0.718184  0.637787  1
  O  O61  1  0.017428  0.515659  0.415272  1
  O  O62  1  0.992302  0.272323  0.032494  1
  O  O63  1  0.620000  0.967441  0.747071  1
  F  F64  1  0.442090  0.750000  0.250000  1
  F  F65  1  0.942090  0.250000  0.250000  1
  F  F66  1  0.557910  0.250000  0.750000  1
  F  F67  1  0.057910  0.750000  0.750000  1
