# generated using pymatgen
data_KMn6Se7
_symmetry_space_group_name_H-M   'P 1'
_cell_length_a   9.29697850
_cell_length_b   9.29697872
_cell_length_c   9.29697906
_cell_angle_alpha   61.09540910
_cell_angle_beta   61.09540785
_cell_angle_gamma   61.09541035
_symmetry_Int_Tables_number   1
_chemical_formula_structural   KMn6Se7
_chemical_formula_sum   'K2 Mn12 Se14'
_cell_volume   582.22311174
_cell_formula_units_Z   2
loop_
 _symmetry_equiv_pos_site_id
 _symmetry_equiv_pos_as_xyz
  1  'x, y, z'
loop_
 _atom_site_type_symbol
 _atom_site_label
 _atom_site_symmetry_multiplicity
 _atom_site_fract_x
 _atom_site_fract_y
 _atom_site_fract_z
 _atom_site_occupancy
  K  K0  1  0.122042  0.122042  0.122042  1
  K  K1  1  0.877958  0.877958  0.877958  1
  Mn  Mn2  1  0.608658  0.310792  0.441279  1
  Mn  Mn3  1  0.310792  0.441279  0.608658  1
  Mn  Mn4  1  0.441279  0.608658  0.310792  1
  Mn  Mn5  1  0.391342  0.689208  0.558721  1
  Mn  Mn6  1  0.689208  0.558721  0.391342  1
  Mn  Mn7  1  0.558721  0.391342  0.689208  1
  Mn  Mn8  1  0.376829  0.202502  0.501250  1
  Mn  Mn9  1  0.202502  0.501250  0.376829  1
  Mn  Mn10  1  0.501250  0.376829  0.202502  1
  Mn  Mn11  1  0.623171  0.797498  0.498750  1
  Mn  Mn12  1  0.797498  0.498750  0.623171  1
  Mn  Mn13  1  0.498750  0.623171  0.797498  1
  Se  Se14  1  0.669041  0.316605  0.912046  1
  Se  Se15  1  0.087954  0.330959  0.683395  1
  Se  Se16  1  0.277345  0.277345  0.277345  1
  Se  Se17  1  0.722655  0.722655  0.722655  1
  Se  Se18  1  0.848438  0.263953  0.518282  1
  Se  Se19  1  0.263953  0.518282  0.848438  1
  Se  Se20  1  0.518282  0.848438  0.263953  1
  Se  Se21  1  0.151562  0.736047  0.481718  1
  Se  Se22  1  0.736047  0.481718  0.151562  1
  Se  Se23  1  0.481718  0.151562  0.736047  1
  Se  Se24  1  0.330959  0.683395  0.087954  1
  Se  Se25  1  0.683395  0.087954  0.330959  1
  Se  Se26  1  0.912046  0.669041  0.316605  1
  Se  Se27  1  0.316605  0.912046  0.669041  1
