# generated using pymatgen
data_Zr5CoBi2Pb
_symmetry_space_group_name_H-M   'P 1'
_cell_length_a   5.87350000
_cell_length_b   8.86183392
_cell_length_c   8.86183395
_cell_angle_alpha   120.23063918
_cell_angle_beta   90.00000000
_cell_angle_gamma   90.00000000
_symmetry_Int_Tables_number   1
_chemical_formula_structural   Zr5CoBi2Pb
_chemical_formula_sum   'Zr10 Co2 Bi4 Pb2'
_cell_volume   398.52978855
_cell_formula_units_Z   2
loop_
 _symmetry_equiv_pos_site_id
 _symmetry_equiv_pos_as_xyz
  1  'x, y, z'
loop_
 _atom_site_type_symbol
 _atom_site_label
 _atom_site_symmetry_multiplicity
 _atom_site_fract_x
 _atom_site_fract_y
 _atom_site_fract_z
 _atom_site_occupancy
  Zr  Zr0  1  0.750000  0.760163  0.760163  1
  Zr  Zr1  1  0.250000  0.239837  0.239837  1
  Zr  Zr2  1  0.750000  0.002722  0.245633  1
  Zr  Zr3  1  0.250000  0.997278  0.754367  1
  Zr  Zr4  1  0.750000  0.245633  0.002722  1
  Zr  Zr5  1  0.250000  0.754367  0.997278  1
  Zr  Zr6  1  0.000000  0.667305  0.332695  1
  Zr  Zr7  1  0.000000  0.332695  0.667305  1
  Zr  Zr8  1  0.500000  0.332695  0.667305  1
  Zr  Zr9  1  0.500000  0.667305  0.332695  1
  Co  Co10  1  0.000000  0.000000  0.000000  1
  Co  Co11  1  0.500000  0.000000  0.000000  1
  Bi  Bi12  1  0.750000  0.000255  0.607424  1
  Bi  Bi13  1  0.250000  0.999745  0.392576  1
  Bi  Bi14  1  0.750000  0.607424  0.000255  1
  Bi  Bi15  1  0.250000  0.392576  0.999745  1
  Pb  Pb16  1  0.750000  0.398906  0.398906  1
  Pb  Pb17  1  0.250000  0.601094  0.601094  1
