# generated using pymatgen
data_Er8B24OsRu3
_symmetry_space_group_name_H-M   'P 1'
_cell_length_a   3.63291100
_cell_length_b   9.10452554
_cell_length_c   11.47634568
_cell_angle_alpha   90.03942805
_cell_angle_beta   90.00000000
_cell_angle_gamma   90.00000000
_symmetry_Int_Tables_number   1
_chemical_formula_structural   Er8B24OsRu3
_chemical_formula_sum   'Er8 B24 Os1 Ru3'
_cell_volume   379.59072772
_cell_formula_units_Z   1
loop_
 _symmetry_equiv_pos_site_id
 _symmetry_equiv_pos_as_xyz
  1  'x, y, z'
loop_
 _atom_site_type_symbol
 _atom_site_label
 _atom_site_symmetry_multiplicity
 _atom_site_fract_x
 _atom_site_fract_y
 _atom_site_fract_z
 _atom_site_occupancy
  Er  Er0  1  0.000000  0.322800  0.414014  1
  Er  Er1  1  0.000000  0.677747  0.586412  1
  Er  Er2  1  0.000000  0.822466  0.085871  1
  Er  Er3  1  0.000000  0.177280  0.913937  1
  Er  Er4  1  0.000000  0.943866  0.372182  1
  Er  Er5  1  0.000000  0.056376  0.626993  1
  Er  Er6  1  0.000000  0.443748  0.127808  1
  Er  Er7  1  0.000000  0.555504  0.872719  1
  B  B8  1  0.500000  0.554051  0.433408  1
  B  B9  1  0.500000  0.446041  0.566554  1
  B  B10  1  0.500000  0.054054  0.066708  1
  B  B11  1  0.500000  0.946216  0.933518  1
  B  B12  1  0.500000  0.748296  0.420306  1
  B  B13  1  0.500000  0.251910  0.579583  1
  B  B14  1  0.500000  0.248337  0.079759  1
  B  B15  1  0.500000  0.751554  0.920235  1
  B  B16  1  0.500000  0.791737  0.266249  1
  B  B17  1  0.500000  0.208212  0.733613  1
  B  B18  1  0.500000  0.291774  0.233804  1
  B  B19  1  0.500000  0.707947  0.766298  1
  B  B20  1  0.500000  0.632067  0.185123  1
  B  B21  1  0.500000  0.367763  0.814928  1
  B  B22  1  0.500000  0.132139  0.314906  1
  B  B23  1  0.500000  0.868036  0.685186  1
  B  B24  1  0.500000  0.983326  0.212896  1
  B  B25  1  0.500000  0.016988  0.787046  1
  B  B26  1  0.500000  0.483306  0.287173  1
  B  B27  1  0.500000  0.516628  0.712867  1
  B  B28  1  0.500000  0.607707  0.030050  1
  B  B29  1  0.500000  0.391855  0.970179  1
  B  B30  1  0.500000  0.108182  0.469842  1
  B  B31  1  0.500000  0.892180  0.529762  1
  Os  Os32  1  0.000000  0.862241  0.821326  1
  Ru  Ru33  1  0.000000  0.637795  0.321228  1
  Ru  Ru34  1  0.000000  0.362143  0.678891  1
  Ru  Ru35  1  0.000000  0.137731  0.178626  1
