# generated using pymatgen
data_Cd3SbP6N13
_symmetry_space_group_name_H-M   'P 1'
_cell_length_a   7.32542308
_cell_length_b   7.31556789
_cell_length_c   7.31556883
_cell_angle_alpha   109.44391629
_cell_angle_beta   109.49851783
_cell_angle_gamma   109.49851615
_symmetry_Int_Tables_number   1
_chemical_formula_structural   Cd3SbP6N13
_chemical_formula_sum   'Cd3 Sb1 P6 N13'
_cell_volume   301.68972763
_cell_formula_units_Z   1
loop_
 _symmetry_equiv_pos_site_id
 _symmetry_equiv_pos_as_xyz
  1  'x, y, z'
loop_
 _atom_site_type_symbol
 _atom_site_label
 _atom_site_symmetry_multiplicity
 _atom_site_fract_x
 _atom_site_fract_y
 _atom_site_fract_z
 _atom_site_occupancy
  Cd  Cd0  1  0.001858  0.000000  0.701742  1
  Cd  Cd1  1  0.001858  0.701742  0.000000  1
  Cd  Cd2  1  0.300116  0.298258  0.298258  1
  Sb  Sb3  1  0.705859  0.000000  0.000000  1
  P  P4  1  0.247424  0.748348  0.497632  1
  P  P5  1  0.749792  0.250716  0.502368  1
  P  P6  1  0.749792  0.502368  0.250716  1
  P  P7  1  0.247424  0.497632  0.748348  1
  P  P8  1  0.499076  0.749284  0.251652  1
  P  P9  1  0.499076  0.251652  0.749284  1
  N  N10  1  0.996241  0.000000  0.000000  1
  N  N11  1  0.712930  0.282378  0.282378  1
  N  N12  1  0.279231  0.712938  0.279620  1
  N  N13  1  0.293937  0.572316  0.572316  1
  N  N14  1  0.566294  0.566682  0.287062  1
  N  N15  1  0.430552  0.717622  0.000000  1
  N  N16  1  0.999611  0.720380  0.433318  1
  N  N17  1  0.566294  0.287062  0.566682  1
  N  N18  1  0.721620  0.000000  0.427684  1
  N  N19  1  0.430552  0.000000  0.717622  1
  N  N20  1  0.721620  0.427684  0.000000  1
  N  N21  1  0.279231  0.279620  0.712938  1
  N  N22  1  0.999611  0.433318  0.720380  1
