# generated using pymatgen
data_La5Pr3(IrI6)2
_symmetry_space_group_name_H-M   'P 1'
_cell_length_a   4.42926300
_cell_length_b   14.63844658
_cell_length_c   15.46433600
_cell_angle_alpha   89.83246619
_cell_angle_beta   90.00000000
_cell_angle_gamma   90.00000000
_symmetry_Int_Tables_number   1
_chemical_formula_structural   La5Pr3(IrI6)2
_chemical_formula_sum   'La5 Pr3 Ir2 I12'
_cell_volume   1002.66506000
_cell_formula_units_Z   1
loop_
 _symmetry_equiv_pos_site_id
 _symmetry_equiv_pos_as_xyz
  1  'x, y, z'
loop_
 _atom_site_type_symbol
 _atom_site_label
 _atom_site_symmetry_multiplicity
 _atom_site_fract_x
 _atom_site_fract_y
 _atom_site_fract_z
 _atom_site_occupancy
  La  La0  1  0.500000  0.106185  0.357095  1
  La  La1  1  0.500000  0.892314  0.641985  1
  La  La2  1  0.500000  0.606291  0.140931  1
  La  La3  1  0.500000  0.394433  0.859931  1
  La  La4  1  0.000000  0.120692  0.582176  1
  Pr  Pr5  1  0.000000  0.880882  0.418869  1
  Pr  Pr6  1  0.000000  0.620290  0.918462  1
  Pr  Pr7  1  0.000000  0.379927  0.082208  1
  Ir  Ir8  1  0.500000  0.000728  0.500640  1
  Ir  Ir9  1  0.500000  0.500177  0.000393  1
  I  I10  1  0.500000  0.240879  0.174044  1
  I  I11  1  0.500000  0.757461  0.824637  1
  I  I12  1  0.500000  0.742691  0.324639  1
  I  I13  1  0.500000  0.260733  0.676176  1
  I  I14  1  0.000000  0.258952  0.417166  1
  I  I15  1  0.000000  0.740299  0.578877  1
  I  I16  1  0.000000  0.758434  0.078828  1
  I  I17  1  0.000000  0.241998  0.921408  1
  I  I18  1  0.000000  0.995124  0.240852  1
  I  I19  1  0.000000  0.000839  0.760174  1
  I  I20  1  0.000000  0.496271  0.257684  1
  I  I21  1  0.000000  0.504400  0.742824  1
