# generated using pymatgen
data_Sr2Ir(S2O7)4
_symmetry_space_group_name_H-M   'P 1'
_cell_length_a   13.17397000
_cell_length_b   7.14658736
_cell_length_c   13.61870000
_cell_angle_alpha   65.69296529
_cell_angle_beta   90.00000000
_cell_angle_gamma   90.00000000
_symmetry_Int_Tables_number   1
_chemical_formula_structural   Sr2Ir(S2O7)4
_chemical_formula_sum   'Sr4 Ir2 S16 O56'
_cell_volume   1168.52372811
_cell_formula_units_Z   2
loop_
 _symmetry_equiv_pos_site_id
 _symmetry_equiv_pos_as_xyz
  1  'x, y, z'
loop_
 _atom_site_type_symbol
 _atom_site_label
 _atom_site_symmetry_multiplicity
 _atom_site_fract_x
 _atom_site_fract_y
 _atom_site_fract_z
 _atom_site_occupancy
  Sr  Sr0  1  0.634841  0.641005  0.159902  1
  Sr  Sr1  1  0.865159  0.641005  0.659902  1
  Sr  Sr2  1  0.365159  0.358995  0.840098  1
  Sr  Sr3  1  0.134841  0.358995  0.340098  1
  Ir  Ir4  1  0.500000  0.000000  0.500000  1
  Ir  Ir5  1  0.000000  0.000000  0.000000  1
  S  S6  1  0.528958  0.184681  0.102441  1
  S  S7  1  0.971042  0.184681  0.602441  1
  S  S8  1  0.471042  0.815319  0.897559  1
  S  S9  1  0.028958  0.815319  0.397559  1
  S  S10  1  0.414480  0.263510  0.266796  1
  S  S11  1  0.085520  0.263510  0.766796  1
  S  S12  1  0.585520  0.736490  0.733204  1
  S  S13  1  0.914480  0.736490  0.233204  1
  S  S14  1  0.723939  0.120542  0.408059  1
  S  S15  1  0.776061  0.120542  0.908059  1
  S  S16  1  0.276061  0.879458  0.591941  1
  S  S17  1  0.223939  0.879458  0.091941  1
  S  S18  1  0.653484  0.712337  0.440362  1
  S  S19  1  0.846516  0.712337  0.940362  1
  S  S20  1  0.346516  0.287663  0.559638  1
  S  S21  1  0.153484  0.287663  0.059638  1
  O  O22  1  0.474045  0.073695  0.344461  1
  O  O23  1  0.025955  0.073695  0.844461  1
  O  O24  1  0.525955  0.926305  0.655539  1
  O  O25  1  0.974045  0.926305  0.155539  1
  O  O26  1  0.603322  0.308202  0.126828  1
  O  O27  1  0.896678  0.308202  0.626828  1
  O  O28  1  0.396678  0.691798  0.873172  1
  O  O29  1  0.103322  0.691798  0.373172  1
  O  O30  1  0.629783  0.156201  0.465641  1
  O  O31  1  0.870217  0.156201  0.965641  1
  O  O32  1  0.370217  0.843799  0.534359  1
  O  O33  1  0.129783  0.843799  0.034359  1
  O  O34  1  0.414857  0.221198  0.162443  1
  O  O35  1  0.085143  0.221198  0.662443  1
  O  O36  1  0.585143  0.778802  0.837557  1
  O  O37  1  0.914857  0.778802  0.337557  1
  O  O38  1  0.543483  0.965354  0.156374  1
  O  O39  1  0.956517  0.965354  0.656374  1
  O  O40  1  0.456517  0.034646  0.843626  1
  O  O41  1  0.043483  0.034646  0.343626  1
  O  O42  1  0.309451  0.251327  0.298374  1
  O  O43  1  0.190549  0.251327  0.798374  1
  O  O44  1  0.690549  0.748673  0.701626  1
  O  O45  1  0.809451  0.748673  0.201626  1
  O  O46  1  0.467985  0.450795  0.249580  1
  O  O47  1  0.032015  0.450795  0.749580  1
  O  O48  1  0.532015  0.549205  0.750420  1
  O  O49  1  0.967985  0.549205  0.250420  1
  O  O50  1  0.804730  0.031159  0.483597  1
  O  O51  1  0.695270  0.031159  0.983597  1
  O  O52  1  0.195270  0.968841  0.516403  1
  O  O53  1  0.304730  0.968841  0.016403  1
  O  O54  1  0.742826  0.302422  0.312355  1
  O  O55  1  0.757174  0.302422  0.812355  1
  O  O56  1  0.257174  0.697578  0.687645  1
  O  O57  1  0.242826  0.697578  0.187645  1
  O  O58  1  0.493681  0.262473  0.992653  1
  O  O59  1  0.006319  0.262473  0.492653  1
  O  O60  1  0.506319  0.737527  0.007347  1
  O  O61  1  0.993681  0.737527  0.507347  1
  O  O62  1  0.686115  0.954361  0.361381  1
  O  O63  1  0.813885  0.954361  0.861381  1
  O  O64  1  0.313885  0.045639  0.638619  1
  O  O65  1  0.186115  0.045639  0.138619  1
  O  O66  1  0.561928  0.734574  0.501969  1
  O  O67  1  0.938072  0.734574  0.001969  1
  O  O68  1  0.438072  0.265426  0.498031  1
  O  O69  1  0.061928  0.265426  0.998031  1
  O  O70  1  0.627067  0.633133  0.362714  1
  O  O71  1  0.872933  0.633133  0.862714  1
  O  O72  1  0.372933  0.366867  0.637286  1
  O  O73  1  0.127067  0.366867  0.137286  1
  O  O74  1  0.736791  0.617167  0.512124  1
  O  O75  1  0.763209  0.617167  0.012124  1
  O  O76  1  0.263209  0.382833  0.487876  1
  O  O77  1  0.236791  0.382833  0.987876  1
