# generated using pymatgen
data_HfTiI6
_symmetry_space_group_name_H-M   'P 1'
_cell_length_a   7.70503700
_cell_length_b   7.70503658
_cell_length_c   6.46941200
_cell_angle_alpha   90.00000000
_cell_angle_beta   90.00000000
_cell_angle_gamma   120.00000612
_symmetry_Int_Tables_number   1
_chemical_formula_structural   HfTiI6
_chemical_formula_sum   'Hf1 Ti1 I6'
_cell_volume   332.61731073
_cell_formula_units_Z   1
loop_
 _symmetry_equiv_pos_site_id
 _symmetry_equiv_pos_as_xyz
  1  'x, y, z'
loop_
 _atom_site_type_symbol
 _atom_site_label
 _atom_site_symmetry_multiplicity
 _atom_site_fract_x
 _atom_site_fract_y
 _atom_site_fract_z
 _atom_site_occupancy
  Hf  Hf0  1  0.000000  0.000000  0.500000  1
  Ti  Ti1  1  0.000000  0.000000  0.000000  1
  I  I2  1  0.304696  0.000000  0.245139  1
  I  I3  1  0.695304  0.000000  0.754861  1
  I  I4  1  0.000000  0.304696  0.245139  1
  I  I5  1  0.304696  0.304696  0.754861  1
  I  I6  1  0.000000  0.695304  0.754861  1
  I  I7  1  0.695304  0.695304  0.245139  1
