# generated using pymatgen
data_LiPr8In7Rh8
_symmetry_space_group_name_H-M   'P 1'
_cell_length_a   4.19332200
_cell_length_b   7.74298800
_cell_length_c   16.91371739
_cell_angle_alpha   89.84119211
_cell_angle_beta   90.00000000
_cell_angle_gamma   90.00000000
_symmetry_Int_Tables_number   1
_chemical_formula_structural   LiPr8In7Rh8
_chemical_formula_sum   'Li1 Pr8 In7 Rh8'
_cell_volume   549.16670701
_cell_formula_units_Z   1
loop_
 _symmetry_equiv_pos_site_id
 _symmetry_equiv_pos_as_xyz
  1  'x, y, z'
loop_
 _atom_site_type_symbol
 _atom_site_label
 _atom_site_symmetry_multiplicity
 _atom_site_fract_x
 _atom_site_fract_y
 _atom_site_fract_z
 _atom_site_occupancy
  Li  Li0  1  0.250000  0.993672  0.438496  1
  Pr  Pr1  1  0.750000  0.444491  0.218117  1
  Pr  Pr2  1  0.750000  0.954545  0.286778  1
  Pr  Pr3  1  0.750000  0.838097  0.062225  1
  Pr  Pr4  1  0.250000  0.048006  0.714179  1
  Pr  Pr5  1  0.250000  0.164240  0.937990  1
  Pr  Pr6  1  0.250000  0.553296  0.782665  1
  Pr  Pr7  1  0.750000  0.332567  0.440047  1
  Pr  Pr8  1  0.250000  0.665781  0.560652  1
  In  In9  1  0.750000  0.499123  0.936169  1
  In  In10  1  0.750000  0.999114  0.557486  1
  In  In11  1  0.250000  0.628853  0.349157  1
  In  In12  1  0.750000  0.377316  0.651209  1
  In  In13  1  0.750000  0.879878  0.847677  1
  In  In14  1  0.250000  0.501378  0.064969  1
  In  In15  1  0.250000  0.120081  0.153016  1
  Rh  Rh16  1  0.250000  0.246430  0.562250  1
  Rh  Rh17  1  0.750000  0.251498  0.064715  1
  Rh  Rh18  1  0.250000  0.256385  0.313863  1
  Rh  Rh19  1  0.750000  0.250099  0.813739  1
  Rh  Rh20  1  0.250000  0.746397  0.935906  1
  Rh  Rh21  1  0.750000  0.749716  0.684985  1
  Rh  Rh22  1  0.750000  0.746841  0.436234  1
  Rh  Rh23  1  0.250000  0.752198  0.187477  1
