# generated using pymatgen
data_Lu3Np(ReB6)2
_symmetry_space_group_name_H-M   'P 1'
_cell_length_a   3.63434400
_cell_length_b   9.07937733
_cell_length_c   11.42587237
_cell_angle_alpha   90.21077529
_cell_angle_beta   90.00000000
_cell_angle_gamma   90.00000000
_symmetry_Int_Tables_number   1
_chemical_formula_structural   Lu3Np(ReB6)2
_chemical_formula_sum   'Lu6 Np2 Re4 B24'
_cell_volume   377.02359226
_cell_formula_units_Z   2
loop_
 _symmetry_equiv_pos_site_id
 _symmetry_equiv_pos_as_xyz
  1  'x, y, z'
loop_
 _atom_site_type_symbol
 _atom_site_label
 _atom_site_symmetry_multiplicity
 _atom_site_fract_x
 _atom_site_fract_y
 _atom_site_fract_z
 _atom_site_occupancy
  Lu  Lu0  1  0.000000  0.822522  0.085462  1
  Lu  Lu1  1  0.000000  0.177478  0.914538  1
  Lu  Lu2  1  0.000000  0.944787  0.372351  1
  Lu  Lu3  1  0.000000  0.055213  0.627649  1
  Lu  Lu4  1  0.000000  0.443692  0.127203  1
  Lu  Lu5  1  0.000000  0.556308  0.872797  1
  Np  Np6  1  0.000000  0.321248  0.413478  1
  Np  Np7  1  0.000000  0.678752  0.586522  1
  Re  Re8  1  0.000000  0.636656  0.323781  1
  Re  Re9  1  0.000000  0.363344  0.676219  1
  Re  Re10  1  0.000000  0.140516  0.181387  1
  Re  Re11  1  0.000000  0.859484  0.818613  1
  B  B12  1  0.500000  0.552984  0.433722  1
  B  B13  1  0.500000  0.447016  0.566278  1
  B  B14  1  0.500000  0.053316  0.066164  1
  B  B15  1  0.500000  0.946684  0.933836  1
  B  B16  1  0.500000  0.750698  0.420114  1
  B  B17  1  0.500000  0.249302  0.579886  1
  B  B18  1  0.500000  0.249875  0.079390  1
  B  B19  1  0.500000  0.750125  0.920610  1
  B  B20  1  0.500000  0.793279  0.264738  1
  B  B21  1  0.500000  0.206721  0.735262  1
  B  B22  1  0.500000  0.293709  0.234290  1
  B  B23  1  0.500000  0.706291  0.765710  1
  B  B24  1  0.500000  0.631150  0.184237  1
  B  B25  1  0.500000  0.368850  0.815763  1
  B  B26  1  0.500000  0.131934  0.315383  1
  B  B27  1  0.500000  0.868066  0.684617  1
  B  B28  1  0.500000  0.981101  0.211873  1
  B  B29  1  0.500000  0.018899  0.788127  1
  B  B30  1  0.500000  0.481338  0.286693  1
  B  B31  1  0.500000  0.518662  0.713307  1
  B  B32  1  0.500000  0.602301  0.028678  1
  B  B33  1  0.500000  0.397699  0.971322  1
  B  B34  1  0.500000  0.105632  0.470777  1
  B  B35  1  0.500000  0.894368  0.529223  1
