# generated using pymatgen
data_TiGe2B4Ru10W3
_symmetry_space_group_name_H-M   'P 1'
_cell_length_a   9.32137841
_cell_length_b   9.32137862
_cell_length_c   2.92674000
_cell_angle_alpha   90.00000000
_cell_angle_beta   90.00000000
_cell_angle_gamma   90.24779239
_symmetry_Int_Tables_number   1
_chemical_formula_structural   TiGe2B4Ru10W3
_chemical_formula_sum   'Ti1 Ge2 B4 Ru10 W3'
_cell_volume   254.29649205
_cell_formula_units_Z   1
loop_
 _symmetry_equiv_pos_site_id
 _symmetry_equiv_pos_as_xyz
  1  'x, y, z'
loop_
 _atom_site_type_symbol
 _atom_site_label
 _atom_site_symmetry_multiplicity
 _atom_site_fract_x
 _atom_site_fract_y
 _atom_site_fract_z
 _atom_site_occupancy
  Ti  Ti0  1  0.676793  0.176793  0.000000  1
  Ge  Ge1  1  0.501458  0.497822  0.000000  1
  Ge  Ge2  1  0.997822  0.001458  0.000000  1
  B  B3  1  0.624674  0.876574  0.000000  1
  B  B4  1  0.376574  0.124674  0.000000  1
  B  B5  1  0.124943  0.624943  0.000000  1
  B  B6  1  0.875008  0.375008  0.000000  1
  Ru  Ru7  1  0.565785  0.713744  0.500000  1
  Ru  Ru8  1  0.427475  0.286700  0.500000  1
  Ru  Ru9  1  0.067721  0.785945  0.500000  1
  Ru  Ru10  1  0.937102  0.216678  0.500000  1
  Ru  Ru11  1  0.285945  0.567721  0.500000  1
  Ru  Ru12  1  0.716678  0.437102  0.500000  1
  Ru  Ru13  1  0.213744  0.065785  0.500000  1
  Ru  Ru14  1  0.786700  0.927475  0.500000  1
  Ru  Ru15  1  0.498516  0.998516  0.500000  1
  Ru  Ru16  1  0.000798  0.500798  0.500000  1
  W  W17  1  0.821803  0.677612  0.000000  1
  W  W18  1  0.177612  0.321803  0.000000  1
  W  W19  1  0.322848  0.822848  0.000000  1
