# generated using pymatgen
data_CaSc3As6Rh7
_symmetry_space_group_name_H-M   'P 1'
_cell_length_a   7.17397844
_cell_length_b   7.17397690
_cell_length_c   7.17397850
_cell_angle_alpha   109.60103304
_cell_angle_beta   109.60102371
_cell_angle_gamma   109.60103079
_symmetry_Int_Tables_number   1
_chemical_formula_structural   CaSc3As6Rh7
_chemical_formula_sum   'Ca1 Sc3 As6 Rh7'
_cell_volume   282.84811925
_cell_formula_units_Z   1
loop_
 _symmetry_equiv_pos_site_id
 _symmetry_equiv_pos_as_xyz
  1  'x, y, z'
loop_
 _atom_site_type_symbol
 _atom_site_label
 _atom_site_symmetry_multiplicity
 _atom_site_fract_x
 _atom_site_fract_y
 _atom_site_fract_z
 _atom_site_occupancy
  Ca  Ca0  1  0.500000  0.500000  0.500000  1
  Sc  Sc1  1  0.000000  0.000000  0.500000  1
  Sc  Sc2  1  0.500000  0.000000  0.000000  1
  Sc  Sc3  1  0.000000  0.500000  0.000000  1
  As  As4  1  0.685260  0.685260  0.003088  1
  As  As5  1  0.314740  0.314740  0.996912  1
  As  As6  1  0.003088  0.685260  0.685260  1
  As  As7  1  0.996912  0.314740  0.314740  1
  As  As8  1  0.685260  0.003088  0.685260  1
  As  As9  1  0.314740  0.996912  0.314740  1
  Rh  Rh10  1  0.000000  0.000000  0.000000  1
  Rh  Rh11  1  0.245271  0.500000  0.754729  1
  Rh  Rh12  1  0.754729  0.245271  0.500000  1
  Rh  Rh13  1  0.500000  0.245271  0.754729  1
  Rh  Rh14  1  0.500000  0.754729  0.245271  1
  Rh  Rh15  1  0.754729  0.500000  0.245271  1
  Rh  Rh16  1  0.245271  0.754729  0.500000  1
