# generated using pymatgen
data_Sr4La6Si8O3
_symmetry_space_group_name_H-M   'P 1'
_cell_length_a   11.02887600
_cell_length_b   11.10479167
_cell_length_c   4.70304400
_cell_angle_alpha   90.00000000
_cell_angle_beta   90.00000000
_cell_angle_gamma   119.77411357
_symmetry_Int_Tables_number   1
_chemical_formula_structural   Sr4La6Si8O3
_chemical_formula_sum   'Sr4 La6 Si8 O3'
_cell_volume   499.96014162
_cell_formula_units_Z   1
loop_
 _symmetry_equiv_pos_site_id
 _symmetry_equiv_pos_as_xyz
  1  'x, y, z'
loop_
 _atom_site_type_symbol
 _atom_site_label
 _atom_site_symmetry_multiplicity
 _atom_site_fract_x
 _atom_site_fract_y
 _atom_site_fract_z
 _atom_site_occupancy
  Sr  Sr0  1  0.209432  0.790741  0.000000  1
  Sr  Sr1  1  0.581310  0.790741  0.000000  1
  Sr  Sr2  1  0.786784  0.573569  0.000000  1
  Sr  Sr3  1  0.209954  0.419907  0.000000  1
  La  La4  1  0.005303  0.503410  0.500000  1
  La  La5  1  0.000207  0.000413  0.000000  1
  La  La6  1  0.425417  0.213171  0.000000  1
  La  La7  1  0.498107  0.503410  0.500000  1
  La  La8  1  0.787753  0.213171  0.000000  1
  La  La9  1  0.495874  0.991748  0.500000  1
  Si  Si10  1  0.002427  0.790604  0.500000  1
  Si  Si11  1  0.998707  0.215121  0.500000  1
  Si  Si12  1  0.216414  0.215121  0.500000  1
  Si  Si13  1  0.786294  0.004136  0.500000  1
  Si  Si14  1  0.332752  0.665505  0.500000  1
  Si  Si15  1  0.217842  0.004136  0.500000  1
  Si  Si16  1  0.662255  0.324509  0.500000  1
  Si  Si17  1  0.788177  0.790604  0.500000  1
  O  O18  1  0.980558  0.481615  0.000000  1
  O  O19  1  0.501057  0.481615  0.000000  1
  O  O20  1  0.513375  0.026751  0.000000  1
