# generated using pymatgen
data_RbTb3CBr6
_symmetry_space_group_name_H-M   'P 1'
_cell_length_a   8.74533021
_cell_length_b   8.80457618
_cell_length_c   9.45636186
_cell_angle_alpha   70.87256681
_cell_angle_beta   85.05358429
_cell_angle_gamma   89.14464733
_symmetry_Int_Tables_number   1
_chemical_formula_structural   RbTb3CBr6
_chemical_formula_sum   'Rb2 Tb6 C2 Br12'
_cell_volume   685.30052904
_cell_formula_units_Z   2
loop_
 _symmetry_equiv_pos_site_id
 _symmetry_equiv_pos_as_xyz
  1  'x, y, z'
loop_
 _atom_site_type_symbol
 _atom_site_label
 _atom_site_symmetry_multiplicity
 _atom_site_fract_x
 _atom_site_fract_y
 _atom_site_fract_z
 _atom_site_occupancy
  Rb  Rb0  1  0.468209  0.358019  0.331179  1
  Rb  Rb1  1  0.531792  0.641981  0.668821  1
  Tb  Tb2  1  0.915541  0.741326  0.005122  1
  Tb  Tb3  1  0.084459  0.258674  0.994877  1
  Tb  Tb4  1  0.739383  0.086781  0.000844  1
  Tb  Tb5  1  0.260616  0.913219  0.999157  1
  Tb  Tb6  1  0.973497  0.885179  0.325869  1
  Tb  Tb7  1  0.026502  0.114821  0.674132  1
  C  C8  1  0.006245  0.026903  0.920491  1
  C  C9  1  0.993754  0.973097  0.079509  1
  Br  Br10  1  0.080750  0.198458  0.326974  1
  Br  Br11  1  0.919250  0.801542  0.673026  1
  Br  Br12  1  0.207855  0.590646  0.000643  1
  Br  Br13  1  0.792146  0.409354  0.999357  1
  Br  Br14  1  0.405476  0.202867  0.003357  1
  Br  Br15  1  0.594523  0.797134  0.996642  1
  Br  Br16  1  0.664149  0.003789  0.326662  1
  Br  Br17  1  0.335851  0.996211  0.673338  1
  Br  Br18  1  0.283831  0.771271  0.323435  1
  Br  Br19  1  0.716169  0.228729  0.676565  1
  Br  Br20  1  0.847800  0.587510  0.326793  1
  Br  Br21  1  0.152199  0.412490  0.673207  1
