# generated using pymatgen
data_LiSnRhS4
_symmetry_space_group_name_H-M   'P 1'
_cell_length_a   7.36563872
_cell_length_b   7.36563869
_cell_length_c   7.39438500
_cell_angle_alpha   59.87080909
_cell_angle_beta   59.87080922
_cell_angle_gamma   59.91250516
_symmetry_Int_Tables_number   1
_chemical_formula_structural   LiSnRhS4
_chemical_formula_sum   'Li2 Sn2 Rh2 S8'
_cell_volume   282.92426315
_cell_formula_units_Z   2
loop_
 _symmetry_equiv_pos_site_id
 _symmetry_equiv_pos_as_xyz
  1  'x, y, z'
loop_
 _atom_site_type_symbol
 _atom_site_label
 _atom_site_symmetry_multiplicity
 _atom_site_fract_x
 _atom_site_fract_y
 _atom_site_fract_z
 _atom_site_occupancy
  Li  Li0  1  0.252388  0.252388  0.247612  1
  Li  Li1  1  0.997612  0.997612  0.002388  1
  Sn  Sn2  1  0.625000  0.625000  0.125000  1
  Sn  Sn3  1  0.625000  0.625000  0.625000  1
  Rh  Rh4  1  0.125000  0.625000  0.625000  1
  Rh  Rh5  1  0.625000  0.125000  0.625000  1
  S  S6  1  0.398292  0.890973  0.855369  1
  S  S7  1  0.870465  0.870465  0.417273  1
  S  S8  1  0.870465  0.870465  0.841796  1
  S  S9  1  0.851708  0.359027  0.394631  1
  S  S10  1  0.359027  0.851708  0.394631  1
  S  S11  1  0.379535  0.379535  0.832727  1
  S  S12  1  0.890973  0.398292  0.855369  1
  S  S13  1  0.379535  0.379535  0.408204  1
