# generated using pymatgen
data_Ba3Ca2In(ReN4)2
_symmetry_space_group_name_H-M   'P 1'
_cell_length_a   10.75375738
_cell_length_b   10.43101100
_cell_length_c   8.15772336
_cell_angle_alpha   69.46026442
_cell_angle_beta   65.27482043
_cell_angle_gamma   45.26490846
_symmetry_Int_Tables_number   1
_chemical_formula_structural   Ba3Ca2In(ReN4)2
_chemical_formula_sum   'Ba6 Ca4 In2 Re4 N16'
_cell_volume   588.18078491
_cell_formula_units_Z   2
loop_
 _symmetry_equiv_pos_site_id
 _symmetry_equiv_pos_as_xyz
  1  'x, y, z'
loop_
 _atom_site_type_symbol
 _atom_site_label
 _atom_site_symmetry_multiplicity
 _atom_site_fract_x
 _atom_site_fract_y
 _atom_site_fract_z
 _atom_site_occupancy
  Ba  Ba0  1  0.318020  0.681980  0.681980  1
  Ba  Ba1  1  0.115612  0.115612  0.884388  1
  Ba  Ba2  1  0.132648  0.132648  0.367352  1
  Ba  Ba3  1  0.367352  0.367352  0.132648  1
  Ba  Ba4  1  0.681980  0.318020  0.318020  1
  Ba  Ba5  1  0.884388  0.884388  0.115612  1
  Ca  Ca6  1  0.334409  0.334409  0.665591  1
  Ca  Ca7  1  0.886041  0.886041  0.613959  1
  Ca  Ca8  1  0.665591  0.665591  0.334409  1
  Ca  Ca9  1  0.613959  0.613959  0.886041  1
  In  In10  1  0.531173  0.968827  0.968827  1
  In  In11  1  0.968827  0.531173  0.531173  1
  Re  Re12  1  0.481432  0.018568  0.481432  1
  Re  Re13  1  0.018568  0.481432  0.018568  1
  Re  Re14  1  0.752056  0.247944  0.752056  1
  Re  Re15  1  0.247944  0.752056  0.247944  1
  N  N16  1  0.050115  0.628563  0.837132  1
  N  N17  1  0.707898  0.300942  0.974599  1
  N  N18  1  0.628563  0.050115  0.484190  1
  N  N19  1  0.484190  0.837132  0.628563  1
  N  N20  1  0.267316  0.567487  0.410243  1
  N  N21  1  0.754955  0.410243  0.567487  1
  N  N22  1  0.974599  0.016561  0.707898  1
  N  N23  1  0.540373  0.981414  0.242403  1
  N  N24  1  0.410243  0.754955  0.267316  1
  N  N25  1  0.981414  0.540373  0.235810  1
  N  N26  1  0.300942  0.707898  0.016561  1
  N  N27  1  0.837132  0.484190  0.050115  1
  N  N28  1  0.235810  0.242403  0.981414  1
  N  N29  1  0.567487  0.267316  0.754955  1
  N  N30  1  0.242403  0.235810  0.540373  1
  N  N31  1  0.016561  0.974599  0.300942  1
