# generated using pymatgen
data_Sr20Si11Ag
_symmetry_space_group_name_H-M   'P 1'
_cell_length_a   8.18059900
_cell_length_b   8.18059900
_cell_length_c   15.73104200
_cell_angle_alpha   90.00000000
_cell_angle_beta   90.00000000
_cell_angle_gamma   90.00000000
_symmetry_Int_Tables_number   1
_chemical_formula_structural   Sr20Si11Ag
_chemical_formula_sum   'Sr20 Si11 Ag1'
_cell_volume   1052.75593891
_cell_formula_units_Z   1
loop_
 _symmetry_equiv_pos_site_id
 _symmetry_equiv_pos_as_xyz
  1  'x, y, z'
loop_
 _atom_site_type_symbol
 _atom_site_label
 _atom_site_symmetry_multiplicity
 _atom_site_fract_x
 _atom_site_fract_y
 _atom_site_fract_z
 _atom_site_occupancy
  Sr  Sr0  1  0.333894  0.689606  0.111380  1
  Sr  Sr1  1  0.189606  0.166106  0.111380  1
  Sr  Sr2  1  0.500000  0.000000  0.736318  1
  Sr  Sr3  1  0.315869  0.674148  0.392465  1
  Sr  Sr4  1  0.668039  0.687629  0.888635  1
  Sr  Sr5  1  0.174148  0.184131  0.392465  1
  Sr  Sr6  1  0.684131  0.325852  0.392465  1
  Sr  Sr7  1  0.176588  0.818122  0.607517  1
  Sr  Sr8  1  0.331961  0.312371  0.888635  1
  Sr  Sr9  1  0.187629  0.831961  0.888635  1
  Sr  Sr10  1  0.500000  0.000000  0.268226  1
  Sr  Sr11  1  0.823412  0.181878  0.607517  1
  Sr  Sr12  1  0.318122  0.323412  0.607517  1
  Sr  Sr13  1  0.825852  0.815869  0.392465  1
  Sr  Sr14  1  0.812371  0.168039  0.888635  1
  Sr  Sr15  1  0.810394  0.833894  0.111380  1
  Sr  Sr16  1  0.000000  0.500000  0.247306  1
  Sr  Sr17  1  0.000000  0.500000  0.748662  1
  Sr  Sr18  1  0.666106  0.310394  0.111380  1
  Sr  Sr19  1  0.681878  0.676588  0.607517  1
  Si  Si20  1  0.106430  0.108737  0.748912  1
  Si  Si21  1  0.391263  0.606430  0.748912  1
  Si  Si22  1  0.608833  0.606392  0.251042  1
  Si  Si23  1  0.500000  0.000000  0.998909  1
  Si  Si24  1  0.106392  0.891167  0.251042  1
  Si  Si25  1  0.608737  0.393570  0.748912  1
  Si  Si26  1  0.893570  0.891263  0.748912  1
  Si  Si27  1  0.391167  0.393608  0.251042  1
  Si  Si28  1  0.893608  0.108833  0.251042  1
  Si  Si29  1  0.500000  0.000000  0.499212  1
  Si  Si30  1  0.000000  0.500000  0.501017  1
  Ag  Ag31  1  0.000000  0.500000  0.000547  1
