# generated using pymatgen
data_La2Nd5PI12
_symmetry_space_group_name_H-M   'P 1'
_cell_length_a   9.98025102
_cell_length_b   10.00346562
_cell_length_c   9.99924072
_cell_angle_alpha   107.68946442
_cell_angle_beta   107.54350142
_cell_angle_gamma   107.71004271
_symmetry_Int_Tables_number   1
_chemical_formula_structural   La2Nd5PI12
_chemical_formula_sum   'La2 Nd5 P1 I12'
_cell_volume   816.25409456
_cell_formula_units_Z   1
loop_
 _symmetry_equiv_pos_site_id
 _symmetry_equiv_pos_as_xyz
  1  'x, y, z'
loop_
 _atom_site_type_symbol
 _atom_site_label
 _atom_site_symmetry_multiplicity
 _atom_site_fract_x
 _atom_site_fract_y
 _atom_site_fract_z
 _atom_site_occupancy
  La  La0  1  0.400880  0.190277  0.474066  1
  La  La1  1  0.982261  0.982875  0.981928  1
  Nd  Nd2  1  0.531786  0.603495  0.803637  1
  Nd  Nd3  1  0.804078  0.532892  0.602301  1
  Nd  Nd4  1  0.602722  0.803652  0.531857  1
  Nd  Nd5  1  0.474263  0.403423  0.197315  1
  Nd  Nd6  1  0.196359  0.473085  0.402203  1
  P  P7  1  0.498296  0.497545  0.498796  1
  I  I8  1  0.271995  0.811982  0.422184  1
  I  I9  1  0.423855  0.276226  0.819608  1
  I  I10  1  0.814483  0.423269  0.273537  1
  I  I11  1  0.735089  0.187501  0.576727  1
  I  I12  1  0.574742  0.729055  0.186540  1
  I  I13  1  0.186034  0.574907  0.728321  1
  I  I14  1  0.030610  0.114871  0.341063  1
  I  I15  1  0.342932  0.035429  0.110205  1
  I  I16  1  0.115433  0.343931  0.036701  1
  I  I17  1  0.966262  0.882777  0.641178  1
  I  I18  1  0.641130  0.966196  0.881847  1
  I  I19  1  0.882160  0.641982  0.965356  1
