# generated using pymatgen
data_K4SbSeBr12
_symmetry_space_group_name_H-M   'P 1'
_cell_length_a   7.91904921
_cell_length_b   7.48710612
_cell_length_c   12.81482200
_cell_angle_alpha   54.43781118
_cell_angle_beta   90.54191614
_cell_angle_gamma   91.26347443
_symmetry_Int_Tables_number   1
_chemical_formula_structural   K4SbSeBr12
_chemical_formula_sum   'K4 Sb1 Se1 Br12'
_cell_volume   617.93059473
_cell_formula_units_Z   1
loop_
 _symmetry_equiv_pos_site_id
 _symmetry_equiv_pos_as_xyz
  1  'x, y, z'
loop_
 _atom_site_type_symbol
 _atom_site_label
 _atom_site_symmetry_multiplicity
 _atom_site_fract_x
 _atom_site_fract_y
 _atom_site_fract_z
 _atom_site_occupancy
  K  K0  1  0.576350  0.730030  0.251956  1
  K  K1  1  0.076018  0.266749  0.251854  1
  K  K2  1  0.423650  0.269970  0.748044  1
  K  K3  1  0.923982  0.733251  0.748146  1
  Sb  Sb4  1  0.000000  0.000000  0.000000  1
  Se  Se5  1  0.500000  0.000000  0.500000  1
  Br  Br6  1  0.995574  0.821013  0.254358  1
  Br  Br7  1  0.490790  0.169447  0.256259  1
  Br  Br8  1  0.004426  0.178987  0.745642  1
  Br  Br9  1  0.509210  0.830553  0.743741  1
  Br  Br10  1  0.684654  0.680336  0.539944  1
  Br  Br11  1  0.194052  0.341693  0.955928  1
  Br  Br12  1  0.315346  0.319664  0.460056  1
  Br  Br13  1  0.805948  0.658307  0.044072  1
  Br  Br14  1  0.713884  0.224563  0.965817  1
  Br  Br15  1  0.224169  0.772093  0.535792  1
  Br  Br16  1  0.286116  0.775437  0.034183  1
  Br  Br17  1  0.775831  0.227907  0.464208  1
