# generated using pymatgen
data_Nb7GaS12
_symmetry_space_group_name_H-M   'P 1'
_cell_length_a   5.81846900
_cell_length_b   5.81846928
_cell_length_c   13.85332300
_cell_angle_alpha   90.00000000
_cell_angle_beta   90.00000000
_cell_angle_gamma   120.00000409
_symmetry_Int_Tables_number   1
_chemical_formula_structural   Nb7GaS12
_chemical_formula_sum   'Nb7 Ga1 S12'
_cell_volume   406.16457710
_cell_formula_units_Z   1
loop_
 _symmetry_equiv_pos_site_id
 _symmetry_equiv_pos_as_xyz
  1  'x, y, z'
loop_
 _atom_site_type_symbol
 _atom_site_label
 _atom_site_symmetry_multiplicity
 _atom_site_fract_x
 _atom_site_fract_y
 _atom_site_fract_z
 _atom_site_occupancy
  Nb  Nb0  1  0.000000  0.000000  0.522707  1
  Nb  Nb1  1  0.000000  0.000000  0.977293  1
  Nb  Nb2  1  0.333333  0.666667  0.976242  1
  Nb  Nb3  1  0.666667  0.333333  0.978047  1
  Nb  Nb4  1  0.666667  0.333333  0.521953  1
  Nb  Nb5  1  0.333333  0.666667  0.523758  1
  Nb  Nb6  1  0.666667  0.333333  0.750000  1
  Ga  Ga7  1  0.333333  0.666667  0.250000  1
  S  S8  1  0.332733  0.334613  0.409461  1
  S  S9  1  0.665387  0.998120  0.409461  1
  S  S10  1  0.001880  0.667267  0.409461  1
  S  S11  1  0.331543  0.332198  0.637368  1
  S  S12  1  0.000655  0.668457  0.637368  1
  S  S13  1  0.667802  0.999345  0.637368  1
  S  S14  1  0.667802  0.668457  0.862632  1
  S  S15  1  0.331543  0.999345  0.862632  1
  S  S16  1  0.000655  0.332198  0.862632  1
  S  S17  1  0.665387  0.667267  0.090539  1
  S  S18  1  0.001880  0.334613  0.090539  1
  S  S19  1  0.332733  0.998120  0.090539  1
