# generated using pymatgen
data_YEr2Al12IrOs3
_symmetry_space_group_name_H-M   'P 1'
_cell_length_a   8.82364116
_cell_length_b   8.81422890
_cell_length_c   9.54514500
_cell_angle_alpha   90.00000000
_cell_angle_beta   90.00000000
_cell_angle_gamma   119.71365713
_symmetry_Int_Tables_number   1
_chemical_formula_structural   YEr2Al12IrOs3
_chemical_formula_sum   'Y2 Er4 Al24 Ir2 Os6'
_cell_volume   644.74979366
_cell_formula_units_Z   2
loop_
 _symmetry_equiv_pos_site_id
 _symmetry_equiv_pos_as_xyz
  1  'x, y, z'
loop_
 _atom_site_type_symbol
 _atom_site_label
 _atom_site_symmetry_multiplicity
 _atom_site_fract_x
 _atom_site_fract_y
 _atom_site_fract_z
 _atom_site_occupancy
  Y  Y0  1  0.188501  0.384933  0.250000  1
  Y  Y1  1  0.811499  0.615067  0.750000  1
  Er  Er2  1  0.612395  0.810484  0.250000  1
  Er  Er3  1  0.387605  0.189516  0.750000  1
  Er  Er4  1  0.196019  0.804043  0.250000  1
  Er  Er5  1  0.803981  0.195957  0.750000  1
  Al  Al6  1  0.332969  0.666948  0.021018  1
  Al  Al7  1  0.667031  0.333052  0.978982  1
  Al  Al8  1  0.667031  0.333052  0.521018  1
  Al  Al9  1  0.332969  0.666948  0.478982  1
  Al  Al10  1  0.162443  0.325586  0.576992  1
  Al  Al11  1  0.837557  0.674414  0.423008  1
  Al  Al12  1  0.674400  0.837828  0.576338  1
  Al  Al13  1  0.837557  0.674414  0.076992  1
  Al  Al14  1  0.325600  0.162172  0.423662  1
  Al  Al15  1  0.162443  0.325586  0.923008  1
  Al  Al16  1  0.164082  0.836562  0.574565  1
  Al  Al17  1  0.325600  0.162172  0.076338  1
  Al  Al18  1  0.835918  0.163438  0.425435  1
  Al  Al19  1  0.674400  0.837828  0.923662  1
  Al  Al20  1  0.835918  0.163438  0.074565  1
  Al  Al21  1  0.164082  0.836562  0.925435  1
  Al  Al22  1  0.559965  0.122740  0.250000  1
  Al  Al23  1  0.440035  0.877260  0.750000  1
  Al  Al24  1  0.876944  0.439976  0.250000  1
  Al  Al25  1  0.123056  0.560024  0.750000  1
  Al  Al26  1  0.560896  0.439543  0.250000  1
  Al  Al27  1  0.439104  0.560457  0.750000  1
  Al  Al28  1  0.998787  0.997375  0.250000  1
  Al  Al29  1  0.001213  0.002625  0.750000  1
  Ir  Ir30  1  0.500000  0.500000  0.000000  1
  Ir  Ir31  1  0.500000  0.500000  0.500000  1
  Os  Os32  1  0.500000  0.000000  0.000000  1
  Os  Os33  1  0.000000  0.500000  0.000000  1
  Os  Os34  1  0.500000  0.000000  0.500000  1
  Os  Os35  1  0.000000  0.500000  0.500000  1
  Os  Os36  1  0.000000  0.000000  0.000000  1
  Os  Os37  1  0.000000  0.000000  0.500000  1
