# generated using pymatgen
data_Sr4NiH12Pd
_symmetry_space_group_name_H-M   'P 1'
_cell_length_a   7.46198911
_cell_length_b   7.46199045
_cell_length_c   5.48871596
_cell_angle_alpha   89.59291416
_cell_angle_beta   89.59291112
_cell_angle_gamma   136.79010509
_symmetry_Int_Tables_number   1
_chemical_formula_structural   Sr4NiH12Pd
_chemical_formula_sum   'Sr4 Ni1 H12 Pd1'
_cell_volume   209.20997239
_cell_formula_units_Z   1
loop_
 _symmetry_equiv_pos_site_id
 _symmetry_equiv_pos_as_xyz
  1  'x, y, z'
loop_
 _atom_site_type_symbol
 _atom_site_label
 _atom_site_symmetry_multiplicity
 _atom_site_fract_x
 _atom_site_fract_y
 _atom_site_fract_z
 _atom_site_occupancy
  Sr  Sr0  1  0.645403  0.354597  0.000000  1
  Sr  Sr1  1  0.354597  0.645403  0.000000  1
  Sr  Sr2  1  0.854078  0.145922  0.500000  1
  Sr  Sr3  1  0.145922  0.854078  0.500000  1
  Ni  Ni4  1  0.000000  0.000000  0.000000  1
  H  H5  1  0.888571  0.111429  0.000000  1
  H  H6  1  0.111429  0.888571  0.000000  1
  H  H7  1  0.620868  0.379132  0.500000  1
  H  H8  1  0.379132  0.620868  0.500000  1
  H  H9  1  0.000476  0.501460  0.249230  1
  H  H10  1  0.999524  0.498540  0.750770  1
  H  H11  1  0.498540  0.999524  0.750770  1
  H  H12  1  0.501460  0.000476  0.249230  1
  H  H13  1  0.198666  0.198666  0.203277  1
  H  H14  1  0.801334  0.801334  0.796723  1
  H  H15  1  0.274297  0.274297  0.730359  1
  H  H16  1  0.725703  0.725703  0.269641  1
  Pd  Pd17  1  0.500000  0.500000  0.500000  1
