# generated using pymatgen
data_Th2Sc3GeSb3
_symmetry_space_group_name_H-M   'P 1'
_cell_length_a   7.80108100
_cell_length_b   7.74309300
_cell_length_c   14.76729500
_cell_angle_alpha   90.00000000
_cell_angle_beta   90.00000000
_cell_angle_gamma   90.00000000
_symmetry_Int_Tables_number   1
_chemical_formula_structural   Th2Sc3GeSb3
_chemical_formula_sum   'Th8 Sc12 Ge4 Sb12'
_cell_volume   892.01100708
_cell_formula_units_Z   4
loop_
 _symmetry_equiv_pos_site_id
 _symmetry_equiv_pos_as_xyz
  1  'x, y, z'
loop_
 _atom_site_type_symbol
 _atom_site_label
 _atom_site_symmetry_multiplicity
 _atom_site_fract_x
 _atom_site_fract_y
 _atom_site_fract_z
 _atom_site_occupancy
  Th  Th0  1  0.017146  0.681576  0.599621  1
  Th  Th1  1  0.982854  0.318424  0.400379  1
  Th  Th2  1  0.482854  0.181576  0.400379  1
  Th  Th3  1  0.982854  0.318424  0.099621  1
  Th  Th4  1  0.517146  0.818424  0.599621  1
  Th  Th5  1  0.017146  0.681576  0.900379  1
  Th  Th6  1  0.517146  0.818424  0.900379  1
  Th  Th7  1  0.482854  0.181576  0.099621  1
  Sc  Sc8  1  0.178140  0.991958  0.750000  1
  Sc  Sc9  1  0.821860  0.008042  0.250000  1
  Sc  Sc10  1  0.321860  0.491958  0.250000  1
  Sc  Sc11  1  0.678140  0.508042  0.750000  1
  Sc  Sc12  1  0.348104  0.360355  0.626850  1
  Sc  Sc13  1  0.651896  0.639645  0.373150  1
  Sc  Sc14  1  0.151896  0.860355  0.373150  1
  Sc  Sc15  1  0.651896  0.639645  0.126850  1
  Sc  Sc16  1  0.848104  0.139645  0.626850  1
  Sc  Sc17  1  0.348104  0.360355  0.873150  1
  Sc  Sc18  1  0.848104  0.139645  0.873150  1
  Sc  Sc19  1  0.151896  0.860355  0.126850  1
  Ge  Ge20  1  0.323249  0.650581  0.750000  1
  Ge  Ge21  1  0.676751  0.349419  0.250000  1
  Ge  Ge22  1  0.176751  0.150581  0.250000  1
  Ge  Ge23  1  0.823249  0.849419  0.750000  1
  Sb  Sb24  1  0.042645  0.364962  0.750000  1
  Sb  Sb25  1  0.957355  0.635038  0.250000  1
  Sb  Sb26  1  0.457355  0.864962  0.250000  1
  Sb  Sb27  1  0.542645  0.135038  0.750000  1
  Sb  Sb28  1  0.196971  0.054326  0.546667  1
  Sb  Sb29  1  0.803029  0.945674  0.453333  1
  Sb  Sb30  1  0.303029  0.554326  0.453333  1
  Sb  Sb31  1  0.803029  0.945674  0.046667  1
  Sb  Sb32  1  0.696971  0.445674  0.546667  1
  Sb  Sb33  1  0.196971  0.054326  0.953333  1
  Sb  Sb34  1  0.696971  0.445674  0.953333  1
  Sb  Sb35  1  0.303029  0.554326  0.046667  1
