# generated using pymatgen
data_Er2Lu3Zn2Bi
_symmetry_space_group_name_H-M   'P 1'
_cell_length_a   8.52203655
_cell_length_b   8.52203676
_cell_length_c   8.52203675
_cell_angle_alpha   123.74860738
_cell_angle_beta   123.74860738
_cell_angle_gamma   83.62127124
_symmetry_Int_Tables_number   1
_chemical_formula_structural   Er2Lu3Zn2Bi
_chemical_formula_sum   'Er4 Lu6 Zn4 Bi2'
_cell_volume   410.05740113
_cell_formula_units_Z   2
loop_
 _symmetry_equiv_pos_site_id
 _symmetry_equiv_pos_as_xyz
  1  'x, y, z'
loop_
 _atom_site_type_symbol
 _atom_site_label
 _atom_site_symmetry_multiplicity
 _atom_site_fract_x
 _atom_site_fract_y
 _atom_site_fract_z
 _atom_site_occupancy
  Er  Er0  1  0.489957  0.989957  0.194845  1
  Er  Er1  1  0.795113  0.295113  0.805155  1
  Er  Er2  1  0.989957  0.795113  0.500000  1
  Er  Er3  1  0.295113  0.489957  0.500000  1
  Lu  Lu4  1  0.499480  0.499480  0.000000  1
  Lu  Lu5  1  0.999480  0.999480  0.000000  1
  Lu  Lu6  1  0.510429  0.010429  0.803343  1
  Lu  Lu7  1  0.207085  0.707085  0.196657  1
  Lu  Lu8  1  0.010429  0.207085  0.500000  1
  Lu  Lu9  1  0.707085  0.510429  0.500000  1
  Zn  Zn10  1  0.138437  0.638437  0.778971  1
  Zn  Zn11  1  0.859467  0.359467  0.221029  1
  Zn  Zn12  1  0.638437  0.859467  0.500000  1
  Zn  Zn13  1  0.359467  0.138437  0.500000  1
  Bi  Bi14  1  0.250032  0.250032  0.000000  1
  Bi  Bi15  1  0.750032  0.750032  0.000000  1
