# generated using pymatgen
data_Tb5Ho(Er2Si3)2
_symmetry_space_group_name_H-M   'P 1'
_cell_length_a   8.43869457
_cell_length_b   8.44406269
_cell_length_c   6.33322000
_cell_angle_alpha   90.00000000
_cell_angle_beta   90.00000000
_cell_angle_gamma   120.02104521
_symmetry_Int_Tables_number   1
_chemical_formula_structural   Tb5Ho(Er2Si3)2
_chemical_formula_sum   'Tb5 Ho1 Er4 Si6'
_cell_volume   390.74172149
_cell_formula_units_Z   1
loop_
 _symmetry_equiv_pos_site_id
 _symmetry_equiv_pos_as_xyz
  1  'x, y, z'
loop_
 _atom_site_type_symbol
 _atom_site_label
 _atom_site_symmetry_multiplicity
 _atom_site_fract_x
 _atom_site_fract_y
 _atom_site_fract_z
 _atom_site_occupancy
  Tb  Tb0  1  0.000000  0.244088  0.250000  1
  Tb  Tb1  1  0.756330  0.756129  0.250000  1
  Tb  Tb2  1  0.756184  0.999930  0.750000  1
  Tb  Tb3  1  0.243816  0.243747  0.750000  1
  Tb  Tb4  1  0.243670  0.999799  0.250000  1
  Ho  Ho5  1  0.000000  0.755949  0.750000  1
  Er  Er6  1  0.333175  0.666676  0.500085  1
  Er  Er7  1  0.666825  0.333500  0.999915  1
  Er  Er8  1  0.666825  0.333500  0.500085  1
  Er  Er9  1  0.333175  0.666676  0.999915  1
  Si  Si10  1  0.394491  0.999617  0.750000  1
  Si  Si11  1  0.395082  0.395019  0.250000  1
  Si  Si12  1  0.000000  0.604857  0.250000  1
  Si  Si13  1  0.000000  0.395450  0.750000  1
  Si  Si14  1  0.605509  0.605126  0.750000  1
  Si  Si15  1  0.604918  0.999938  0.250000  1
