# generated using pymatgen
data_Tb4Cd2CuPd3
_symmetry_space_group_name_H-M   'P 1'
_cell_length_a   3.75621500
_cell_length_b   7.68804038
_cell_length_c   7.68804038
_cell_angle_alpha   90.31138432
_cell_angle_beta   90.00000000
_cell_angle_gamma   90.00000000
_symmetry_Int_Tables_number   1
_chemical_formula_structural   Tb4Cd2CuPd3
_chemical_formula_sum   'Tb4 Cd2 Cu1 Pd3'
_cell_volume   222.01143344
_cell_formula_units_Z   1
loop_
 _symmetry_equiv_pos_site_id
 _symmetry_equiv_pos_as_xyz
  1  'x, y, z'
loop_
 _atom_site_type_symbol
 _atom_site_label
 _atom_site_symmetry_multiplicity
 _atom_site_fract_x
 _atom_site_fract_y
 _atom_site_fract_z
 _atom_site_occupancy
  Tb  Tb0  1  0.500000  0.174085  0.674085  1
  Tb  Tb1  1  0.500000  0.828263  0.328263  1
  Tb  Tb2  1  0.500000  0.325125  0.172207  1
  Tb  Tb3  1  0.500000  0.672207  0.825125  1
  Cd  Cd4  1  0.000000  0.996539  0.001239  1
  Cd  Cd5  1  0.000000  0.501239  0.496539  1
  Cu  Cu6  1  0.000000  0.624023  0.124023  1
  Pd  Pd7  1  0.000000  0.377955  0.877955  1
  Pd  Pd8  1  0.000000  0.871960  0.628604  1
  Pd  Pd9  1  0.000000  0.128604  0.371960  1
