# generated using pymatgen
data_Tb8Ho2InBi5
_symmetry_space_group_name_H-M   'P 1'
_cell_length_a   9.17626388
_cell_length_b   9.18688618
_cell_length_c   6.47472012
_cell_angle_alpha   90.02213411
_cell_angle_beta   89.98892320
_cell_angle_gamma   120.03830252
_symmetry_Int_Tables_number   1
_chemical_formula_structural   Tb8Ho2InBi5
_chemical_formula_sum   'Tb8 Ho2 In1 Bi5'
_cell_volume   472.51769719
_cell_formula_units_Z   1
loop_
 _symmetry_equiv_pos_site_id
 _symmetry_equiv_pos_as_xyz
  1  'x, y, z'
loop_
 _atom_site_type_symbol
 _atom_site_label
 _atom_site_symmetry_multiplicity
 _atom_site_fract_x
 _atom_site_fract_y
 _atom_site_fract_z
 _atom_site_occupancy
  Tb  Tb0  1  0.671952  0.334400  0.000300  1
  Tb  Tb1  1  0.328048  0.662449  0.000300  1
  Tb  Tb2  1  0.758326  0.756859  0.749887  1
  Tb  Tb3  1  0.241674  0.998533  0.749887  1
  Tb  Tb4  1  0.000000  0.241176  0.749596  1
  Tb  Tb5  1  0.236403  0.244121  0.250110  1
  Tb  Tb6  1  0.763597  0.007718  0.250110  1
  Tb  Tb7  1  0.000000  0.755010  0.250154  1
  Ho  Ho8  1  0.328159  0.662426  0.499597  1
  Ho  Ho9  1  0.671841  0.334266  0.499597  1
  In  In10  1  0.000000  0.394417  0.251633  1
  Bi  Bi11  1  0.391494  0.389257  0.748918  1
  Bi  Bi12  1  0.608506  0.997763  0.748918  1
  Bi  Bi13  1  0.000000  0.608763  0.748683  1
  Bi  Bi14  1  0.610138  0.611489  0.251154  1
  Bi  Bi15  1  0.389862  0.001351  0.251154  1
