# generated using pymatgen
data_Rb2HfSc(CuTe3)2
_symmetry_space_group_name_H-M   'P 1'
_cell_length_a   9.84830624
_cell_length_b   4.11666600
_cell_length_c   10.60904766
_cell_angle_alpha   90.00000000
_cell_angle_beta   114.72758860
_cell_angle_gamma   90.00000000
_symmetry_Int_Tables_number   1
_chemical_formula_structural   Rb2HfSc(CuTe3)2
_chemical_formula_sum   'Rb2 Hf1 Sc1 Cu2 Te6'
_cell_volume   390.67549789
_cell_formula_units_Z   1
loop_
 _symmetry_equiv_pos_site_id
 _symmetry_equiv_pos_as_xyz
  1  'x, y, z'
loop_
 _atom_site_type_symbol
 _atom_site_label
 _atom_site_symmetry_multiplicity
 _atom_site_fract_x
 _atom_site_fract_y
 _atom_site_fract_z
 _atom_site_occupancy
  Rb  Rb0  1  0.271468  0.750000  0.243931  1
  Rb  Rb1  1  0.729147  0.249999  0.755750  1
  Hf  Hf2  1  0.183757  0.249999  0.658377  1
  Sc  Sc3  1  0.815378  0.750000  0.343475  1
  Cu  Cu4  1  0.578073  0.249999  0.090998  1
  Cu  Cu5  1  0.422053  0.750000  0.905932  1
  Te  Te6  1  0.717599  0.750000  0.043038  1
  Te  Te7  1  0.612034  0.249999  0.351879  1
  Te  Te8  1  0.035123  0.249999  0.355130  1
  Te  Te9  1  0.970154  0.750000  0.651743  1
  Te  Te10  1  0.383623  0.750000  0.645258  1
  Te  Te11  1  0.281595  0.249999  0.954489  1
