# generated using pymatgen
data_Dy16In6FeNi
_symmetry_space_group_name_H-M   'P 1'
_cell_length_a   10.37500800
_cell_length_b   10.37500707
_cell_length_c   6.98045500
_cell_angle_alpha   90.00000000
_cell_angle_beta   90.00000000
_cell_angle_gamma   119.99999658
_symmetry_Int_Tables_number   1
_chemical_formula_structural   Dy16In6FeNi
_chemical_formula_sum   'Dy16 In6 Fe1 Ni1'
_cell_volume   650.71560252
_cell_formula_units_Z   1
loop_
 _symmetry_equiv_pos_site_id
 _symmetry_equiv_pos_as_xyz
  1  'x, y, z'
loop_
 _atom_site_type_symbol
 _atom_site_label
 _atom_site_symmetry_multiplicity
 _atom_site_fract_x
 _atom_site_fract_y
 _atom_site_fract_z
 _atom_site_occupancy
  Dy  Dy0  1  0.535911  0.071821  0.791363  1
  Dy  Dy1  1  0.928179  0.464089  0.791363  1
  Dy  Dy2  1  0.535911  0.464089  0.791363  1
  Dy  Dy3  1  0.467226  0.934452  0.293302  1
  Dy  Dy4  1  0.065548  0.532774  0.293302  1
  Dy  Dy5  1  0.467226  0.532774  0.293302  1
  Dy  Dy6  1  0.822016  0.644032  0.500592  1
  Dy  Dy7  1  0.355968  0.177984  0.500592  1
  Dy  Dy8  1  0.822016  0.177984  0.500592  1
  Dy  Dy9  1  0.177395  0.354792  0.998491  1
  Dy  Dy10  1  0.645208  0.822605  0.998491  1
  Dy  Dy11  1  0.177395  0.822605  0.998491  1
  Dy  Dy12  1  0.666667  0.333333  0.179746  1
  Dy  Dy13  1  0.333333  0.666667  0.679818  1
  Dy  Dy14  1  0.000000  0.000000  0.780383  1
  Dy  Dy15  1  0.000000  0.000000  0.277663  1
  In  In16  1  0.837351  0.674703  0.038726  1
  In  In17  1  0.325297  0.162649  0.038726  1
  In  In18  1  0.837351  0.162649  0.038726  1
  In  In19  1  0.163479  0.326957  0.538523  1
  In  In20  1  0.673043  0.836521  0.538523  1
  In  In21  1  0.163479  0.836521  0.538523  1
  Fe  Fe22  1  0.666667  0.333333  0.567195  1
  Ni  Ni23  1  0.333333  0.666667  0.068112  1
