# generated using pymatgen
data_Er4Tm16CoBi8Ir3
_symmetry_space_group_name_H-M   'P 1'
_cell_length_a   7.89628973
_cell_length_b   8.92458900
_cell_length_c   12.36407201
_cell_angle_alpha   90.00000000
_cell_angle_beta   90.19105307
_cell_angle_gamma   90.00000000
_symmetry_Int_Tables_number   1
_chemical_formula_structural   Er4Tm16CoBi8Ir3
_chemical_formula_sum   'Er4 Tm16 Co1 Bi8 Ir3'
_cell_volume   871.30541142
_cell_formula_units_Z   1
loop_
 _symmetry_equiv_pos_site_id
 _symmetry_equiv_pos_as_xyz
  1  'x, y, z'
loop_
 _atom_site_type_symbol
 _atom_site_label
 _atom_site_symmetry_multiplicity
 _atom_site_fract_x
 _atom_site_fract_y
 _atom_site_fract_z
 _atom_site_occupancy
  Er  Er0  1  0.123105  0.750000  0.808346  1
  Er  Er1  1  0.380891  0.750000  0.314721  1
  Er  Er2  1  0.556853  0.750000  0.997519  1
  Er  Er3  1  0.946173  0.750000  0.498510  1
  Tm  Tm4  1  0.657480  0.750000  0.699663  1
  Tm  Tm5  1  0.338556  0.250000  0.293138  1
  Tm  Tm6  1  0.161232  0.250000  0.793315  1
  Tm  Tm7  1  0.839115  0.750000  0.206612  1
  Tm  Tm8  1  0.875554  0.250000  0.191029  1
  Tm  Tm9  1  0.624032  0.250000  0.691042  1
  Tm  Tm10  1  0.445961  0.250000  0.001155  1
  Tm  Tm11  1  0.055910  0.250000  0.501413  1
  Tm  Tm12  1  0.826191  0.457026  0.933131  1
  Tm  Tm13  1  0.174874  0.542046  0.066787  1
  Tm  Tm14  1  0.325983  0.543762  0.565674  1
  Tm  Tm15  1  0.174874  0.957954  0.066787  1
  Tm  Tm16  1  0.672341  0.464266  0.435727  1
  Tm  Tm17  1  0.826191  0.042974  0.933131  1
  Tm  Tm18  1  0.672341  0.035734  0.435727  1
  Tm  Tm19  1  0.325983  0.956238  0.565674  1
  Co  Co20  1  0.567733  0.750000  0.492373  1
  Bi  Bi21  1  0.932727  0.008938  0.672102  1
  Bi  Bi22  1  0.066042  0.990961  0.327645  1
  Bi  Bi23  1  0.434200  0.990659  0.826507  1
  Bi  Bi24  1  0.066042  0.509039  0.327645  1
  Bi  Bi25  1  0.565586  0.008200  0.173568  1
  Bi  Bi26  1  0.932727  0.491062  0.672102  1
  Bi  Bi27  1  0.565586  0.491800  0.173568  1
  Bi  Bi28  1  0.434200  0.509341  0.826507  1
  Ir  Ir29  1  0.929293  0.750000  0.992105  1
  Ir  Ir30  1  0.072367  0.250000  0.008865  1
  Ir  Ir31  1  0.429857  0.250000  0.507908  1
