# generated using pymatgen
data_Lu3CuSn3Ru2
_symmetry_space_group_name_H-M   'P 1'
_cell_length_a   7.67204100
_cell_length_b   7.67204127
_cell_length_c   3.61223200
_cell_angle_alpha   90.00000000
_cell_angle_beta   90.00000000
_cell_angle_gamma   120.00000201
_symmetry_Int_Tables_number   1
_chemical_formula_structural   Lu3CuSn3Ru2
_chemical_formula_sum   'Lu3 Cu1 Sn3 Ru2'
_cell_volume   184.13150534
_cell_formula_units_Z   1
loop_
 _symmetry_equiv_pos_site_id
 _symmetry_equiv_pos_as_xyz
  1  'x, y, z'
loop_
 _atom_site_type_symbol
 _atom_site_label
 _atom_site_symmetry_multiplicity
 _atom_site_fract_x
 _atom_site_fract_y
 _atom_site_fract_z
 _atom_site_occupancy
  Lu  Lu0  1  0.976725  0.380123  0.500000  1
  Lu  Lu1  1  0.619877  0.596602  0.500000  1
  Lu  Lu2  1  0.403398  0.023275  0.500000  1
  Cu  Cu3  1  0.333333  0.666667  0.000000  1
  Sn  Sn4  1  0.009433  0.730077  0.000000  1
  Sn  Sn5  1  0.269923  0.279356  0.000000  1
  Sn  Sn6  1  0.720644  0.990567  0.000000  1
  Ru  Ru7  1  0.666667  0.333333  0.000000  1
  Ru  Ru8  1  0.000000  0.000000  0.500000  1
