# generated using pymatgen
data_K2Li2SiO4
_symmetry_space_group_name_H-M   'P 1'
_cell_length_a   5.42059742
_cell_length_b   5.60685714
_cell_length_c   8.54394741
_cell_angle_alpha   83.62688238
_cell_angle_beta   74.62425088
_cell_angle_gamma   84.38939455
_symmetry_Int_Tables_number   1
_chemical_formula_structural   K2Li2SiO4
_chemical_formula_sum   'K4 Li4 Si2 O8'
_cell_volume   248.19697585
_cell_formula_units_Z   2
loop_
 _symmetry_equiv_pos_site_id
 _symmetry_equiv_pos_as_xyz
  1  'x, y, z'
loop_
 _atom_site_type_symbol
 _atom_site_label
 _atom_site_symmetry_multiplicity
 _atom_site_fract_x
 _atom_site_fract_y
 _atom_site_fract_z
 _atom_site_occupancy
  K  K0  1  0.474602  0.852830  0.736714  1
  K  K1  1  0.525398  0.147170  0.263286  1
  K  K2  1  0.792475  0.731428  0.017681  1
  K  K3  1  0.207525  0.268572  0.982319  1
  Li  Li4  1  0.930861  0.189518  0.436547  1
  Li  Li5  1  0.069139  0.810482  0.563453  1
  Li  Li6  1  0.694865  0.594691  0.416665  1
  Li  Li7  1  0.305135  0.405309  0.583335  1
  Si  Si8  1  0.146486  0.689247  0.273221  1
  Si  Si9  1  0.853514  0.310753  0.726779  1
  O  O10  1  0.994112  0.559922  0.730631  1
  O  O11  1  0.005888  0.440078  0.269369  1
  O  O12  1  0.908022  0.870449  0.378730  1
  O  O13  1  0.091978  0.129551  0.621270  1
  O  O14  1  0.275419  0.803072  0.088605  1
  O  O15  1  0.724581  0.196928  0.911395  1
  O  O16  1  0.357869  0.639535  0.386640  1
  O  O17  1  0.642131  0.360465  0.613360  1
