# generated using pymatgen
data_La8Yb11YSi16
_symmetry_space_group_name_H-M   'P 1'
_cell_length_a   7.55549715
_cell_length_b   8.00240542
_cell_length_c   15.29443465
_cell_angle_alpha   89.96801192
_cell_angle_beta   90.00947849
_cell_angle_gamma   89.98033992
_symmetry_Int_Tables_number   1
_chemical_formula_structural   La8Yb11YSi16
_chemical_formula_sum   'La8 Yb11 Y1 Si16'
_cell_volume   924.73421075
_cell_formula_units_Z   1
loop_
 _symmetry_equiv_pos_site_id
 _symmetry_equiv_pos_as_xyz
  1  'x, y, z'
loop_
 _atom_site_type_symbol
 _atom_site_label
 _atom_site_symmetry_multiplicity
 _atom_site_fract_x
 _atom_site_fract_y
 _atom_site_fract_z
 _atom_site_occupancy
  La  La0  1  0.020840  0.182637  0.402140  1
  La  La1  1  0.520781  0.317556  0.402564  1
  La  La2  1  0.477190  0.683329  0.900531  1
  La  La3  1  0.478472  0.683546  0.598362  1
  La  La4  1  0.978519  0.816529  0.598048  1
  La  La5  1  0.977755  0.816381  0.901339  1
  La  La6  1  0.522080  0.316738  0.098705  1
  La  La7  1  0.021412  0.184674  0.097063  1
  Yb  Yb8  1  0.324426  0.182763  0.623217  1
  Yb  Yb9  1  0.675516  0.817617  0.376920  1
  Yb  Yb10  1  0.649497  0.002000  0.749592  1
  Yb  Yb11  1  0.176906  0.682239  0.376791  1
  Yb  Yb12  1  0.824450  0.317872  0.877277  1
  Yb  Yb13  1  0.824588  0.317105  0.623087  1
  Yb  Yb14  1  0.852759  0.498535  0.251827  1
  Yb  Yb15  1  0.346804  0.001226  0.251194  1
  Yb  Yb16  1  0.324064  0.182012  0.878024  1
  Yb  Yb17  1  0.175932  0.683683  0.122276  1
  Yb  Yb18  1  0.148786  0.497939  0.749576  1
  Y  Y19  1  0.675224  0.816070  0.123851  1
  Si  Si20  1  0.260733  0.876192  0.750566  1
  Si  Si21  1  0.468680  0.596069  0.247518  1
  Si  Si22  1  0.035105  0.092168  0.750243  1
  Si  Si23  1  0.534943  0.406971  0.750581  1
  Si  Si24  1  0.144487  0.472242  0.535909  1
  Si  Si25  1  0.961124  0.903599  0.246135  1
  Si  Si26  1  0.737391  0.119958  0.247087  1
  Si  Si27  1  0.851500  0.533418  0.037435  1
  Si  Si28  1  0.361842  0.970038  0.038527  1
  Si  Si29  1  0.141413  0.472811  0.964395  1
  Si  Si30  1  0.644080  0.027779  0.535956  1
  Si  Si31  1  0.355676  0.973242  0.463356  1
  Si  Si32  1  0.856341  0.527023  0.463244  1
  Si  Si33  1  0.760331  0.624110  0.750297  1
  Si  Si34  1  0.241938  0.378766  0.249288  1
  Si  Si35  1  0.648415  0.025163  0.967080  1
