# generated using pymatgen
data_Li2Dy8Sc9Si16Tc
_symmetry_space_group_name_H-M   'P 1'
_cell_length_a   6.94238199
_cell_length_b   7.33581714
_cell_length_c   13.96774700
_cell_angle_alpha   90.00000000
_cell_angle_beta   90.00000000
_cell_angle_gamma   90.11338641
_symmetry_Int_Tables_number   1
_chemical_formula_structural   Li2Dy8Sc9Si16Tc
_chemical_formula_sum   'Li2 Dy8 Sc9 Si16 Tc1'
_cell_volume   711.34865190
_cell_formula_units_Z   1
loop_
 _symmetry_equiv_pos_site_id
 _symmetry_equiv_pos_as_xyz
  1  'x, y, z'
loop_
 _atom_site_type_symbol
 _atom_site_label
 _atom_site_symmetry_multiplicity
 _atom_site_fract_x
 _atom_site_fract_y
 _atom_site_fract_z
 _atom_site_occupancy
  Li  Li0  1  0.842377  0.495177  0.250000  1
  Li  Li1  1  0.341361  0.005489  0.250000  1
  Dy  Dy2  1  0.015701  0.182874  0.096973  1
  Dy  Dy3  1  0.992540  0.819463  0.900581  1
  Dy  Dy4  1  0.487329  0.672512  0.902187  1
  Dy  Dy5  1  0.992540  0.819463  0.599419  1
  Dy  Dy6  1  0.515739  0.318572  0.098892  1
  Dy  Dy7  1  0.015701  0.182874  0.403027  1
  Dy  Dy8  1  0.515739  0.318572  0.401108  1
  Dy  Dy9  1  0.487329  0.672512  0.597813  1
  Sc  Sc10  1  0.658284  0.996388  0.750000  1
  Sc  Sc11  1  0.325164  0.178797  0.627129  1
  Sc  Sc12  1  0.669358  0.823141  0.373627  1
  Sc  Sc13  1  0.170421  0.677114  0.375150  1
  Sc  Sc14  1  0.669358  0.823141  0.126373  1
  Sc  Sc15  1  0.827561  0.329644  0.628188  1
  Sc  Sc16  1  0.325164  0.178797  0.872871  1
  Sc  Sc17  1  0.827561  0.329644  0.871812  1
  Sc  Sc18  1  0.170421  0.677114  0.124850  1
  Si  Si19  1  0.029802  0.120912  0.750000  1
  Si  Si20  1  0.970730  0.894247  0.250000  1
  Si  Si21  1  0.469543  0.604031  0.250000  1
  Si  Si22  1  0.518470  0.395150  0.750000  1
  Si  Si23  1  0.285592  0.863938  0.750000  1
  Si  Si24  1  0.721934  0.120413  0.250000  1
  Si  Si25  1  0.218147  0.380782  0.250000  1
  Si  Si26  1  0.794677  0.627435  0.750000  1
  Si  Si27  1  0.152588  0.465268  0.545739  1
  Si  Si28  1  0.841083  0.538385  0.465809  1
  Si  Si29  1  0.343877  0.961721  0.466212  1
  Si  Si30  1  0.841083  0.538385  0.034191  1
  Si  Si31  1  0.657191  0.033995  0.539165  1
  Si  Si32  1  0.152588  0.465268  0.954261  1
  Si  Si33  1  0.657191  0.033995  0.960835  1
  Si  Si34  1  0.343877  0.961721  0.033788  1
  Tc  Tc35  1  0.151981  0.493066  0.750000  1
