# generated using pymatgen
data_Th4In2GaIr3
_symmetry_space_group_name_H-M   'P 1'
_cell_length_a   7.87960100
_cell_length_b   7.87960079
_cell_length_c   3.84459900
_cell_angle_alpha   90.00000000
_cell_angle_beta   90.00000000
_cell_angle_gamma   89.67114884
_symmetry_Int_Tables_number   1
_chemical_formula_structural   Th4In2GaIr3
_chemical_formula_sum   'Th4 In2 Ga1 Ir3'
_cell_volume   238.69995479
_cell_formula_units_Z   1
loop_
 _symmetry_equiv_pos_site_id
 _symmetry_equiv_pos_as_xyz
  1  'x, y, z'
loop_
 _atom_site_type_symbol
 _atom_site_label
 _atom_site_symmetry_multiplicity
 _atom_site_fract_x
 _atom_site_fract_y
 _atom_site_fract_z
 _atom_site_occupancy
  Th  Th0  1  0.674500  0.174500  0.500000  1
  Th  Th1  1  0.341668  0.841668  0.500000  1
  Th  Th2  1  0.165308  0.309794  0.500000  1
  Th  Th3  1  0.809794  0.665308  0.500000  1
  In  In4  1  0.996425  0.992703  0.000000  1
  In  In5  1  0.492703  0.496425  0.000000  1
  Ga  Ga6  1  0.126494  0.626494  0.000000  1
  Ir  Ir7  1  0.887388  0.387388  0.000000  1
  Ir  Ir8  1  0.635951  0.869768  0.000000  1
  Ir  Ir9  1  0.369768  0.135951  0.000000  1
