# generated using pymatgen
data_DyY9(IrPb3)2
_symmetry_space_group_name_H-M   'P 1'
_cell_length_a   9.23081780
_cell_length_b   9.23081730
_cell_length_c   6.88555500
_cell_angle_alpha   90.00000000
_cell_angle_beta   90.00000000
_cell_angle_gamma   120.04775782
_symmetry_Int_Tables_number   1
_chemical_formula_structural   DyY9(IrPb3)2
_chemical_formula_sum   'Dy1 Y9 Ir2 Pb6'
_cell_volume   507.85615099
_cell_formula_units_Z   1
loop_
 _symmetry_equiv_pos_site_id
 _symmetry_equiv_pos_as_xyz
  1  'x, y, z'
loop_
 _atom_site_type_symbol
 _atom_site_label
 _atom_site_symmetry_multiplicity
 _atom_site_fract_x
 _atom_site_fract_y
 _atom_site_fract_z
 _atom_site_occupancy
  Dy  Dy0  1  0.764917  0.764917  0.250000  1
  Y  Y1  1  0.236220  0.999942  0.250000  1
  Y  Y2  1  0.999947  0.763737  0.750000  1
  Y  Y3  1  0.999942  0.236220  0.250000  1
  Y  Y4  1  0.333329  0.666667  0.499992  1
  Y  Y5  1  0.763737  0.999947  0.750000  1
  Y  Y6  1  0.666667  0.333329  0.499992  1
  Y  Y7  1  0.236186  0.236186  0.750000  1
  Y  Y8  1  0.333329  0.666667  0.000008  1
  Y  Y9  1  0.666667  0.333329  0.000008  1
  Ir  Ir10  1  0.999518  0.999518  0.000468  1
  Ir  Ir11  1  0.999518  0.999518  0.499532  1
  Pb  Pb12  1  0.593840  0.999945  0.250000  1
  Pb  Pb13  1  0.406158  0.000045  0.750000  1
  Pb  Pb14  1  0.999945  0.593840  0.250000  1
  Pb  Pb15  1  0.593863  0.593863  0.750000  1
  Pb  Pb16  1  0.406173  0.406173  0.250000  1
  Pb  Pb17  1  0.000045  0.406158  0.750000  1
