# generated using pymatgen
data_Ce3PrNd4(Si3Pd)4
_symmetry_space_group_name_H-M   'P 1'
_cell_length_a   8.25679860
_cell_length_b   8.24987234
_cell_length_c   8.48264400
_cell_angle_alpha   90.00000000
_cell_angle_beta   90.00000000
_cell_angle_gamma   120.01898348
_symmetry_Int_Tables_number   1
_chemical_formula_structural   Ce3PrNd4(Si3Pd)4
_chemical_formula_sum   'Ce3 Pr1 Nd4 Si12 Pd4'
_cell_volume   500.30827324
_cell_formula_units_Z   1
loop_
 _symmetry_equiv_pos_site_id
 _symmetry_equiv_pos_as_xyz
  1  'x, y, z'
loop_
 _atom_site_type_symbol
 _atom_site_label
 _atom_site_symmetry_multiplicity
 _atom_site_fract_x
 _atom_site_fract_y
 _atom_site_fract_z
 _atom_site_occupancy
  Ce  Ce0  1  0.501026  0.000325  0.250000  1
  Ce  Ce1  1  0.999968  0.000080  0.750000  1
  Ce  Ce2  1  0.000115  0.000067  0.250000  1
  Pr  Pr3  1  0.499346  0.500738  0.750000  1
  Nd  Nd4  1  0.500568  0.499211  0.250000  1
  Nd  Nd5  1  0.000902  0.500581  0.750000  1
  Nd  Nd6  1  0.998711  0.499378  0.250000  1
  Nd  Nd7  1  0.499383  0.998881  0.750000  1
  Si  Si8  1  0.835115  0.164514  0.000708  1
  Si  Si9  1  0.164862  0.835619  0.001779  1
  Si  Si10  1  0.329379  0.164302  0.001104  1
  Si  Si11  1  0.164862  0.835619  0.498221  1
  Si  Si12  1  0.670700  0.835749  0.002664  1
  Si  Si13  1  0.835115  0.164514  0.499292  1
  Si  Si14  1  0.835380  0.670524  0.999808  1
  Si  Si15  1  0.670700  0.835749  0.497336  1
  Si  Si16  1  0.164637  0.329596  0.000940  1
  Si  Si17  1  0.329379  0.164302  0.498896  1
  Si  Si18  1  0.164637  0.329596  0.499060  1
  Si  Si19  1  0.835380  0.670524  0.500192  1
  Pd  Pd20  1  0.666431  0.332376  0.000112  1
  Pd  Pd21  1  0.333489  0.667688  0.003295  1
  Pd  Pd22  1  0.333489  0.667688  0.496705  1
  Pd  Pd23  1  0.666431  0.332376  0.499888  1
