# generated using pymatgen
data_Nd3Y3Ho2(CdIr)2
_symmetry_space_group_name_H-M   'P 1'
_cell_length_a   9.76366172
_cell_length_b   9.76366217
_cell_length_c   9.76366200
_cell_angle_alpha   60.00000056
_cell_angle_beta   59.99999904
_cell_angle_gamma   60.00000284
_symmetry_Int_Tables_number   1
_chemical_formula_structural   Nd3Y3Ho2(CdIr)2
_chemical_formula_sum   'Nd6 Y6 Ho4 Cd4 Ir4'
_cell_volume   658.14746766
_cell_formula_units_Z   2
loop_
 _symmetry_equiv_pos_site_id
 _symmetry_equiv_pos_as_xyz
  1  'x, y, z'
loop_
 _atom_site_type_symbol
 _atom_site_label
 _atom_site_symmetry_multiplicity
 _atom_site_fract_x
 _atom_site_fract_y
 _atom_site_fract_z
 _atom_site_occupancy
  Nd  Nd0  1  0.940646  0.559354  0.559354  1
  Nd  Nd1  1  0.559354  0.940646  0.940646  1
  Nd  Nd2  1  0.559354  0.940646  0.559354  1
  Nd  Nd3  1  0.940646  0.559354  0.940646  1
  Nd  Nd4  1  0.559354  0.559354  0.940646  1
  Nd  Nd5  1  0.940646  0.940646  0.559354  1
  Y  Y6  1  0.811661  0.188339  0.188339  1
  Y  Y7  1  0.188339  0.811661  0.811661  1
  Y  Y8  1  0.188339  0.811661  0.188339  1
  Y  Y9  1  0.811661  0.188339  0.811661  1
  Y  Y10  1  0.188339  0.188339  0.811661  1
  Y  Y11  1  0.811661  0.811661  0.188339  1
  Ho  Ho12  1  0.347353  0.347353  0.347353  1
  Ho  Ho13  1  0.347353  0.347353  0.957942  1
  Ho  Ho14  1  0.347353  0.957942  0.347353  1
  Ho  Ho15  1  0.957942  0.347353  0.347353  1
  Cd  Cd16  1  0.579566  0.579566  0.579566  1
  Cd  Cd17  1  0.579566  0.579566  0.261301  1
  Cd  Cd18  1  0.579566  0.261301  0.579566  1
  Cd  Cd19  1  0.261301  0.579566  0.579566  1
  Ir  Ir20  1  0.142077  0.142077  0.142077  1
  Ir  Ir21  1  0.142077  0.142077  0.573769  1
  Ir  Ir22  1  0.142077  0.573769  0.142077  1
  Ir  Ir23  1  0.573769  0.142077  0.142077  1
