# generated using pymatgen
data_LiHo8(Si4Ir)3
_symmetry_space_group_name_H-M   'P 1'
_cell_length_a   8.16125300
_cell_length_b   8.16124242
_cell_length_c   7.87219900
_cell_angle_alpha   90.00002106
_cell_angle_beta   90.00001404
_cell_angle_gamma   119.99993345
_symmetry_Int_Tables_number   1
_chemical_formula_structural   LiHo8(Si4Ir)3
_chemical_formula_sum   'Li1 Ho8 Si12 Ir3'
_cell_volume   454.08808492
_cell_formula_units_Z   1
loop_
 _symmetry_equiv_pos_site_id
 _symmetry_equiv_pos_as_xyz
  1  'x, y, z'
loop_
 _atom_site_type_symbol
 _atom_site_label
 _atom_site_symmetry_multiplicity
 _atom_site_fract_x
 _atom_site_fract_y
 _atom_site_fract_z
 _atom_site_occupancy
  Li  Li0  1  0.333333  0.666667  0.450329  1
  Ho  Ho1  1  0.513132  0.026265  0.246867  1
  Ho  Ho2  1  0.492879  0.985759  0.752172  1
  Ho  Ho3  1  0.973735  0.486867  0.246866  1
  Ho  Ho4  1  0.014240  0.507120  0.752172  1
  Ho  Ho5  1  0.513132  0.486867  0.246866  1
  Ho  Ho6  1  0.492880  0.507121  0.752173  1
  Ho  Ho7  1  0.000001  0.999999  0.254121  1
  Ho  Ho8  1  0.000001  0.000000  0.750086  1
  Si  Si9  1  0.166847  0.333692  0.005919  1
  Si  Si10  1  0.834011  0.668021  0.996740  1
  Si  Si11  1  0.666308  0.833153  0.005919  1
  Si  Si12  1  0.832670  0.665339  0.500642  1
  Si  Si13  1  0.331980  0.165990  0.996740  1
  Si  Si14  1  0.164996  0.329994  0.502835  1
  Si  Si15  1  0.166847  0.833154  0.005919  1
  Si  Si16  1  0.334662  0.167330  0.500642  1
  Si  Si17  1  0.834011  0.165989  0.996740  1
  Si  Si18  1  0.670006  0.835004  0.502835  1
  Si  Si19  1  0.832670  0.167330  0.500642  1
  Si  Si20  1  0.164996  0.835004  0.502835  1
  Ir  Ir21  1  0.333334  0.666667  0.022724  1
  Ir  Ir22  1  0.666667  0.333334  0.965755  1
  Ir  Ir23  1  0.666666  0.333333  0.541466  1
