# generated using pymatgen
data_Al5ZnOs
_symmetry_space_group_name_H-M   'P 1'
_cell_length_a   5.00667939
_cell_length_b   5.00668019
_cell_length_c   8.95022000
_cell_angle_alpha   90.00000000
_cell_angle_beta   90.00000000
_cell_angle_gamma   98.42181176
_symmetry_Int_Tables_number   1
_chemical_formula_structural   Al5ZnOs
_chemical_formula_sum   'Al10 Zn2 Os2'
_cell_volume   221.93447039
_cell_formula_units_Z   2
loop_
 _symmetry_equiv_pos_site_id
 _symmetry_equiv_pos_as_xyz
  1  'x, y, z'
loop_
 _atom_site_type_symbol
 _atom_site_label
 _atom_site_symmetry_multiplicity
 _atom_site_fract_x
 _atom_site_fract_y
 _atom_site_fract_z
 _atom_site_occupancy
  Al  Al0  1  0.671606  0.319529  0.001189  1
  Al  Al1  1  0.328394  0.680471  0.501189  1
  Al  Al2  1  0.319529  0.671606  0.001189  1
  Al  Al3  1  0.680471  0.328394  0.501189  1
  Al  Al4  1  0.132040  0.132040  0.397275  1
  Al  Al5  1  0.867960  0.867960  0.897275  1
  Al  Al6  1  0.975848  0.612779  0.249836  1
  Al  Al7  1  0.024152  0.387221  0.749836  1
  Al  Al8  1  0.612779  0.975848  0.249836  1
  Al  Al9  1  0.387221  0.024152  0.749836  1
  Zn  Zn10  1  0.123250  0.123250  0.099144  1
  Zn  Zn11  1  0.876750  0.876750  0.599144  1
  Os  Os12  1  0.462054  0.462054  0.251529  1
  Os  Os13  1  0.537946  0.537946  0.751529  1
