# generated using pymatgen
data_Tb6Ho6Co4BiIr
_symmetry_space_group_name_H-M   'P 1'
_cell_length_a   8.33976114
_cell_length_b   8.34335953
_cell_length_c   8.33976197
_cell_angle_alpha   110.93427963
_cell_angle_beta   110.57090982
_cell_angle_gamma   106.92125546
_symmetry_Int_Tables_number   1
_chemical_formula_structural   Tb6Ho6Co4BiIr
_chemical_formula_sum   'Tb6 Ho6 Co4 Bi1 Ir1'
_cell_volume   446.14267065
_cell_formula_units_Z   1
loop_
 _symmetry_equiv_pos_site_id
 _symmetry_equiv_pos_as_xyz
  1  'x, y, z'
loop_
 _atom_site_type_symbol
 _atom_site_label
 _atom_site_symmetry_multiplicity
 _atom_site_fract_x
 _atom_site_fract_y
 _atom_site_fract_z
 _atom_site_occupancy
  Tb  Tb0  1  0.817781  0.714751  0.531317  1
  Tb  Tb1  1  0.182219  0.285249  0.468683  1
  Tb  Tb2  1  0.183434  0.714751  0.896970  1
  Tb  Tb3  1  0.816566  0.285249  0.103030  1
  Tb  Tb4  1  0.687925  0.378984  0.691060  1
  Tb  Tb5  1  0.312075  0.621016  0.308940  1
  Ho  Ho6  1  0.687789  0.997298  0.309510  1
  Ho  Ho7  1  0.312211  0.002702  0.690490  1
  Ho  Ho8  1  0.592598  0.789833  0.803833  1
  Ho  Ho9  1  0.407402  0.210167  0.196167  1
  Ho  Ho10  1  0.986002  0.789833  0.197235  1
  Ho  Ho11  1  0.013998  0.210167  0.802765  1
  Co  Co12  1  0.623146  0.000000  0.623146  1
  Co  Co13  1  0.376854  0.000000  0.376854  1
  Co  Co14  1  0.111147  0.611465  0.500319  1
  Co  Co15  1  0.888853  0.388535  0.499681  1
  Bi  Bi16  1  0.500000  0.500000  0.000000  1
  Ir  Ir17  1  0.000000  0.000000  0.000000  1
