# generated using pymatgen
data_Tm5Sc5Si5As
_symmetry_space_group_name_H-M   'P 1'
_cell_length_a   8.14845413
_cell_length_b   8.14845481
_cell_length_c   5.92593400
_cell_angle_alpha   90.00000000
_cell_angle_beta   90.00000000
_cell_angle_gamma   119.77493301
_symmetry_Int_Tables_number   1
_chemical_formula_structural   Tm5Sc5Si5As
_chemical_formula_sum   'Tm5 Sc5 Si5 As1'
_cell_volume   341.52178721
_cell_formula_units_Z   1
loop_
 _symmetry_equiv_pos_site_id
 _symmetry_equiv_pos_as_xyz
  1  'x, y, z'
loop_
 _atom_site_type_symbol
 _atom_site_label
 _atom_site_symmetry_multiplicity
 _atom_site_fract_x
 _atom_site_fract_y
 _atom_site_fract_z
 _atom_site_occupancy
  Tm  Tm0  1  0.243848  0.999450  0.500000  1
  Tm  Tm1  1  0.999450  0.243848  0.500000  1
  Tm  Tm2  1  0.246096  0.246096  0.000000  1
  Tm  Tm3  1  0.757045  0.002332  0.000000  1
  Tm  Tm4  1  0.002332  0.757045  0.000000  1
  Sc  Sc5  1  0.667673  0.332049  0.252293  1
  Sc  Sc6  1  0.332049  0.667673  0.252293  1
  Sc  Sc7  1  0.332049  0.667673  0.747707  1
  Sc  Sc8  1  0.667673  0.332049  0.747707  1
  Sc  Sc9  1  0.751744  0.751744  0.500000  1
  Si  Si10  1  0.399260  0.399260  0.500000  1
  Si  Si11  1  0.604051  0.993594  0.500000  1
  Si  Si12  1  0.993594  0.604051  0.500000  1
  Si  Si13  1  0.398087  0.999632  0.000000  1
  Si  Si14  1  0.999632  0.398087  0.000000  1
  As  As15  1  0.605469  0.605469  0.000000  1
