# generated using pymatgen
data_Dy16In6RePt
_symmetry_space_group_name_H-M   'P 1'
_cell_length_a   10.44942400
_cell_length_b   10.44941871
_cell_length_c   7.05294000
_cell_angle_alpha   90.00000000
_cell_angle_beta   90.00000000
_cell_angle_gamma   119.99997874
_symmetry_Int_Tables_number   1
_chemical_formula_structural   Dy16In6RePt
_chemical_formula_sum   'Dy16 In6 Re1 Pt1'
_cell_volume   666.93789983
_cell_formula_units_Z   1
loop_
 _symmetry_equiv_pos_site_id
 _symmetry_equiv_pos_as_xyz
  1  'x, y, z'
loop_
 _atom_site_type_symbol
 _atom_site_label
 _atom_site_symmetry_multiplicity
 _atom_site_fract_x
 _atom_site_fract_y
 _atom_site_fract_z
 _atom_site_occupancy
  Dy  Dy0  1  0.532816  0.065632  0.514568  1
  Dy  Dy1  1  0.934368  0.467183  0.514568  1
  Dy  Dy2  1  0.532817  0.467184  0.514568  1
  Dy  Dy3  1  0.470035  0.940070  0.016230  1
  Dy  Dy4  1  0.059930  0.529966  0.016230  1
  Dy  Dy5  1  0.470034  0.529965  0.016230  1
  Dy  Dy6  1  0.174943  0.349885  0.722027  1
  Dy  Dy7  1  0.650115  0.825057  0.722027  1
  Dy  Dy8  1  0.174943  0.825057  0.722027  1
  Dy  Dy9  1  0.824074  0.648148  0.223247  1
  Dy  Dy10  1  0.351852  0.175926  0.223247  1
  Dy  Dy11  1  0.824074  0.175926  0.223247  1
  Dy  Dy12  1  0.666667  0.333333  0.888930  1
  Dy  Dy13  1  0.333333  0.666667  0.390940  1
  Dy  Dy14  1  0.000000  0.000000  0.498489  1
  Dy  Dy15  1  0.000000  0.000000  0.998398  1
  In  In16  1  0.836933  0.673868  0.760178  1
  In  In17  1  0.326131  0.163066  0.760178  1
  In  In18  1  0.836933  0.163066  0.760178  1
  In  In19  1  0.163565  0.327128  0.260378  1
  In  In20  1  0.672873  0.836436  0.260378  1
  In  In21  1  0.163565  0.836436  0.260378  1
  Re  Re22  1  0.666667  0.333333  0.288906  1
  Pt  Pt23  1  0.333333  0.666667  0.788655  1
