# generated using pymatgen
data_Tb3Sn2Pt2RhPb
_symmetry_space_group_name_H-M   'P 1'
_cell_length_a   7.76318100
_cell_length_b   7.71284856
_cell_length_c   3.84525100
_cell_angle_alpha   90.00000000
_cell_angle_beta   90.00000000
_cell_angle_gamma   120.21610298
_symmetry_Int_Tables_number   1
_chemical_formula_structural   Tb3Sn2Pt2RhPb
_chemical_formula_sum   'Tb3 Sn2 Pt2 Rh1 Pb1'
_cell_volume   198.95735479
_cell_formula_units_Z   1
loop_
 _symmetry_equiv_pos_site_id
 _symmetry_equiv_pos_as_xyz
  1  'x, y, z'
loop_
 _atom_site_type_symbol
 _atom_site_label
 _atom_site_symmetry_multiplicity
 _atom_site_fract_x
 _atom_site_fract_y
 _atom_site_fract_z
 _atom_site_occupancy
  Tb  Tb0  1  0.401514  0.000000  0.500000  1
  Tb  Tb1  1  0.002560  0.405905  0.500000  1
  Tb  Tb2  1  0.596655  0.594095  0.500000  1
  Sn  Sn3  1  0.001376  0.741795  0.000000  1
  Sn  Sn4  1  0.259581  0.258205  0.000000  1
  Pt  Pt5  1  0.324617  0.660378  0.000000  1
  Pt  Pt6  1  0.664240  0.339622  0.000000  1
  Rh  Rh7  1  0.009371  0.000000  0.500000  1
  Pb  Pb8  1  0.740085  0.000000  0.000000  1
