# generated using pymatgen
data_Tb10Bi5PbS2
_symmetry_space_group_name_H-M   'P 1'
_cell_length_a   9.23271830
_cell_length_b   9.23271901
_cell_length_c   6.56647300
_cell_angle_alpha   90.00000000
_cell_angle_beta   90.00000000
_cell_angle_gamma   119.90314527
_symmetry_Int_Tables_number   1
_chemical_formula_structural   Tb10Bi5PbS2
_chemical_formula_sum   'Tb10 Bi5 Pb1 S2'
_cell_volume   485.22707998
_cell_formula_units_Z   1
loop_
 _symmetry_equiv_pos_site_id
 _symmetry_equiv_pos_as_xyz
  1  'x, y, z'
loop_
 _atom_site_type_symbol
 _atom_site_label
 _atom_site_symmetry_multiplicity
 _atom_site_fract_x
 _atom_site_fract_y
 _atom_site_fract_z
 _atom_site_occupancy
  Tb  Tb0  1  0.666188  0.333585  0.499098  1
  Tb  Tb1  1  0.333585  0.666188  0.499098  1
  Tb  Tb2  1  0.333585  0.666188  0.000902  1
  Tb  Tb3  1  0.666188  0.333585  0.000902  1
  Tb  Tb4  1  0.754280  0.754280  0.250000  1
  Tb  Tb5  1  0.245824  0.001970  0.250000  1
  Tb  Tb6  1  0.001970  0.245824  0.250000  1
  Tb  Tb7  1  0.245169  0.245169  0.750000  1
  Tb  Tb8  1  0.754900  0.999826  0.750000  1
  Tb  Tb9  1  0.999826  0.754900  0.750000  1
  Bi  Bi10  1  0.603937  0.000155  0.250000  1
  Bi  Bi11  1  0.000155  0.603937  0.250000  1
  Bi  Bi12  1  0.602912  0.602912  0.750000  1
  Bi  Bi13  1  0.396190  0.000123  0.750000  1
  Bi  Bi14  1  0.000123  0.396190  0.750000  1
  Pb  Pb15  1  0.396493  0.396493  0.250000  1
  S  S16  1  0.999338  0.999338  0.500270  1
  S  S17  1  0.999338  0.999338  0.999730  1
