# generated using pymatgen
data_ErZr3(CuS4)2
_symmetry_space_group_name_H-M   'P 1'
_cell_length_a   7.54352969
_cell_length_b   7.54352981
_cell_length_c   7.54353104
_cell_angle_alpha   58.52232643
_cell_angle_beta   58.52232461
_cell_angle_gamma   58.52232981
_symmetry_Int_Tables_number   1
_chemical_formula_structural   ErZr3(CuS4)2
_chemical_formula_sum   'Er1 Zr3 Cu2 S8'
_cell_volume   293.27596421
_cell_formula_units_Z   1
loop_
 _symmetry_equiv_pos_site_id
 _symmetry_equiv_pos_as_xyz
  1  'x, y, z'
loop_
 _atom_site_type_symbol
 _atom_site_label
 _atom_site_symmetry_multiplicity
 _atom_site_fract_x
 _atom_site_fract_y
 _atom_site_fract_z
 _atom_site_occupancy
  Er  Er0  1  0.500000  0.500000  0.500000  1
  Zr  Zr1  1  0.000000  0.500000  0.500000  1
  Zr  Zr2  1  0.500000  0.500000  0.000000  1
  Zr  Zr3  1  0.500000  0.000000  0.500000  1
  Cu  Cu4  1  0.125452  0.125452  0.125452  1
  Cu  Cu5  1  0.874548  0.874548  0.874548  1
  S  S6  1  0.749293  0.749293  0.749293  1
  S  S7  1  0.255624  0.754204  0.754204  1
  S  S8  1  0.754204  0.754204  0.255624  1
  S  S9  1  0.754204  0.255624  0.754204  1
  S  S10  1  0.250707  0.250707  0.250707  1
  S  S11  1  0.744376  0.245796  0.245796  1
  S  S12  1  0.245796  0.245796  0.744376  1
  S  S13  1  0.245796  0.744376  0.245796  1
