# generated using pymatgen
data_YScCo9As7Ru3
_symmetry_space_group_name_H-M   'P 1'
_cell_length_a   3.78529000
_cell_length_b   9.34478817
_cell_length_c   9.34478800
_cell_angle_alpha   120.00000552
_cell_angle_beta   90.00000000
_cell_angle_gamma   90.00000000
_symmetry_Int_Tables_number   1
_chemical_formula_structural   YScCo9As7Ru3
_chemical_formula_sum   'Y1 Sc1 Co9 As7 Ru3'
_cell_volume   286.26528139
_cell_formula_units_Z   1
loop_
 _symmetry_equiv_pos_site_id
 _symmetry_equiv_pos_as_xyz
  1  'x, y, z'
loop_
 _atom_site_type_symbol
 _atom_site_label
 _atom_site_symmetry_multiplicity
 _atom_site_fract_x
 _atom_site_fract_y
 _atom_site_fract_z
 _atom_site_occupancy
  Y  Y0  1  0.500000  0.333333  0.666667  1
  Sc  Sc1  1  0.000000  0.666667  0.333333  1
  Co  Co2  1  0.000000  0.569154  0.941944  1
  Co  Co3  1  0.000000  0.372790  0.430846  1
  Co  Co4  1  0.000000  0.058056  0.627210  1
  Co  Co5  1  0.000000  0.874770  0.159317  1
  Co  Co6  1  0.000000  0.284546  0.125230  1
  Co  Co7  1  0.000000  0.840683  0.715454  1
  Co  Co8  1  0.500000  0.943991  0.382409  1
  Co  Co9  1  0.500000  0.438417  0.056009  1
  Co  Co10  1  0.500000  0.617591  0.561583  1
  As  As11  1  0.000000  0.000000  0.000000  1
  As  As12  1  0.500000  0.707840  0.121483  1
  As  As13  1  0.500000  0.413643  0.292160  1
  As  As14  1  0.500000  0.878517  0.586357  1
  As  As15  1  0.000000  0.588341  0.701949  1
  As  As16  1  0.000000  0.113609  0.411659  1
  As  As17  1  0.000000  0.298051  0.886391  1
  Ru  Ru18  1  0.500000  0.779570  0.901095  1
  Ru  Ru19  1  0.500000  0.121525  0.220430  1
  Ru  Ru20  1  0.500000  0.098905  0.878475  1
