# generated using pymatgen
data_Ac2Te2SeO10
_symmetry_space_group_name_H-M   'P 1'
_cell_length_a   9.26265750
_cell_length_b   9.26265727
_cell_length_c   8.64418339
_cell_angle_alpha   68.26202634
_cell_angle_beta   68.26202494
_cell_angle_gamma   47.88291508
_symmetry_Int_Tables_number   1
_chemical_formula_structural   Ac2Te2SeO10
_chemical_formula_sum   'Ac4 Te4 Se2 O20'
_cell_volume   502.94040521
_cell_formula_units_Z   2
loop_
 _symmetry_equiv_pos_site_id
 _symmetry_equiv_pos_as_xyz
  1  'x, y, z'
loop_
 _atom_site_type_symbol
 _atom_site_label
 _atom_site_symmetry_multiplicity
 _atom_site_fract_x
 _atom_site_fract_y
 _atom_site_fract_z
 _atom_site_occupancy
  Ac  Ac0  1  0.790458  0.594506  0.351125  1
  Ac  Ac1  1  0.405494  0.209542  0.148875  1
  Ac  Ac2  1  0.209542  0.405494  0.648875  1
  Ac  Ac3  1  0.594506  0.790458  0.851125  1
  Te  Te4  1  0.954098  0.807350  0.956473  1
  Te  Te5  1  0.192650  0.045902  0.543527  1
  Te  Te6  1  0.045902  0.192650  0.043527  1
  Te  Te7  1  0.807350  0.954098  0.456473  1
  Se  Se8  1  0.614319  0.385681  0.750000  1
  Se  Se9  1  0.385681  0.614319  0.250000  1
  O  O10  1  0.757323  0.290156  0.573397  1
  O  O11  1  0.709844  0.242677  0.926603  1
  O  O12  1  0.242677  0.709844  0.426603  1
  O  O13  1  0.290156  0.757323  0.073397  1
  O  O14  1  0.398871  0.423285  0.798711  1
  O  O15  1  0.576715  0.601129  0.701289  1
  O  O16  1  0.601129  0.576715  0.201289  1
  O  O17  1  0.423285  0.398871  0.298711  1
  O  O18  1  0.073891  0.564745  0.112681  1
  O  O19  1  0.435255  0.926109  0.387319  1
  O  O20  1  0.926109  0.435255  0.887319  1
  O  O21  1  0.564745  0.073891  0.612681  1
  O  O22  1  0.981062  0.736169  0.763510  1
  O  O23  1  0.263831  0.018938  0.736490  1
  O  O24  1  0.018938  0.263831  0.236490  1
  O  O25  1  0.736169  0.981062  0.263510  1
  O  O26  1  0.696173  0.869697  0.041765  1
  O  O27  1  0.130303  0.303827  0.458235  1
  O  O28  1  0.303827  0.130303  0.958235  1
  O  O29  1  0.869697  0.696173  0.541765  1
