# generated using pymatgen
data_GdY5IrO12
_symmetry_space_group_name_H-M   'P 1'
_cell_length_a   6.48756621
_cell_length_b   6.53992966
_cell_length_c   6.51185000
_cell_angle_alpha   99.09027901
_cell_angle_beta   98.53731605
_cell_angle_gamma   98.59559977
_symmetry_Int_Tables_number   1
_chemical_formula_structural   GdY5IrO12
_chemical_formula_sum   'Gd1 Y5 Ir1 O12'
_cell_volume   265.52984485
_cell_formula_units_Z   1
loop_
 _symmetry_equiv_pos_site_id
 _symmetry_equiv_pos_as_xyz
  1  'x, y, z'
loop_
 _atom_site_type_symbol
 _atom_site_label
 _atom_site_symmetry_multiplicity
 _atom_site_fract_x
 _atom_site_fract_y
 _atom_site_fract_z
 _atom_site_occupancy
  Gd  Gd0  1  0.143269  0.609669  0.313002  1
  Y  Y1  1  0.855609  0.389315  0.686565  1
  Y  Y2  1  0.609598  0.312616  0.144049  1
  Y  Y3  1  0.313518  0.143465  0.611197  1
  Y  Y4  1  0.687830  0.857284  0.390106  1
  Y  Y5  1  0.391073  0.686492  0.856112  1
  Ir  Ir6  1  0.999473  0.999655  0.999000  1
  O  O7  1  0.929115  0.035191  0.702379  1
  O  O8  1  0.961799  0.295607  0.069008  1
  O  O9  1  0.591834  0.176407  0.432740  1
  O  O10  1  0.819922  0.566112  0.410843  1
  O  O11  1  0.297202  0.071645  0.964487  1
  O  O12  1  0.566288  0.406901  0.823717  1
  O  O13  1  0.436035  0.593231  0.176026  1
  O  O14  1  0.702679  0.928387  0.035691  1
  O  O15  1  0.177858  0.432732  0.593156  1
  O  O16  1  0.410300  0.824251  0.568923  1
  O  O17  1  0.035582  0.704069  0.926360  1
  O  O18  1  0.071016  0.966973  0.296640  1
