# generated using pymatgen
data_Yb7Sc(Si4W3)4
_symmetry_space_group_name_H-M   'P 1'
_cell_length_a   6.68954221
_cell_length_b   6.87888162
_cell_length_c   12.98237213
_cell_angle_alpha   89.81190560
_cell_angle_beta   90.00057348
_cell_angle_gamma   89.88669450
_symmetry_Int_Tables_number   1
_chemical_formula_structural   Yb7Sc(Si4W3)4
_chemical_formula_sum   'Yb7 Sc1 Si16 W12'
_cell_volume   597.39983477
_cell_formula_units_Z   1
loop_
 _symmetry_equiv_pos_site_id
 _symmetry_equiv_pos_as_xyz
  1  'x, y, z'
loop_
 _atom_site_type_symbol
 _atom_site_label
 _atom_site_symmetry_multiplicity
 _atom_site_fract_x
 _atom_site_fract_y
 _atom_site_fract_z
 _atom_site_occupancy
  Yb  Yb0  1  0.498597  0.333137  0.089675  1
  Yb  Yb1  1  0.998843  0.166833  0.409880  1
  Yb  Yb2  1  0.501161  0.666697  0.590374  1
  Yb  Yb3  1  0.000457  0.830890  0.909757  1
  Yb  Yb4  1  0.499933  0.667819  0.910595  1
  Yb  Yb5  1  0.001192  0.832321  0.590218  1
  Yb  Yb6  1  0.498830  0.333032  0.408915  1
  Sc  Sc7  1  0.998397  0.173476  0.094961  1
  Si  Si8  1  0.660752  0.042208  0.544724  1
  Si  Si9  1  0.160791  0.454861  0.957362  1
  Si  Si10  1  0.332734  0.962033  0.045157  1
  Si  Si11  1  0.838877  0.542668  0.454992  1
  Si  Si12  1  0.339753  0.957171  0.454772  1
  Si  Si13  1  0.839856  0.538542  0.044910  1
  Si  Si14  1  0.663561  0.041349  0.956907  1
  Si  Si15  1  0.161113  0.457952  0.544542  1
  Si  Si16  1  0.535645  0.378903  0.750815  1
  Si  Si17  1  0.035394  0.119342  0.749873  1
  Si  Si18  1  0.464755  0.623521  0.248552  1
  Si  Si19  1  0.965414  0.880225  0.248106  1
  Si  Si20  1  0.798902  0.635676  0.750572  1
  Si  Si21  1  0.299236  0.862270  0.750286  1
  Si  Si22  1  0.199755  0.362088  0.249131  1
  Si  Si23  1  0.701307  0.138526  0.249113  1
  W  W24  1  0.835714  0.332320  0.627824  1
  W  W25  1  0.334871  0.166681  0.873313  1
  W  W26  1  0.165227  0.666532  0.125702  1
  W  W27  1  0.665793  0.833713  0.371498  1
  W  W28  1  0.164274  0.667786  0.371090  1
  W  W29  1  0.667657  0.835779  0.125883  1
  W  W30  1  0.837355  0.329641  0.874638  1
  W  W31  1  0.336011  0.166863  0.627502  1
  W  W32  1  0.659759  0.010018  0.750922  1
  W  W33  1  0.159562  0.488059  0.750758  1
  W  W34  1  0.338492  0.992327  0.248270  1
  W  W35  1  0.840026  0.508738  0.248410  1
