# generated using pymatgen
data_Th3ZnPt3Au2
_symmetry_space_group_name_H-M   'P 1'
_cell_length_a   7.73979199
_cell_length_b   7.55362969
_cell_length_c   3.88487900
_cell_angle_alpha   90.00000000
_cell_angle_beta   90.00000000
_cell_angle_gamma   119.20749694
_symmetry_Int_Tables_number   1
_chemical_formula_structural   Th3ZnPt3Au2
_chemical_formula_sum   'Th3 Zn1 Pt3 Au2'
_cell_volume   198.24680175
_cell_formula_units_Z   1
loop_
 _symmetry_equiv_pos_site_id
 _symmetry_equiv_pos_as_xyz
  1  'x, y, z'
loop_
 _atom_site_type_symbol
 _atom_site_label
 _atom_site_symmetry_multiplicity
 _atom_site_fract_x
 _atom_site_fract_y
 _atom_site_fract_z
 _atom_site_occupancy
  Th  Th0  1  0.400305  0.392593  0.500000  1
  Th  Th1  1  0.599695  0.992289  0.500000  1
  Th  Th2  1  0.000000  0.613603  0.500000  1
  Zn  Zn3  1  0.000000  0.258147  0.000000  1
  Pt  Pt4  1  0.685160  0.328972  0.000000  1
  Pt  Pt5  1  0.314840  0.643812  0.000000  1
  Pt  Pt6  1  0.000000  0.030023  0.500000  1
  Au  Au7  1  0.733461  0.737011  0.000000  1
  Au  Au8  1  0.266539  0.003550  0.000000  1
