# generated using pymatgen
data_Tm4AlInGa4
_symmetry_space_group_name_H-M   'P 1'
_cell_length_a   7.04775700
_cell_length_b   7.04775700
_cell_length_c   4.37086500
_cell_angle_alpha   90.00000000
_cell_angle_beta   90.00000000
_cell_angle_gamma   90.00000000
_symmetry_Int_Tables_number   1
_chemical_formula_structural   Tm4AlInGa4
_chemical_formula_sum   'Tm4 Al1 In1 Ga4'
_cell_volume   217.10470536
_cell_formula_units_Z   1
loop_
 _symmetry_equiv_pos_site_id
 _symmetry_equiv_pos_as_xyz
  1  'x, y, z'
loop_
 _atom_site_type_symbol
 _atom_site_label
 _atom_site_symmetry_multiplicity
 _atom_site_fract_x
 _atom_site_fract_y
 _atom_site_fract_z
 _atom_site_occupancy
  Tm  Tm0  1  0.322942  0.167588  0.499999  1
  Tm  Tm1  1  0.832412  0.322942  0.499999  1
  Tm  Tm2  1  0.167588  0.677058  0.499999  1
  Tm  Tm3  1  0.677058  0.832412  0.499999  1
  Al  Al4  1  0.000000  0.000000  0.000000  1
  In  In5  1  0.500000  0.500000  0.000000  1
  Ga  Ga6  1  0.633914  0.123748  0.000000  1
  Ga  Ga7  1  0.123748  0.366086  0.000000  1
  Ga  Ga8  1  0.876252  0.633914  0.000000  1
  Ga  Ga9  1  0.366086  0.876252  0.000000  1
