# generated using pymatgen
data_La3Sm3(Sn3Hg2)2
_symmetry_space_group_name_H-M   'P 1'
_cell_length_a   6.61599161
_cell_length_b   6.61599168
_cell_length_c   10.47573019
_cell_angle_alpha   89.91657369
_cell_angle_beta   89.91657457
_cell_angle_gamma   103.02931389
_symmetry_Int_Tables_number   1
_chemical_formula_structural   La3Sm3(Sn3Hg2)2
_chemical_formula_sum   'La3 Sm3 Sn6 Hg4'
_cell_volume   446.73048204
_cell_formula_units_Z   1
loop_
 _symmetry_equiv_pos_site_id
 _symmetry_equiv_pos_as_xyz
  1  'x, y, z'
loop_
 _atom_site_type_symbol
 _atom_site_label
 _atom_site_symmetry_multiplicity
 _atom_site_fract_x
 _atom_site_fract_y
 _atom_site_fract_z
 _atom_site_occupancy
  La  La0  1  0.795948  0.204052  0.000000  1
  La  La1  1  0.204030  0.795970  0.000000  1
  La  La2  1  0.204850  0.795150  0.500000  1
  Sm  Sm3  1  0.627346  0.626471  0.250077  1
  Sm  Sm4  1  0.373529  0.372654  0.749923  1
  Sm  Sm5  1  0.795676  0.204324  0.500000  1
  Sn  Sn6  1  0.066482  0.491161  0.251141  1
  Sn  Sn7  1  0.931146  0.505825  0.748240  1
  Sn  Sn8  1  0.494175  0.068854  0.251760  1
  Sn  Sn9  1  0.508839  0.933518  0.748859  1
  Sn  Sn10  1  0.015743  0.017808  0.251901  1
  Sn  Sn11  1  0.982192  0.984257  0.748099  1
  Hg  Hg12  1  0.313966  0.313775  0.041563  1
  Hg  Hg13  1  0.686225  0.686034  0.958437  1
  Hg  Hg14  1  0.686163  0.686312  0.541134  1
  Hg  Hg15  1  0.313688  0.313837  0.458866  1
