# generated using pymatgen
data_DyHoTm2(B6Os)2
_symmetry_space_group_name_H-M   'P 1'
_cell_length_a   3.62958100
_cell_length_b   9.10291300
_cell_length_c   11.48710800
_cell_angle_alpha   90.00040093
_cell_angle_beta   90.00000000
_cell_angle_gamma   90.00000000
_symmetry_Int_Tables_number   1
_chemical_formula_structural   DyHoTm2(B6Os)2
_chemical_formula_sum   'Dy2 Ho2 Tm4 B24 Os4'
_cell_volume   379.53129221
_cell_formula_units_Z   2
loop_
 _symmetry_equiv_pos_site_id
 _symmetry_equiv_pos_as_xyz
  1  'x, y, z'
loop_
 _atom_site_type_symbol
 _atom_site_label
 _atom_site_symmetry_multiplicity
 _atom_site_fract_x
 _atom_site_fract_y
 _atom_site_fract_z
 _atom_site_occupancy
  Dy  Dy0  1  0.000000  0.321597  0.413887  1
  Dy  Dy1  1  0.000000  0.678403  0.586113  1
  Ho  Ho2  1  0.000000  0.821495  0.086013  1
  Ho  Ho3  1  0.000000  0.178505  0.913987  1
  Tm  Tm4  1  0.000000  0.944034  0.372967  1
  Tm  Tm5  1  0.000000  0.055966  0.627034  1
  Tm  Tm6  1  0.000000  0.444025  0.126853  1
  Tm  Tm7  1  0.000000  0.555975  0.873146  1
  B  B8  1  0.500000  0.554123  0.432937  1
  B  B9  1  0.500000  0.445877  0.567063  1
  B  B10  1  0.500000  0.053961  0.066807  1
  B  B11  1  0.500000  0.946039  0.933193  1
  B  B12  1  0.500000  0.748922  0.419652  1
  B  B13  1  0.500000  0.251078  0.580348  1
  B  B14  1  0.500000  0.248759  0.080061  1
  B  B15  1  0.500000  0.751241  0.919939  1
  B  B16  1  0.500000  0.791684  0.266113  1
  B  B17  1  0.500000  0.208316  0.733887  1
  B  B18  1  0.500000  0.291505  0.233566  1
  B  B19  1  0.500000  0.708494  0.766434  1
  B  B20  1  0.500000  0.631230  0.184724  1
  B  B21  1  0.500000  0.368770  0.815276  1
  B  B22  1  0.500000  0.131025  0.315032  1
  B  B23  1  0.500000  0.868975  0.684968  1
  B  B24  1  0.500000  0.982448  0.213271  1
  B  B25  1  0.500000  0.017552  0.786729  1
  B  B26  1  0.500000  0.482690  0.286463  1
  B  B27  1  0.500000  0.517310  0.713537  1
  B  B28  1  0.500000  0.606013  0.029288  1
  B  B29  1  0.500000  0.393987  0.970712  1
  B  B30  1  0.500000  0.105562  0.470826  1
  B  B31  1  0.500000  0.894438  0.529174  1
  Os  Os32  1  0.000000  0.637904  0.320664  1
  Os  Os33  1  0.000000  0.362096  0.679336  1
  Os  Os34  1  0.000000  0.137583  0.178959  1
  Os  Os35  1  0.000000  0.862417  0.821041  1
