# generated using pymatgen
data_Tm5BeP11Ir19
_symmetry_space_group_name_H-M   'P 1'
_cell_length_a   12.69176378
_cell_length_b   12.64656967
_cell_length_c   3.95211600
_cell_angle_alpha   90.00000000
_cell_angle_beta   90.00000000
_cell_angle_gamma   120.17624507
_symmetry_Int_Tables_number   1
_chemical_formula_structural   Tm5BeP11Ir19
_chemical_formula_sum   'Tm5 Be1 P11 Ir19'
_cell_volume   548.37923671
_cell_formula_units_Z   1
loop_
 _symmetry_equiv_pos_site_id
 _symmetry_equiv_pos_as_xyz
  1  'x, y, z'
loop_
 _atom_site_type_symbol
 _atom_site_label
 _atom_site_symmetry_multiplicity
 _atom_site_fract_x
 _atom_site_fract_y
 _atom_site_fract_z
 _atom_site_occupancy
  Tm  Tm0  1  0.346465  0.666923  0.500000  1
  Tm  Tm1  1  0.666797  0.334104  0.500000  1
  Tm  Tm2  1  0.999372  0.818013  0.000000  1
  Tm  Tm3  1  0.181183  0.182665  0.000000  1
  Tm  Tm4  1  0.810627  0.993450  0.000000  1
  Be  Be5  1  0.519669  0.683514  0.000000  1
  P  P6  1  0.002343  0.644922  0.500000  1
  P  P7  1  0.358195  0.363039  0.500000  1
  P  P8  1  0.639354  0.994444  0.500000  1
  P  P9  1  0.317762  0.829468  0.000000  1
  P  P10  1  0.172214  0.484237  0.000000  1
  P  P11  1  0.483100  0.176525  0.000000  1
  P  P12  1  0.690490  0.517077  0.000000  1
  P  P13  1  0.827029  0.310513  0.000000  1
  P  P14  1  0.994525  0.174615  0.500000  1
  P  P15  1  0.819380  0.818276  0.500000  1
  P  P16  1  0.178797  0.000399  0.500000  1
  Ir  Ir17  1  0.510811  0.868124  0.000000  1
  Ir  Ir18  1  0.135876  0.641414  0.000000  1
  Ir  Ir19  1  0.353755  0.484378  0.000000  1
  Ir  Ir20  1  0.493407  0.366210  0.000000  1
  Ir  Ir21  1  0.869522  0.506237  0.000000  1
  Ir  Ir22  1  0.636606  0.135147  0.000000  1
  Ir  Ir23  1  0.004128  0.464643  0.500000  1
  Ir  Ir24  1  0.533659  0.552950  0.500000  1
  Ir  Ir25  1  0.460533  0.998719  0.500000  1
  Ir  Ir26  1  0.998043  0.283748  0.000000  1
  Ir  Ir27  1  0.714210  0.712000  0.000000  1
  Ir  Ir28  1  0.286254  0.000422  0.000000  1
  Ir  Ir29  1  0.626871  0.805282  0.500000  1
  Ir  Ir30  1  0.196421  0.820060  0.500000  1
  Ir  Ir31  1  0.175615  0.372317  0.500000  1
  Ir  Ir32  1  0.374345  0.183477  0.500000  1
  Ir  Ir33  1  0.807526  0.622914  0.500000  1
  Ir  Ir34  1  0.815281  0.190891  0.500000  1
  Ir  Ir35  1  0.999839  0.998884  0.500000  1
