# generated using pymatgen
data_Nd3AlAg2Pd3
_symmetry_space_group_name_H-M   'P 1'
_cell_length_a   7.62879891
_cell_length_b   7.62879907
_cell_length_c   4.00295300
_cell_angle_alpha   90.00000000
_cell_angle_beta   90.00000000
_cell_angle_gamma   121.09909596
_symmetry_Int_Tables_number   1
_chemical_formula_structural   Nd3AlAg2Pd3
_chemical_formula_sum   'Nd3 Al1 Ag2 Pd3'
_cell_volume   199.48315026
_cell_formula_units_Z   1
loop_
 _symmetry_equiv_pos_site_id
 _symmetry_equiv_pos_as_xyz
  1  'x, y, z'
loop_
 _atom_site_type_symbol
 _atom_site_label
 _atom_site_symmetry_multiplicity
 _atom_site_fract_x
 _atom_site_fract_y
 _atom_site_fract_z
 _atom_site_occupancy
  Nd  Nd0  1  0.598828  0.007581  0.000000  1
  Nd  Nd1  1  0.007581  0.598828  0.000000  1
  Nd  Nd2  1  0.401488  0.401488  0.000000  1
  Al  Al3  1  0.752298  0.752298  0.500000  1
  Ag  Ag4  1  0.248060  0.001575  0.500000  1
  Ag  Ag5  1  0.001575  0.248060  0.500000  1
  Pd  Pd6  1  0.959465  0.959465  0.000000  1
  Pd  Pd7  1  0.356192  0.674514  0.500000  1
  Pd  Pd8  1  0.674514  0.356192  0.500000  1
