# generated using pymatgen
data_Dy12Co4SnRu
_symmetry_space_group_name_H-M   'P 1'
_cell_length_a   8.29464593
_cell_length_b   8.29464551
_cell_length_c   8.29464579
_cell_angle_alpha   106.68600125
_cell_angle_beta   110.52846791
_cell_angle_gamma   111.23541900
_symmetry_Int_Tables_number   1
_chemical_formula_structural   Dy12Co4SnRu
_chemical_formula_sum   'Dy12 Co4 Sn1 Ru1'
_cell_volume   438.51914022
_cell_formula_units_Z   1
loop_
 _symmetry_equiv_pos_site_id
 _symmetry_equiv_pos_as_xyz
  1  'x, y, z'
loop_
 _atom_site_type_symbol
 _atom_site_label
 _atom_site_symmetry_multiplicity
 _atom_site_fract_x
 _atom_site_fract_y
 _atom_site_fract_z
 _atom_site_occupancy
  Dy  Dy0  1  0.472947  0.288369  0.184578  1
  Dy  Dy1  1  0.103791  0.288369  0.815422  1
  Dy  Dy2  1  0.896209  0.711631  0.184578  1
  Dy  Dy3  1  0.527053  0.711631  0.815422  1
  Dy  Dy4  1  0.305672  0.618664  0.312992  1
  Dy  Dy5  1  0.305672  0.992681  0.687008  1
  Dy  Dy6  1  0.694328  0.381336  0.687008  1
  Dy  Dy7  1  0.694328  0.007319  0.312992  1
  Dy  Dy8  1  0.194098  0.213258  0.407355  1
  Dy  Dy9  1  0.805902  0.786742  0.592645  1
  Dy  Dy10  1  0.194098  0.786742  0.980839  1
  Dy  Dy11  1  0.805902  0.213258  0.019161  1
  Co  Co12  1  0.500000  0.611334  0.111334  1
  Co  Co13  1  0.500000  0.388666  0.888666  1
  Co  Co14  1  0.378555  0.000000  0.378555  1
  Co  Co15  1  0.621445  0.000000  0.621445  1
  Sn  Sn16  1  0.000000  0.500000  0.500000  1
  Ru  Ru17  1  0.000000  0.000000  0.000000  1
