# generated using pymatgen
data_Zr24BeAs3Se8
_symmetry_space_group_name_H-M   'P 1'
_cell_length_a   3.68591300
_cell_length_b   12.66759601
_cell_length_c   15.72109995
_cell_angle_alpha   89.80128277
_cell_angle_beta   90.00000000
_cell_angle_gamma   90.00000000
_symmetry_Int_Tables_number   1
_chemical_formula_structural   Zr24BeAs3Se8
_chemical_formula_sum   'Zr24 Be1 As3 Se8'
_cell_volume   734.03978868
_cell_formula_units_Z   1
loop_
 _symmetry_equiv_pos_site_id
 _symmetry_equiv_pos_as_xyz
  1  'x, y, z'
loop_
 _atom_site_type_symbol
 _atom_site_label
 _atom_site_symmetry_multiplicity
 _atom_site_fract_x
 _atom_site_fract_y
 _atom_site_fract_z
 _atom_site_occupancy
  Zr  Zr0  1  0.000000  0.345065  0.478173  1
  Zr  Zr1  1  0.000000  0.661954  0.511328  1
  Zr  Zr2  1  0.500000  0.152544  0.979402  1
  Zr  Zr3  1  0.500000  0.849053  0.020932  1
  Zr  Zr4  1  0.000000  0.083814  0.577983  1
  Zr  Zr5  1  0.000000  0.906556  0.423033  1
  Zr  Zr6  1  0.500000  0.416933  0.078463  1
  Zr  Zr7  1  0.500000  0.584306  0.923956  1
  Zr  Zr8  1  0.000000  0.697019  0.299677  1
  Zr  Zr9  1  0.000000  0.305178  0.704600  1
  Zr  Zr10  1  0.500000  0.805091  0.794126  1
  Zr  Zr11  1  0.500000  0.195078  0.205017  1
  Zr  Zr12  1  0.000000  0.030937  0.110167  1
  Zr  Zr13  1  0.000000  0.969071  0.889312  1
  Zr  Zr14  1  0.500000  0.470166  0.607665  1
  Zr  Zr15  1  0.500000  0.529647  0.392896  1
  Zr  Zr16  1  0.000000  0.619692  0.078438  1
  Zr  Zr17  1  0.000000  0.379750  0.923516  1
  Zr  Zr18  1  0.500000  0.881434  0.577955  1
  Zr  Zr19  1  0.500000  0.116500  0.423616  1
  Zr  Zr20  1  0.000000  0.411654  0.243411  1
  Zr  Zr21  1  0.000000  0.588010  0.756954  1
  Zr  Zr22  1  0.500000  0.087671  0.744208  1
  Zr  Zr23  1  0.500000  0.914019  0.254682  1
  Be  Be24  1  0.500000  0.757496  0.411606  1
  As  As25  1  0.000000  0.256351  0.085368  1
  As  As26  1  0.000000  0.744351  0.914223  1
  As  As27  1  0.500000  0.243989  0.585166  1
  Se  Se28  1  0.000000  0.815063  0.151391  1
  Se  Se29  1  0.000000  0.184916  0.849485  1
  Se  Se30  1  0.500000  0.683747  0.649030  1
  Se  Se31  1  0.500000  0.312454  0.349812  1
  Se  Se32  1  0.000000  0.070026  0.293886  1
  Se  Se33  1  0.000000  0.929426  0.707452  1
  Se  Se34  1  0.500000  0.429823  0.792631  1
  Se  Se35  1  0.500000  0.571211  0.210439  1
