# generated using pymatgen
data_Sc2FeSi2Rh
_symmetry_space_group_name_H-M   'P 1'
_cell_length_a   4.08327200
_cell_length_b   6.54471800
_cell_length_c   6.93502800
_cell_angle_alpha   90.00000000
_cell_angle_beta   90.00000000
_cell_angle_gamma   90.00000000
_symmetry_Int_Tables_number   1
_chemical_formula_structural   Sc2FeSi2Rh
_chemical_formula_sum   'Sc4 Fe2 Si4 Rh2'
_cell_volume   185.33074343
_cell_formula_units_Z   2
loop_
 _symmetry_equiv_pos_site_id
 _symmetry_equiv_pos_as_xyz
  1  'x, y, z'
loop_
 _atom_site_type_symbol
 _atom_site_label
 _atom_site_symmetry_multiplicity
 _atom_site_fract_x
 _atom_site_fract_y
 _atom_site_fract_z
 _atom_site_occupancy
  Sc  Sc0  1  0.750000  0.508866  0.807409  1
  Sc  Sc1  1  0.250000  0.999776  0.312566  1
  Sc  Sc2  1  0.750000  0.008866  0.692591  1
  Sc  Sc3  1  0.250000  0.499776  0.187434  1
  Fe  Fe4  1  0.250000  0.648393  0.562128  1
  Fe  Fe5  1  0.250000  0.148393  0.937872  1
  Si  Si6  1  0.250000  0.797726  0.872480  1
  Si  Si7  1  0.250000  0.297726  0.627520  1
  Si  Si8  1  0.750000  0.208360  0.095332  1
  Si  Si9  1  0.750000  0.708360  0.404668  1
  Rh  Rh10  1  0.750000  0.836879  0.062167  1
  Rh  Rh11  1  0.750000  0.336879  0.437833  1
