# generated using pymatgen
data_YbHo3(Rh2O7)2
_symmetry_space_group_name_H-M   'P 1'
_cell_length_a   7.19967589
_cell_length_b   7.19967656
_cell_length_c   7.20964175
_cell_angle_alpha   60.04571485
_cell_angle_beta   60.04571156
_cell_angle_gamma   59.99999799
_symmetry_Int_Tables_number   1
_chemical_formula_structural   YbHo3(Rh2O7)2
_chemical_formula_sum   'Yb1 Ho3 Rh4 O14'
_cell_volume   264.43829327
_cell_formula_units_Z   1
loop_
 _symmetry_equiv_pos_site_id
 _symmetry_equiv_pos_as_xyz
  1  'x, y, z'
loop_
 _atom_site_type_symbol
 _atom_site_label
 _atom_site_symmetry_multiplicity
 _atom_site_fract_x
 _atom_site_fract_y
 _atom_site_fract_z
 _atom_site_occupancy
  Yb  Yb0  1  0.625000  0.625000  0.125000  1
  Ho  Ho1  1  0.625000  0.625000  0.625000  1
  Ho  Ho2  1  0.625000  0.125000  0.625000  1
  Ho  Ho3  1  0.125000  0.625000  0.625000  1
  Rh  Rh4  1  0.125000  0.125000  0.125000  1
  Rh  Rh5  1  0.625000  0.125000  0.125000  1
  Rh  Rh6  1  0.125000  0.625000  0.125000  1
  Rh  Rh7  1  0.125000  0.125000  0.625000  1
  O  O8  1  0.039023  0.460281  0.461671  1
  O  O9  1  0.791844  0.791844  0.213719  1
  O  O10  1  0.791844  0.202594  0.213719  1
  O  O11  1  0.460281  0.039023  0.461671  1
  O  O12  1  0.752189  0.752189  0.743433  1
  O  O13  1  0.039023  0.039023  0.461671  1
  O  O14  1  0.047406  0.458156  0.036281  1
  O  O15  1  0.789719  0.210977  0.788329  1
  O  O16  1  0.202594  0.791844  0.213719  1
  O  O17  1  0.210977  0.210977  0.788329  1
  O  O18  1  0.497811  0.497811  0.506567  1
  O  O19  1  0.458156  0.047406  0.036281  1
  O  O20  1  0.458156  0.458156  0.036281  1
  O  O21  1  0.210977  0.789719  0.788329  1
