# generated using pymatgen
data_Tb4Dy2Si24OsRu7
_symmetry_space_group_name_H-M   'P 1'
_cell_length_a   10.11341000
_cell_length_b   10.11341007
_cell_length_c   8.15194001
_cell_angle_alpha   90.00016581
_cell_angle_beta   90.00016590
_cell_angle_gamma   132.47342638
_symmetry_Int_Tables_number   1
_chemical_formula_structural   Tb4Dy2Si24OsRu7
_chemical_formula_sum   'Tb4 Dy2 Si24 Os1 Ru7'
_cell_volume   614.99498761
_cell_formula_units_Z   1
loop_
 _symmetry_equiv_pos_site_id
 _symmetry_equiv_pos_as_xyz
  1  'x, y, z'
loop_
 _atom_site_type_symbol
 _atom_site_label
 _atom_site_symmetry_multiplicity
 _atom_site_fract_x
 _atom_site_fract_y
 _atom_site_fract_z
 _atom_site_occupancy
  Tb  Tb0  1  0.502381  0.002259  0.750128  1
  Tb  Tb1  1  0.997741  0.497619  0.249872  1
  Tb  Tb2  1  0.497748  0.997429  0.249724  1
  Tb  Tb3  1  0.002571  0.502252  0.750276  1
  Dy  Dy4  1  0.499957  0.500043  0.500000  1
  Dy  Dy5  1  0.000064  0.999936  0.000000  1
  Si  Si6  1  0.795249  0.204751  0.500000  1
  Si  Si7  1  0.294690  0.705310  0.000000  1
  Si  Si8  1  0.205343  0.794657  0.500000  1
  Si  Si9  1  0.705427  0.294573  0.000000  1
  Si  Si10  1  0.332183  0.332442  0.833630  1
  Si  Si11  1  0.667558  0.667817  0.166370  1
  Si  Si12  1  0.166949  0.166712  0.332583  1
  Si  Si13  1  0.833288  0.833051  0.667417  1
  Si  Si14  1  0.121641  0.887646  0.728610  1
  Si  Si15  1  0.112354  0.878359  0.271390  1
  Si  Si16  1  0.612346  0.378471  0.227046  1
  Si  Si17  1  0.621529  0.387654  0.772954  1
  Si  Si18  1  0.877525  0.111347  0.270802  1
  Si  Si19  1  0.888653  0.122475  0.729198  1
  Si  Si20  1  0.387530  0.622001  0.771981  1
  Si  Si21  1  0.377999  0.612470  0.228019  1
  Si  Si22  1  0.343935  0.110750  0.504868  1
  Si  Si23  1  0.889250  0.656065  0.495132  1
  Si  Si24  1  0.387923  0.154451  0.004493  1
  Si  Si25  1  0.845549  0.612077  0.995507  1
  Si  Si26  1  0.654122  0.887921  0.493931  1
  Si  Si27  1  0.112079  0.345878  0.506069  1
  Si  Si28  1  0.611952  0.845377  0.995437  1
  Si  Si29  1  0.154623  0.388048  0.004563  1
  Os  Os30  1  0.668987  0.331013  0.500000  1
  Ru  Ru31  1  0.168931  0.831069  0.000000  1
  Ru  Ru32  1  0.331099  0.668901  0.500000  1
  Ru  Ru33  1  0.831076  0.168924  0.000000  1
  Ru  Ru34  1  0.126834  0.127116  0.626292  1
  Ru  Ru35  1  0.872884  0.873166  0.373708  1
  Ru  Ru36  1  0.374444  0.374414  0.127396  1
  Ru  Ru37  1  0.625586  0.625556  0.872604  1
