# generated using pymatgen
data_NdPaZn5Sn
_symmetry_space_group_name_H-M   'P 1'
_cell_length_a   8.45359182
_cell_length_b   8.45359080
_cell_length_c   8.95655200
_cell_angle_alpha   90.00000000
_cell_angle_beta   90.00000000
_cell_angle_gamma   149.35920370
_symmetry_Int_Tables_number   1
_chemical_formula_structural   NdPaZn5Sn
_chemical_formula_sum   'Nd2 Pa2 Zn10 Sn2'
_cell_volume   326.21124018
_cell_formula_units_Z   2
loop_
 _symmetry_equiv_pos_site_id
 _symmetry_equiv_pos_as_xyz
  1  'x, y, z'
loop_
 _atom_site_type_symbol
 _atom_site_label
 _atom_site_symmetry_multiplicity
 _atom_site_fract_x
 _atom_site_fract_y
 _atom_site_fract_z
 _atom_site_occupancy
  Nd  Nd0  1  0.000000  0.000000  0.500000  1
  Nd  Nd1  1  0.000000  0.000000  0.000000  1
  Pa  Pa2  1  0.206599  0.793401  0.250000  1
  Pa  Pa3  1  0.793401  0.206599  0.750000  1
  Zn  Zn4  1  0.812432  0.187568  0.393377  1
  Zn  Zn5  1  0.187568  0.812432  0.606623  1
  Zn  Zn6  1  0.812432  0.187568  0.106623  1
  Zn  Zn7  1  0.187568  0.812432  0.893377  1
  Zn  Zn8  1  0.658860  0.341140  0.480914  1
  Zn  Zn9  1  0.341140  0.658860  0.519086  1
  Zn  Zn10  1  0.658860  0.341140  0.019086  1
  Zn  Zn11  1  0.341140  0.658860  0.980914  1
  Zn  Zn12  1  0.393816  0.606184  0.250000  1
  Zn  Zn13  1  0.606184  0.393816  0.750000  1
  Sn  Sn14  1  0.556926  0.443074  0.250000  1
  Sn  Sn15  1  0.443074  0.556926  0.750000  1
