# generated using pymatgen
data_Be8AlTc3
_symmetry_space_group_name_H-M   'P 1'
_cell_length_a   4.36647100
_cell_length_b   4.36647091
_cell_length_c   7.14350800
_cell_angle_alpha   90.00000000
_cell_angle_beta   90.00000000
_cell_angle_gamma   119.99999308
_symmetry_Int_Tables_number   1
_chemical_formula_structural   Be8AlTc3
_chemical_formula_sum   'Be8 Al1 Tc3'
_cell_volume   117.95146765
_cell_formula_units_Z   1
loop_
 _symmetry_equiv_pos_site_id
 _symmetry_equiv_pos_as_xyz
  1  'x, y, z'
loop_
 _atom_site_type_symbol
 _atom_site_label
 _atom_site_symmetry_multiplicity
 _atom_site_fract_x
 _atom_site_fract_y
 _atom_site_fract_z
 _atom_site_occupancy
  Be  Be0  1  0.000000  0.000000  0.007751  1
  Be  Be1  1  0.000000  0.000000  0.501147  1
  Be  Be2  1  0.828984  0.657968  0.252406  1
  Be  Be3  1  0.168489  0.831511  0.748236  1
  Be  Be4  1  0.663021  0.831511  0.748236  1
  Be  Be5  1  0.342032  0.171016  0.252406  1
  Be  Be6  1  0.828984  0.171016  0.252406  1
  Be  Be7  1  0.168489  0.336979  0.748236  1
  Al  Al8  1  0.333333  0.666667  0.434172  1
  Tc  Tc9  1  0.333333  0.666667  0.052110  1
  Tc  Tc10  1  0.666667  0.333333  0.565996  1
  Tc  Tc11  1  0.666667  0.333333  0.936898  1
