# generated using pymatgen
data_Cs2GeH12
_symmetry_space_group_name_H-M   'P 1'
_cell_length_a   6.33709419
_cell_length_b   6.20547956
_cell_length_c   9.72082747
_cell_angle_alpha   82.29302755
_cell_angle_beta   80.27645602
_cell_angle_gamma   53.56787324
_symmetry_Int_Tables_number   1
_chemical_formula_structural   Cs2GeH12
_chemical_formula_sum   'Cs2 Ge1 H12'
_cell_volume   302.86455522
_cell_formula_units_Z   1
loop_
 _symmetry_equiv_pos_site_id
 _symmetry_equiv_pos_as_xyz
  1  'x, y, z'
loop_
 _atom_site_type_symbol
 _atom_site_label
 _atom_site_symmetry_multiplicity
 _atom_site_fract_x
 _atom_site_fract_y
 _atom_site_fract_z
 _atom_site_occupancy
  Cs  Cs0  1  0.746703  0.043517  0.358361  1
  Cs  Cs1  1  0.276201  0.046124  0.863954  1
  Ge  Ge2  1  0.797909  0.457653  0.579993  1
  H  H3  1  0.007882  0.520449  0.591906  1
  H  H4  1  0.470756  0.518653  0.095378  1
  H  H5  1  0.738655  0.438446  0.747473  1
  H  H6  1  0.071092  0.389678  0.169445  1
  H  H7  1  0.926562  0.808334  0.906107  1
  H  H8  1  0.393664  0.836166  0.352368  1
  H  H9  1  0.342575  0.877114  0.281605  1
  H  H10  1  0.073506  0.510247  0.145190  1
  H  H11  1  0.559230  0.773208  0.574901  1
  H  H12  1  0.611180  0.391893  0.081860  1
  H  H13  1  0.039162  0.909887  0.094475  1
  H  H14  1  0.916430  0.772166  0.836715  1
