# generated using pymatgen
data_Gd2Th2(Al8Pt3)3
_symmetry_space_group_name_H-M   'P 1'
_cell_length_a   7.59054954
_cell_length_b   7.60447045
_cell_length_c   13.20918300
_cell_angle_alpha   84.49887363
_cell_angle_beta   78.97637767
_cell_angle_gamma   59.94083846
_symmetry_Int_Tables_number   1
_chemical_formula_structural   Gd2Th2(Al8Pt3)3
_chemical_formula_sum   'Gd2 Th2 Al24 Pt9'
_cell_volume   647.74087260
_cell_formula_units_Z   1
loop_
 _symmetry_equiv_pos_site_id
 _symmetry_equiv_pos_as_xyz
  1  'x, y, z'
loop_
 _atom_site_type_symbol
 _atom_site_label
 _atom_site_symmetry_multiplicity
 _atom_site_fract_x
 _atom_site_fract_y
 _atom_site_fract_z
 _atom_site_occupancy
  Gd  Gd0  1  0.394436  0.167770  0.807493  1
  Gd  Gd1  1  0.605564  0.832230  0.192507  1
  Th  Th2  1  0.733486  0.498924  0.806624  1
  Th  Th3  1  0.266514  0.501076  0.193376  1
  Al  Al4  1  0.684032  0.836321  0.945978  1
  Al  Al5  1  0.315968  0.163679  0.054022  1
  Al  Al6  1  0.146300  0.833431  0.561377  1
  Al  Al7  1  0.853700  0.166569  0.438623  1
  Al  Al8  1  0.480903  0.166270  0.558998  1
  Al  Al9  1  0.519097  0.833730  0.441002  1
  Al  Al10  1  0.215935  0.162076  0.333337  1
  Al  Al11  1  0.784065  0.837924  0.666663  1
  Al  Al12  1  0.435418  0.506427  0.666624  1
  Al  Al13  1  0.564582  0.493573  0.333376  1
  Al  Al14  1  0.114879  0.156237  0.665195  1
  Al  Al15  1  0.885121  0.843763  0.334805  1
  Al  Al16  1  0.349303  0.499769  0.944054  1
  Al  Al17  1  0.650697  0.500231  0.055946  1
  Al  Al18  1  0.017132  0.165024  0.954752  1
  Al  Al19  1  0.982868  0.834976  0.045248  1
  Al  Al20  1  0.186473  0.499636  0.442491  1
  Al  Al21  1  0.813527  0.500364  0.557509  1
  Al  Al22  1  0.738085  0.160851  0.183644  1
  Al  Al23  1  0.261915  0.839149  0.816356  1
  Al  Al24  1  0.063513  0.632478  0.814907  1
  Al  Al25  1  0.936487  0.367522  0.185093  1
  Al  Al26  1  0.856752  0.037436  0.815863  1
  Al  Al27  1  0.143248  0.962564  0.184137  1
  Pt  Pt28  1  0.119424  0.492313  0.638532  1
  Pt  Pt29  1  0.880576  0.507687  0.361468  1
  Pt  Pt30  1  0.656885  0.172766  0.999831  1
  Pt  Pt31  1  0.343115  0.827234  0.000169  1
  Pt  Pt32  1  0.536919  0.168040  0.361649  1
  Pt  Pt33  1  0.463081  0.831960  0.638351  1
  Pt  Pt34  1  0.780011  0.175482  0.637124  1
  Pt  Pt35  1  0.219989  0.824518  0.362876  1
  Pt  Pt36  1  0.000000  0.500000  0.000000  1
