# generated using pymatgen
data_DyHo(Tm5Ni2)2
_symmetry_space_group_name_H-M   'P 1'
_cell_length_a   6.27526900
_cell_length_b   6.74614916
_cell_length_c   9.44004000
_cell_angle_alpha   90.00000000
_cell_angle_beta   90.00000000
_cell_angle_gamma   90.01012307
_symmetry_Int_Tables_number   1
_chemical_formula_structural   DyHo(Tm5Ni2)2
_chemical_formula_sum   'Dy1 Ho1 Tm10 Ni4'
_cell_volume   399.63370972
_cell_formula_units_Z   1
loop_
 _symmetry_equiv_pos_site_id
 _symmetry_equiv_pos_as_xyz
  1  'x, y, z'
loop_
 _atom_site_type_symbol
 _atom_site_label
 _atom_site_symmetry_multiplicity
 _atom_site_fract_x
 _atom_site_fract_y
 _atom_site_fract_z
 _atom_site_occupancy
  Dy  Dy0  1  0.363764  0.969380  0.750000  1
  Ho  Ho1  1  0.636439  0.030935  0.250000  1
  Tm  Tm2  1  0.136969  0.467549  0.750000  1
  Tm  Tm3  1  0.862717  0.532610  0.250000  1
  Tm  Tm4  1  0.179288  0.179268  0.066275  1
  Tm  Tm5  1  0.820910  0.820843  0.934029  1
  Tm  Tm6  1  0.681507  0.322259  0.934461  1
  Tm  Tm7  1  0.820910  0.820843  0.565971  1
  Tm  Tm8  1  0.318643  0.677644  0.065932  1
  Tm  Tm9  1  0.179288  0.179268  0.433725  1
  Tm  Tm10  1  0.318643  0.677644  0.434068  1
  Tm  Tm11  1  0.681507  0.322259  0.565539  1
  Ni  Ni12  1  0.447879  0.392731  0.250000  1
  Ni  Ni13  1  0.552141  0.606393  0.750000  1
  Ni  Ni14  1  0.946252  0.108934  0.750000  1
  Ni  Ni15  1  0.053143  0.891439  0.250000  1
