# generated using pymatgen
data_Y6Sc2Co16Si5P7
_symmetry_space_group_name_H-M   'P 1'
_cell_length_a   3.77621900
_cell_length_b   10.81457566
_cell_length_c   12.45334378
_cell_angle_alpha   90.04028272
_cell_angle_beta   90.00000000
_cell_angle_gamma   90.00000000
_symmetry_Int_Tables_number   1
_chemical_formula_structural   Y6Sc2Co16Si5P7
_chemical_formula_sum   'Y6 Sc2 Co16 Si5 P7'
_cell_volume   508.57209399
_cell_formula_units_Z   1
loop_
 _symmetry_equiv_pos_site_id
 _symmetry_equiv_pos_as_xyz
  1  'x, y, z'
loop_
 _atom_site_type_symbol
 _atom_site_label
 _atom_site_symmetry_multiplicity
 _atom_site_fract_x
 _atom_site_fract_y
 _atom_site_fract_z
 _atom_site_occupancy
  Y  Y0  1  0.000000  0.503069  0.531019  1
  Y  Y1  1  0.500000  0.000240  0.469517  1
  Y  Y2  1  0.500000  0.820208  0.208128  1
  Y  Y3  1  0.500000  0.179623  0.206787  1
  Y  Y4  1  0.000000  0.680493  0.792753  1
  Y  Y5  1  0.000000  0.320594  0.793789  1
  Sc  Sc6  1  0.500000  0.499867  0.152063  1
  Sc  Sc7  1  0.000000  0.999315  0.848935  1
  Co  Co8  1  0.500000  0.504076  0.700153  1
  Co  Co9  1  0.000000  0.999988  0.300852  1
  Co  Co10  1  0.000000  0.500259  0.990764  1
  Co  Co11  1  0.500000  0.999705  0.010204  1
  Co  Co12  1  0.500000  0.329154  0.996665  1
  Co  Co13  1  0.500000  0.670886  0.997478  1
  Co  Co14  1  0.000000  0.170497  0.003810  1
  Co  Co15  1  0.000000  0.829003  0.004102  1
  Co  Co16  1  0.500000  0.293828  0.428942  1
  Co  Co17  1  0.500000  0.706929  0.433818  1
  Co  Co18  1  0.000000  0.200074  0.562829  1
  Co  Co19  1  0.000000  0.794377  0.565855  1
  Co  Co20  1  0.500000  0.876658  0.704484  1
  Co  Co21  1  0.500000  0.118529  0.706204  1
  Co  Co22  1  0.000000  0.622920  0.296226  1
  Co  Co23  1  0.000000  0.378964  0.295078  1
  Si  Si24  1  0.500000  0.500391  0.886537  1
  Si  Si25  1  0.000000  0.999716  0.114140  1
  Si  Si26  1  0.500000  0.500376  0.356654  1
  Si  Si27  1  0.000000  0.999460  0.643915  1
  Si  Si28  1  0.500000  0.304676  0.613715  1
  P  P29  1  0.500000  0.695461  0.615340  1
  P  P30  1  0.000000  0.194976  0.383312  1
  P  P31  1  0.000000  0.806374  0.384708  1
  P  P32  1  0.500000  0.838410  0.895398  1
  P  P33  1  0.500000  0.160644  0.895006  1
  P  P34  1  0.000000  0.661260  0.105846  1
  P  P35  1  0.000000  0.339002  0.104976  1
