# generated using pymatgen
data_CaGd4(TcO6)2
_symmetry_space_group_name_H-M   'P 1'
_cell_length_a   6.91730885
_cell_length_b   6.91730894
_cell_length_c   7.63335300
_cell_angle_alpha   73.62106716
_cell_angle_beta   73.62107557
_cell_angle_gamma   48.71236273
_symmetry_Int_Tables_number   1
_chemical_formula_structural   CaGd4(TcO6)2
_chemical_formula_sum   'Ca1 Gd4 Tc2 O12'
_cell_volume   260.97183325
_cell_formula_units_Z   1
loop_
 _symmetry_equiv_pos_site_id
 _symmetry_equiv_pos_as_xyz
  1  'x, y, z'
loop_
 _atom_site_type_symbol
 _atom_site_label
 _atom_site_symmetry_multiplicity
 _atom_site_fract_x
 _atom_site_fract_y
 _atom_site_fract_z
 _atom_site_occupancy
  Ca  Ca0  1  0.193709  0.193709  0.639678  1
  Gd  Gd1  1  0.498710  0.498710  0.499651  1
  Gd  Gd2  1  0.184471  0.184471  0.182923  1
  Gd  Gd3  1  0.816244  0.816244  0.817610  1
  Gd  Gd4  1  0.803683  0.803683  0.363292  1
  Tc  Tc5  1  0.721496  0.280171  0.998989  1
  Tc  Tc6  1  0.280171  0.721496  0.998989  1
  O  O7  1  0.998927  0.998927  0.174315  1
  O  O8  1  0.000449  0.000449  0.828075  1
  O  O9  1  0.501231  0.501231  0.800779  1
  O  O10  1  0.498210  0.498210  0.198202  1
  O  O11  1  0.604277  0.092455  0.575366  1
  O  O12  1  0.900750  0.406386  0.418421  1
  O  O13  1  0.406386  0.900750  0.418421  1
  O  O14  1  0.410977  0.906830  0.925136  1
  O  O15  1  0.089968  0.591057  0.079826  1
  O  O16  1  0.591057  0.089968  0.079826  1
  O  O17  1  0.906830  0.410977  0.925136  1
  O  O18  1  0.092455  0.604277  0.575366  1
