# generated using pymatgen
data_LiTbY3Al17Pd6
_symmetry_space_group_name_H-M   'P 1'
_cell_length_a   7.62331004
_cell_length_b   7.62356177
_cell_length_c   9.49651400
_cell_angle_alpha   90.00000000
_cell_angle_beta   90.00000000
_cell_angle_gamma   119.35802143
_symmetry_Int_Tables_number   1
_chemical_formula_structural   LiTbY3Al17Pd6
_chemical_formula_sum   'Li1 Tb1 Y3 Al17 Pd6'
_cell_volume   481.02717229
_cell_formula_units_Z   1
loop_
 _symmetry_equiv_pos_site_id
 _symmetry_equiv_pos_as_xyz
  1  'x, y, z'
loop_
 _atom_site_type_symbol
 _atom_site_label
 _atom_site_symmetry_multiplicity
 _atom_site_fract_x
 _atom_site_fract_y
 _atom_site_fract_z
 _atom_site_occupancy
  Li  Li0  1  0.129340  0.129327  0.250000  1
  Tb  Tb1  1  0.007314  0.330853  0.750000  1
  Y  Y2  1  0.994557  0.664652  0.250000  1
  Y  Y3  1  0.664648  0.994551  0.250000  1
  Y  Y4  1  0.330851  0.007310  0.750000  1
  Al  Al5  1  0.866988  0.867003  0.750000  1
  Al  Al6  1  0.001749  0.328577  0.079546  1
  Al  Al7  1  0.000356  0.665257  0.924916  1
  Al  Al8  1  0.000356  0.665257  0.575084  1
  Al  Al9  1  0.328569  0.001733  0.420448  1
  Al  Al10  1  0.001749  0.328577  0.420454  1
  Al  Al11  1  0.665181  0.000321  0.575083  1
  Al  Al12  1  0.665181  0.000321  0.924917  1
  Al  Al13  1  0.328569  0.001733  0.079552  1
  Al  Al14  1  0.334712  0.334688  0.548324  1
  Al  Al15  1  0.670673  0.670672  0.440570  1
  Al  Al16  1  0.670673  0.670672  0.059430  1
  Al  Al17  1  0.334712  0.334688  0.951676  1
  Al  Al18  1  0.339863  0.541823  0.250000  1
  Al  Al19  1  0.660008  0.452787  0.750000  1
  Al  Al20  1  0.541808  0.339847  0.250000  1
  Al  Al21  1  0.452777  0.659966  0.750000  1
  Pd  Pd22  1  0.674859  0.329677  0.000078  1
  Pd  Pd23  1  0.329735  0.674974  0.000085  1
  Pd  Pd24  1  0.329735  0.674974  0.499915  1
  Pd  Pd25  1  0.674859  0.329677  0.499922  1
  Pd  Pd26  1  0.000091  0.000040  0.993382  1
  Pd  Pd27  1  0.000091  0.000040  0.506618  1
