# generated using pymatgen
data_Ac2NiGe3
_symmetry_space_group_name_H-M   'P 1'
_cell_length_a   4.56747500
_cell_length_b   8.58275152
_cell_length_c   8.58275165
_cell_angle_alpha   119.99431320
_cell_angle_beta   90.00000000
_cell_angle_gamma   90.00000000
_symmetry_Int_Tables_number   1
_chemical_formula_structural   Ac2NiGe3
_chemical_formula_sum   'Ac4 Ni2 Ge6'
_cell_volume   291.39680116
_cell_formula_units_Z   2
loop_
 _symmetry_equiv_pos_site_id
 _symmetry_equiv_pos_as_xyz
  1  'x, y, z'
loop_
 _atom_site_type_symbol
 _atom_site_label
 _atom_site_symmetry_multiplicity
 _atom_site_fract_x
 _atom_site_fract_y
 _atom_site_fract_z
 _atom_site_occupancy
  Ac  Ac0  1  0.500000  0.000006  0.000006  1
  Ac  Ac1  1  0.500000  0.000013  0.500445  1
  Ac  Ac2  1  0.500000  0.499564  0.499564  1
  Ac  Ac3  1  0.500000  0.500445  0.000013  1
  Ni  Ni4  1  0.000000  0.666713  0.333313  1
  Ni  Ni5  1  0.000000  0.333313  0.666713  1
  Ge  Ge6  1  0.000000  0.826736  0.173655  1
  Ge  Ge7  1  0.000000  0.826333  0.653012  1
  Ge  Ge8  1  0.000000  0.347023  0.173285  1
  Ge  Ge9  1  0.000000  0.173655  0.826736  1
  Ge  Ge10  1  0.000000  0.653012  0.826333  1
  Ge  Ge11  1  0.000000  0.173285  0.347023  1
