# generated using pymatgen
data_Dy2Mn4Co6Ni2P7
_symmetry_space_group_name_H-M   'P 1'
_cell_length_a   9.10834811
_cell_length_b   9.10443359
_cell_length_c   3.62647900
_cell_angle_alpha   90.00000000
_cell_angle_beta   90.00000000
_cell_angle_gamma   119.88516364
_symmetry_Int_Tables_number   1
_chemical_formula_structural   Dy2Mn4Co6Ni2P7
_chemical_formula_sum   'Dy2 Mn4 Co6 Ni2 P7'
_cell_volume   260.74124854
_cell_formula_units_Z   1
loop_
 _symmetry_equiv_pos_site_id
 _symmetry_equiv_pos_as_xyz
  1  'x, y, z'
loop_
 _atom_site_type_symbol
 _atom_site_label
 _atom_site_symmetry_multiplicity
 _atom_site_fract_x
 _atom_site_fract_y
 _atom_site_fract_z
 _atom_site_occupancy
  Dy  Dy0  1  0.666992  0.334403  0.000000  1
  Dy  Dy1  1  0.334041  0.666773  0.500000  1
  Mn  Mn2  1  0.843595  0.119558  0.000000  1
  Mn  Mn3  1  0.118578  0.900341  0.500000  1
  Mn  Mn4  1  0.100033  0.217985  0.500000  1
  Mn  Mn5  1  0.776585  0.880197  0.500000  1
  Co  Co6  1  0.570151  0.630875  0.000000  1
  Co  Co7  1  0.881647  0.725166  0.000000  1
  Co  Co8  1  0.278179  0.158479  0.000000  1
  Co  Co9  1  0.948621  0.562936  0.500000  1
  Co  Co10  1  0.438021  0.387810  0.500000  1
  Co  Co11  1  0.610373  0.047797  0.500000  1
  Ni  Ni12  1  0.368373  0.936828  0.000000  1
  Ni  Ni13  1  0.065506  0.432177  0.000000  1
  P  P14  1  0.106915  0.696682  0.000000  1
  P  P15  1  0.305340  0.412231  0.000000  1
  P  P16  1  0.590940  0.888727  0.000000  1
  P  P17  1  0.711527  0.595215  0.500000  1
  P  P18  1  0.407092  0.120479  0.500000  1
  P  P19  1  0.876693  0.284757  0.500000  1
  P  P20  1  0.000796  0.000587  0.000000  1
