# generated using pymatgen
data_Tm2ThZr(Ga3Ir)6
_symmetry_space_group_name_H-M   'P 1'
_cell_length_a   7.59209916
_cell_length_b   7.59395872
_cell_length_c   9.42684300
_cell_angle_alpha   90.00000000
_cell_angle_beta   90.00000000
_cell_angle_gamma   119.89156247
_symmetry_Int_Tables_number   1
_chemical_formula_structural   Tm2ThZr(Ga3Ir)6
_chemical_formula_sum   'Tm2 Th1 Zr1 Ga18 Ir6'
_cell_volume   471.19483604
_cell_formula_units_Z   1
loop_
 _symmetry_equiv_pos_site_id
 _symmetry_equiv_pos_as_xyz
  1  'x, y, z'
loop_
 _atom_site_type_symbol
 _atom_site_label
 _atom_site_symmetry_multiplicity
 _atom_site_fract_x
 _atom_site_fract_y
 _atom_site_fract_z
 _atom_site_occupancy
  Tm  Tm0  1  0.003608  0.331297  0.250000  1
  Tm  Tm1  1  0.330184  0.002944  0.250000  1
  Th  Th2  1  0.996422  0.669141  0.750000  1
  Zr  Zr3  1  0.669536  0.996282  0.750000  1
  Ga  Ga4  1  0.127354  0.130904  0.750000  1
  Ga  Ga5  1  0.872891  0.874926  0.250000  1
  Ga  Ga6  1  0.996250  0.326073  0.578323  1
  Ga  Ga7  1  0.001844  0.665334  0.412933  1
  Ga  Ga8  1  0.001844  0.665334  0.087067  1
  Ga  Ga9  1  0.342900  0.004141  0.921643  1
  Ga  Ga10  1  0.996250  0.326073  0.921677  1
  Ga  Ga11  1  0.665699  0.002687  0.079971  1
  Ga  Ga12  1  0.665699  0.002687  0.420029  1
  Ga  Ga13  1  0.342900  0.004141  0.578357  1
  Ga  Ga14  1  0.330818  0.330703  0.069613  1
  Ga  Ga15  1  0.662746  0.670278  0.936365  1
  Ga  Ga16  1  0.662746  0.670278  0.563635  1
  Ga  Ga17  1  0.330818  0.330703  0.430387  1
  Ga  Ga18  1  0.343689  0.549025  0.750000  1
  Ga  Ga19  1  0.659038  0.451332  0.250000  1
  Ga  Ga20  1  0.542260  0.334703  0.750000  1
  Ga  Ga21  1  0.452486  0.660914  0.250000  1
  Ir  Ir22  1  0.673961  0.330634  0.501343  1
  Ir  Ir23  1  0.327025  0.671744  0.500923  1
  Ir  Ir24  1  0.327025  0.671744  0.999077  1
  Ir  Ir25  1  0.673961  0.330634  0.998657  1
  Ir  Ir26  1  0.000025  0.997672  0.501148  1
  Ir  Ir27  1  0.000025  0.997672  0.998852  1
