# generated using pymatgen
data_Ho4In3Ag
_symmetry_space_group_name_H-M   'P 1'
_cell_length_a   3.61086800
_cell_length_b   3.61086800
_cell_length_c   15.79402000
_cell_angle_alpha   90.00000000
_cell_angle_beta   90.00000000
_cell_angle_gamma   90.00000000
_symmetry_Int_Tables_number   1
_chemical_formula_structural   Ho4In3Ag
_chemical_formula_sum   'Ho4 In3 Ag1'
_cell_volume   205.92824043
_cell_formula_units_Z   1
loop_
 _symmetry_equiv_pos_site_id
 _symmetry_equiv_pos_as_xyz
  1  'x, y, z'
loop_
 _atom_site_type_symbol
 _atom_site_label
 _atom_site_symmetry_multiplicity
 _atom_site_fract_x
 _atom_site_fract_y
 _atom_site_fract_z
 _atom_site_occupancy
  Ho  Ho0  1  0.500000  0.500000  0.114247  1
  Ho  Ho1  1  0.500000  0.500000  0.370959  1
  Ho  Ho2  1  0.500000  0.500000  0.629041  1
  Ho  Ho3  1  0.500000  0.500000  0.885753  1
  In  In4  1  0.000000  0.000000  0.242122  1
  In  In5  1  0.000000  0.000000  0.500000  1
  In  In6  1  0.000000  0.000000  0.757878  1
  Ag  Ag7  1  0.000000  0.000000  0.000000  1
