# generated using pymatgen
data_Nd5DyRuI10
_symmetry_space_group_name_H-M   'P 1'
_cell_length_a   7.96589366
_cell_length_b   9.99826257
_cell_length_c   9.95608137
_cell_angle_alpha   107.22265710
_cell_angle_beta   104.57000630
_cell_angle_gamma   96.48433062
_symmetry_Int_Tables_number   1
_chemical_formula_structural   Nd5DyRuI10
_chemical_formula_sum   'Nd5 Dy1 Ru1 I10'
_cell_volume   717.81861329
_cell_formula_units_Z   1
loop_
 _symmetry_equiv_pos_site_id
 _symmetry_equiv_pos_as_xyz
  1  'x, y, z'
loop_
 _atom_site_type_symbol
 _atom_site_label
 _atom_site_symmetry_multiplicity
 _atom_site_fract_x
 _atom_site_fract_y
 _atom_site_fract_z
 _atom_site_occupancy
  Nd  Nd0  1  0.355478  0.171376  0.127464  1
  Nd  Nd1  1  0.030924  0.914682  0.717908  1
  Nd  Nd2  1  0.965545  0.083106  0.280835  1
  Nd  Nd3  1  0.114896  0.760553  0.042346  1
  Nd  Nd4  1  0.880150  0.237389  0.955359  1
  Dy  Dy5  1  0.653317  0.832939  0.875608  1
  Ru  Ru6  1  0.998054  0.999426  0.999190  1
  I  I7  1  0.646524  0.729298  0.556424  1
  I  I8  1  0.348949  0.270644  0.450967  1
  I  I9  1  0.229851  0.657030  0.746416  1
  I  I10  1  0.781425  0.348311  0.257262  1
  I  I11  1  0.455553  0.085205  0.814736  1
  I  I12  1  0.546022  0.906470  0.178254  1
  I  I13  1  0.253580  0.458644  0.085523  1
  I  I14  1  0.740121  0.545532  0.911949  1
  I  I15  1  0.086239  0.819175  0.370402  1
  I  I16  1  0.913370  0.180220  0.629358  1
