# generated using pymatgen
data_HoLu(Co3Si2)2
_symmetry_space_group_name_H-M   'P 1'
_cell_length_a   6.24596123
_cell_length_b   6.24124406
_cell_length_c   6.24596210
_cell_angle_alpha   130.62299908
_cell_angle_beta   112.91146706
_cell_angle_gamma   87.71182325
_symmetry_Int_Tables_number   1
_chemical_formula_structural   HoLu(Co3Si2)2
_chemical_formula_sum   'Ho1 Lu1 Co6 Si4'
_cell_volume   162.09156611
_cell_formula_units_Z   1
loop_
 _symmetry_equiv_pos_site_id
 _symmetry_equiv_pos_as_xyz
  1  'x, y, z'
loop_
 _atom_site_type_symbol
 _atom_site_label
 _atom_site_symmetry_multiplicity
 _atom_site_fract_x
 _atom_site_fract_y
 _atom_site_fract_z
 _atom_site_occupancy
  Ho  Ho0  1  0.250009  0.529915  0.279906  1
  Lu  Lu1  1  0.749974  0.467079  0.717105  1
  Co  Co2  1  0.000070  0.000529  0.500639  1
  Co  Co3  1  0.499890  0.000529  0.000459  1
  Co  Co4  1  0.724588  0.001602  0.724728  1
  Co  Co5  1  0.223214  0.500152  0.724772  1
  Co  Co6  1  0.276874  0.001602  0.277013  1
  Co  Co7  1  0.775380  0.500152  0.276937  1
  Si  Si8  1  0.079959  0.872907  0.792948  1
  Si  Si9  1  0.918133  0.124406  0.206273  1
  Si  Si10  1  0.581893  0.787999  0.206104  1
  Si  Si11  1  0.420016  0.213131  0.793115  1
