# generated using pymatgen
data_Hf7Sc(TcIr)4
_symmetry_space_group_name_H-M   'P 1'
_cell_length_a   6.50654800
_cell_length_b   4.62220700
_cell_length_c   9.23164800
_cell_angle_alpha   90.00000000
_cell_angle_beta   89.99901036
_cell_angle_gamma   90.00000000
_symmetry_Int_Tables_number   1
_chemical_formula_structural   Hf7Sc(TcIr)4
_chemical_formula_sum   'Hf7 Sc1 Tc4 Ir4'
_cell_volume   277.63822904
_cell_formula_units_Z   1
loop_
 _symmetry_equiv_pos_site_id
 _symmetry_equiv_pos_as_xyz
  1  'x, y, z'
loop_
 _atom_site_type_symbol
 _atom_site_label
 _atom_site_symmetry_multiplicity
 _atom_site_fract_x
 _atom_site_fract_y
 _atom_site_fract_z
 _atom_site_occupancy
  Hf  Hf0  1  0.000133  0.749999  0.125019  1
  Hf  Hf1  1  0.500226  0.250001  0.372711  1
  Hf  Hf2  1  0.999860  0.250001  0.373869  1
  Hf  Hf3  1  0.000122  0.749999  0.625020  1
  Hf  Hf4  1  0.499326  0.749999  0.625019  1
  Hf  Hf5  1  0.999865  0.250001  0.876119  1
  Hf  Hf6  1  0.500228  0.250001  0.877277  1
  Sc  Sc7  1  0.500203  0.749999  0.124975  1
  Tc  Tc8  1  0.752219  0.250001  0.124995  1
  Tc  Tc9  1  0.249075  0.749999  0.376607  1
  Tc  Tc10  1  0.749509  0.250001  0.624995  1
  Tc  Tc11  1  0.249061  0.749999  0.873397  1
  Ir  Ir12  1  0.248982  0.250001  0.124985  1
  Ir  Ir13  1  0.750465  0.749999  0.376046  1
  Ir  Ir14  1  0.250251  0.250001  0.624986  1
  Ir  Ir15  1  0.750477  0.749999  0.873978  1
