# generated using pymatgen
data_Y2Ho5Er(WO6)4
_symmetry_space_group_name_H-M   'P 1'
_cell_length_a   5.38663101
_cell_length_b   7.69355617
_cell_length_c   11.45099119
_cell_angle_alpha   75.36119124
_cell_angle_beta   90.00118674
_cell_angle_gamma   89.99316142
_symmetry_Int_Tables_number   1
_chemical_formula_structural   Y2Ho5Er(WO6)4
_chemical_formula_sum   'Y2 Ho5 Er1 W4 O24'
_cell_volume   459.15102546
_cell_formula_units_Z   1
loop_
 _symmetry_equiv_pos_site_id
 _symmetry_equiv_pos_as_xyz
  1  'x, y, z'
loop_
 _atom_site_type_symbol
 _atom_site_label
 _atom_site_symmetry_multiplicity
 _atom_site_fract_x
 _atom_site_fract_y
 _atom_site_fract_z
 _atom_site_occupancy
  Y  Y0  1  0.684359  0.500002  0.249995  1
  Y  Y1  1  0.315653  0.499941  0.750041  1
  Ho  Ho2  1  0.183759  0.205216  0.422076  1
  Ho  Ho3  1  0.183740  0.794830  0.077907  1
  Ho  Ho4  1  0.816235  0.794774  0.577930  1
  Ho  Ho5  1  0.740746  0.000015  0.249959  1
  Ho  Ho6  1  0.259250  0.000034  0.750044  1
  Er  Er7  1  0.816222  0.205392  0.921940  1
  W  W8  1  0.255899  0.275616  0.114907  1
  W  W9  1  0.255924  0.724369  0.385022  1
  W  W10  1  0.744043  0.724329  0.885038  1
  W  W11  1  0.744106  0.275619  0.615026  1
  O  O12  1  0.458116  0.207417  0.273495  1
  O  O13  1  0.458115  0.792561  0.226493  1
  O  O14  1  0.541875  0.792543  0.726496  1
  O  O15  1  0.542346  0.207382  0.773801  1
  O  O16  1  0.043707  0.059864  0.104339  1
  O  O17  1  0.043907  0.940251  0.395512  1
  O  O18  1  0.955806  0.940727  0.895556  1
  O  O19  1  0.956105  0.059762  0.604481  1
  O  O20  1  0.981099  0.287809  0.229122  1
  O  O21  1  0.981068  0.712184  0.270885  1
  O  O22  1  0.018931  0.712225  0.770900  1
  O  O23  1  0.018746  0.287722  0.729330  1
  O  O24  1  0.849678  0.364780  0.451776  1
  O  O25  1  0.849680  0.635225  0.048220  1
  O  O26  1  0.150326  0.635210  0.548227  1
  O  O27  1  0.149721  0.364518  0.951723  1
  O  O28  1  0.640950  0.510068  0.614230  1
  O  O29  1  0.641252  0.489557  0.885815  1
  O  O30  1  0.359052  0.489922  0.385758  1
  O  O31  1  0.359018  0.510044  0.114224  1
  O  O32  1  0.464365  0.153388  0.569580  1
  O  O33  1  0.464341  0.846581  0.930448  1
  O  O34  1  0.535637  0.846629  0.430452  1
  O  O35  1  0.536221  0.153492  0.069253  1
