# generated using pymatgen
data_Dy2Y2AlRh
_symmetry_space_group_name_H-M   'P 1'
_cell_length_a   9.53885972
_cell_length_b   9.53889599
_cell_length_c   9.55136245
_cell_angle_alpha   60.05882265
_cell_angle_beta   60.05866035
_cell_angle_gamma   60.20138961
_symmetry_Int_Tables_number   1
_chemical_formula_structural   Dy2Y2AlRh
_chemical_formula_sum   'Dy8 Y8 Al4 Rh4'
_cell_volume   616.00998146
_cell_formula_units_Z   4
loop_
 _symmetry_equiv_pos_site_id
 _symmetry_equiv_pos_as_xyz
  1  'x, y, z'
loop_
 _atom_site_type_symbol
 _atom_site_label
 _atom_site_symmetry_multiplicity
 _atom_site_fract_x
 _atom_site_fract_y
 _atom_site_fract_z
 _atom_site_occupancy
  Dy  Dy0  1  0.599471  0.599493  0.600153  1
  Dy  Dy1  1  0.604957  0.604980  0.188995  1
  Dy  Dy2  1  0.605485  0.189012  0.604913  1
  Dy  Dy3  1  0.189032  0.605492  0.604906  1
  Dy  Dy4  1  0.057010  0.442832  0.442784  1
  Dy  Dy5  1  0.442013  0.058001  0.058118  1
  Dy  Dy6  1  0.442823  0.057022  0.442795  1
  Dy  Dy7  1  0.057998  0.442012  0.058138  1
  Y  Y8  1  0.443303  0.443289  0.056012  1
  Y  Y9  1  0.057453  0.057447  0.442812  1
  Y  Y10  1  0.187790  0.813672  0.813436  1
  Y  Y11  1  0.812585  0.188842  0.188794  1
  Y  Y12  1  0.813688  0.187797  0.813413  1
  Y  Y13  1  0.188836  0.812567  0.188802  1
  Y  Y14  1  0.812930  0.812962  0.188537  1
  Y  Y15  1  0.189306  0.189296  0.812043  1
  Al  Al16  1  0.828438  0.828431  0.827653  1
  Al  Al17  1  0.826282  0.826277  0.517842  1
  Al  Al18  1  0.825762  0.517664  0.826222  1
  Al  Al19  1  0.517663  0.825759  0.826226  1
  Rh  Rh20  1  0.392688  0.392698  0.397264  1
  Rh  Rh21  1  0.389852  0.389830  0.820221  1
  Rh  Rh22  1  0.394040  0.820614  0.389947  1
  Rh  Rh23  1  0.820596  0.394011  0.389975  1
