# generated using pymatgen
data_Dy6HoEr13Sn16
_symmetry_space_group_name_H-M   'P 1'
_cell_length_a   7.99861193
_cell_length_b   8.13123542
_cell_length_c   15.37243900
_cell_angle_alpha   90.02116733
_cell_angle_beta   90.09470491
_cell_angle_gamma   89.95188057
_symmetry_Int_Tables_number   1
_chemical_formula_structural   Dy6HoEr13Sn16
_chemical_formula_sum   'Dy6 Ho1 Er13 Sn16'
_cell_volume   999.80007270
_cell_formula_units_Z   1
loop_
 _symmetry_equiv_pos_site_id
 _symmetry_equiv_pos_as_xyz
  1  'x, y, z'
loop_
 _atom_site_type_symbol
 _atom_site_label
 _atom_site_symmetry_multiplicity
 _atom_site_fract_x
 _atom_site_fract_y
 _atom_site_fract_z
 _atom_site_occupancy
  Dy  Dy0  1  0.479706  0.679020  0.403279  1
  Dy  Dy1  1  0.979312  0.820793  0.096891  1
  Dy  Dy2  1  0.479366  0.678850  0.096845  1
  Dy  Dy3  1  0.979728  0.820841  0.403353  1
  Dy  Dy4  1  0.520074  0.321171  0.596901  1
  Dy  Dy5  1  0.020650  0.179331  0.902911  1
  Ho  Ho6  1  0.020448  0.179263  0.597260  1
  Er  Er7  1  0.367152  0.837420  0.877152  1
  Er  Er8  1  0.866439  0.662739  0.622891  1
  Er  Er9  1  0.633094  0.162641  0.377339  1
  Er  Er10  1  0.132703  0.337564  0.122410  1
  Er  Er11  1  0.632599  0.162504  0.122506  1
  Er  Er12  1  0.133253  0.337285  0.377386  1
  Er  Er13  1  0.366817  0.837567  0.623033  1
  Er  Er14  1  0.867367  0.662605  0.877229  1
  Er  Er15  1  0.521628  0.321312  0.902573  1
  Er  Er16  1  0.198311  0.503517  0.750150  1
  Er  Er17  1  0.698170  0.996476  0.750142  1
  Er  Er18  1  0.801711  0.495998  0.249900  1
  Er  Er19  1  0.301855  0.003674  0.250083  1
  Sn  Sn20  1  0.293781  0.037566  0.041486  1
  Sn  Sn21  1  0.794379  0.462062  0.458553  1
  Sn  Sn22  1  0.705583  0.962307  0.541580  1
  Sn  Sn23  1  0.207223  0.536792  0.958043  1
  Sn  Sn24  1  0.705749  0.962707  0.958332  1
  Sn  Sn25  1  0.205135  0.538379  0.541564  1
  Sn  Sn26  1  0.294292  0.037871  0.458654  1
  Sn  Sn27  1  0.793184  0.461774  0.041064  1
  Sn  Sn28  1  0.564242  0.619228  0.750152  1
  Sn  Sn29  1  0.064220  0.880362  0.749947  1
  Sn  Sn30  1  0.435580  0.380390  0.249778  1
  Sn  Sn31  1  0.935674  0.119645  0.249810  1
  Sn  Sn32  1  0.331006  0.148823  0.750461  1
  Sn  Sn33  1  0.829942  0.351762  0.750091  1
  Sn  Sn34  1  0.669891  0.851307  0.250097  1
  Sn  Sn35  1  0.169735  0.648453  0.250153  1
