# generated using pymatgen
data_Tb(Dy2Rh)3
_symmetry_space_group_name_H-M   'P 1'
_cell_length_a   9.80949319
_cell_length_b   9.80949278
_cell_length_c   6.19316016
_cell_angle_alpha   89.97756577
_cell_angle_beta   90.02243560
_cell_angle_gamma   120.00216569
_symmetry_Int_Tables_number   1
_chemical_formula_structural   Tb(Dy2Rh)3
_chemical_formula_sum   'Tb2 Dy12 Rh6'
_cell_volume   516.09130534
_cell_formula_units_Z   2
loop_
 _symmetry_equiv_pos_site_id
 _symmetry_equiv_pos_as_xyz
  1  'x, y, z'
loop_
 _atom_site_type_symbol
 _atom_site_label
 _atom_site_symmetry_multiplicity
 _atom_site_fract_x
 _atom_site_fract_y
 _atom_site_fract_z
 _atom_site_occupancy
  Tb  Tb0  1  0.081109  0.540495  0.945255  1
  Tb  Tb1  1  0.459505  0.918891  0.945255  1
  Dy  Dy2  1  0.333373  0.666627  0.456614  1
  Dy  Dy3  1  0.666634  0.333366  0.956805  1
  Dy  Dy4  1  0.123831  0.876169  0.253984  1
  Dy  Dy5  1  0.752346  0.876154  0.253981  1
  Dy  Dy6  1  0.123846  0.247654  0.253981  1
  Dy  Dy7  1  0.876153  0.123847  0.753929  1
  Dy  Dy8  1  0.247700  0.123889  0.753939  1
  Dy  Dy9  1  0.876111  0.752300  0.753939  1
  Dy  Dy10  1  0.540698  0.459302  0.445062  1
  Dy  Dy11  1  0.918524  0.459287  0.445033  1
  Dy  Dy12  1  0.540713  0.081476  0.445033  1
  Dy  Dy13  1  0.459452  0.540548  0.945025  1
  Rh  Rh14  1  0.810087  0.189913  0.179942  1
  Rh  Rh15  1  0.379914  0.190062  0.179914  1
  Rh  Rh16  1  0.809938  0.620086  0.179914  1
  Rh  Rh17  1  0.189795  0.810205  0.679572  1
  Rh  Rh18  1  0.620196  0.809924  0.679692  1
  Rh  Rh19  1  0.190076  0.379804  0.679692  1
