# generated using pymatgen
data_Dy18MgIr12Pb
_symmetry_space_group_name_H-M   'P 1'
_cell_length_a   10.85869700
_cell_length_b   10.85869700
_cell_length_c   6.30665200
_cell_angle_alpha   90.00000000
_cell_angle_beta   90.00000000
_cell_angle_gamma   90.00000000
_symmetry_Int_Tables_number   1
_chemical_formula_structural   Dy18MgIr12Pb
_chemical_formula_sum   'Dy18 Mg1 Ir12 Pb1'
_cell_volume   743.62553936
_cell_formula_units_Z   1
loop_
 _symmetry_equiv_pos_site_id
 _symmetry_equiv_pos_as_xyz
  1  'x, y, z'
loop_
 _atom_site_type_symbol
 _atom_site_label
 _atom_site_symmetry_multiplicity
 _atom_site_fract_x
 _atom_site_fract_y
 _atom_site_fract_z
 _atom_site_occupancy
  Dy  Dy0  1  0.284214  0.084937  0.381446  1
  Dy  Dy1  1  0.291510  0.911384  0.878540  1
  Dy  Dy2  1  0.708490  0.088616  0.878540  1
  Dy  Dy3  1  0.715786  0.915063  0.381446  1
  Dy  Dy4  1  0.587410  0.787186  0.880146  1
  Dy  Dy5  1  0.587831  0.206555  0.379394  1
  Dy  Dy6  1  0.412169  0.793445  0.379394  1
  Dy  Dy7  1  0.412590  0.212814  0.880146  1
  Dy  Dy8  1  0.206555  0.412169  0.620606  1
  Dy  Dy9  1  0.212814  0.587410  0.119854  1
  Dy  Dy10  1  0.787186  0.412590  0.119854  1
  Dy  Dy11  1  0.793445  0.587831  0.620606  1
  Dy  Dy12  1  0.911384  0.708490  0.121460  1
  Dy  Dy13  1  0.915063  0.284214  0.618554  1
  Dy  Dy14  1  0.084937  0.715786  0.618554  1
  Dy  Dy15  1  0.088616  0.291510  0.121460  1
  Dy  Dy16  1  0.000000  0.000000  0.000000  1
  Dy  Dy17  1  0.500000  0.500000  0.500000  1
  Mg  Mg18  1  0.000000  0.000000  0.500000  1
  Ir  Ir19  1  0.847354  0.155736  0.243880  1
  Ir  Ir20  1  0.844264  0.847354  0.756120  1
  Ir  Ir21  1  0.155736  0.152646  0.756120  1
  Ir  Ir22  1  0.152646  0.844264  0.243880  1
  Ir  Ir23  1  0.659706  0.343560  0.740385  1
  Ir  Ir24  1  0.656440  0.659706  0.259615  1
  Ir  Ir25  1  0.343560  0.340294  0.259615  1
  Ir  Ir26  1  0.340294  0.656440  0.740385  1
  Ir  Ir27  1  0.500000  0.000000  0.122073  1
  Ir  Ir28  1  0.500000  0.000000  0.622528  1
  Ir  Ir29  1  0.000000  0.500000  0.877927  1
  Ir  Ir30  1  0.000000  0.500000  0.377472  1
  Pb  Pb31  1  0.500000  0.500000  0.000000  1
