# generated using pymatgen
data_Pr2Nd10Os2I17
_symmetry_space_group_name_H-M   'P 1'
_cell_length_a   10.10375083
_cell_length_b   12.12761715
_cell_length_c   12.16529734
_cell_angle_alpha   93.65018772
_cell_angle_beta   104.76713758
_cell_angle_gamma   114.23554069
_symmetry_Int_Tables_number   1
_chemical_formula_structural   Pr2Nd10Os2I17
_chemical_formula_sum   'Pr2 Nd10 Os2 I17'
_cell_volume   1290.22760419
_cell_formula_units_Z   1
loop_
 _symmetry_equiv_pos_site_id
 _symmetry_equiv_pos_as_xyz
  1  'x, y, z'
loop_
 _atom_site_type_symbol
 _atom_site_label
 _atom_site_symmetry_multiplicity
 _atom_site_fract_x
 _atom_site_fract_y
 _atom_site_fract_z
 _atom_site_occupancy
  Pr  Pr0  1  0.775591  0.330122  0.009575  1
  Pr  Pr1  1  0.850798  0.712921  0.849055  1
  Nd  Nd2  1  0.057083  0.510193  0.323118  1
  Nd  Nd3  1  0.987074  0.811080  0.580106  1
  Nd  Nd4  1  0.644566  0.240291  0.284592  1
  Nd  Nd5  1  0.011826  0.190097  0.416932  1
  Nd  Nd6  1  0.225486  0.669927  0.991629  1
  Nd  Nd7  1  0.260592  0.988695  0.892386  1
  Nd  Nd8  1  0.350562  0.758734  0.716991  1
  Nd  Nd9  1  0.941173  0.486718  0.676702  1
  Nd  Nd10  1  0.741290  0.013694  0.108326  1
  Nd  Nd11  1  0.152548  0.287566  0.151053  1
  Os  Os12  1  0.103736  0.738219  0.785637  1
  Os  Os13  1  0.896040  0.261679  0.214352  1
  I  I14  1  0.785494  0.527933  0.419336  1
  I  I15  1  0.643414  0.419154  0.757563  1
  I  I16  1  0.844070  0.896744  0.325169  1
  I  I17  1  0.325854  0.213212  0.368752  1
  I  I18  1  0.156096  0.103108  0.674628  1
  I  I19  1  0.585070  0.049768  0.844351  1
  I  I20  1  0.757461  0.185500  0.537078  1
  I  I21  1  0.547970  0.709815  0.952992  1
  I  I22  1  0.356034  0.580095  0.239892  1
  I  I23  1  0.213441  0.471985  0.582002  1
  I  I24  1  0.058071  0.369604  0.897514  1
  I  I25  1  0.449351  0.290044  0.047659  1
  I  I26  1  0.000622  0.000662  0.999775  1
  I  I27  1  0.242152  0.813731  0.464025  1
  I  I28  1  0.412947  0.948043  0.154838  1
  I  I29  1  0.675034  0.787390  0.630169  1
  I  I30  1  0.948553  0.633276  0.103801  1
