# generated using pymatgen
data_Li2Y4ErP12Ru17
_symmetry_space_group_name_H-M   'P 1'
_cell_length_a   12.72752200
_cell_length_b   12.51993975
_cell_length_c   3.96087600
_cell_angle_alpha   90.00000000
_cell_angle_beta   90.00000000
_cell_angle_gamma   120.55241161
_symmetry_Int_Tables_number   1
_chemical_formula_structural   Li2Y4ErP12Ru17
_chemical_formula_sum   'Li2 Y4 Er1 P12 Ru17'
_cell_volume   543.52994264
_cell_formula_units_Z   1
loop_
 _symmetry_equiv_pos_site_id
 _symmetry_equiv_pos_as_xyz
  1  'x, y, z'
loop_
 _atom_site_type_symbol
 _atom_site_label
 _atom_site_symmetry_multiplicity
 _atom_site_fract_x
 _atom_site_fract_y
 _atom_site_fract_z
 _atom_site_occupancy
  Li  Li0  1  0.000500  0.562399  0.000000  1
  Li  Li1  1  0.438110  0.437588  0.000000  1
  Y  Y2  1  0.001029  0.182137  0.500000  1
  Y  Y3  1  0.818878  0.817772  0.500000  1
  Y  Y4  1  0.182781  0.000060  0.500000  1
  Y  Y5  1  0.337873  0.674854  0.000000  1
  Er  Er6  1  0.663079  0.324832  0.000000  1
  P  P7  1  0.997762  0.808496  0.000000  1
  P  P8  1  0.189580  0.191107  0.000000  1
  P  P9  1  0.819006  0.000267  0.000000  1
  P  P10  1  0.691763  0.169773  0.500000  1
  P  P11  1  0.815678  0.513909  0.500000  1
  P  P12  1  0.477956  0.301296  0.500000  1
  P  P13  1  0.175907  0.699067  0.500000  1
  P  P14  1  0.522906  0.831185  0.500000  1
  P  P15  1  0.301648  0.484875  0.500000  1
  P  P16  1  0.002288  0.371098  0.000000  1
  P  P17  1  0.631063  0.628865  0.000000  1
  P  P18  1  0.376674  0.000016  0.000000  1
  Ru  Ru19  1  0.557178  0.000146  0.000000  1
  Ru  Ru20  1  0.997259  0.710988  0.500000  1
  Ru  Ru21  1  0.286734  0.288552  0.500000  1
  Ru  Ru22  1  0.718755  0.000519  0.500000  1
  Ru  Ru23  1  0.808900  0.186141  0.000000  1
  Ru  Ru24  1  0.810995  0.613375  0.000000  1
  Ru  Ru25  1  0.377850  0.191795  0.000000  1
  Ru  Ru26  1  0.185334  0.808644  0.000000  1
  Ru  Ru27  1  0.623770  0.814507  0.000000  1
  Ru  Ru28  1  0.197123  0.385406  0.000000  1
  Ru  Ru29  1  0.872627  0.366168  0.500000  1
  Ru  Ru30  1  0.628560  0.509046  0.500000  1
  Ru  Ru31  1  0.492656  0.124959  0.500000  1
  Ru  Ru32  1  0.367641  0.876423  0.500000  1
  Ru  Ru33  1  0.507571  0.633712  0.500000  1
  Ru  Ru34  1  0.118662  0.490016  0.500000  1
  Ru  Ru35  1  0.003903  0.000008  0.000000  1
