# generated using pymatgen
data_Sc2FeSi2Rh
_symmetry_space_group_name_H-M   'P 1'
_cell_length_a   4.09643600
_cell_length_b   6.56114800
_cell_length_c   6.91405600
_cell_angle_alpha   90.00000000
_cell_angle_beta   90.00000000
_cell_angle_gamma   90.00000000
_symmetry_Int_Tables_number   1
_chemical_formula_structural   Sc2FeSi2Rh
_chemical_formula_sum   'Sc4 Fe2 Si4 Rh2'
_cell_volume   185.83131544
_cell_formula_units_Z   2
loop_
 _symmetry_equiv_pos_site_id
 _symmetry_equiv_pos_as_xyz
  1  'x, y, z'
loop_
 _atom_site_type_symbol
 _atom_site_label
 _atom_site_symmetry_multiplicity
 _atom_site_fract_x
 _atom_site_fract_y
 _atom_site_fract_z
 _atom_site_occupancy
  Sc  Sc0  1  0.750000  0.503546  0.812594  1
  Sc  Sc1  1  0.250000  0.988713  0.306899  1
  Sc  Sc2  1  0.750000  0.003546  0.687406  1
  Sc  Sc3  1  0.250000  0.488713  0.193101  1
  Fe  Fe4  1  0.750000  0.851530  0.061419  1
  Fe  Fe5  1  0.750000  0.351530  0.438581  1
  Si  Si6  1  0.250000  0.792282  0.903921  1
  Si  Si7  1  0.250000  0.292282  0.596079  1
  Si  Si8  1  0.750000  0.201464  0.127037  1
  Si  Si9  1  0.750000  0.701464  0.372963  1
  Rh  Rh10  1  0.250000  0.662464  0.561558  1
  Rh  Rh11  1  0.250000  0.162464  0.938442  1
