# generated using pymatgen
data_ErTh3CdHgPd4
_symmetry_space_group_name_H-M   'P 1'
_cell_length_a   7.87868372
_cell_length_b   7.87852093
_cell_length_c   3.80481800
_cell_angle_alpha   90.00000000
_cell_angle_beta   90.00000000
_cell_angle_gamma   90.48696157
_symmetry_Int_Tables_number   1
_chemical_formula_structural   ErTh3CdHgPd4
_chemical_formula_sum   'Er1 Th3 Cd1 Hg1 Pd4'
_cell_volume   236.16555826
_cell_formula_units_Z   1
loop_
 _symmetry_equiv_pos_site_id
 _symmetry_equiv_pos_as_xyz
  1  'x, y, z'
loop_
 _atom_site_type_symbol
 _atom_site_label
 _atom_site_symmetry_multiplicity
 _atom_site_fract_x
 _atom_site_fract_y
 _atom_site_fract_z
 _atom_site_occupancy
  Er  Er0  1  0.825731  0.674965  0.500000  1
  Th  Th1  1  0.677080  0.171847  0.500000  1
  Th  Th2  1  0.327185  0.823700  0.500000  1
  Th  Th3  1  0.170877  0.328659  0.500000  1
  Cd  Cd4  1  0.504621  0.502072  0.000000  1
  Hg  Hg5  1  0.997876  0.995425  0.000000  1
  Pd  Pd6  1  0.127619  0.627256  0.000000  1
  Pd  Pd7  1  0.871603  0.373472  0.000000  1
  Pd  Pd8  1  0.625533  0.873403  0.000000  1
  Pd  Pd9  1  0.371874  0.129201  0.000000  1
