# generated using pymatgen
data_CeNd3(Re2Si)8
_symmetry_space_group_name_H-M   'P 1'
_cell_length_a   4.16886900
_cell_length_b   7.34510582
_cell_length_c   15.57702700
_cell_angle_alpha   89.89296875
_cell_angle_beta   90.00000000
_cell_angle_gamma   90.00000000
_symmetry_Int_Tables_number   1
_chemical_formula_structural   CeNd3(Re2Si)8
_chemical_formula_sum   'Ce1 Nd3 Re16 Si8'
_cell_volume   476.97994591
_cell_formula_units_Z   1
loop_
 _symmetry_equiv_pos_site_id
 _symmetry_equiv_pos_as_xyz
  1  'x, y, z'
loop_
 _atom_site_type_symbol
 _atom_site_label
 _atom_site_symmetry_multiplicity
 _atom_site_fract_x
 _atom_site_fract_y
 _atom_site_fract_z
 _atom_site_occupancy
  Ce  Ce0  1  0.000000  0.581998  0.118001  1
  Nd  Nd1  1  0.000000  0.419941  0.881750  1
  Nd  Nd2  1  0.500000  0.080834  0.382088  1
  Nd  Nd3  1  0.500000  0.919782  0.618384  1
  Re  Re4  1  0.000000  0.138338  0.051962  1
  Re  Re5  1  0.000000  0.859646  0.949098  1
  Re  Re6  1  0.500000  0.638771  0.447841  1
  Re  Re7  1  0.500000  0.362943  0.551616  1
  Re  Re8  1  0.000000  0.732874  0.320762  1
  Re  Re9  1  0.000000  0.266310  0.679195  1
  Re  Re10  1  0.500000  0.235733  0.178666  1
  Re  Re11  1  0.500000  0.766249  0.821096  1
  Re  Re12  1  0.000000  0.433486  0.418266  1
  Re  Re13  1  0.000000  0.567546  0.581078  1
  Re  Re14  1  0.500000  0.929169  0.080935  1
  Re  Re15  1  0.500000  0.066475  0.918694  1
  Re  Re16  1  0.000000  0.992688  0.206076  1
  Re  Re17  1  0.000000  0.007034  0.793831  1
  Re  Re18  1  0.500000  0.492415  0.293238  1
  Re  Re19  1  0.500000  0.507291  0.706472  1
  Si  Si20  1  0.000000  0.828745  0.475550  1
  Si  Si21  1  0.000000  0.172589  0.524457  1
  Si  Si22  1  0.500000  0.328142  0.024591  1
  Si  Si23  1  0.500000  0.670087  0.975954  1
  Si  Si24  1  0.000000  0.294103  0.273390  1
  Si  Si25  1  0.000000  0.705430  0.726338  1
  Si  Si26  1  0.500000  0.795789  0.226825  1
  Si  Si27  1  0.500000  0.205592  0.773848  1
