# generated using pymatgen
data_Y2ThIn3RuRh2
_symmetry_space_group_name_H-M   'P 1'
_cell_length_a   7.43245869
_cell_length_b   7.83090563
_cell_length_c   3.99345300
_cell_angle_alpha   90.00000000
_cell_angle_beta   90.00000000
_cell_angle_gamma   121.62754086
_symmetry_Int_Tables_number   1
_chemical_formula_structural   Y2ThIn3RuRh2
_chemical_formula_sum   'Y2 Th1 In3 Ru1 Rh2'
_cell_volume   197.90873213
_cell_formula_units_Z   1
loop_
 _symmetry_equiv_pos_site_id
 _symmetry_equiv_pos_as_xyz
  1  'x, y, z'
loop_
 _atom_site_type_symbol
 _atom_site_label
 _atom_site_symmetry_multiplicity
 _atom_site_fract_x
 _atom_site_fract_y
 _atom_site_fract_z
 _atom_site_occupancy
  Y  Y0  1  0.406826  0.407195  0.500000  1
  Y  Y1  1  0.589867  0.992595  0.500000  1
  Th  Th2  1  0.007623  0.584207  0.500000  1
  In  In3  1  0.000304  0.238398  0.000000  1
  In  In4  1  0.270617  0.014220  0.000000  1
  In  In5  1  0.729633  0.744187  0.000000  1
  Ru  Ru6  1  0.301640  0.665317  0.000000  1
  Rh  Rh7  1  0.999276  0.991972  0.500000  1
  Rh  Rh8  1  0.694216  0.361908  0.000000  1
