# generated using pymatgen
data_AgIrCl6
_symmetry_space_group_name_H-M   'P 1'
_cell_length_a   6.48103186
_cell_length_b   6.48103208
_cell_length_c   6.62343996
_cell_angle_alpha   80.86678587
_cell_angle_beta   80.86679410
_cell_angle_gamma   119.93626717
_symmetry_Int_Tables_number   1
_chemical_formula_structural   AgIrCl6
_chemical_formula_sum   'Ag1 Ir1 Cl6'
_cell_volume   228.64440772
_cell_formula_units_Z   1
loop_
 _symmetry_equiv_pos_site_id
 _symmetry_equiv_pos_as_xyz
  1  'x, y, z'
loop_
 _atom_site_type_symbol
 _atom_site_label
 _atom_site_symmetry_multiplicity
 _atom_site_fract_x
 _atom_site_fract_y
 _atom_site_fract_z
 _atom_site_occupancy
  Ag  Ag0  1  0.166834  0.833166  0.000000  1
  Ir  Ir1  1  0.833212  0.166788  0.000000  1
  Cl  Cl2  1  0.469065  0.096514  0.211529  1
  Cl  Cl3  1  0.903486  0.530935  0.788471  1
  Cl  Cl4  1  0.195449  0.232724  0.788219  1
  Cl  Cl5  1  0.767276  0.804551  0.211781  1
  Cl  Cl6  1  0.059161  0.394482  0.211241  1
  Cl  Cl7  1  0.605518  0.940839  0.788759  1
