# generated using pymatgen
data_Ho(Al3Pd)3
_symmetry_space_group_name_H-M   'P 1'
_cell_length_a   10.41109428
_cell_length_b   10.41109471
_cell_length_c   10.41109601
_cell_angle_alpha   42.21989450
_cell_angle_beta   42.21990241
_cell_angle_gamma   42.21989415
_symmetry_Int_Tables_number   1
_chemical_formula_structural   Ho(Al3Pd)3
_chemical_formula_sum   'Ho2 Al18 Pd6'
_cell_volume   461.14035963
_cell_formula_units_Z   2
loop_
 _symmetry_equiv_pos_site_id
 _symmetry_equiv_pos_as_xyz
  1  'x, y, z'
loop_
 _atom_site_type_symbol
 _atom_site_label
 _atom_site_symmetry_multiplicity
 _atom_site_fract_x
 _atom_site_fract_y
 _atom_site_fract_z
 _atom_site_occupancy
  Ho  Ho0  1  0.166850  0.166850  0.166850  1
  Ho  Ho1  1  0.833150  0.833150  0.833150  1
  Al  Al2  1  0.107314  0.435317  0.763917  1
  Al  Al3  1  0.435317  0.763917  0.107314  1
  Al  Al4  1  0.564683  0.892686  0.236083  1
  Al  Al5  1  0.949953  0.949953  0.949953  1
  Al  Al6  1  0.050047  0.050047  0.050047  1
  Al  Al7  1  0.295217  0.704783  0.500000  1
  Al  Al8  1  0.892686  0.236083  0.564683  1
  Al  Al9  1  0.384757  0.384757  0.384757  1
  Al  Al10  1  0.500000  0.295217  0.704783  1
  Al  Al11  1  0.236083  0.564683  0.892686  1
  Al  Al12  1  0.716308  0.716308  0.716308  1
  Al  Al13  1  0.615243  0.615243  0.615243  1
  Al  Al14  1  0.334415  0.000000  0.665585  1
  Al  Al15  1  0.704783  0.500000  0.295217  1
  Al  Al16  1  0.665585  0.334415  0.000000  1
  Al  Al17  1  0.283692  0.283692  0.283692  1
  Al  Al18  1  0.000000  0.665585  0.334415  1
  Al  Al19  1  0.763917  0.107314  0.435317  1
  Pd  Pd20  1  0.418875  0.077212  0.760279  1
  Pd  Pd21  1  0.581125  0.239721  0.922788  1
  Pd  Pd22  1  0.077212  0.760279  0.418875  1
  Pd  Pd23  1  0.760279  0.418875  0.077212  1
  Pd  Pd24  1  0.922788  0.581125  0.239721  1
  Pd  Pd25  1  0.239721  0.922788  0.581125  1
