# generated using pymatgen
data_La5Ho2ThBi10
_symmetry_space_group_name_H-M   'P 1'
_cell_length_a   9.89241410
_cell_length_b   9.90806107
_cell_length_c   6.73232100
_cell_angle_alpha   90.00000000
_cell_angle_beta   90.00000000
_cell_angle_gamma   120.05233303
_symmetry_Int_Tables_number   1
_chemical_formula_structural   La5Ho2ThBi10
_chemical_formula_sum   'La5 Ho2 Th1 Bi10'
_cell_volume   571.15915933
_cell_formula_units_Z   1
loop_
 _symmetry_equiv_pos_site_id
 _symmetry_equiv_pos_as_xyz
  1  'x, y, z'
loop_
 _atom_site_type_symbol
 _atom_site_label
 _atom_site_symmetry_multiplicity
 _atom_site_fract_x
 _atom_site_fract_y
 _atom_site_fract_z
 _atom_site_occupancy
  La  La0  1  0.380168  0.380509  0.250000  1
  La  La1  1  0.383955  0.001522  0.750000  1
  La  La2  1  0.616045  0.617566  0.750000  1
  La  La3  1  0.619832  0.000340  0.250000  1
  La  La4  1  0.000000  0.380270  0.750000  1
  Ho  Ho5  1  0.000000  0.000222  0.999262  1
  Ho  Ho6  1  0.000000  0.000222  0.500738  1
  Th  Th7  1  0.000000  0.617738  0.250000  1
  Bi  Bi8  1  0.000000  0.270799  0.250000  1
  Bi  Bi9  1  0.329925  0.667017  0.497082  1
  Bi  Bi10  1  0.670075  0.337091  0.002918  1
  Bi  Bi11  1  0.329925  0.667017  0.002918  1
  Bi  Bi12  1  0.269653  0.268902  0.750000  1
  Bi  Bi13  1  0.730347  0.999250  0.750000  1
  Bi  Bi14  1  0.000000  0.728775  0.750000  1
  Bi  Bi15  1  0.732756  0.729211  0.250000  1
  Bi  Bi16  1  0.267244  0.996454  0.250000  1
  Bi  Bi17  1  0.670075  0.337091  0.497082  1
