# generated using pymatgen
data_La2Y10ZnCo4Pb
_symmetry_space_group_name_H-M   'P 1'
_cell_length_a   8.58619889
_cell_length_b   8.36210550
_cell_length_c   8.36210551
_cell_angle_alpha   111.55506835
_cell_angle_beta   108.56203356
_cell_angle_gamma   107.32328550
_symmetry_Int_Tables_number   1
_chemical_formula_structural   La2Y10ZnCo4Pb
_chemical_formula_sum   'La2 Y10 Zn1 Co4 Pb1'
_cell_volume   467.13700546
_cell_formula_units_Z   1
loop_
 _symmetry_equiv_pos_site_id
 _symmetry_equiv_pos_as_xyz
  1  'x, y, z'
loop_
 _atom_site_type_symbol
 _atom_site_label
 _atom_site_symmetry_multiplicity
 _atom_site_fract_x
 _atom_site_fract_y
 _atom_site_fract_z
 _atom_site_occupancy
  La  La0  1  0.424045  0.215774  0.208271  1
  La  La1  1  0.575955  0.784226  0.791729  1
  Y  Y2  1  0.029471  0.231205  0.798266  1
  Y  Y3  1  0.970529  0.768795  0.201734  1
  Y  Y4  1  0.177896  0.285819  0.464303  1
  Y  Y5  1  0.822104  0.714181  0.535697  1
  Y  Y6  1  0.177896  0.713593  0.892077  1
  Y  Y7  1  0.822104  0.286407  0.107923  1
  Y  Y8  1  0.316215  0.639192  0.304609  1
  Y  Y9  1  0.683785  0.360808  0.695391  1
  Y  Y10  1  0.316215  0.011605  0.677023  1
  Y  Y11  1  0.683785  0.988395  0.322977  1
  Zn  Zn12  1  0.000000  0.000000  0.000000  1
  Co  Co13  1  0.342210  0.002282  0.339928  1
  Co  Co14  1  0.657790  0.997718  0.660072  1
  Co  Co15  1  0.099155  0.612287  0.486868  1
  Co  Co16  1  0.900845  0.387713  0.513132  1
  Pb  Pb17  1  0.500000  0.500000  0.000000  1
