# generated using pymatgen
data_Ga3Sn2B2Ir5Rh
_symmetry_space_group_name_H-M   'P 1'
_cell_length_a   6.45228637
_cell_length_b   6.45605060
_cell_length_c   5.58323900
_cell_angle_alpha   90.00350865
_cell_angle_beta   89.99824810
_cell_angle_gamma   120.01929301
_symmetry_Int_Tables_number   1
_chemical_formula_structural   Ga3Sn2B2Ir5Rh
_chemical_formula_sum   'Ga3 Sn2 B2 Ir5 Rh1'
_cell_volume   201.37842793
_cell_formula_units_Z   1
loop_
 _symmetry_equiv_pos_site_id
 _symmetry_equiv_pos_as_xyz
  1  'x, y, z'
loop_
 _atom_site_type_symbol
 _atom_site_label
 _atom_site_symmetry_multiplicity
 _atom_site_fract_x
 _atom_site_fract_y
 _atom_site_fract_z
 _atom_site_occupancy
  Ga  Ga0  1  0.000000  0.596794  0.000581  1
  Ga  Ga1  1  0.401832  0.402053  0.000457  1
  Ga  Ga2  1  0.598168  0.000222  0.000457  1
  Sn  Sn3  1  0.667425  0.333259  0.499321  1
  Sn  Sn4  1  0.332575  0.665835  0.499321  1
  B  B5  1  0.000000  0.999759  0.499746  1
  B  B6  1  0.000000  0.999977  0.000467  1
  Ir  Ir7  1  0.000000  0.261925  0.250134  1
  Ir  Ir8  1  0.737796  0.738057  0.251322  1
  Ir  Ir9  1  0.261688  0.000505  0.749145  1
  Ir  Ir10  1  0.262204  0.000262  0.251322  1
  Ir  Ir11  1  0.738312  0.738817  0.749145  1
  Rh  Rh12  1  0.000000  0.262535  0.748583  1
