# generated using pymatgen
data_Nd2Zn14Rh3
_symmetry_space_group_name_H-M   'P 1'
_cell_length_a   6.87420605
_cell_length_b   6.87420584
_cell_length_c   6.87420537
_cell_angle_alpha   97.67596857
_cell_angle_beta   82.32403556
_cell_angle_gamma   97.67597172
_symmetry_Int_Tables_number   1
_chemical_formula_structural   Nd2Zn14Rh3
_chemical_formula_sum   'Nd2 Zn14 Rh3'
_cell_volume   316.82050379
_cell_formula_units_Z   1
loop_
 _symmetry_equiv_pos_site_id
 _symmetry_equiv_pos_as_xyz
  1  'x, y, z'
loop_
 _atom_site_type_symbol
 _atom_site_label
 _atom_site_symmetry_multiplicity
 _atom_site_fract_x
 _atom_site_fract_y
 _atom_site_fract_z
 _atom_site_occupancy
  Nd  Nd0  1  0.332199  0.667801  0.332200  1
  Nd  Nd1  1  0.667801  0.332199  0.667801  1
  Zn  Zn2  1  0.707387  0.707386  0.000000  1
  Zn  Zn3  1  0.292613  0.292613  0.000000  1
  Zn  Zn4  1  0.100619  0.899381  0.100620  1
  Zn  Zn5  1  0.651456  0.348543  0.157176  1
  Zn  Zn6  1  0.000000  0.292613  0.292613  1
  Zn  Zn7  1  0.707387  0.000000  0.292613  1
  Zn  Zn8  1  0.348544  0.157176  0.348543  1
  Zn  Zn9  1  0.842825  0.651457  0.348544  1
  Zn  Zn10  1  0.651456  0.842824  0.651457  1
  Zn  Zn11  1  0.157176  0.348544  0.651457  1
  Zn  Zn12  1  0.292614  0.000000  0.707386  1
  Zn  Zn13  1  0.000000  0.707387  0.707387  1
  Zn  Zn14  1  0.348544  0.651457  0.842824  1
  Zn  Zn15  1  0.899380  0.100620  0.899381  1
  Rh  Rh16  1  0.999999  0.500000  0.000000  1
  Rh  Rh17  1  0.500000  0.000000  0.000000  1
  Rh  Rh18  1  0.000000  0.000000  0.500000  1
