# generated using pymatgen
data_Pr2Nd4TaMoO14
_symmetry_space_group_name_H-M   'P 1'
_cell_length_a   6.68116384
_cell_length_b   6.68116402
_cell_length_c   7.77199529
_cell_angle_alpha   89.81073782
_cell_angle_beta   90.18927333
_cell_angle_gamma   109.54772225
_symmetry_Int_Tables_number   1
_chemical_formula_structural   Pr2Nd4TaMoO14
_chemical_formula_sum   'Pr2 Nd4 Ta1 Mo1 O14'
_cell_volume   326.92755064
_cell_formula_units_Z   1
loop_
 _symmetry_equiv_pos_site_id
 _symmetry_equiv_pos_as_xyz
  1  'x, y, z'
loop_
 _atom_site_type_symbol
 _atom_site_label
 _atom_site_symmetry_multiplicity
 _atom_site_fract_x
 _atom_site_fract_y
 _atom_site_fract_z
 _atom_site_occupancy
  Pr  Pr0  1  0.500000  0.500000  0.500000  1
  Pr  Pr1  1  0.500000  0.500000  0.000000  1
  Nd  Nd2  1  0.999417  0.535764  0.249051  1
  Nd  Nd3  1  0.000583  0.464236  0.750949  1
  Nd  Nd4  1  0.535764  0.999417  0.750949  1
  Nd  Nd5  1  0.464236  0.000583  0.249051  1
  Ta  Ta6  1  0.000000  0.000000  0.000000  1
  Mo  Mo7  1  0.000000  0.000000  0.500000  1
  O  O8  1  0.939560  0.060440  0.751210  1
  O  O9  1  0.060440  0.939560  0.248790  1
  O  O10  1  0.364263  0.635737  0.250242  1
  O  O11  1  0.635737  0.364263  0.749758  1
  O  O12  1  0.369234  0.630766  0.749772  1
  O  O13  1  0.630766  0.369234  0.250228  1
  O  O14  1  0.313654  0.068711  0.970249  1
  O  O15  1  0.686686  0.929244  0.472261  1
  O  O16  1  0.313314  0.070756  0.527739  1
  O  O17  1  0.686346  0.931289  0.029751  1
  O  O18  1  0.070756  0.313314  0.472261  1
  O  O19  1  0.931289  0.686346  0.970249  1
  O  O20  1  0.929244  0.686686  0.527739  1
  O  O21  1  0.068711  0.313654  0.029751  1
