# generated using pymatgen
data_MgSc3(Co4P3)2
_symmetry_space_group_name_H-M   'P 1'
_cell_length_a   12.01473222
_cell_length_b   12.07271752
_cell_length_c   3.64503900
_cell_angle_alpha   90.00000000
_cell_angle_beta   90.00000000
_cell_angle_gamma   120.15977926
_symmetry_Int_Tables_number   1
_chemical_formula_structural   MgSc3(Co4P3)2
_chemical_formula_sum   'Mg2 Sc6 Co16 P12'
_cell_volume   457.14130084
_cell_formula_units_Z   2
loop_
 _symmetry_equiv_pos_site_id
 _symmetry_equiv_pos_as_xyz
  1  'x, y, z'
loop_
 _atom_site_type_symbol
 _atom_site_label
 _atom_site_symmetry_multiplicity
 _atom_site_fract_x
 _atom_site_fract_y
 _atom_site_fract_z
 _atom_site_occupancy
  Mg  Mg0  1  0.443554  0.442511  0.000000  1
  Mg  Mg1  1  0.556446  0.998957  0.000000  1
  Sc  Sc2  1  0.815302  0.813474  0.500000  1
  Sc  Sc3  1  0.000000  0.184159  0.500000  1
  Sc  Sc4  1  0.330298  0.665060  0.000000  1
  Sc  Sc5  1  0.669702  0.334761  0.000000  1
  Sc  Sc6  1  0.000000  0.558890  0.000000  1
  Sc  Sc7  1  0.184698  0.998172  0.500000  1
  Co  Co8  1  0.625224  0.822320  0.000000  1
  Co  Co9  1  0.374776  0.197095  0.000000  1
  Co  Co10  1  0.000000  0.723606  0.500000  1
  Co  Co11  1  0.280597  0.279664  0.500000  1
  Co  Co12  1  0.874551  0.354424  0.500000  1
  Co  Co13  1  0.719403  0.999067  0.500000  1
  Co  Co14  1  0.819385  0.628422  0.000000  1
  Co  Co15  1  0.180615  0.809037  0.000000  1
  Co  Co16  1  0.358285  0.872977  0.500000  1
  Co  Co17  1  0.125449  0.479872  0.500000  1
  Co  Co18  1  0.641715  0.514692  0.500000  1
  Co  Co19  1  0.000000  0.002779  0.000000  1
  Co  Co20  1  0.517163  0.642824  0.500000  1
  Co  Co21  1  0.482837  0.125661  0.500000  1
  Co  Co22  1  0.196846  0.372735  0.000000  1
  Co  Co23  1  0.803154  0.175889  0.000000  1
  P  P24  1  0.000000  0.350926  0.000000  1
  P  P25  1  0.826464  0.518092  0.500000  1
  P  P26  1  0.690402  0.173981  0.500000  1
  P  P27  1  0.177872  0.177497  0.000000  1
  P  P28  1  0.644814  0.647057  0.000000  1
  P  P29  1  0.822128  0.999625  0.000000  1
  P  P30  1  0.514997  0.824004  0.500000  1
  P  P31  1  0.173536  0.691628  0.500000  1
  P  P32  1  0.355186  0.002242  0.000000  1
  P  P33  1  0.485003  0.309008  0.500000  1
  P  P34  1  0.000000  0.825315  0.000000  1
  P  P35  1  0.309598  0.483578  0.500000  1
