# generated using pymatgen
data_Ce3Hf7Si8
_symmetry_space_group_name_H-M   'P 1'
_cell_length_a   7.26861519
_cell_length_b   7.25180819
_cell_length_c   13.34222200
_cell_angle_alpha   90.00000000
_cell_angle_beta   90.00000000
_cell_angle_gamma   89.76560681
_symmetry_Int_Tables_number   1
_chemical_formula_structural   Ce3Hf7Si8
_chemical_formula_sum   'Ce6 Hf14 Si16'
_cell_volume   703.27068389
_cell_formula_units_Z   2
loop_
 _symmetry_equiv_pos_site_id
 _symmetry_equiv_pos_as_xyz
  1  'x, y, z'
loop_
 _atom_site_type_symbol
 _atom_site_label
 _atom_site_symmetry_multiplicity
 _atom_site_fract_x
 _atom_site_fract_y
 _atom_site_fract_z
 _atom_site_occupancy
  Ce  Ce0  1  0.491736  0.156937  0.536237  1
  Ce  Ce1  1  0.508264  0.843063  0.036237  1
  Ce  Ce2  1  0.654131  0.002952  0.284622  1
  Ce  Ce3  1  0.345869  0.997048  0.784622  1
  Ce  Ce4  1  0.843633  0.508990  0.965301  1
  Ce  Ce5  1  0.156367  0.491010  0.465301  1
  Hf  Hf6  1  0.675247  0.326108  0.749716  1
  Hf  Hf7  1  0.324753  0.673892  0.249716  1
  Hf  Hf8  1  0.825605  0.822212  0.499153  1
  Hf  Hf9  1  0.174395  0.177788  0.999153  1
  Hf  Hf10  1  0.994029  0.649406  0.713040  1
  Hf  Hf11  1  0.005971  0.350594  0.213040  1
  Hf  Hf12  1  0.498941  0.348568  0.126185  1
  Hf  Hf13  1  0.501059  0.651432  0.626185  1
  Hf  Hf14  1  0.851700  0.006144  0.874995  1
  Hf  Hf15  1  0.148300  0.993856  0.374995  1
  Hf  Hf16  1  0.651153  0.497434  0.373965  1
  Hf  Hf17  1  0.348847  0.502566  0.873965  1
  Hf  Hf18  1  0.001527  0.848861  0.124769  1
  Hf  Hf19  1  0.998473  0.151139  0.624769  1
  Si  Si20  1  0.804669  0.146432  0.071730  1
  Si  Si21  1  0.195331  0.853568  0.571730  1
  Si  Si22  1  0.644763  0.703631  0.813093  1
  Si  Si23  1  0.355237  0.296369  0.313093  1
  Si  Si24  1  0.863279  0.203464  0.431954  1
  Si  Si25  1  0.136721  0.796536  0.931954  1
  Si  Si26  1  0.712882  0.629038  0.183708  1
  Si  Si27  1  0.287118  0.370962  0.683708  1
  Si  Si28  1  0.550343  0.210030  0.936721  1
  Si  Si29  1  0.449657  0.789970  0.436721  1
  Si  Si30  1  0.711866  0.947805  0.685008  1
  Si  Si31  1  0.288134  0.052195  0.185008  1
  Si  Si32  1  0.797050  0.455015  0.567051  1
  Si  Si33  1  0.202950  0.544985  0.067051  1
  Si  Si34  1  0.952961  0.697938  0.312752  1
  Si  Si35  1  0.047039  0.302062  0.812752  1
