# generated using pymatgen
data_LuSc3Al8
_symmetry_space_group_name_H-M   'P 1'
_cell_length_a   9.37461561
_cell_length_b   9.37461542
_cell_length_c   9.37461628
_cell_angle_alpha   33.46347922
_cell_angle_beta   33.46348095
_cell_angle_gamma   33.46347433
_symmetry_Int_Tables_number   1
_chemical_formula_structural   LuSc3Al8
_chemical_formula_sum   'Lu1 Sc3 Al8'
_cell_volume   223.08910276
_cell_formula_units_Z   1
loop_
 _symmetry_equiv_pos_site_id
 _symmetry_equiv_pos_as_xyz
  1  'x, y, z'
loop_
 _atom_site_type_symbol
 _atom_site_label
 _atom_site_symmetry_multiplicity
 _atom_site_fract_x
 _atom_site_fract_y
 _atom_site_fract_z
 _atom_site_occupancy
  Lu  Lu0  1  0.812515  0.812515  0.812515  1
  Sc  Sc1  1  0.312522  0.312522  0.312522  1
  Sc  Sc2  1  0.686915  0.686915  0.686915  1
  Sc  Sc3  1  0.188040  0.188040  0.188040  1
  Al  Al4  1  0.500192  0.500192  0.500192  1
  Al  Al5  1  0.999871  0.999871  0.999871  1
  Al  Al6  1  0.249602  0.249602  0.748888  1
  Al  Al7  1  0.750287  0.750287  0.251276  1
  Al  Al8  1  0.249602  0.748888  0.249602  1
  Al  Al9  1  0.750287  0.251276  0.750287  1
  Al  Al10  1  0.748888  0.249602  0.249602  1
  Al  Al11  1  0.251276  0.750287  0.750287  1
