# generated using pymatgen
data_SmY2B6Ir7Os
_symmetry_space_group_name_H-M   'P 1'
_cell_length_a   10.00921309
_cell_length_b   9.18052994
_cell_length_c   5.59850438
_cell_angle_alpha   81.36074577
_cell_angle_beta   65.06694928
_cell_angle_gamma   33.57229102
_symmetry_Int_Tables_number   1
_chemical_formula_structural   SmY2B6Ir7Os
_chemical_formula_sum   'Sm1 Y2 B6 Ir7 Os1'
_cell_volume   236.33262652
_cell_formula_units_Z   1
loop_
 _symmetry_equiv_pos_site_id
 _symmetry_equiv_pos_as_xyz
  1  'x, y, z'
loop_
 _atom_site_type_symbol
 _atom_site_label
 _atom_site_symmetry_multiplicity
 _atom_site_fract_x
 _atom_site_fract_y
 _atom_site_fract_z
 _atom_site_occupancy
  Sm  Sm0  1  0.000000  0.000000  0.000000  1
  Y  Y1  1  0.179884  0.179884  0.820116  1
  Y  Y2  1  0.820116  0.820116  0.179884  1
  B  B3  1  0.821994  0.528701  0.483435  1
  B  B4  1  0.165870  0.483435  0.528701  1
  B  B5  1  0.483435  0.165870  0.821994  1
  B  B6  1  0.670218  0.329782  0.670218  1
  B  B7  1  0.528701  0.821994  0.165870  1
  B  B8  1  0.329782  0.670218  0.329782  1
  Ir  Ir9  1  0.413437  0.413437  0.586563  1
  Ir  Ir10  1  0.585977  0.585977  0.914023  1
  Ir  Ir11  1  0.086365  0.086365  0.413635  1
  Ir  Ir12  1  0.914023  0.914023  0.585977  1
  Ir  Ir13  1  0.586563  0.586563  0.413437  1
  Ir  Ir14  1  0.250000  0.250000  0.250000  1
  Ir  Ir15  1  0.413635  0.413635  0.086365  1
  Os  Os16  1  0.750000  0.750000  0.750000  1
