# generated using pymatgen
data_Dy8Re(TcB8)3
_symmetry_space_group_name_H-M   'P 1'
_cell_length_a   3.69107800
_cell_length_b   9.16908419
_cell_length_c   11.55325024
_cell_angle_alpha   90.02325228
_cell_angle_beta   90.00000000
_cell_angle_gamma   90.00000000
_symmetry_Int_Tables_number   1
_chemical_formula_structural   Dy8Re(TcB8)3
_chemical_formula_sum   'Dy8 Re1 Tc3 B24'
_cell_volume   391.00591515
_cell_formula_units_Z   1
loop_
 _symmetry_equiv_pos_site_id
 _symmetry_equiv_pos_as_xyz
  1  'x, y, z'
loop_
 _atom_site_type_symbol
 _atom_site_label
 _atom_site_symmetry_multiplicity
 _atom_site_fract_x
 _atom_site_fract_y
 _atom_site_fract_z
 _atom_site_occupancy
  Dy  Dy0  1  0.000000  0.324297  0.414038  1
  Dy  Dy1  1  0.000000  0.675992  0.585957  1
  Dy  Dy2  1  0.000000  0.824103  0.086080  1
  Dy  Dy3  1  0.000000  0.176156  0.914155  1
  Dy  Dy4  1  0.000000  0.942784  0.369124  1
  Dy  Dy5  1  0.000000  0.057792  0.629937  1
  Dy  Dy6  1  0.000000  0.442704  0.130856  1
  Dy  Dy7  1  0.000000  0.556213  0.869650  1
  Re  Re8  1  0.000000  0.861271  0.820837  1
  Tc  Tc9  1  0.000000  0.638788  0.320753  1
  Tc  Tc10  1  0.000000  0.361209  0.679193  1
  Tc  Tc11  1  0.000000  0.138844  0.179331  1
  B  B12  1  0.500000  0.553498  0.432879  1
  B  B13  1  0.500000  0.446760  0.567198  1
  B  B14  1  0.500000  0.053453  0.067268  1
  B  B15  1  0.500000  0.946768  0.933039  1
  B  B16  1  0.500000  0.748695  0.418415  1
  B  B17  1  0.500000  0.251640  0.581482  1
  B  B18  1  0.500000  0.248609  0.081621  1
  B  B19  1  0.500000  0.750943  0.918564  1
  B  B20  1  0.500000  0.791563  0.265133  1
  B  B21  1  0.500000  0.208397  0.734684  1
  B  B22  1  0.500000  0.291565  0.234966  1
  B  B23  1  0.500000  0.708086  0.765258  1
  B  B24  1  0.500000  0.630893  0.185706  1
  B  B25  1  0.500000  0.368813  0.814287  1
  B  B26  1  0.500000  0.130977  0.314375  1
  B  B27  1  0.500000  0.869275  0.685503  1
  B  B28  1  0.500000  0.982606  0.211530  1
  B  B29  1  0.500000  0.017771  0.788193  1
  B  B30  1  0.500000  0.482580  0.288486  1
  B  B31  1  0.500000  0.517364  0.711701  1
  B  B32  1  0.500000  0.599977  0.028126  1
  B  B33  1  0.500000  0.399359  0.972185  1
  B  B34  1  0.500000  0.100297  0.471631  1
  B  B35  1  0.500000  0.899959  0.527858  1
