# generated using pymatgen
data_Rb2PuO3
_symmetry_space_group_name_H-M   'P 1'
_cell_length_a   6.32469521
_cell_length_b   6.32469631
_cell_length_c   6.96573507
_cell_angle_alpha   81.10491597
_cell_angle_beta   81.10491874
_cell_angle_gamma   119.83275074
_symmetry_Int_Tables_number   1
_chemical_formula_structural   Rb2PuO3
_chemical_formula_sum   'Rb4 Pu2 O6'
_cell_volume   229.92884941
_cell_formula_units_Z   2
loop_
 _symmetry_equiv_pos_site_id
 _symmetry_equiv_pos_as_xyz
  1  'x, y, z'
loop_
 _atom_site_type_symbol
 _atom_site_label
 _atom_site_symmetry_multiplicity
 _atom_site_fract_x
 _atom_site_fract_y
 _atom_site_fract_z
 _atom_site_occupancy
  Rb  Rb0  1  0.000000  0.000000  0.000000  1
  Rb  Rb1  1  0.500000  0.500000  0.500000  1
  Rb  Rb2  1  0.656438  0.343562  0.000000  1
  Rb  Rb3  1  0.343562  0.656438  0.000000  1
  Pu  Pu4  1  0.167071  0.832929  0.500000  1
  Pu  Pu5  1  0.832929  0.167071  0.500000  1
  O  O6  1  0.161839  0.161839  0.319273  1
  O  O7  1  0.964195  0.562805  0.316317  1
  O  O8  1  0.562805  0.964195  0.316317  1
  O  O9  1  0.437195  0.035805  0.683683  1
  O  O10  1  0.035805  0.437195  0.683683  1
  O  O11  1  0.838161  0.838161  0.680727  1
