# generated using pymatgen
data_Ho3Al3SiPdPt
_symmetry_space_group_name_H-M   'P 1'
_cell_length_a   7.00023000
_cell_length_b   7.00023036
_cell_length_c   4.16501200
_cell_angle_alpha   90.00000000
_cell_angle_beta   90.00000000
_cell_angle_gamma   119.99998887
_symmetry_Int_Tables_number   1
_chemical_formula_structural   Ho3Al3SiPdPt
_chemical_formula_sum   'Ho3 Al3 Si1 Pd1 Pt1'
_cell_volume   176.75494730
_cell_formula_units_Z   1
loop_
 _symmetry_equiv_pos_site_id
 _symmetry_equiv_pos_as_xyz
  1  'x, y, z'
loop_
 _atom_site_type_symbol
 _atom_site_label
 _atom_site_symmetry_multiplicity
 _atom_site_fract_x
 _atom_site_fract_y
 _atom_site_fract_z
 _atom_site_occupancy
  Ho  Ho0  1  0.420231  0.002217  0.500000  1
  Ho  Ho1  1  0.997783  0.418014  0.500000  1
  Ho  Ho2  1  0.581986  0.579769  0.500000  1
  Al  Al3  1  0.765662  0.011805  0.000000  1
  Al  Al4  1  0.988195  0.753858  0.000000  1
  Al  Al5  1  0.246142  0.234338  0.000000  1
  Si  Si6  1  0.333333  0.666667  0.000000  1
  Pd  Pd7  1  0.000000  0.000000  0.500000  1
  Pt  Pt8  1  0.666667  0.333333  0.000000  1
