# generated using pymatgen
data_Dy9Y3Sc8(GaO4)12
_symmetry_space_group_name_H-M   'P 1'
_cell_length_a   10.90472519
_cell_length_b   10.90422162
_cell_length_c   10.90474200
_cell_angle_alpha   109.47014557
_cell_angle_beta   109.47227946
_cell_angle_gamma   109.47042092
_symmetry_Int_Tables_number   1
_chemical_formula_structural   Dy9Y3Sc8(GaO4)12
_chemical_formula_sum   'Dy9 Y3 Sc8 Ga12 O48'
_cell_volume   998.17634198
_cell_formula_units_Z   1
loop_
 _symmetry_equiv_pos_site_id
 _symmetry_equiv_pos_as_xyz
  1  'x, y, z'
loop_
 _atom_site_type_symbol
 _atom_site_label
 _atom_site_symmetry_multiplicity
 _atom_site_fract_x
 _atom_site_fract_y
 _atom_site_fract_z
 _atom_site_occupancy
  Dy  Dy0  1  0.250033  0.375018  0.125018  1
  Dy  Dy1  1  0.374983  0.749999  0.125015  1
  Dy  Dy2  1  0.875076  0.625075  0.250149  1
  Dy  Dy3  1  0.374985  0.124985  0.249968  1
  Dy  Dy4  1  0.124991  0.250000  0.375013  1
  Dy  Dy5  1  0.750024  0.125011  0.375012  1
  Dy  Dy6  1  0.875074  0.750001  0.624924  1
  Dy  Dy7  1  0.249850  0.874924  0.624923  1
  Dy  Dy8  1  0.124989  0.374989  0.749977  1
  Y  Y9  1  0.624957  0.874957  0.749909  1
  Y  Y10  1  0.624956  0.249996  0.875045  1
  Y  Y11  1  0.750095  0.625050  0.875050  1
  Sc  Sc12  1  0.000125  0.000079  0.000043  1
  Sc  Sc13  1  0.499912  0.999956  0.000041  1
  Sc  Sc14  1  0.000118  0.500039  0.000085  1
  Sc  Sc15  1  0.499952  0.500039  0.000079  1
  Sc  Sc16  1  0.999987  0.999977  0.500001  1
  Sc  Sc17  1  0.499956  0.499917  0.499882  1
  Sc  Sc18  1  0.499916  0.999951  0.499879  1
  Sc  Sc19  1  0.999998  0.500018  0.499998  1
  Ga  Ga20  1  0.749995  0.875067  0.125228  1
  Ga  Ga21  1  0.875236  0.250163  0.125232  1
  Ga  Ga22  1  0.625051  0.375070  0.250160  1
  Ga  Ga23  1  0.125111  0.875091  0.250158  1
  Ga  Ga24  1  0.625048  0.749980  0.374888  1
  Ga  Ga25  1  0.249839  0.624908  0.374889  1
  Ga  Ga26  1  0.749993  0.374926  0.624766  1
  Ga  Ga27  1  0.374775  0.249841  0.624768  1
  Ga  Ga28  1  0.875232  0.125072  0.750004  1
  Ga  Ga29  1  0.374773  0.624934  0.750005  1
  Ga  Ga30  1  0.125109  0.750017  0.874947  1
  Ga  Ga31  1  0.249842  0.124932  0.874951  1
  O  O32  1  0.317687  0.904428  0.031288  1
  O  O33  1  0.213602  0.126862  0.031290  1
  O  O34  1  0.713572  0.682463  0.087189  1
  O  O35  1  0.873620  0.404726  0.087190  1
  O  O36  1  0.969134  0.682309  0.095967  1
  O  O37  1  0.626835  0.413659  0.095966  1
  O  O38  1  0.595536  0.913236  0.126834  1
  O  O39  1  0.031300  0.213600  0.126835  1
  O  O40  1  0.213601  0.586740  0.182313  1
  O  O41  1  0.468712  0.595573  0.182312  1
  O  O42  1  0.586749  0.182351  0.213577  1
  O  O43  1  0.126829  0.031226  0.213577  1
  O  O44  1  0.317689  0.913260  0.286397  1
  O  O45  1  0.468711  0.373140  0.286398  1
  O  O46  1  0.904461  0.031299  0.317760  1
  O  O47  1  0.913301  0.286462  0.317763  1
  O  O48  1  0.586749  0.904397  0.373170  1
  O  O49  1  0.286423  0.468776  0.373171  1
  O  O50  1  0.817745  0.531257  0.404490  1
  O  O51  1  0.086744  0.873233  0.404486  1
  O  O52  1  0.095513  0.626766  0.413254  1
  O  O53  1  0.817740  0.786488  0.413253  1
  O  O54  1  0.595536  0.182300  0.468701  1
  O  O55  1  0.373167  0.286401  0.468702  1
  O  O56  1  0.626834  0.713175  0.530863  1
  O  O57  1  0.404030  0.817689  0.530863  1
  O  O58  1  0.182241  0.213538  0.586699  1
  O  O59  1  0.904460  0.373162  0.586700  1
  O  O60  1  0.913299  0.126838  0.595539  1
  O  O61  1  0.182239  0.468701  0.595540  1
  O  O62  1  0.412812  0.095271  0.626381  1
  O  O63  1  0.713571  0.531110  0.626382  1
  O  O64  1  0.086745  0.713511  0.682254  1
  O  O65  1  0.095512  0.968745  0.682257  1
  O  O66  1  0.682475  0.086739  0.713177  1
  O  O67  1  0.530700  0.626438  0.713177  1
  O  O68  1  0.412813  0.817541  0.786428  1
  O  O69  1  0.873617  0.968890  0.786429  1
  O  O70  1  0.530703  0.404263  0.817525  1
  O  O71  1  0.786822  0.413261  0.817524  1
  O  O72  1  0.969133  0.786825  0.873164  1
  O  O73  1  0.404035  0.086342  0.873166  1
  O  O74  1  0.031298  0.317699  0.904463  1
  O  O75  1  0.373165  0.586764  0.904463  1
  O  O76  1  0.286422  0.317650  0.913252  1
  O  O77  1  0.126829  0.595603  0.913250  1
  O  O78  1  0.682481  0.095739  0.969303  1
  O  O79  1  0.786823  0.873562  0.969299  1
