# generated using pymatgen
data_La10Sn6Cl
_symmetry_space_group_name_H-M   'P 1'
_cell_length_a   6.91081304
_cell_length_b   9.64613670
_cell_length_c   9.64553301
_cell_angle_alpha   119.99906013
_cell_angle_beta   90.00067486
_cell_angle_gamma   89.99907385
_symmetry_Int_Tables_number   1
_chemical_formula_structural   La10Sn6Cl
_chemical_formula_sum   'La10 Sn6 Cl1'
_cell_volume   556.85680674
_cell_formula_units_Z   1
loop_
 _symmetry_equiv_pos_site_id
 _symmetry_equiv_pos_as_xyz
  1  'x, y, z'
loop_
 _atom_site_type_symbol
 _atom_site_label
 _atom_site_symmetry_multiplicity
 _atom_site_fract_x
 _atom_site_fract_y
 _atom_site_fract_z
 _atom_site_occupancy
  La  La0  1  0.500002  0.333235  0.666516  1
  La  La1  1  0.500039  0.666805  0.333503  1
  La  La2  1  0.999962  0.666736  0.333404  1
  La  La3  1  0.999981  0.333241  0.666590  1
  La  La4  1  0.757314  0.252262  0.999997  1
  La  La5  1  0.757238  0.747655  0.747654  1
  La  La6  1  0.757239  0.000035  0.252363  1
  La  La7  1  0.242637  0.747743  0.000001  1
  La  La8  1  0.242792  0.252331  0.252341  1
  La  La9  1  0.242761  0.999970  0.747627  1
  Sn  Sn10  1  0.749803  0.611689  0.999961  1
  Sn  Sn11  1  0.750270  0.388375  0.388212  1
  Sn  Sn12  1  0.750183  0.000070  0.611718  1
  Sn  Sn13  1  0.250207  0.388316  0.000042  1
  Sn  Sn14  1  0.249786  0.611622  0.611783  1
  Sn  Sn15  1  0.249778  0.999930  0.388293  1
  Cl  Cl16  1  0.500008  0.999987  0.999993  1
