# generated using pymatgen
data_Pr3Th8In9Ir4
_symmetry_space_group_name_H-M   'P 1'
_cell_length_a   13.45048900
_cell_length_b   13.45048984
_cell_length_c   3.86246100
_cell_angle_alpha   90.00000000
_cell_angle_beta   90.00000000
_cell_angle_gamma   111.27453129
_symmetry_Int_Tables_number   1
_chemical_formula_structural   Pr3Th8In9Ir4
_chemical_formula_sum   'Pr3 Th8 In9 Ir4'
_cell_volume   651.15968660
_cell_formula_units_Z   1
loop_
 _symmetry_equiv_pos_site_id
 _symmetry_equiv_pos_as_xyz
  1  'x, y, z'
loop_
 _atom_site_type_symbol
 _atom_site_label
 _atom_site_symmetry_multiplicity
 _atom_site_fract_x
 _atom_site_fract_y
 _atom_site_fract_z
 _atom_site_occupancy
  Pr  Pr0  1  0.500000  0.500000  0.500000  1
  Pr  Pr1  1  0.341515  0.658485  0.500000  1
  Pr  Pr2  1  0.658485  0.341515  0.500000  1
  Th  Th3  1  0.812631  0.812631  0.500000  1
  Th  Th4  1  0.187369  0.187369  0.500000  1
  Th  Th5  1  0.578349  0.921384  0.500000  1
  Th  Th6  1  0.421651  0.078616  0.500000  1
  Th  Th7  1  0.921384  0.578349  0.500000  1
  Th  Th8  1  0.078616  0.421651  0.500000  1
  Th  Th9  1  0.125835  0.874165  0.500000  1
  Th  Th10  1  0.874165  0.125835  0.500000  1
  In  In11  1  0.340269  0.862923  0.000000  1
  In  In12  1  0.659731  0.137077  0.000000  1
  In  In13  1  0.862923  0.340269  0.000000  1
  In  In14  1  0.137077  0.659731  0.000000  1
  In  In15  1  0.575906  0.716335  0.000000  1
  In  In16  1  0.424094  0.283665  0.000000  1
  In  In17  1  0.716335  0.575906  0.000000  1
  In  In18  1  0.283665  0.424094  0.000000  1
  In  In19  1  0.000000  0.000000  0.000000  1
  Ir  Ir20  1  0.746050  0.947664  0.000000  1
  Ir  Ir21  1  0.253950  0.052336  0.000000  1
  Ir  Ir22  1  0.947664  0.746050  0.000000  1
  Ir  Ir23  1  0.052336  0.253950  0.000000  1
