# generated using pymatgen
data_EuAl3Ni2
_symmetry_space_group_name_H-M   'P 1'
_cell_length_a   6.39379275
_cell_length_b   6.39379313
_cell_length_c   5.13482600
_cell_angle_alpha   90.00000000
_cell_angle_beta   90.00000000
_cell_angle_gamma   104.77634362
_symmetry_Int_Tables_number   1
_chemical_formula_structural   EuAl3Ni2
_chemical_formula_sum   'Eu2 Al6 Ni4'
_cell_volume   202.97257032
_cell_formula_units_Z   2
loop_
 _symmetry_equiv_pos_site_id
 _symmetry_equiv_pos_as_xyz
  1  'x, y, z'
loop_
 _atom_site_type_symbol
 _atom_site_label
 _atom_site_symmetry_multiplicity
 _atom_site_fract_x
 _atom_site_fract_y
 _atom_site_fract_z
 _atom_site_occupancy
  Eu  Eu0  1  0.651490  0.651490  0.250000  1
  Eu  Eu1  1  0.348510  0.348510  0.750000  1
  Al  Al2  1  0.058250  0.058250  0.250000  1
  Al  Al3  1  0.941750  0.941750  0.750000  1
  Al  Al4  1  0.079224  0.475199  0.250000  1
  Al  Al5  1  0.920776  0.524801  0.750000  1
  Al  Al6  1  0.475199  0.079224  0.250000  1
  Al  Al7  1  0.524801  0.920776  0.750000  1
  Ni  Ni8  1  0.799725  0.200275  0.000000  1
  Ni  Ni9  1  0.200275  0.799725  0.000000  1
  Ni  Ni10  1  0.200275  0.799725  0.500000  1
  Ni  Ni11  1  0.799725  0.200275  0.500000  1
