# generated using pymatgen
data_Sm5Ta3(Ni4P3)4
_symmetry_space_group_name_H-M   'P 1'
_cell_length_a   12.26080000
_cell_length_b   12.26080027
_cell_length_c   3.78517800
_cell_angle_alpha   90.00000000
_cell_angle_beta   90.00000000
_cell_angle_gamma   120.00000468
_symmetry_Int_Tables_number   1
_chemical_formula_structural   Sm5Ta3(Ni4P3)4
_chemical_formula_sum   'Sm5 Ta3 Ni16 P12'
_cell_volume   492.78166919
_cell_formula_units_Z   1
loop_
 _symmetry_equiv_pos_site_id
 _symmetry_equiv_pos_as_xyz
  1  'x, y, z'
loop_
 _atom_site_type_symbol
 _atom_site_label
 _atom_site_symmetry_multiplicity
 _atom_site_fract_x
 _atom_site_fract_y
 _atom_site_fract_z
 _atom_site_occupancy
  Sm  Sm0  1  0.186995  0.186995  0.500000  1
  Sm  Sm1  1  0.813005  0.000000  0.500000  1
  Sm  Sm2  1  0.000000  0.813005  0.500000  1
  Sm  Sm3  1  0.333333  0.666667  0.000000  1
  Sm  Sm4  1  0.666667  0.333333  0.000000  1
  Ta  Ta5  1  0.562360  0.562360  0.000000  1
  Ta  Ta6  1  0.437640  0.000000  0.000000  1
  Ta  Ta7  1  0.000000  0.437640  0.000000  1
  Ni  Ni8  1  0.722617  0.722617  0.500000  1
  Ni  Ni9  1  0.277383  0.000000  0.500000  1
  Ni  Ni10  1  0.000000  0.277383  0.500000  1
  Ni  Ni11  1  0.183841  0.377099  0.000000  1
  Ni  Ni12  1  0.622901  0.806742  0.000000  1
  Ni  Ni13  1  0.193258  0.816159  0.000000  1
  Ni  Ni14  1  0.806742  0.622901  0.000000  1
  Ni  Ni15  1  0.816159  0.193258  0.000000  1
  Ni  Ni16  1  0.377099  0.183841  0.000000  1
  Ni  Ni17  1  0.362387  0.485362  0.500000  1
  Ni  Ni18  1  0.514638  0.877026  0.500000  1
  Ni  Ni19  1  0.122974  0.637613  0.500000  1
  Ni  Ni20  1  0.877026  0.514638  0.500000  1
  Ni  Ni21  1  0.637613  0.122974  0.500000  1
  Ni  Ni22  1  0.485362  0.362387  0.500000  1
  Ni  Ni23  1  0.000000  0.000000  0.000000  1
  P  P24  1  0.820704  0.820704  0.000000  1
  P  P25  1  0.179296  0.000000  0.000000  1
  P  P26  1  0.000000  0.179296  0.000000  1
  P  P27  1  0.166632  0.476090  0.500000  1
  P  P28  1  0.523910  0.690542  0.500000  1
  P  P29  1  0.309458  0.833368  0.500000  1
  P  P30  1  0.690542  0.523910  0.500000  1
  P  P31  1  0.833368  0.309458  0.500000  1
  P  P32  1  0.476090  0.166632  0.500000  1
  P  P33  1  0.364244  0.364244  0.000000  1
  P  P34  1  0.635756  0.000000  0.000000  1
  P  P35  1  0.000000  0.635756  0.000000  1
