# generated using pymatgen
data_Tm2Lu3Rh2
_symmetry_space_group_name_H-M   'P 1'
_cell_length_a   6.34392404
_cell_length_b   7.04906224
_cell_length_c   8.41336630
_cell_angle_alpha   96.55178002
_cell_angle_beta   112.14888794
_cell_angle_gamma   90.00000479
_symmetry_Int_Tables_number   1
_chemical_formula_structural   Tm2Lu3Rh2
_chemical_formula_sum   'Tm4 Lu6 Rh4'
_cell_volume   345.81718495
_cell_formula_units_Z   2
loop_
 _symmetry_equiv_pos_site_id
 _symmetry_equiv_pos_as_xyz
  1  'x, y, z'
loop_
 _atom_site_type_symbol
 _atom_site_label
 _atom_site_symmetry_multiplicity
 _atom_site_fract_x
 _atom_site_fract_y
 _atom_site_fract_z
 _atom_site_occupancy
  Tm  Tm0  1  0.523777  0.081799  0.813500  1
  Tm  Tm1  1  0.476223  0.918201  0.186500  1
  Tm  Tm2  1  0.710276  0.418201  0.186500  1
  Tm  Tm3  1  0.289724  0.581799  0.813500  1
  Lu  Lu4  1  0.289893  0.312804  0.439607  1
  Lu  Lu5  1  0.710107  0.687196  0.560393  1
  Lu  Lu6  1  0.850287  0.187196  0.560393  1
  Lu  Lu7  1  0.149713  0.812804  0.439607  1
  Lu  Lu8  1  0.074343  0.250000  0.000000  1
  Lu  Lu9  1  0.925657  0.750000  0.000000  1
  Rh  Rh10  1  0.322902  0.570981  0.219943  1
  Rh  Rh11  1  0.677098  0.429019  0.780057  1
  Rh  Rh12  1  0.102961  0.929019  0.780057  1
  Rh  Rh13  1  0.897039  0.070981  0.219943  1
