# generated using pymatgen
data_Cs6HoTmBr12
_symmetry_space_group_name_H-M   'P 1'
_cell_length_a   9.96187432
_cell_length_b   9.95823032
_cell_length_c   8.26160300
_cell_angle_alpha   90.00000000
_cell_angle_beta   90.00000000
_cell_angle_gamma   90.02925176
_symmetry_Int_Tables_number   1
_chemical_formula_structural   Cs6HoTmBr12
_chemical_formula_sum   'Cs6 Ho1 Tm1 Br12'
_cell_volume   819.57271305
_cell_formula_units_Z   1
loop_
 _symmetry_equiv_pos_site_id
 _symmetry_equiv_pos_as_xyz
  1  'x, y, z'
loop_
 _atom_site_type_symbol
 _atom_site_label
 _atom_site_symmetry_multiplicity
 _atom_site_fract_x
 _atom_site_fract_y
 _atom_site_fract_z
 _atom_site_occupancy
  Cs  Cs0  1  0.000000  0.000000  0.500000  1
  Cs  Cs1  1  0.000000  0.000000  0.000000  1
  Cs  Cs2  1  0.235865  0.580875  0.500000  1
  Cs  Cs3  1  0.764135  0.419125  0.500000  1
  Cs  Cs4  1  0.419135  0.235814  0.000000  1
  Cs  Cs5  1  0.580865  0.764186  0.000000  1
  Ho  Ho6  1  0.000000  0.500000  0.000000  1
  Tm  Tm7  1  0.500000  0.000000  0.500000  1
  Br  Br8  1  0.690483  0.055556  0.738585  1
  Br  Br9  1  0.309517  0.944444  0.738585  1
  Br  Br10  1  0.943978  0.692175  0.240661  1
  Br  Br11  1  0.056022  0.307825  0.240661  1
  Br  Br12  1  0.309517  0.944444  0.261415  1
  Br  Br13  1  0.690483  0.055556  0.261415  1
  Br  Br14  1  0.056022  0.307825  0.759339  1
  Br  Br15  1  0.943978  0.692175  0.759339  1
  Br  Br16  1  0.570365  0.731204  0.500000  1
  Br  Br17  1  0.429635  0.268796  0.500000  1
  Br  Br18  1  0.271243  0.571014  0.000000  1
  Br  Br19  1  0.728757  0.428986  0.000000  1
