# generated using pymatgen
data_Gd2TcB4Os
_symmetry_space_group_name_H-M   'P 1'
_cell_length_a   5.95100900
_cell_length_b   5.33725600
_cell_length_c   6.44728100
_cell_angle_alpha   90.00000000
_cell_angle_beta   90.00000000
_cell_angle_gamma   90.00000000
_symmetry_Int_Tables_number   1
_chemical_formula_structural   Gd2TcB4Os
_chemical_formula_sum   'Gd4 Tc2 B8 Os2'
_cell_volume   204.77891623
_cell_formula_units_Z   2
loop_
 _symmetry_equiv_pos_site_id
 _symmetry_equiv_pos_as_xyz
  1  'x, y, z'
loop_
 _atom_site_type_symbol
 _atom_site_label
 _atom_site_symmetry_multiplicity
 _atom_site_fract_x
 _atom_site_fract_y
 _atom_site_fract_z
 _atom_site_occupancy
  Gd  Gd0  1  0.009888  0.250000  0.340688  1
  Gd  Gd1  1  0.509888  0.250000  0.159312  1
  Gd  Gd2  1  0.989417  0.750000  0.662222  1
  Gd  Gd3  1  0.489417  0.750000  0.837778  1
  Tc  Tc4  1  0.179386  0.250000  0.815635  1
  Tc  Tc5  1  0.679386  0.250000  0.684365  1
  B  B6  1  0.371173  0.079804  0.537342  1
  B  B7  1  0.871173  0.420196  0.962658  1
  B  B8  1  0.630427  0.581922  0.461137  1
  B  B9  1  0.130427  0.918078  0.038863  1
  B  B10  1  0.630427  0.918078  0.461137  1
  B  B11  1  0.130427  0.581922  0.038863  1
  B  B12  1  0.371173  0.420196  0.537342  1
  B  B13  1  0.871173  0.079804  0.962658  1
  Os  Os14  1  0.818108  0.750000  0.186632  1
  Os  Os15  1  0.318108  0.750000  0.313368  1
