# generated using pymatgen
data_AcB4(OsRu)2
_symmetry_space_group_name_H-M   'P 1'
_cell_length_a   7.71887429
_cell_length_b   7.72417786
_cell_length_c   4.00500716
_cell_angle_alpha   90.15078866
_cell_angle_beta   90.13158463
_cell_angle_gamma   89.97139074
_symmetry_Int_Tables_number   1
_chemical_formula_structural   AcB4(OsRu)2
_chemical_formula_sum   'Ac2 B8 Os4 Ru4'
_cell_volume   238.78488253
_cell_formula_units_Z   2
loop_
 _symmetry_equiv_pos_site_id
 _symmetry_equiv_pos_as_xyz
  1  'x, y, z'
loop_
 _atom_site_type_symbol
 _atom_site_label
 _atom_site_symmetry_multiplicity
 _atom_site_fract_x
 _atom_site_fract_y
 _atom_site_fract_z
 _atom_site_occupancy
  Ac  Ac0  1  0.503261  0.501684  0.999752  1
  Ac  Ac1  1  0.996739  0.998316  0.500248  1
  B  B2  1  0.663773  0.783643  0.607067  1
  B  B3  1  0.280859  0.835868  0.106284  1
  B  B4  1  0.836227  0.716357  0.892933  1
  B  B5  1  0.219141  0.664132  0.393716  1
  B  B6  1  0.788303  0.332841  0.391595  1
  B  B7  1  0.167493  0.285869  0.891962  1
  B  B8  1  0.711697  0.167159  0.108405  1
  B  B9  1  0.332507  0.214131  0.608038  1
  Os  Os10  1  0.355496  0.106369  0.106944  1
  Os  Os11  1  0.395264  0.856311  0.606330  1
  Os  Os12  1  0.104736  0.643689  0.893670  1
  Os  Os13  1  0.144504  0.393631  0.393056  1
  Ru  Ru14  1  0.855609  0.605662  0.392492  1
  Ru  Ru15  1  0.892644  0.355323  0.892045  1
  Ru  Ru16  1  0.644391  0.894338  0.107508  1
  Ru  Ru17  1  0.607356  0.144677  0.607955  1
