# generated using pymatgen
data_Dy4In2Cu3Rh
_symmetry_space_group_name_H-M   'P 1'
_cell_length_a   7.60363873
_cell_length_b   7.60363871
_cell_length_c   3.68726100
_cell_angle_alpha   90.00000000
_cell_angle_beta   90.00000000
_cell_angle_gamma   90.43298240
_symmetry_Int_Tables_number   1
_chemical_formula_structural   Dy4In2Cu3Rh
_chemical_formula_sum   'Dy4 In2 Cu3 Rh1'
_cell_volume   213.17409412
_cell_formula_units_Z   1
loop_
 _symmetry_equiv_pos_site_id
 _symmetry_equiv_pos_as_xyz
  1  'x, y, z'
loop_
 _atom_site_type_symbol
 _atom_site_label
 _atom_site_symmetry_multiplicity
 _atom_site_fract_x
 _atom_site_fract_y
 _atom_site_fract_z
 _atom_site_occupancy
  Dy  Dy0  1  0.672518  0.172518  0.500000  1
  Dy  Dy1  1  0.318526  0.818526  0.500000  1
  Dy  Dy2  1  0.178699  0.335623  0.500000  1
  Dy  Dy3  1  0.835623  0.678699  0.500000  1
  In  In4  1  0.504236  0.499489  0.000000  1
  In  In5  1  0.999489  0.004236  0.000000  1
  Cu  Cu6  1  0.874415  0.374415  0.000000  1
  Cu  Cu7  1  0.617420  0.879466  0.000000  1
  Cu  Cu8  1  0.379466  0.117420  0.000000  1
  Rh  Rh9  1  0.119608  0.619608  0.000000  1
