# generated using pymatgen
data_Dy2Fe8Ni4P7
_symmetry_space_group_name_H-M   'P 1'
_cell_length_a   9.04520524
_cell_length_b   9.04115674
_cell_length_c   3.63628700
_cell_angle_alpha   90.00000000
_cell_angle_beta   90.00000000
_cell_angle_gamma   120.16978042
_symmetry_Int_Tables_number   1
_chemical_formula_structural   Dy2Fe8Ni4P7
_chemical_formula_sum   'Dy2 Fe8 Ni4 P7'
_cell_volume   257.09028417
_cell_formula_units_Z   1
loop_
 _symmetry_equiv_pos_site_id
 _symmetry_equiv_pos_as_xyz
  1  'x, y, z'
loop_
 _atom_site_type_symbol
 _atom_site_label
 _atom_site_symmetry_multiplicity
 _atom_site_fract_x
 _atom_site_fract_y
 _atom_site_fract_z
 _atom_site_occupancy
  Dy  Dy0  1  0.334341  0.665361  0.000000  1
  Dy  Dy1  1  0.998428  0.000733  0.500000  1
  Fe  Fe2  1  0.943584  0.491966  0.000000  1
  Fe  Fe3  1  0.511643  0.449514  0.000000  1
  Fe  Fe4  1  0.548495  0.061413  0.000000  1
  Fe  Fe5  1  0.279021  0.379124  0.500000  1
  Fe  Fe6  1  0.617846  0.897955  0.500000  1
  Fe  Fe7  1  0.763160  0.554053  0.500000  1
  Fe  Fe8  1  0.452950  0.215008  0.500000  1
  Fe  Fe9  1  0.788212  0.237561  0.500000  1
  Ni  Ni10  1  0.726032  0.762715  0.000000  1
  Ni  Ni11  1  0.233469  0.963339  0.000000  1
  Ni  Ni12  1  0.032532  0.269026  0.000000  1
  Ni  Ni13  1  0.104901  0.722331  0.500000  1
  P  P14  1  0.959978  0.739417  0.000000  1
  P  P15  1  0.258921  0.225507  0.000000  1
  P  P16  1  0.772068  0.032233  0.000000  1
  P  P17  1  0.068318  0.445260  0.500000  1
  P  P18  1  0.546924  0.615563  0.500000  1
  P  P19  1  0.388947  0.936204  0.500000  1
  P  P20  1  0.670232  0.335716  0.000000  1
