# generated using pymatgen
data_NaSrBi2IrRh3O14
_symmetry_space_group_name_H-M   'P 1'
_cell_length_a   7.24513357
_cell_length_b   7.18987717
_cell_length_c   7.18987800
_cell_angle_alpha   59.23965573
_cell_angle_beta   59.95500573
_cell_angle_gamma   59.95500461
_symmetry_Int_Tables_number   1
_chemical_formula_structural   NaSrBi2IrRh3O14
_chemical_formula_sum   'Na1 Sr1 Bi2 Ir1 Rh3 O14'
_cell_volume   263.10200920
_cell_formula_units_Z   1
loop_
 _symmetry_equiv_pos_site_id
 _symmetry_equiv_pos_as_xyz
  1  'x, y, z'
loop_
 _atom_site_type_symbol
 _atom_site_label
 _atom_site_symmetry_multiplicity
 _atom_site_fract_x
 _atom_site_fract_y
 _atom_site_fract_z
 _atom_site_occupancy
  Na  Na0  1  0.125000  0.125000  0.625000  1
  Sr  Sr1  1  0.125000  0.625000  0.125000  1
  Bi  Bi2  1  0.125000  0.125000  0.125000  1
  Bi  Bi3  1  0.625000  0.125000  0.125000  1
  Ir  Ir4  1  0.125000  0.625000  0.625000  1
  Rh  Rh5  1  0.625000  0.625000  0.625000  1
  Rh  Rh6  1  0.625000  0.625000  0.125000  1
  Rh  Rh7  1  0.625000  0.125000  0.625000  1
  O  O8  1  0.259914  0.222374  0.255578  1
  O  O9  1  0.294315  0.717030  0.294432  1
  O  O10  1  0.953427  0.952885  0.533255  1
  O  O11  1  0.550579  0.960470  0.533019  1
  O  O12  1  0.700646  0.718198  0.288699  1
  O  O13  1  0.948856  0.553655  0.556030  1
  O  O14  1  0.699421  0.289530  0.716981  1
  O  O15  1  0.296573  0.297115  0.716745  1
  O  O16  1  0.711390  0.292287  0.292271  1
  O  O17  1  0.301144  0.696345  0.693970  1
  O  O18  1  0.955685  0.532970  0.955568  1
  O  O19  1  0.549354  0.531802  0.961301  1
  O  O20  1  0.990086  0.027626  0.994422  1
  O  O21  1  0.538610  0.957713  0.957729  1
