# generated using pymatgen
data_Lu2Sc2ReTcB12
_symmetry_space_group_name_H-M   'P 1'
_cell_length_a   3.55407900
_cell_length_b   8.96430115
_cell_length_c   11.30205506
_cell_angle_alpha   90.05529643
_cell_angle_beta   90.00000000
_cell_angle_gamma   90.00000000
_symmetry_Int_Tables_number   1
_chemical_formula_structural   Lu2Sc2ReTcB12
_chemical_formula_sum   'Lu4 Sc4 Re2 Tc2 B24'
_cell_volume   360.08143594
_cell_formula_units_Z   2
loop_
 _symmetry_equiv_pos_site_id
 _symmetry_equiv_pos_as_xyz
  1  'x, y, z'
loop_
 _atom_site_type_symbol
 _atom_site_label
 _atom_site_symmetry_multiplicity
 _atom_site_fract_x
 _atom_site_fract_y
 _atom_site_fract_z
 _atom_site_occupancy
  Lu  Lu0  1  0.000000  0.322380  0.414416  1
  Lu  Lu1  1  0.000000  0.677620  0.585584  1
  Lu  Lu2  1  0.000000  0.821376  0.086081  1
  Lu  Lu3  1  0.000000  0.178624  0.913919  1
  Sc  Sc4  1  0.000000  0.943458  0.370502  1
  Sc  Sc5  1  0.000000  0.056542  0.629498  1
  Sc  Sc6  1  0.000000  0.444463  0.129962  1
  Sc  Sc7  1  0.000000  0.555537  0.870038  1
  Re  Re8  1  0.000000  0.140304  0.181492  1
  Re  Re9  1  0.000000  0.859696  0.818508  1
  Tc  Tc10  1  0.000000  0.640347  0.319244  1
  Tc  Tc11  1  0.000000  0.359653  0.680756  1
  B  B12  1  0.500000  0.553853  0.433557  1
  B  B13  1  0.500000  0.446147  0.566443  1
  B  B14  1  0.500000  0.053735  0.066400  1
  B  B15  1  0.500000  0.946265  0.933600  1
  B  B16  1  0.500000  0.753838  0.419474  1
  B  B17  1  0.500000  0.246162  0.580526  1
  B  B18  1  0.500000  0.254364  0.080382  1
  B  B19  1  0.500000  0.745636  0.919618  1
  B  B20  1  0.500000  0.794948  0.264297  1
  B  B21  1  0.500000  0.205052  0.735703  1
  B  B22  1  0.500000  0.295575  0.235931  1
  B  B23  1  0.500000  0.704425  0.764069  1
  B  B24  1  0.500000  0.629601  0.182727  1
  B  B25  1  0.500000  0.370399  0.817273  1
  B  B26  1  0.500000  0.129532  0.317708  1
  B  B27  1  0.500000  0.870468  0.682292  1
  B  B28  1  0.500000  0.980197  0.213084  1
  B  B29  1  0.500000  0.019803  0.786916  1
  B  B30  1  0.500000  0.481030  0.287064  1
  B  B31  1  0.500000  0.518970  0.712936  1
  B  B32  1  0.500000  0.596533  0.026520  1
  B  B33  1  0.500000  0.403467  0.973480  1
  B  B34  1  0.500000  0.096234  0.473584  1
  B  B35  1  0.500000  0.903766  0.526416  1
