# generated using pymatgen
data_Th3Sc(CdHg2)4
_symmetry_space_group_name_H-M   'P 1'
_cell_length_a   7.52038900
_cell_length_b   5.08881500
_cell_length_c   10.19890100
_cell_angle_alpha   90.00000000
_cell_angle_beta   90.00000000
_cell_angle_gamma   90.00000000
_symmetry_Int_Tables_number   1
_chemical_formula_structural   Th3Sc(CdHg2)4
_chemical_formula_sum   'Th3 Sc1 Cd4 Hg8'
_cell_volume   390.31059857
_cell_formula_units_Z   1
loop_
 _symmetry_equiv_pos_site_id
 _symmetry_equiv_pos_as_xyz
  1  'x, y, z'
loop_
 _atom_site_type_symbol
 _atom_site_label
 _atom_site_symmetry_multiplicity
 _atom_site_fract_x
 _atom_site_fract_y
 _atom_site_fract_z
 _atom_site_occupancy
  Th  Th0  1  0.750000  0.250000  0.121480  1
  Th  Th1  1  0.250001  0.750000  0.375430  1
  Th  Th2  1  0.750000  0.250000  0.627789  1
  Sc  Sc3  1  0.249999  0.750000  0.875502  1
  Cd  Cd4  1  0.249999  0.250000  0.122231  1
  Cd  Cd5  1  0.750000  0.750000  0.375338  1
  Cd  Cd6  1  0.250001  0.250000  0.626894  1
  Cd  Cd7  1  0.750001  0.750000  0.875280  1
  Hg  Hg8  1  0.490856  0.750000  0.115062  1
  Hg  Hg9  1  0.009146  0.750000  0.115063  1
  Hg  Hg10  1  0.998651  0.250000  0.374550  1
  Hg  Hg11  1  0.501349  0.250000  0.374550  1
  Hg  Hg12  1  0.009145  0.750000  0.635799  1
  Hg  Hg13  1  0.490855  0.750000  0.635800  1
  Hg  Hg14  1  0.015936  0.250000  0.874616  1
  Hg  Hg15  1  0.484063  0.250000  0.874617  1
