# generated using pymatgen
data_LiEu4(ZnP2)3
_symmetry_space_group_name_H-M   'P 1'
_cell_length_a   7.95559527
_cell_length_b   7.95559386
_cell_length_c   11.53770426
_cell_angle_alpha   54.95363293
_cell_angle_beta   54.95364046
_cell_angle_gamma   30.05982934
_symmetry_Int_Tables_number   1
_chemical_formula_structural   LiEu4(ZnP2)3
_chemical_formula_sum   'Li1 Eu4 Zn3 P6'
_cell_volume   294.10014570
_cell_formula_units_Z   1
loop_
 _symmetry_equiv_pos_site_id
 _symmetry_equiv_pos_as_xyz
  1  'x, y, z'
loop_
 _atom_site_type_symbol
 _atom_site_label
 _atom_site_symmetry_multiplicity
 _atom_site_fract_x
 _atom_site_fract_y
 _atom_site_fract_z
 _atom_site_occupancy
  Li  Li0  1  0.040739  0.040739  0.675335  1
  Eu  Eu1  1  0.267315  0.267315  0.335536  1
  Eu  Eu2  1  0.729891  0.729891  0.668144  1
  Eu  Eu3  1  0.394686  0.394686  0.945863  1
  Eu  Eu4  1  0.607034  0.607034  0.051055  1
  Zn  Zn5  1  0.956569  0.956569  0.317404  1
  Zn  Zn6  1  0.415988  0.415988  0.653753  1
  Zn  Zn7  1  0.592550  0.592550  0.347339  1
  P  P8  1  0.069022  0.069022  0.886780  1
  P  P9  1  0.925960  0.925960  0.120742  1
  P  P10  1  0.154279  0.154279  0.197113  1
  P  P11  1  0.841777  0.841777  0.803341  1
  P  P12  1  0.385957  0.385957  0.464311  1
  P  P13  1  0.618232  0.618232  0.533284  1
