# generated using pymatgen
data_Sr6BiOsO12
_symmetry_space_group_name_H-M   'P 1'
_cell_length_a   7.00555276
_cell_length_b   7.00555440
_cell_length_c   7.00555406
_cell_angle_alpha   92.00210945
_cell_angle_beta   92.00210591
_cell_angle_gamma   92.00209742
_symmetry_Int_Tables_number   1
_chemical_formula_structural   Sr6BiOsO12
_chemical_formula_sum   'Sr6 Bi1 Os1 O12'
_cell_volume   343.17231935
_cell_formula_units_Z   1
loop_
 _symmetry_equiv_pos_site_id
 _symmetry_equiv_pos_as_xyz
  1  'x, y, z'
loop_
 _atom_site_type_symbol
 _atom_site_label
 _atom_site_symmetry_multiplicity
 _atom_site_fract_x
 _atom_site_fract_y
 _atom_site_fract_z
 _atom_site_occupancy
  Sr  Sr0  1  0.064611  0.254357  0.564969  1
  Sr  Sr1  1  0.435031  0.935389  0.745643  1
  Sr  Sr2  1  0.745643  0.435031  0.935389  1
  Sr  Sr3  1  0.254357  0.564969  0.064611  1
  Sr  Sr4  1  0.564969  0.064611  0.254357  1
  Sr  Sr5  1  0.935389  0.745643  0.435031  1
  Bi  Bi6  1  0.000000  0.000000  0.000000  1
  Os  Os7  1  0.500000  0.500000  0.500000  1
  O  O8  1  0.067897  0.292918  0.928772  1
  O  O9  1  0.071228  0.932103  0.707082  1
  O  O10  1  0.454459  0.570748  0.761293  1
  O  O11  1  0.707082  0.071228  0.932103  1
  O  O12  1  0.238707  0.545541  0.429252  1
  O  O13  1  0.429252  0.238707  0.545541  1
  O  O14  1  0.570748  0.761293  0.454459  1
  O  O15  1  0.761293  0.454459  0.570748  1
  O  O16  1  0.292918  0.928772  0.067897  1
  O  O17  1  0.545541  0.429252  0.238707  1
  O  O18  1  0.928772  0.067897  0.292918  1
  O  O19  1  0.932103  0.707082  0.071228  1
