# generated using pymatgen
data_Li2AcCeIr2
_symmetry_space_group_name_H-M   'P 1'
_cell_length_a   4.01821200
_cell_length_b   7.24443765
_cell_length_c   8.65444144
_cell_angle_alpha   87.55762423
_cell_angle_beta   90.00000000
_cell_angle_gamma   90.00000000
_symmetry_Int_Tables_number   1
_chemical_formula_structural   Li2AcCeIr2
_chemical_formula_sum   'Li4 Ac2 Ce2 Ir4'
_cell_volume   251.69922047
_cell_formula_units_Z   2
loop_
 _symmetry_equiv_pos_site_id
 _symmetry_equiv_pos_as_xyz
  1  'x, y, z'
loop_
 _atom_site_type_symbol
 _atom_site_label
 _atom_site_symmetry_multiplicity
 _atom_site_fract_x
 _atom_site_fract_y
 _atom_site_fract_z
 _atom_site_occupancy
  Li  Li0  1  0.250000  0.640496  0.552577  1
  Li  Li1  1  0.750000  0.359504  0.447423  1
  Li  Li2  1  0.750000  0.886158  0.049448  1
  Li  Li3  1  0.250000  0.113842  0.950552  1
  Ac  Ac4  1  0.250000  0.550669  0.186561  1
  Ac  Ac5  1  0.750000  0.449331  0.813439  1
  Ce  Ce6  1  0.750000  0.953339  0.680235  1
  Ce  Ce7  1  0.250000  0.046661  0.319765  1
  Ir  Ir8  1  0.250000  0.758110  0.857566  1
  Ir  Ir9  1  0.750000  0.241890  0.142434  1
  Ir  Ir10  1  0.750000  0.782411  0.379343  1
  Ir  Ir11  1  0.250000  0.217589  0.620657  1
