# generated using pymatgen
data_Ho2Er2Bi3Sb3Rh7
_symmetry_space_group_name_H-M   'P 1'
_cell_length_a   7.73631200
_cell_length_b   7.68350944
_cell_length_c   7.68014806
_cell_angle_alpha   109.32949409
_cell_angle_beta   109.60857081
_cell_angle_gamma   109.63217193
_symmetry_Int_Tables_number   1
_chemical_formula_structural   Ho2Er2Bi3Sb3Rh7
_chemical_formula_sum   'Ho2 Er2 Bi3 Sb3 Rh7'
_cell_volume   350.74900331
_cell_formula_units_Z   1
loop_
 _symmetry_equiv_pos_site_id
 _symmetry_equiv_pos_as_xyz
  1  'x, y, z'
loop_
 _atom_site_type_symbol
 _atom_site_label
 _atom_site_symmetry_multiplicity
 _atom_site_fract_x
 _atom_site_fract_y
 _atom_site_fract_z
 _atom_site_occupancy
  Ho  Ho0  1  0.004289  0.000005  0.515985  1
  Ho  Ho1  1  0.488304  0.484020  0.484015  1
  Er  Er2  1  0.461179  0.999951  0.000000  1
  Er  Er3  1  0.004407  0.516141  0.000000  1
  Bi  Bi4  1  0.986389  0.295123  0.294967  1
  Bi  Bi5  1  0.691422  0.000156  0.705033  1
  Bi  Bi6  1  0.691423  0.704873  0.000000  1
  Sb  Sb7  1  0.987010  0.662854  0.663043  1
  Sb  Sb8  1  0.323966  0.999812  0.336957  1
  Sb  Sb9  1  0.324015  0.337125  0.000000  1
  Rh  Rh10  1  0.071690  0.999944  0.000000  1
  Rh  Rh11  1  0.497122  0.753791  0.254915  1
  Rh  Rh12  1  0.743450  0.501157  0.245956  1
  Rh  Rh13  1  0.242146  0.744813  0.498659  1
  Rh  Rh14  1  0.242207  0.498877  0.745085  1
  Rh  Rh15  1  0.497494  0.255203  0.754044  1
  Rh  Rh16  1  0.743488  0.246155  0.501341  1
