# generated using pymatgen
data_HoEr3Pd3PtF28
_symmetry_space_group_name_H-M   'P 1'
_cell_length_a   5.50524447
_cell_length_b   8.79807617
_cell_length_c   11.88431205
_cell_angle_alpha   62.59310438
_cell_angle_beta   90.00060974
_cell_angle_gamma   89.95665575
_symmetry_Int_Tables_number   1
_chemical_formula_structural   HoEr3Pd3PtF28
_chemical_formula_sum   'Ho1 Er3 Pd3 Pt1 F28'
_cell_volume   511.01515892
_cell_formula_units_Z   1
loop_
 _symmetry_equiv_pos_site_id
 _symmetry_equiv_pos_as_xyz
  1  'x, y, z'
loop_
 _atom_site_type_symbol
 _atom_site_label
 _atom_site_symmetry_multiplicity
 _atom_site_fract_x
 _atom_site_fract_y
 _atom_site_fract_z
 _atom_site_occupancy
  Ho  Ho0  1  0.762092  0.813534  0.764403  1
  Er  Er1  1  0.261454  0.186524  0.736293  1
  Er  Er2  1  0.237746  0.186129  0.234548  1
  Er  Er3  1  0.738207  0.814803  0.264060  1
  Pd  Pd4  1  0.758847  0.271513  0.957270  1
  Pd  Pd5  1  0.259294  0.727826  0.542627  1
  Pd  Pd6  1  0.241082  0.727831  0.043469  1
  Pt  Pt7  1  0.740587  0.272902  0.456471  1
  F  F8  1  0.435493  0.702184  0.916670  1
  F  F9  1  0.937219  0.298280  0.584728  1
  F  F10  1  0.564044  0.297454  0.083821  1
  F  F11  1  0.064870  0.702303  0.415632  1
  F  F12  1  0.437440  0.278463  0.542860  1
  F  F13  1  0.940333  0.721501  0.958522  1
  F  F14  1  0.560512  0.722390  0.457369  1
  F  F15  1  0.059895  0.277699  0.042180  1
  F  F16  1  0.775489  0.520424  0.858447  1
  F  F17  1  0.276915  0.478717  0.642161  1
  F  F18  1  0.224945  0.478610  0.141824  1
  F  F19  1  0.725268  0.524127  0.357303  1
  F  F20  1  0.753714  0.023274  0.049918  1
  F  F21  1  0.253592  0.976227  0.449739  1
  F  F22  1  0.246180  0.976059  0.950890  1
  F  F23  1  0.745375  0.022258  0.550076  1
  F  F24  1  0.966216  0.723944  0.635525  1
  F  F25  1  0.465446  0.274468  0.864796  1
  F  F26  1  0.035948  0.274599  0.362914  1
  F  F27  1  0.534362  0.725177  0.136065  1
  F  F28  1  0.051869  0.746346  0.175941  1
  F  F29  1  0.549600  0.253682  0.323185  1
  F  F30  1  0.948074  0.252829  0.824989  1
  F  F31  1  0.446754  0.745793  0.675725  1
  F  F32  1  0.415715  0.970667  0.232188  1
  F  F33  1  0.915573  0.029813  0.267349  1
  F  F34  1  0.584237  0.030544  0.767526  1
  F  F35  1  0.085611  0.971100  0.732513  1
