# generated using pymatgen
data_MgSc2Pd5
_symmetry_space_group_name_H-M   'P 1'
_cell_length_a   4.21089200
_cell_length_b   5.63102400
_cell_length_c   11.18068700
_cell_angle_alpha   90.00000000
_cell_angle_beta   90.00000000
_cell_angle_gamma   90.00000000
_symmetry_Int_Tables_number   1
_chemical_formula_structural   MgSc2Pd5
_chemical_formula_sum   'Mg2 Sc4 Pd10'
_cell_volume   265.11235704
_cell_formula_units_Z   2
loop_
 _symmetry_equiv_pos_site_id
 _symmetry_equiv_pos_as_xyz
  1  'x, y, z'
loop_
 _atom_site_type_symbol
 _atom_site_label
 _atom_site_symmetry_multiplicity
 _atom_site_fract_x
 _atom_site_fract_y
 _atom_site_fract_z
 _atom_site_occupancy
  Mg  Mg0  1  0.000000  0.000000  0.500000  1
  Mg  Mg1  1  0.000000  0.500000  0.000000  1
  Sc  Sc2  1  0.500000  0.180673  0.141159  1
  Sc  Sc3  1  0.500000  0.819327  0.858841  1
  Sc  Sc4  1  0.500000  0.319327  0.641159  1
  Sc  Sc5  1  0.500000  0.680673  0.358841  1
  Pd  Pd6  1  0.500000  0.195128  0.387686  1
  Pd  Pd7  1  0.500000  0.804872  0.612314  1
  Pd  Pd8  1  0.500000  0.304872  0.887686  1
  Pd  Pd9  1  0.500000  0.695128  0.112314  1
  Pd  Pd10  1  0.000000  0.431147  0.248163  1
  Pd  Pd11  1  0.000000  0.568853  0.751837  1
  Pd  Pd12  1  0.000000  0.068853  0.748163  1
  Pd  Pd13  1  0.000000  0.931147  0.251837  1
  Pd  Pd14  1  0.000000  0.000000  0.000000  1
  Pd  Pd15  1  0.000000  0.500000  0.500000  1
