# generated using pymatgen
data_Si2Ni2PdRh
_symmetry_space_group_name_H-M   'P 1'
_cell_length_a   3.51157200
_cell_length_b   3.51157200
_cell_length_c   6.13793100
_cell_angle_alpha   90.00000000
_cell_angle_beta   90.00000000
_cell_angle_gamma   90.00000000
_symmetry_Int_Tables_number   1
_chemical_formula_structural   Si2Ni2PdRh
_chemical_formula_sum   'Si2 Ni2 Pd1 Rh1'
_cell_volume   75.68767365
_cell_formula_units_Z   1
loop_
 _symmetry_equiv_pos_site_id
 _symmetry_equiv_pos_as_xyz
  1  'x, y, z'
loop_
 _atom_site_type_symbol
 _atom_site_label
 _atom_site_symmetry_multiplicity
 _atom_site_fract_x
 _atom_site_fract_y
 _atom_site_fract_z
 _atom_site_occupancy
  Si  Si0  1  0.499999  0.000000  0.248245  1
  Si  Si1  1  0.000000  0.499999  0.752579  1
  Ni  Ni2  1  0.000000  0.000000  0.000230  1
  Ni  Ni3  1  0.499999  0.499999  0.000230  1
  Pd  Pd4  1  0.000000  0.499999  0.361826  1
  Rh  Rh5  1  0.499999  0.000000  0.636891  1
