# generated using pymatgen
data_Ho3ZnGaSi4
_symmetry_space_group_name_H-M   'P 1'
_cell_length_a   4.08259328
_cell_length_b   4.05524449
_cell_length_c   21.08004005
_cell_angle_alpha   84.55236623
_cell_angle_beta   95.52276473
_cell_angle_gamma   90.12225472
_symmetry_Int_Tables_number   1
_chemical_formula_structural   Ho3ZnGaSi4
_chemical_formula_sum   'Ho6 Zn2 Ga2 Si8'
_cell_volume   345.80167008
_cell_formula_units_Z   2
loop_
 _symmetry_equiv_pos_site_id
 _symmetry_equiv_pos_as_xyz
  1  'x, y, z'
loop_
 _atom_site_type_symbol
 _atom_site_label
 _atom_site_symmetry_multiplicity
 _atom_site_fract_x
 _atom_site_fract_y
 _atom_site_fract_z
 _atom_site_occupancy
  Ho  Ho0  1  0.374363  0.875431  0.248446  1
  Ho  Ho1  1  0.039908  0.209926  0.579702  1
  Ho  Ho2  1  0.705297  0.544244  0.910689  1
  Ho  Ho3  1  0.294055  0.456494  0.087766  1
  Ho  Ho4  1  0.960124  0.790382  0.419705  1
  Ho  Ho5  1  0.626260  0.124591  0.751759  1
  Zn  Zn6  1  0.903737  0.346470  0.307677  1
  Zn  Zn7  1  0.569782  0.680187  0.639618  1
  Ga  Ga8  1  0.235486  0.014620  0.970812  1
  Ga  Ga9  1  0.763894  0.985794  0.028281  1
  Si  Si10  1  0.430554  0.319083  0.361859  1
  Si  Si11  1  0.096453  0.653355  0.693605  1
  Si  Si12  1  0.846888  0.401793  0.196360  1
  Si  Si13  1  0.513265  0.735808  0.528162  1
  Si  Si14  1  0.178478  0.070678  0.858729  1
  Si  Si15  1  0.821549  0.929474  0.140656  1
  Si  Si16  1  0.487234  0.263771  0.472346  1
  Si  Si17  1  0.152677  0.597898  0.803828  1
