# generated using pymatgen
data_ZrHSBr
_symmetry_space_group_name_H-M   'P 1'
_cell_length_a   3.59076300
_cell_length_b   3.59076240
_cell_length_c   13.51780000
_cell_angle_alpha   90.00000000
_cell_angle_beta   90.00000000
_cell_angle_gamma   120.00001470
_symmetry_Int_Tables_number   1
_chemical_formula_structural   ZrHSBr
_chemical_formula_sum   'Zr2 H2 S2 Br2'
_cell_volume   150.94196340
_cell_formula_units_Z   2
loop_
 _symmetry_equiv_pos_site_id
 _symmetry_equiv_pos_as_xyz
  1  'x, y, z'
loop_
 _atom_site_type_symbol
 _atom_site_label
 _atom_site_symmetry_multiplicity
 _atom_site_fract_x
 _atom_site_fract_y
 _atom_site_fract_z
 _atom_site_occupancy
  Zr  Zr0  1  0.000000  0.000000  0.233176  1
  Zr  Zr1  1  0.000000  0.000000  0.766824  1
  H  H2  1  0.333333  0.666667  0.757561  1
  H  H3  1  0.666667  0.333333  0.242439  1
  S  S4  1  0.333333  0.666667  0.118346  1
  S  S5  1  0.666667  0.333333  0.881654  1
  Br  Br6  1  0.666667  0.333333  0.620609  1
  Br  Br7  1  0.333333  0.666667  0.379391  1
