# generated using pymatgen
data_Zr3GaIr2C
_symmetry_space_group_name_H-M   'P 1'
_cell_length_a   8.61796400
_cell_length_b   8.61796345
_cell_length_c   8.61796400
_cell_angle_alpha   120.00000213
_cell_angle_beta   90.00000000
_cell_angle_gamma   120.00000213
_symmetry_Int_Tables_number   1
_chemical_formula_structural   Zr3GaIr2C
_chemical_formula_sum   'Zr12 Ga4 Ir8 C4'
_cell_volume   452.58376709
_cell_formula_units_Z   4
loop_
 _symmetry_equiv_pos_site_id
 _symmetry_equiv_pos_as_xyz
  1  'x, y, z'
loop_
 _atom_site_type_symbol
 _atom_site_label
 _atom_site_symmetry_multiplicity
 _atom_site_fract_x
 _atom_site_fract_y
 _atom_site_fract_z
 _atom_site_occupancy
  Zr  Zr0  1  0.306410  0.000000  0.306410  1
  Zr  Zr1  1  0.693590  0.000000  0.306410  1
  Zr  Zr2  1  0.306410  0.612819  0.306410  1
  Zr  Zr3  1  0.056410  0.112818  0.556410  1
  Zr  Zr4  1  0.056410  0.500000  0.556410  1
  Zr  Zr5  1  0.443590  0.500000  0.556410  1
  Zr  Zr6  1  0.693590  0.000000  0.693590  1
  Zr  Zr7  1  0.306410  0.000000  0.693590  1
  Zr  Zr8  1  0.693590  0.387182  0.693590  1
  Zr  Zr9  1  0.056410  0.500000  0.943590  1
  Zr  Zr10  1  0.443590  0.500000  0.943590  1
  Zr  Zr11  1  0.443590  0.887182  0.943590  1
  Ga  Ga12  1  0.375000  0.250000  0.125000  1
  Ga  Ga13  1  0.875000  0.250000  0.125000  1
  Ga  Ga14  1  0.875000  0.750000  0.125000  1
  Ga  Ga15  1  0.875000  0.750000  0.625000  1
  Ir  Ir16  1  0.666330  0.332656  0.998983  1
  Ir  Ir17  1  0.083671  0.167344  0.251016  1
  Ir  Ir18  1  0.666330  0.332656  0.333672  1
  Ir  Ir19  1  0.666330  0.667346  0.333672  1
  Ir  Ir20  1  0.001017  0.667346  0.333672  1
  Ir  Ir21  1  0.083671  0.167344  0.916327  1
  Ir  Ir22  1  0.083671  0.832655  0.916327  1
  Ir  Ir23  1  0.748982  0.832655  0.916327  1
  C  C24  1  0.375000  0.750000  0.125000  1
  C  C25  1  0.375000  0.250000  0.625000  1
  C  C26  1  0.875000  0.250000  0.625000  1
  C  C27  1  0.375000  0.750000  0.625000  1
