# generated using pymatgen
data_Ho2ErLu17(CoSb2)4
_symmetry_space_group_name_H-M   'P 1'
_cell_length_a   7.69172526
_cell_length_b   8.69454100
_cell_length_c   11.96514302
_cell_angle_alpha   90.00000000
_cell_angle_beta   90.02934015
_cell_angle_gamma   90.00000000
_symmetry_Int_Tables_number   1
_chemical_formula_structural   Ho2ErLu17(CoSb2)4
_chemical_formula_sum   'Ho2 Er1 Lu17 Co4 Sb8'
_cell_volume   800.18104659
_cell_formula_units_Z   1
loop_
 _symmetry_equiv_pos_site_id
 _symmetry_equiv_pos_as_xyz
  1  'x, y, z'
loop_
 _atom_site_type_symbol
 _atom_site_label
 _atom_site_symmetry_multiplicity
 _atom_site_fract_x
 _atom_site_fract_y
 _atom_site_fract_z
 _atom_site_occupancy
  Ho  Ho0  1  0.122589  0.250000  0.191429  1
  Ho  Ho1  1  0.377466  0.250000  0.691428  1
  Er  Er2  1  0.877471  0.750000  0.808529  1
  Lu  Lu3  1  0.157554  0.750000  0.204205  1
  Lu  Lu4  1  0.657116  0.250000  0.295976  1
  Lu  Lu5  1  0.842843  0.250000  0.795935  1
  Lu  Lu6  1  0.342775  0.750000  0.704080  1
  Lu  Lu7  1  0.447964  0.750000  0.998015  1
  Lu  Lu8  1  0.947280  0.250000  0.502081  1
  Lu  Lu9  1  0.552245  0.250000  0.002218  1
  Lu  Lu10  1  0.052111  0.750000  0.497940  1
  Lu  Lu11  1  0.621230  0.750000  0.309803  1
  Lu  Lu12  1  0.824419  0.961710  0.065653  1
  Lu  Lu13  1  0.325143  0.037180  0.434145  1
  Lu  Lu14  1  0.175385  0.461832  0.934467  1
  Lu  Lu15  1  0.675532  0.538682  0.565004  1
  Lu  Lu16  1  0.175385  0.038168  0.934467  1
  Lu  Lu17  1  0.675532  0.961318  0.565004  1
  Lu  Lu18  1  0.824419  0.538290  0.065653  1
  Lu  Lu19  1  0.325143  0.462820  0.434145  1
  Co  Co20  1  0.431356  0.750000  0.491100  1
  Co  Co21  1  0.930577  0.250000  0.008380  1
  Co  Co22  1  0.569249  0.250000  0.508136  1
  Co  Co23  1  0.069328  0.750000  0.991629  1
  Sb  Sb24  1  0.931493  0.990851  0.328282  1
  Sb  Sb25  1  0.433094  0.007991  0.171976  1
  Sb  Sb26  1  0.067635  0.491443  0.671723  1
  Sb  Sb27  1  0.567722  0.508621  0.828308  1
  Sb  Sb28  1  0.067635  0.008557  0.671723  1
  Sb  Sb29  1  0.567722  0.991379  0.828308  1
  Sb  Sb30  1  0.931493  0.509149  0.328282  1
  Sb  Sb31  1  0.433094  0.492009  0.171976  1
