# generated using pymatgen
data_Dy4Co(Si2Pt)5
_symmetry_space_group_name_H-M   'P 1'
_cell_length_a   8.11450019
_cell_length_b   8.11450043
_cell_length_c   5.93379505
_cell_angle_alpha   68.63933926
_cell_angle_beta   68.63933604
_cell_angle_gamma   88.87658872
_symmetry_Int_Tables_number   1
_chemical_formula_structural   Dy4Co(Si2Pt)5
_chemical_formula_sum   'Dy4 Co1 Si10 Pt5'
_cell_volume   335.98454979
_cell_formula_units_Z   1
loop_
 _symmetry_equiv_pos_site_id
 _symmetry_equiv_pos_as_xyz
  1  'x, y, z'
loop_
 _atom_site_type_symbol
 _atom_site_label
 _atom_site_symmetry_multiplicity
 _atom_site_fract_x
 _atom_site_fract_y
 _atom_site_fract_z
 _atom_site_occupancy
  Dy  Dy0  1  0.860460  0.598180  0.769782  1
  Dy  Dy1  1  0.401820  0.139540  0.730218  1
  Dy  Dy2  1  0.139562  0.401775  0.226131  1
  Dy  Dy3  1  0.598225  0.860438  0.273869  1
  Co  Co4  1  0.000414  0.999586  0.750000  1
  Si  Si5  1  0.777745  0.222255  0.750000  1
  Si  Si6  1  0.225925  0.774075  0.250000  1
  Si  Si7  1  0.500220  0.499780  0.750000  1
  Si  Si8  1  0.499705  0.500295  0.250000  1
  Si  Si9  1  0.221386  0.778614  0.750000  1
  Si  Si10  1  0.774590  0.225410  0.250000  1
  Si  Si11  1  0.043799  0.252585  0.835988  1
  Si  Si12  1  0.252816  0.043541  0.366427  1
  Si  Si13  1  0.956459  0.747184  0.133573  1
  Si  Si14  1  0.747415  0.956201  0.664012  1
  Pt  Pt15  1  0.523044  0.246628  0.114636  1
  Pt  Pt16  1  0.999622  0.000378  0.250000  1
  Pt  Pt17  1  0.246532  0.523111  0.615707  1
  Pt  Pt18  1  0.476889  0.753468  0.884293  1
  Pt  Pt19  1  0.753372  0.476956  0.385364  1
