# generated using pymatgen
data_La5ErU4O20
_symmetry_space_group_name_H-M   'P 1'
_cell_length_a   6.80109227
_cell_length_b   7.75314651
_cell_length_c   8.67147490
_cell_angle_alpha   101.64330435
_cell_angle_beta   97.67860063
_cell_angle_gamma   107.14617517
_symmetry_Int_Tables_number   1
_chemical_formula_structural   La5ErU4O20
_chemical_formula_sum   'La5 Er1 U4 O20'
_cell_volume   418.72400696
_cell_formula_units_Z   1
loop_
 _symmetry_equiv_pos_site_id
 _symmetry_equiv_pos_as_xyz
  1  'x, y, z'
loop_
 _atom_site_type_symbol
 _atom_site_label
 _atom_site_symmetry_multiplicity
 _atom_site_fract_x
 _atom_site_fract_y
 _atom_site_fract_z
 _atom_site_occupancy
  La  La0  1  0.612211  0.703807  0.699488  1
  La  La1  1  0.387789  0.296193  0.300512  1
  La  La2  1  0.198663  0.897882  0.892497  1
  La  La3  1  0.000000  0.500000  0.500000  1
  La  La4  1  0.801337  0.102118  0.107503  1
  Er  Er5  1  0.000000  0.000000  0.500000  1
  U  U6  1  0.401677  0.804832  0.302111  1
  U  U7  1  0.198110  0.401123  0.901021  1
  U  U8  1  0.801890  0.598877  0.098979  1
  U  U9  1  0.598323  0.195168  0.697889  1
  O  O10  1  0.437733  0.535552  0.131826  1
  O  O11  1  0.558315  0.996306  0.836345  1
  O  O12  1  0.273065  0.151547  0.739944  1
  O  O13  1  0.360234  0.602305  0.436048  1
  O  O14  1  0.053953  0.735584  0.325729  1
  O  O15  1  0.441685  0.003694  0.163655  1
  O  O16  1  0.151193  0.191915  0.027876  1
  O  O17  1  0.562267  0.464448  0.868174  1
  O  O18  1  0.856597  0.342688  0.949076  1
  O  O19  1  0.254479  0.599462  0.764618  1
  O  O20  1  0.955558  0.782014  0.644421  1
  O  O21  1  0.351569  0.054976  0.455838  1
  O  O22  1  0.648431  0.945024  0.544162  1
  O  O23  1  0.044442  0.217986  0.355579  1
  O  O24  1  0.745521  0.400538  0.235382  1
  O  O25  1  0.143403  0.657312  0.050924  1
  O  O26  1  0.848807  0.808085  0.972124  1
  O  O27  1  0.946047  0.264416  0.674271  1
  O  O28  1  0.639766  0.397695  0.563952  1
  O  O29  1  0.726935  0.848453  0.260056  1
