# generated using pymatgen
data_Li4Nd3Sn3Bi
_symmetry_space_group_name_H-M   'P 1'
_cell_length_a   8.87843871
_cell_length_b   8.87843836
_cell_length_c   8.87843734
_cell_angle_alpha   149.23720972
_cell_angle_beta   131.38845223
_cell_angle_gamma   58.63735767
_symmetry_Int_Tables_number   1
_chemical_formula_structural   Li4Nd3Sn3Bi
_chemical_formula_sum   'Li4 Nd3 Sn3 Bi1'
_cell_volume   266.48153925
_cell_formula_units_Z   1
loop_
 _symmetry_equiv_pos_site_id
 _symmetry_equiv_pos_as_xyz
  1  'x, y, z'
loop_
 _atom_site_type_symbol
 _atom_site_label
 _atom_site_symmetry_multiplicity
 _atom_site_fract_x
 _atom_site_fract_y
 _atom_site_fract_z
 _atom_site_occupancy
  Li  Li0  1  0.485067  0.671267  0.813802  1
  Li  Li1  1  0.857466  0.671267  0.186198  1
  Li  Li2  1  0.134581  0.327954  0.806628  1
  Li  Li3  1  0.521327  0.327954  0.193372  1
  Nd  Nd4  1  0.502848  0.002848  0.500000  1
  Nd  Nd5  1  0.871873  0.871873  0.000000  1
  Nd  Nd6  1  0.124581  0.124581  0.000000  1
  Sn  Sn7  1  0.715031  0.215031  0.500000  1
  Sn  Sn8  1  0.803100  0.500438  0.302662  1
  Sn  Sn9  1  0.197776  0.500438  0.697338  1
  Bi  Bi10  1  0.286350  0.786350  0.500000  1
