# generated using pymatgen
data_LaIn2CuIr8
_symmetry_space_group_name_H-M   'P 1'
_cell_length_a   8.81540800
_cell_length_b   8.81540800
_cell_length_c   5.28173200
_cell_angle_alpha   90.00000000
_cell_angle_beta   90.00000000
_cell_angle_gamma   90.00000000
_symmetry_Int_Tables_number   1
_chemical_formula_structural   LaIn2CuIr8
_chemical_formula_sum   'La2 In4 Cu2 Ir16'
_cell_volume   410.45088431
_cell_formula_units_Z   2
loop_
 _symmetry_equiv_pos_site_id
 _symmetry_equiv_pos_as_xyz
  1  'x, y, z'
loop_
 _atom_site_type_symbol
 _atom_site_label
 _atom_site_symmetry_multiplicity
 _atom_site_fract_x
 _atom_site_fract_y
 _atom_site_fract_z
 _atom_site_occupancy
  La  La0  1  0.000000  0.000000  0.000000  1
  La  La1  1  0.500000  0.500000  0.000000  1
  In  In2  1  0.121802  0.621802  0.000000  1
  In  In3  1  0.878198  0.378198  0.000000  1
  In  In4  1  0.621802  0.878198  0.000000  1
  In  In5  1  0.378198  0.121802  0.000000  1
  Cu  Cu6  1  0.500000  0.000000  0.500000  1
  Cu  Cu7  1  0.000000  0.500000  0.500000  1
  Ir  Ir8  1  0.205470  0.065555  0.500000  1
  Ir  Ir9  1  0.794530  0.934445  0.500000  1
  Ir  Ir10  1  0.065555  0.794530  0.500000  1
  Ir  Ir11  1  0.705470  0.434445  0.500000  1
  Ir  Ir12  1  0.934445  0.205470  0.500000  1
  Ir  Ir13  1  0.294530  0.565555  0.500000  1
  Ir  Ir14  1  0.565555  0.705470  0.500000  1
  Ir  Ir15  1  0.434445  0.294530  0.500000  1
  Ir  Ir16  1  0.676752  0.176752  0.239187  1
  Ir  Ir17  1  0.323248  0.823248  0.760813  1
  Ir  Ir18  1  0.323248  0.823248  0.239187  1
  Ir  Ir19  1  0.176752  0.323248  0.239187  1
  Ir  Ir20  1  0.176752  0.323248  0.760813  1
  Ir  Ir21  1  0.676752  0.176752  0.760813  1
  Ir  Ir22  1  0.823248  0.676752  0.760813  1
  Ir  Ir23  1  0.823248  0.676752  0.239187  1
