# generated using pymatgen
data_Tm6Sc13Si16W
_symmetry_space_group_name_H-M   'P 1'
_cell_length_a   6.95410683
_cell_length_b   7.27527683
_cell_length_c   13.75414526
_cell_angle_alpha   89.81187149
_cell_angle_beta   89.92594448
_cell_angle_gamma   89.67425012
_symmetry_Int_Tables_number   1
_chemical_formula_structural   Tm6Sc13Si16W
_chemical_formula_sum   'Tm6 Sc13 Si16 W1'
_cell_volume   695.84862905
_cell_formula_units_Z   1
loop_
 _symmetry_equiv_pos_site_id
 _symmetry_equiv_pos_as_xyz
  1  'x, y, z'
loop_
 _atom_site_type_symbol
 _atom_site_label
 _atom_site_symmetry_multiplicity
 _atom_site_fract_x
 _atom_site_fract_y
 _atom_site_fract_z
 _atom_site_occupancy
  Tm  Tm0  1  0.994969  0.681060  0.599805  1
  Tm  Tm1  1  0.010435  0.321739  0.405865  1
  Tm  Tm2  1  0.508737  0.176568  0.406101  1
  Tm  Tm3  1  0.010822  0.321387  0.092341  1
  Tm  Tm4  1  0.489092  0.825585  0.597119  1
  Tm  Tm5  1  0.994069  0.681323  0.902260  1
  Sc  Sc6  1  0.838863  0.005166  0.248576  1
  Sc  Sc7  1  0.339360  0.495253  0.248620  1
  Sc  Sc8  1  0.659744  0.507728  0.751403  1
  Sc  Sc9  1  0.485905  0.824210  0.901092  1
  Sc  Sc10  1  0.511094  0.179571  0.095312  1
  Sc  Sc11  1  0.330855  0.320418  0.629014  1
  Sc  Sc12  1  0.668453  0.677150  0.373381  1
  Sc  Sc13  1  0.170980  0.826053  0.376265  1
  Sc  Sc14  1  0.668335  0.678248  0.124724  1
  Sc  Sc15  1  0.828596  0.170582  0.629337  1
  Sc  Sc16  1  0.331123  0.319880  0.873306  1
  Sc  Sc17  1  0.828153  0.169577  0.872439  1
  Sc  Sc18  1  0.171647  0.827749  0.121854  1
  Si  Si19  1  0.032868  0.380773  0.750986  1
  Si  Si20  1  0.969332  0.612085  0.249311  1
  Si  Si21  1  0.466973  0.891559  0.248319  1
  Si  Si22  1  0.521712  0.096957  0.752041  1
  Si  Si23  1  0.287793  0.644958  0.752092  1
  Si  Si24  1  0.713237  0.367321  0.247961  1
  Si  Si25  1  0.214900  0.131955  0.247962  1
  Si  Si26  1  0.793923  0.868633  0.751261  1
  Si  Si27  1  0.157584  0.033572  0.547835  1
  Si  Si28  1  0.840292  0.964200  0.463485  1
  Si  Si29  1  0.342766  0.534951  0.463324  1
  Si  Si30  1  0.835212  0.967408  0.037222  1
  Si  Si31  1  0.661237  0.465300  0.539098  1
  Si  Si32  1  0.162064  0.029723  0.951253  1
  Si  Si33  1  0.659138  0.465821  0.961280  1
  Si  Si34  1  0.344954  0.534405  0.036520  1
  W  W35  1  0.154781  0.001129  0.751236  1
