# generated using pymatgen
data_Eu2Sn4PtRh3
_symmetry_space_group_name_H-M   'P 1'
_cell_length_a   4.54809200
_cell_length_b   4.54809200
_cell_length_c   10.94757600
_cell_angle_alpha   90.00000000
_cell_angle_beta   90.00000000
_cell_angle_gamma   90.00000000
_symmetry_Int_Tables_number   1
_chemical_formula_structural   Eu2Sn4PtRh3
_chemical_formula_sum   'Eu2 Sn4 Pt1 Rh3'
_cell_volume   226.45215142
_cell_formula_units_Z   1
loop_
 _symmetry_equiv_pos_site_id
 _symmetry_equiv_pos_as_xyz
  1  'x, y, z'
loop_
 _atom_site_type_symbol
 _atom_site_label
 _atom_site_symmetry_multiplicity
 _atom_site_fract_x
 _atom_site_fract_y
 _atom_site_fract_z
 _atom_site_occupancy
  Eu  Eu0  1  0.000000  0.500000  0.243916  1
  Eu  Eu1  1  0.500000  0.000000  0.753713  1
  Sn  Sn2  1  0.000000  0.000000  0.496567  1
  Sn  Sn3  1  0.500000  0.500000  0.496567  1
  Sn  Sn4  1  0.000000  0.500000  0.876467  1
  Sn  Sn5  1  0.500000  0.000000  0.127106  1
  Pt  Pt6  1  0.000000  0.500000  0.635404  1
  Rh  Rh7  1  0.500000  0.000000  0.368158  1
  Rh  Rh8  1  0.000000  0.000000  0.001051  1
  Rh  Rh9  1  0.500000  0.500000  0.001051  1
