# generated using pymatgen
data_Ti4Be2B4(RuRh)5
_symmetry_space_group_name_H-M   'P 1'
_cell_length_a   2.94152800
_cell_length_b   9.05919420
_cell_length_c   9.10763706
_cell_angle_alpha   90.20213357
_cell_angle_beta   90.00000000
_cell_angle_gamma   90.00000000
_symmetry_Int_Tables_number   1
_chemical_formula_structural   Ti4Be2B4(RuRh)5
_chemical_formula_sum   'Ti4 Be2 B4 Ru5 Rh5'
_cell_volume   242.69764908
_cell_formula_units_Z   1
loop_
 _symmetry_equiv_pos_site_id
 _symmetry_equiv_pos_as_xyz
  1  'x, y, z'
loop_
 _atom_site_type_symbol
 _atom_site_label
 _atom_site_symmetry_multiplicity
 _atom_site_fract_x
 _atom_site_fract_y
 _atom_site_fract_z
 _atom_site_occupancy
  Ti  Ti0  1  0.000000  0.829331  0.178993  1
  Ti  Ti1  1  0.000000  0.327017  0.316805  1
  Ti  Ti2  1  0.000000  0.673991  0.671387  1
  Ti  Ti3  1  0.000000  0.178456  0.835869  1
  Be  Be4  1  0.000000  0.497066  0.001844  1
  Be  Be5  1  0.000000  0.998922  0.497202  1
  B  B6  1  0.000000  0.128199  0.129589  1
  B  B7  1  0.000000  0.624226  0.368755  1
  B  B8  1  0.000000  0.372616  0.627104  1
  B  B9  1  0.000000  0.872736  0.872625  1
  Ru  Ru10  1  0.499999  0.997431  0.999215  1
  Ru  Ru11  1  0.499999  0.292756  0.068773  1
  Ru  Ru12  1  0.499999  0.573161  0.206636  1
  Ru  Ru13  1  0.499999  0.070253  0.292936  1
  Ru  Ru14  1  0.499999  0.499036  0.500207  1
  Rh  Rh15  1  0.499999  0.793216  0.432152  1
  Rh  Rh16  1  0.499999  0.206030  0.572339  1
  Rh  Rh17  1  0.499999  0.929674  0.706549  1
  Rh  Rh18  1  0.499999  0.430499  0.793025  1
  Rh  Rh19  1  0.499999  0.705392  0.928006  1
