# generated using pymatgen
data_Er10Os(RuO8)3
_symmetry_space_group_name_H-M   'P 1'
_cell_length_a   5.64644000
_cell_length_b   7.40980034
_cell_length_c   12.36357433
_cell_angle_alpha   107.17443763
_cell_angle_beta   89.99987421
_cell_angle_gamma   89.99998121
_symmetry_Int_Tables_number   1
_chemical_formula_structural   Er10Os(RuO8)3
_chemical_formula_sum   'Er10 Os1 Ru3 O24'
_cell_volume   494.21410887
_cell_formula_units_Z   1
loop_
 _symmetry_equiv_pos_site_id
 _symmetry_equiv_pos_as_xyz
  1  'x, y, z'
loop_
 _atom_site_type_symbol
 _atom_site_label
 _atom_site_symmetry_multiplicity
 _atom_site_fract_x
 _atom_site_fract_y
 _atom_site_fract_z
 _atom_site_occupancy
  Er  Er0  1  0.248066  0.607482  0.435454  1
  Er  Er1  1  0.752732  0.387855  0.560516  1
  Er  Er2  1  0.251477  0.091075  0.447505  1
  Er  Er3  1  0.752780  0.910929  0.550292  1
  Er  Er4  1  0.248060  0.892559  0.064576  1
  Er  Er5  1  0.752737  0.112105  0.939448  1
  Er  Er6  1  0.251487  0.408980  0.052446  1
  Er  Er7  1  0.752781  0.589028  0.949762  1
  Er  Er8  1  0.251033  0.249875  0.749997  1
  Er  Er9  1  0.749531  0.750126  0.250004  1
  Os  Os10  1  0.469792  0.749889  0.750060  1
  Ru  Ru11  1  0.970587  0.250098  0.249947  1
  Ru  Ru12  1  0.529289  0.250110  0.249948  1
  Ru  Ru13  1  0.025946  0.749898  0.750053  1
  O  O14  1  0.254599  0.954354  0.751868  1
  O  O15  1  0.749810  0.044545  0.248165  1
  O  O16  1  0.501787  0.330394  0.902238  1
  O  O17  1  0.002097  0.669517  0.097585  1
  O  O18  1  0.498711  0.670560  0.096272  1
  O  O19  1  0.998841  0.330553  0.902347  1
  O  O20  1  0.254588  0.545485  0.748345  1
  O  O21  1  0.749822  0.455581  0.251595  1
  O  O22  1  0.249924  0.072674  0.251261  1
  O  O23  1  0.745091  0.926271  0.749167  1
  O  O24  1  0.500557  0.828628  0.913950  1
  O  O25  1  0.004005  0.169826  0.082218  1
  O  O26  1  0.496967  0.167603  0.081380  1
  O  O27  1  0.994488  0.830523  0.917971  1
  O  O28  1  0.501768  0.169536  0.597722  1
  O  O29  1  0.002074  0.830558  0.402452  1
  O  O30  1  0.498729  0.829514  0.403763  1
  O  O31  1  0.998851  0.169382  0.597619  1
  O  O32  1  0.500473  0.671252  0.586141  1
  O  O33  1  0.003926  0.330277  0.417702  1
  O  O34  1  0.497028  0.332526  0.418541  1
  O  O35  1  0.994558  0.669371  0.582111  1
  O  O36  1  0.249931  0.427569  0.248700  1
  O  O37  1  0.745079  0.573490  0.750880  1
