# generated using pymatgen
data_Ho5(RuO6)2
_symmetry_space_group_name_H-M   'P 1'
_cell_length_a   5.80718600
_cell_length_b   6.82539985
_cell_length_c   7.36514700
_cell_angle_alpha   105.80708668
_cell_angle_beta   90.00000000
_cell_angle_gamma   115.17661458
_symmetry_Int_Tables_number   1
_chemical_formula_structural   Ho5(RuO6)2
_chemical_formula_sum   'Ho5 Ru2 O12'
_cell_volume   251.94305034
_cell_formula_units_Z   1
loop_
 _symmetry_equiv_pos_site_id
 _symmetry_equiv_pos_as_xyz
  1  'x, y, z'
loop_
 _atom_site_type_symbol
 _atom_site_label
 _atom_site_symmetry_multiplicity
 _atom_site_fract_x
 _atom_site_fract_y
 _atom_site_fract_z
 _atom_site_occupancy
  Ho  Ho0  1  0.310581  0.621162  0.172056  1
  Ho  Ho1  1  0.697121  0.394241  0.360565  1
  Ho  Ho2  1  0.000000  0.000000  0.500000  1
  Ho  Ho3  1  0.302879  0.605759  0.639437  1
  Ho  Ho4  1  0.689420  0.378837  0.827944  1
  Ru  Ru5  1  0.236019  0.000000  0.000000  1
  Ru  Ru6  1  0.763982  0.000000  0.000000  1
  O  O7  1  0.423791  0.330289  0.083292  1
  O  O8  1  0.906497  0.330289  0.083292  1
  O  O9  1  0.500651  0.001301  0.185802  1
  O  O10  1  0.000249  0.000498  0.195822  1
  O  O11  1  0.097237  0.692664  0.425153  1
  O  O12  1  0.595428  0.692664  0.425153  1
  O  O13  1  0.404573  0.307335  0.574847  1
  O  O14  1  0.902762  0.307335  0.574847  1
  O  O15  1  0.999752  0.999503  0.804178  1
  O  O16  1  0.499349  0.998698  0.814197  1
  O  O17  1  0.093502  0.669711  0.916708  1
  O  O18  1  0.576209  0.669711  0.916708  1
