# generated using pymatgen
data_Ho2Mn5NiP7Ir6
_symmetry_space_group_name_H-M   'P 1'
_cell_length_a   9.47312480
_cell_length_b   9.40012108
_cell_length_c   3.84427500
_cell_angle_alpha   90.00000000
_cell_angle_beta   90.00000000
_cell_angle_gamma   120.18660677
_symmetry_Int_Tables_number   1
_chemical_formula_structural   Ho2Mn5NiP7Ir6
_chemical_formula_sum   'Ho2 Mn5 Ni1 P7 Ir6'
_cell_volume   295.90484414
_cell_formula_units_Z   1
loop_
 _symmetry_equiv_pos_site_id
 _symmetry_equiv_pos_as_xyz
  1  'x, y, z'
loop_
 _atom_site_type_symbol
 _atom_site_label
 _atom_site_symmetry_multiplicity
 _atom_site_fract_x
 _atom_site_fract_y
 _atom_site_fract_z
 _atom_site_occupancy
  Ho  Ho0  1  0.668167  0.333113  0.000000  1
  Ho  Ho1  1  0.332139  0.666389  0.500000  1
  Mn  Mn2  1  0.842151  0.111459  0.000000  1
  Mn  Mn3  1  0.887009  0.728483  0.000000  1
  Mn  Mn4  1  0.092312  0.213488  0.500000  1
  Mn  Mn5  1  0.783136  0.878698  0.500000  1
  Mn  Mn6  1  0.121462  0.904008  0.500000  1
  Ni  Ni7  1  0.267476  0.161472  0.000000  1
  P  P8  1  0.299802  0.412621  0.000000  1
  P  P9  1  0.590160  0.890349  0.000000  1
  P  P10  1  0.111233  0.702923  0.000000  1
  P  P11  1  0.398942  0.116020  0.500000  1
  P  P12  1  0.881694  0.277956  0.500000  1
  P  P13  1  0.721938  0.601454  0.500000  1
  P  P14  1  0.998925  0.000141  0.000000  1
  Ir  Ir15  1  0.066406  0.427706  0.000000  1
  Ir  Ir16  1  0.571280  0.639168  0.000000  1
  Ir  Ir17  1  0.363904  0.937369  0.000000  1
  Ir  Ir18  1  0.442050  0.385188  0.500000  1
  Ir  Ir19  1  0.615021  0.054145  0.500000  1
  Ir  Ir20  1  0.944793  0.557848  0.500000  1
