# generated using pymatgen
data_Cs6Y3Bi(SbS3)6
_symmetry_space_group_name_H-M   'P 1'
_cell_length_a   13.71716134
_cell_length_b   13.71716032
_cell_length_c   9.48952756
_cell_angle_alpha   84.35694676
_cell_angle_beta   84.35694221
_cell_angle_gamma   140.21332194
_symmetry_Int_Tables_number   1
_chemical_formula_structural   Cs6Y3Bi(SbS3)6
_chemical_formula_sum   'Cs6 Y3 Bi1 Sb6 S18'
_cell_volume   1093.88193851
_cell_formula_units_Z   1
loop_
 _symmetry_equiv_pos_site_id
 _symmetry_equiv_pos_as_xyz
  1  'x, y, z'
loop_
 _atom_site_type_symbol
 _atom_site_label
 _atom_site_symmetry_multiplicity
 _atom_site_fract_x
 _atom_site_fract_y
 _atom_site_fract_z
 _atom_site_occupancy
  Cs  Cs0  1  0.420452  0.579548  0.500000  1
  Cs  Cs1  1  0.580760  0.419240  0.500000  1
  Cs  Cs2  1  0.016732  0.452324  0.238440  1
  Cs  Cs3  1  0.448324  0.015973  0.240939  1
  Cs  Cs4  1  0.984027  0.551676  0.759061  1
  Cs  Cs5  1  0.547676  0.983268  0.761560  1
  Y  Y6  1  0.423419  0.576581  0.000000  1
  Y  Y7  1  0.576529  0.423471  0.000000  1
  Y  Y8  1  0.924115  0.075885  0.500000  1
  Bi  Bi9  1  0.073667  0.926333  0.500000  1
  Sb  Sb10  1  0.034654  0.277241  0.838746  1
  Sb  Sb11  1  0.279445  0.034211  0.838575  1
  Sb  Sb12  1  0.965789  0.720555  0.161425  1
  Sb  Sb13  1  0.722759  0.965346  0.161254  1
  Sb  Sb14  1  0.872060  0.873853  0.879542  1
  Sb  Sb15  1  0.126147  0.127940  0.120458  1
  S  S16  1  0.125427  0.128381  0.622616  1
  S  S17  1  0.871619  0.874573  0.377384  1
  S  S18  1  0.809354  0.190646  0.000000  1
  S  S19  1  0.191765  0.808235  0.000000  1
  S  S20  1  0.247408  0.554500  0.844094  1
  S  S21  1  0.555933  0.247913  0.847080  1
  S  S22  1  0.752087  0.444067  0.152920  1
  S  S23  1  0.445500  0.752592  0.155906  1
  S  S24  1  0.995302  0.307487  0.600585  1
  S  S25  1  0.317949  0.998815  0.602969  1
  S  S26  1  0.001185  0.682051  0.397031  1
  S  S27  1  0.692513  0.004698  0.399415  1
  S  S28  1  0.366766  0.367065  0.887443  1
  S  S29  1  0.632935  0.633234  0.112557  1
  S  S30  1  0.696464  0.847023  0.772098  1
  S  S31  1  0.843641  0.695378  0.776512  1
  S  S32  1  0.304622  0.156359  0.223488  1
  S  S33  1  0.152977  0.303536  0.227902  1
