# generated using pymatgen
data_Hf4InCuNi3Hg
_symmetry_space_group_name_H-M   'P 1'
_cell_length_a   7.16327803
_cell_length_b   7.17502786
_cell_length_c   6.61586400
_cell_angle_alpha   90.00000000
_cell_angle_beta   90.00000000
_cell_angle_gamma   90.57719218
_symmetry_Int_Tables_number   1
_chemical_formula_structural   Hf4InCuNi3Hg
_chemical_formula_sum   'Hf8 In2 Cu2 Ni6 Hg2'
_cell_volume   340.01645193
_cell_formula_units_Z   2
loop_
 _symmetry_equiv_pos_site_id
 _symmetry_equiv_pos_as_xyz
  1  'x, y, z'
loop_
 _atom_site_type_symbol
 _atom_site_label
 _atom_site_symmetry_multiplicity
 _atom_site_fract_x
 _atom_site_fract_y
 _atom_site_fract_z
 _atom_site_occupancy
  Hf  Hf0  1  0.151756  0.164572  0.000000  1
  Hf  Hf1  1  0.835409  0.849791  0.000000  1
  Hf  Hf2  1  0.659657  0.338825  0.500000  1
  Hf  Hf3  1  0.353986  0.644861  0.500000  1
  Hf  Hf4  1  0.679924  0.318063  0.000000  1
  Hf  Hf5  1  0.328716  0.671637  0.000000  1
  Hf  Hf6  1  0.807647  0.821320  0.500000  1
  Hf  Hf7  1  0.179620  0.191748  0.500000  1
  In  In8  1  0.998722  0.503937  0.248988  1
  In  In9  1  0.998722  0.503937  0.751012  1
  Cu  Cu10  1  0.126391  0.874799  0.285625  1
  Cu  Cu11  1  0.126391  0.874799  0.714375  1
  Ni  Ni12  1  0.375980  0.373929  0.221516  1
  Ni  Ni13  1  0.627839  0.623811  0.778845  1
  Ni  Ni14  1  0.627839  0.623811  0.221155  1
  Ni  Ni15  1  0.876721  0.122596  0.723281  1
  Ni  Ni16  1  0.876721  0.122596  0.276719  1
  Ni  Ni17  1  0.375980  0.373929  0.778484  1
  Hg  Hg18  1  0.495989  0.000519  0.250925  1
  Hg  Hg19  1  0.495989  0.000519  0.749075  1
