# generated using pymatgen
data_Rb4Tm5Pa3S16
_symmetry_space_group_name_H-M   'P 1'
_cell_length_a   6.72489827
_cell_length_b   7.72084267
_cell_length_c   16.60367100
_cell_angle_alpha   90.01541326
_cell_angle_beta   89.96471890
_cell_angle_gamma   89.98180597
_symmetry_Int_Tables_number   1
_chemical_formula_structural   Rb4Tm5Pa3S16
_chemical_formula_sum   'Rb4 Tm5 Pa3 S16'
_cell_volume   862.09360075
_cell_formula_units_Z   1
loop_
 _symmetry_equiv_pos_site_id
 _symmetry_equiv_pos_as_xyz
  1  'x, y, z'
loop_
 _atom_site_type_symbol
 _atom_site_label
 _atom_site_symmetry_multiplicity
 _atom_site_fract_x
 _atom_site_fract_y
 _atom_site_fract_z
 _atom_site_occupancy
  Rb  Rb0  1  0.346182  0.002028  0.002300  1
  Rb  Rb1  1  0.653823  0.497971  0.497701  1
  Rb  Rb2  1  0.025259  0.001180  0.498371  1
  Rb  Rb3  1  0.974744  0.498819  0.001627  1
  Tm  Tm4  1  0.999830  0.008194  0.246696  1
  Tm  Tm5  1  0.999632  0.999582  0.753046  1
  Tm  Tm6  1  0.000164  0.491807  0.253306  1
  Tm  Tm7  1  0.000376  0.500421  0.746957  1
  Tm  Tm8  1  0.499995  0.249996  0.250002  1
  Pa  Pa9  1  0.500003  0.750010  0.749996  1
  Pa  Pa10  1  0.499995  0.749997  0.249999  1
  Pa  Pa11  1  0.500003  0.249995  0.749999  1
  S  S12  1  0.833729  0.246666  0.342161  1
  S  S13  1  0.831661  0.752795  0.658748  1
  S  S14  1  0.173093  0.747452  0.160329  1
  S  S15  1  0.167027  0.252746  0.841033  1
  S  S16  1  0.166264  0.253334  0.157840  1
  S  S17  1  0.168355  0.747206  0.841251  1
  S  S18  1  0.826893  0.752549  0.339670  1
  S  S19  1  0.832987  0.247258  0.658969  1
  S  S20  1  0.662944  0.995562  0.159355  1
  S  S21  1  0.667704  0.999488  0.842331  1
  S  S22  1  0.337050  0.504437  0.340647  1
  S  S23  1  0.332306  0.500512  0.657670  1
  S  S24  1  0.332888  0.995789  0.338522  1
  S  S25  1  0.327920  0.999466  0.660051  1
  S  S26  1  0.667102  0.504200  0.161479  1
  S  S27  1  0.672072  0.500541  0.839943  1
