# generated using pymatgen
data_AcTlSe2
_symmetry_space_group_name_H-M   'P 1'
_cell_length_a   8.13041213
_cell_length_b   8.13041242
_cell_length_c   8.13041252
_cell_angle_alpha   32.83015263
_cell_angle_beta   32.83015315
_cell_angle_gamma   32.83014928
_symmetry_Int_Tables_number   1
_chemical_formula_structural   AcTlSe2
_chemical_formula_sum   'Ac1 Tl1 Se2'
_cell_volume   140.54201215
_cell_formula_units_Z   1
loop_
 _symmetry_equiv_pos_site_id
 _symmetry_equiv_pos_as_xyz
  1  'x, y, z'
loop_
 _atom_site_type_symbol
 _atom_site_label
 _atom_site_symmetry_multiplicity
 _atom_site_fract_x
 _atom_site_fract_y
 _atom_site_fract_z
 _atom_site_occupancy
  Ac  Ac0  1  0.000000  0.000000  0.000000  1
  Tl  Tl1  1  0.500000  0.500000  0.500000  1
  Se  Se2  1  0.261330  0.261330  0.261330  1
  Se  Se3  1  0.738670  0.738670  0.738670  1
