# generated using pymatgen
data_Dy8Al(Pd11Au)2
_symmetry_space_group_name_H-M   'P 1'
_cell_length_a   8.31288600
_cell_length_b   8.37755100
_cell_length_c   8.36804000
_cell_angle_alpha   90.00000000
_cell_angle_beta   90.00000000
_cell_angle_gamma   90.00000000
_symmetry_Int_Tables_number   1
_chemical_formula_structural   Dy8Al(Pd11Au)2
_chemical_formula_sum   'Dy8 Al1 Pd22 Au2'
_cell_volume   582.76391557
_cell_formula_units_Z   1
loop_
 _symmetry_equiv_pos_site_id
 _symmetry_equiv_pos_as_xyz
  1  'x, y, z'
loop_
 _atom_site_type_symbol
 _atom_site_label
 _atom_site_symmetry_multiplicity
 _atom_site_fract_x
 _atom_site_fract_y
 _atom_site_fract_z
 _atom_site_occupancy
  Dy  Dy0  1  0.252171  0.243870  0.252376  1
  Dy  Dy1  1  0.747385  0.747350  0.747332  1
  Dy  Dy2  1  0.747385  0.747350  0.252668  1
  Dy  Dy3  1  0.747385  0.252650  0.747332  1
  Dy  Dy4  1  0.252171  0.243870  0.747624  1
  Dy  Dy5  1  0.252171  0.756130  0.252376  1
  Dy  Dy6  1  0.252171  0.756130  0.747624  1
  Dy  Dy7  1  0.747385  0.252650  0.252668  1
  Al  Al8  1  0.999473  0.000000  0.000000  1
  Pd  Pd9  1  0.741174  0.500000  0.000000  1
  Pd  Pd10  1  0.000364  0.258465  0.500000  1
  Pd  Pd11  1  0.500159  0.258898  0.000000  1
  Pd  Pd12  1  0.000364  0.741535  0.500000  1
  Pd  Pd13  1  0.500159  0.741102  0.000000  1
  Pd  Pd14  1  0.501209  0.000000  0.259863  1
  Pd  Pd15  1  0.258842  0.000000  0.500000  1
  Pd  Pd16  1  0.501209  0.000000  0.740137  1
  Pd  Pd17  1  0.740475  0.000000  0.500000  1
  Pd  Pd18  1  0.001404  0.500000  0.258573  1
  Pd  Pd19  1  0.001404  0.500000  0.741427  1
  Pd  Pd20  1  0.747520  0.500000  0.500000  1
  Pd  Pd21  1  0.499779  0.252097  0.500000  1
  Pd  Pd22  1  0.499779  0.747903  0.500000  1
  Pd  Pd23  1  0.498902  0.500000  0.253217  1
  Pd  Pd24  1  0.498902  0.500000  0.746783  1
  Pd  Pd25  1  0.289439  0.000000  0.000000  1
  Pd  Pd26  1  0.710703  0.000000  0.000000  1
  Pd  Pd27  1  0.000043  0.286612  0.000000  1
  Pd  Pd28  1  0.000043  0.713388  0.000000  1
  Pd  Pd29  1  0.998322  0.000000  0.287977  1
  Pd  Pd30  1  0.998322  0.000000  0.712023  1
  Au  Au31  1  0.260496  0.500000  0.000000  1
  Au  Au32  1  0.253294  0.500000  0.500000  1
