# generated using pymatgen
data_Ti8VTc3Ir4
_symmetry_space_group_name_H-M   'P 1'
_cell_length_a   6.20378900
_cell_length_b   4.39170600
_cell_length_c   8.77393900
_cell_angle_alpha   90.00000000
_cell_angle_beta   89.99990811
_cell_angle_gamma   90.00000000
_symmetry_Int_Tables_number   1
_chemical_formula_structural   Ti8VTc3Ir4
_chemical_formula_sum   'Ti8 V1 Tc3 Ir4'
_cell_volume   239.04787528
_cell_formula_units_Z   1
loop_
 _symmetry_equiv_pos_site_id
 _symmetry_equiv_pos_as_xyz
  1  'x, y, z'
loop_
 _atom_site_type_symbol
 _atom_site_label
 _atom_site_symmetry_multiplicity
 _atom_site_fract_x
 _atom_site_fract_y
 _atom_site_fract_z
 _atom_site_occupancy
  Ti  Ti0  1  0.000441  0.749999  0.125000  1
  Ti  Ti1  1  0.499613  0.749999  0.125008  1
  Ti  Ti2  1  0.000235  0.249999  0.375510  1
  Ti  Ti3  1  0.499834  0.249999  0.375517  1
  Ti  Ti4  1  0.499930  0.749999  0.625000  1
  Ti  Ti5  1  0.000004  0.749999  0.625009  1
  Ti  Ti6  1  0.499771  0.249999  0.874483  1
  Ti  Ti7  1  0.000177  0.249999  0.874490  1
  V  V8  1  0.750014  0.249999  0.124984  1
  Tc  Tc9  1  0.250038  0.749999  0.376007  1
  Tc  Tc10  1  0.749964  0.249999  0.625016  1
  Tc  Tc11  1  0.249977  0.749999  0.873982  1
  Ir  Ir12  1  0.250035  0.249999  0.125001  1
  Ir  Ir13  1  0.750027  0.749999  0.373087  1
  Ir  Ir14  1  0.249973  0.249999  0.624998  1
  Ir  Ir15  1  0.749965  0.749999  0.876910  1
