# generated using pymatgen
data_Y3Er5Tc3OsC8
_symmetry_space_group_name_H-M   'P 1'
_cell_length_a   5.07964900
_cell_length_b   6.54258560
_cell_length_c   9.80195160
_cell_angle_alpha   89.73700304
_cell_angle_beta   90.00000000
_cell_angle_gamma   90.00000000
_symmetry_Int_Tables_number   1
_chemical_formula_structural   Y3Er5Tc3OsC8
_chemical_formula_sum   'Y3 Er5 Tc3 Os1 C8'
_cell_volume   325.75500409
_cell_formula_units_Z   1
loop_
 _symmetry_equiv_pos_site_id
 _symmetry_equiv_pos_as_xyz
  1  'x, y, z'
loop_
 _atom_site_type_symbol
 _atom_site_label
 _atom_site_symmetry_multiplicity
 _atom_site_fract_x
 _atom_site_fract_y
 _atom_site_fract_z
 _atom_site_occupancy
  Y  Y0  1  0.750000  0.466506  0.785129  1
  Y  Y1  1  0.750000  0.968656  0.712934  1
  Y  Y2  1  0.250000  0.031532  0.284988  1
  Er  Er3  1  0.250000  0.675327  0.557277  1
  Er  Er4  1  0.750000  0.323285  0.442357  1
  Er  Er5  1  0.750000  0.824000  0.057994  1
  Er  Er6  1  0.250000  0.175487  0.942409  1
  Er  Er7  1  0.250000  0.531751  0.215795  1
  Tc  Tc8  1  0.250000  0.720600  0.865991  1
  Tc  Tc9  1  0.750000  0.280416  0.133622  1
  Tc  Tc10  1  0.750000  0.778564  0.366343  1
  Os  Os11  1  0.250000  0.221280  0.633986  1
  C  C12  1  0.250000  0.453387  0.758430  1
  C  C13  1  0.750000  0.547211  0.240849  1
  C  C14  1  0.750000  0.047297  0.259478  1
  C  C15  1  0.250000  0.954874  0.741323  1
  C  C16  1  0.250000  0.822401  0.050118  1
  C  C17  1  0.750000  0.175900  0.950025  1
  C  C18  1  0.750000  0.675290  0.550817  1
  C  C19  1  0.250000  0.326237  0.450132  1
