# generated using pymatgen
data_Th7ScH30
_symmetry_space_group_name_H-M   'P 1'
_cell_length_a   7.83497712
_cell_length_b   7.83497686
_cell_length_c   7.83497680
_cell_angle_alpha   109.59307734
_cell_angle_beta   109.59307890
_cell_angle_gamma   109.59307787
_symmetry_Int_Tables_number   1
_chemical_formula_structural   Th7ScH30
_chemical_formula_sum   'Th7 Sc1 H30'
_cell_volume   368.56688007
_cell_formula_units_Z   1
loop_
 _symmetry_equiv_pos_site_id
 _symmetry_equiv_pos_as_xyz
  1  'x, y, z'
loop_
 _atom_site_type_symbol
 _atom_site_label
 _atom_site_symmetry_multiplicity
 _atom_site_fract_x
 _atom_site_fract_y
 _atom_site_fract_z
 _atom_site_occupancy
  Th  Th0  1  0.498125  0.999712  0.081412  1
  Th  Th1  1  0.999712  0.081412  0.498125  1
  Th  Th2  1  0.081412  0.498125  0.999712  1
  Th  Th3  1  0.997848  0.586972  0.507391  1
  Th  Th4  1  0.586972  0.507391  0.997848  1
  Th  Th5  1  0.507391  0.997848  0.586972  1
  Th  Th6  1  0.411514  0.411514  0.411514  1
  Sc  Sc7  1  0.903541  0.903541  0.903541  1
  H  H8  1  0.651619  0.966374  0.370351  1
  H  H9  1  0.221742  0.318143  0.847314  1
  H  H10  1  0.184278  0.405424  0.533284  1
  H  H11  1  0.090903  0.269339  0.118226  1
  H  H12  1  0.269339  0.118226  0.090903  1
  H  H13  1  0.118226  0.090903  0.269339  1
  H  H14  1  0.469295  0.154978  0.871228  1
  H  H15  1  0.719410  0.348856  0.814401  1
  H  H16  1  0.624013  0.375642  0.249497  1
  H  H17  1  0.249497  0.624013  0.375642  1
  H  H18  1  0.748542  0.877201  0.126218  1
  H  H19  1  0.126218  0.748542  0.877201  1
  H  H20  1  0.375642  0.249497  0.624013  1
  H  H21  1  0.877201  0.126218  0.748542  1
  H  H22  1  0.783189  0.604429  0.637780  1
  H  H23  1  0.318143  0.847314  0.221742  1
  H  H24  1  0.370351  0.651619  0.966374  1
  H  H25  1  0.966374  0.370351  0.651619  1
  H  H26  1  0.533284  0.184278  0.405424  1
  H  H27  1  0.405424  0.533284  0.184278  1
  H  H28  1  0.847314  0.221742  0.318143  1
  H  H29  1  0.907290  0.698606  0.025913  1
  H  H30  1  0.814401  0.719410  0.348856  1
  H  H31  1  0.154978  0.871228  0.469295  1
  H  H32  1  0.698606  0.025913  0.907290  1
  H  H33  1  0.348856  0.814401  0.719410  1
  H  H34  1  0.871228  0.469295  0.154978  1
  H  H35  1  0.637780  0.783189  0.604429  1
  H  H36  1  0.604429  0.637780  0.783189  1
  H  H37  1  0.025913  0.907290  0.698606  1
