# generated using pymatgen
data_Nd5Dy2TmAu4
_symmetry_space_group_name_H-M   'P 1'
_cell_length_a   5.02498100
_cell_length_b   7.30967992
_cell_length_c   9.13602529
_cell_angle_alpha   90.16020492
_cell_angle_beta   90.00000000
_cell_angle_gamma   90.00000000
_symmetry_Int_Tables_number   1
_chemical_formula_structural   Nd5Dy2TmAu4
_chemical_formula_sum   'Nd5 Dy2 Tm1 Au4'
_cell_volume   335.57405830
_cell_formula_units_Z   1
loop_
 _symmetry_equiv_pos_site_id
 _symmetry_equiv_pos_as_xyz
  1  'x, y, z'
loop_
 _atom_site_type_symbol
 _atom_site_label
 _atom_site_symmetry_multiplicity
 _atom_site_fract_x
 _atom_site_fract_y
 _atom_site_fract_z
 _atom_site_occupancy
  Nd  Nd0  1  0.750000  0.652464  0.413798  1
  Nd  Nd1  1  0.250000  0.490550  0.176386  1
  Nd  Nd2  1  0.250000  0.993761  0.323579  1
  Nd  Nd3  1  0.750000  0.510218  0.822789  1
  Nd  Nd4  1  0.750000  0.009963  0.678846  1
  Dy  Dy5  1  0.250000  0.348638  0.584915  1
  Dy  Dy6  1  0.750000  0.150945  0.080185  1
  Tm  Tm7  1  0.250000  0.850975  0.920043  1
  Au  Au8  1  0.250000  0.243920  0.902683  1
  Au  Au9  1  0.250000  0.747926  0.607222  1
  Au  Au10  1  0.750000  0.755857  0.087279  1
  Au  Au11  1  0.750000  0.244783  0.402274  1
