# generated using pymatgen
data_K3PbF7
_symmetry_space_group_name_H-M   'P 1'
_cell_length_a   11.08560890
_cell_length_b   11.08560915
_cell_length_c   11.08560900
_cell_angle_alpha   131.24883133
_cell_angle_beta   131.24883248
_cell_angle_gamma   71.41803655
_symmetry_Int_Tables_number   1
_chemical_formula_structural   K3PbF7
_chemical_formula_sum   'K12 Pb4 F28'
_cell_volume   753.69131347
_cell_formula_units_Z   4
loop_
 _symmetry_equiv_pos_site_id
 _symmetry_equiv_pos_as_xyz
  1  'x, y, z'
loop_
 _atom_site_type_symbol
 _atom_site_label
 _atom_site_symmetry_multiplicity
 _atom_site_fract_x
 _atom_site_fract_y
 _atom_site_fract_z
 _atom_site_occupancy
  K  K0  1  0.750000  0.250000  0.500000  1
  K  K1  1  0.000000  0.000000  0.000000  1
  K  K2  1  0.250000  0.750000  0.500000  1
  K  K3  1  0.500000  0.500000  0.000000  1
  K  K4  1  0.667661  0.149372  0.043062  1
  K  K5  1  0.374598  0.917661  0.018289  1
  K  K6  1  0.899372  0.356310  0.981711  1
  K  K7  1  0.106310  0.624598  0.956938  1
  K  K8  1  0.082339  0.100628  0.456938  1
  K  K9  1  0.375402  0.332339  0.481711  1
  K  K10  1  0.850628  0.893690  0.518289  1
  K  K11  1  0.643690  0.625402  0.543062  1
  Pb  Pb12  1  0.481129  0.981129  0.500000  1
  Pb  Pb13  1  0.731129  0.731129  0.000000  1
  Pb  Pb14  1  0.268871  0.268871  0.000000  1
  Pb  Pb15  1  0.018871  0.518871  0.500000  1
  F  F16  1  0.202588  0.490347  0.154249  1
  F  F17  1  0.798339  0.452588  0.212240  1
  F  F18  1  0.240347  0.586098  0.787760  1
  F  F19  1  0.336098  0.048339  0.845751  1
  F  F20  1  0.547412  0.759653  0.345751  1
  F  F21  1  0.951661  0.797412  0.287760  1
  F  F22  1  0.509653  0.663902  0.712240  1
  F  F23  1  0.413902  0.201661  0.654249  1
  F  F24  1  0.740228  0.079210  0.783130  1
  F  F25  1  0.707097  0.990228  0.161018  1
  F  F26  1  0.829210  0.546079  0.838982  1
  F  F27  1  0.296079  0.957097  0.216870  1
  F  F28  1  0.009772  0.170790  0.716870  1
  F  F29  1  0.042903  0.259772  0.338982  1
  F  F30  1  0.920790  0.703921  0.661018  1
  F  F31  1  0.453921  0.292903  0.283130  1
  F  F32  1  0.603243  0.103243  0.500000  1
  F  F33  1  0.853243  0.853243  0.000000  1
  F  F34  1  0.146757  0.146757  0.000000  1
  F  F35  1  0.896757  0.396757  0.500000  1
  F  F36  1  0.505829  0.381189  0.154597  1
  F  F37  1  0.101232  0.755829  0.624640  1
  F  F38  1  0.131189  0.476591  0.375360  1
  F  F39  1  0.226591  0.351232  0.845403  1
  F  F40  1  0.244171  0.868811  0.345403  1
  F  F41  1  0.648768  0.494171  0.875360  1
  F  F42  1  0.618811  0.773409  0.124640  1
  F  F43  1  0.523409  0.898768  0.654597  1
