# generated using pymatgen
data_PmAgAsF
_symmetry_space_group_name_H-M   'P 1'
_cell_length_a   4.04155700
_cell_length_b   4.04155700
_cell_length_c   9.06573900
_cell_angle_alpha   90.00000000
_cell_angle_beta   90.00000000
_cell_angle_gamma   90.00000000
_symmetry_Int_Tables_number   1
_chemical_formula_structural   PmAgAsF
_chemical_formula_sum   'Pm2 Ag2 As2 F2'
_cell_volume   148.08143971
_cell_formula_units_Z   2
loop_
 _symmetry_equiv_pos_site_id
 _symmetry_equiv_pos_as_xyz
  1  'x, y, z'
loop_
 _atom_site_type_symbol
 _atom_site_label
 _atom_site_symmetry_multiplicity
 _atom_site_fract_x
 _atom_site_fract_y
 _atom_site_fract_z
 _atom_site_occupancy
  Pm  Pm0  1  0.250002  0.250002  0.173209  1
  Pm  Pm1  1  0.750002  0.750002  0.826793  1
  Ag  Ag2  1  0.750002  0.250002  0.499999  1
  Ag  Ag3  1  0.250002  0.750002  0.499999  1
  As  As4  1  0.750002  0.750002  0.290585  1
  As  As5  1  0.250002  0.250002  0.709414  1
  F  F6  1  0.750002  0.250002  0.000000  1
  F  F7  1  0.250002  0.750002  0.000000  1
