# generated using pymatgen
data_PrNd3(GaNi)4
_symmetry_space_group_name_H-M   'P 1'
_cell_length_a   4.39694900
_cell_length_b   7.13072961
_cell_length_c   7.54685871
_cell_angle_alpha   89.92292239
_cell_angle_beta   90.00000000
_cell_angle_gamma   90.00000000
_symmetry_Int_Tables_number   1
_chemical_formula_structural   PrNd3(GaNi)4
_chemical_formula_sum   'Pr1 Nd3 Ga4 Ni4'
_cell_volume   236.61987655
_cell_formula_units_Z   1
loop_
 _symmetry_equiv_pos_site_id
 _symmetry_equiv_pos_as_xyz
  1  'x, y, z'
loop_
 _atom_site_type_symbol
 _atom_site_label
 _atom_site_symmetry_multiplicity
 _atom_site_fract_x
 _atom_site_fract_y
 _atom_site_fract_z
 _atom_site_occupancy
  Pr  Pr0  1  0.750000  0.476329  0.303418  1
  Nd  Nd1  1  0.250000  0.023929  0.802387  1
  Nd  Nd2  1  0.250000  0.524118  0.698076  1
  Nd  Nd3  1  0.750000  0.976480  0.197542  1
  Ga  Ga4  1  0.250000  0.173825  0.420887  1
  Ga  Ga5  1  0.250000  0.676340  0.078867  1
  Ga  Ga6  1  0.750000  0.825586  0.579865  1
  Ga  Ga7  1  0.750000  0.324215  0.919699  1
  Ni  Ni8  1  0.250000  0.797704  0.409215  1
  Ni  Ni9  1  0.250000  0.296644  0.089759  1
  Ni  Ni10  1  0.750000  0.201803  0.591740  1
  Ni  Ni11  1  0.750000  0.703026  0.908546  1
