# generated using pymatgen
data_Lu2Si2Tc2C
_symmetry_space_group_name_H-M   'P 1'
_cell_length_a   5.79860994
_cell_length_b   5.79861019
_cell_length_c   6.82060861
_cell_angle_alpha   54.62304130
_cell_angle_beta   54.62303875
_cell_angle_gamma   39.96425150
_symmetry_Int_Tables_number   1
_chemical_formula_structural   Lu2Si2Tc2C
_chemical_formula_sum   'Lu2 Si2 Tc2 C1'
_cell_volume   116.03382891
_cell_formula_units_Z   1
loop_
 _symmetry_equiv_pos_site_id
 _symmetry_equiv_pos_as_xyz
  1  'x, y, z'
loop_
 _atom_site_type_symbol
 _atom_site_label
 _atom_site_symmetry_multiplicity
 _atom_site_fract_x
 _atom_site_fract_y
 _atom_site_fract_z
 _atom_site_occupancy
  Lu  Lu0  1  0.430356  0.430356  0.297444  1
  Lu  Lu1  1  0.569644  0.569644  0.702556  1
  Si  Si2  1  0.857994  0.857994  0.683549  1
  Si  Si3  1  0.142006  0.142006  0.316451  1
  Tc  Tc4  1  0.792795  0.792795  0.099070  1
  Tc  Tc5  1  0.207205  0.207205  0.900930  1
  C  C6  1  0.000000  0.000000  0.000000  1
