# generated using pymatgen
data_Ho5In4NiAg
_symmetry_space_group_name_H-M   'P 1'
_cell_length_a   8.10107902
_cell_length_b   18.27248301
_cell_length_c   3.58448100
_cell_angle_alpha   90.00000000
_cell_angle_beta   90.00000000
_cell_angle_gamma   90.05377001
_symmetry_Int_Tables_number   1
_chemical_formula_structural   Ho5In4NiAg
_chemical_formula_sum   'Ho10 In8 Ni2 Ag2'
_cell_volume   530.59912132
_cell_formula_units_Z   2
loop_
 _symmetry_equiv_pos_site_id
 _symmetry_equiv_pos_as_xyz
  1  'x, y, z'
loop_
 _atom_site_type_symbol
 _atom_site_label
 _atom_site_symmetry_multiplicity
 _atom_site_fract_x
 _atom_site_fract_y
 _atom_site_fract_z
 _atom_site_occupancy
  Ho  Ho0  1  0.500000  0.500000  0.000000  1
  Ho  Ho1  1  0.000000  0.000000  0.000000  1
  Ho  Ho2  1  0.774687  0.285412  0.000000  1
  Ho  Ho3  1  0.225313  0.714588  0.000000  1
  Ho  Ho4  1  0.771526  0.775452  0.000000  1
  Ho  Ho5  1  0.228474  0.224548  0.000000  1
  Ho  Ho6  1  0.625701  0.077827  0.000000  1
  Ho  Ho7  1  0.374299  0.922173  0.000000  1
  Ho  Ho8  1  0.880282  0.585966  0.000000  1
  Ho  Ho9  1  0.119718  0.414034  0.000000  1
  In  In10  1  0.706785  0.929316  0.500000  1
  In  In11  1  0.293215  0.070684  0.500000  1
  In  In12  1  0.796848  0.434474  0.500000  1
  In  In13  1  0.203152  0.565526  0.500000  1
  In  In14  1  0.570607  0.648027  0.500000  1
  In  In15  1  0.429393  0.351973  0.500000  1
  In  In16  1  0.927234  0.150401  0.500000  1
  In  In17  1  0.072766  0.849599  0.500000  1
  Ni  Ni18  1  0.964657  0.694460  0.500000  1
  Ni  Ni19  1  0.035343  0.305540  0.500000  1
  Ag  Ag20  1  0.536717  0.199721  0.500000  1
  Ag  Ag21  1  0.463283  0.800279  0.500000  1
