# generated using pymatgen
data_Ce4Cd2IrAu3
_symmetry_space_group_name_H-M   'P 1'
_cell_length_a   8.03331466
_cell_length_b   8.03331371
_cell_length_c   3.80392800
_cell_angle_alpha   90.00000000
_cell_angle_beta   90.00000000
_cell_angle_gamma   90.51819751
_symmetry_Int_Tables_number   1
_chemical_formula_structural   Ce4Cd2IrAu3
_chemical_formula_sum   'Ce4 Cd2 Ir1 Au3'
_cell_volume   245.47316962
_cell_formula_units_Z   1
loop_
 _symmetry_equiv_pos_site_id
 _symmetry_equiv_pos_as_xyz
  1  'x, y, z'
loop_
 _atom_site_type_symbol
 _atom_site_label
 _atom_site_symmetry_multiplicity
 _atom_site_fract_x
 _atom_site_fract_y
 _atom_site_fract_z
 _atom_site_occupancy
  Ce  Ce0  1  0.669083  0.169083  0.500000  1
  Ce  Ce1  1  0.310802  0.810802  0.500000  1
  Ce  Ce2  1  0.177023  0.347188  0.500000  1
  Ce  Ce3  1  0.847188  0.677023  0.500000  1
  Cd  Cd4  1  0.002054  0.001773  0.000000  1
  Cd  Cd5  1  0.501773  0.502054  0.000000  1
  Ir  Ir6  1  0.129470  0.629470  0.000000  1
  Au  Au7  1  0.870447  0.370447  0.000000  1
  Au  Au8  1  0.625368  0.866793  0.000000  1
  Au  Au9  1  0.366793  0.125368  0.000000  1
