# generated using pymatgen
data_Sm8Sc12Sn15Os
_symmetry_space_group_name_H-M   'P 1'
_cell_length_a   7.71873528
_cell_length_b   8.01430004
_cell_length_c   14.89291800
_cell_angle_alpha   90.00000000
_cell_angle_beta   90.00000000
_cell_angle_gamma   89.69626475
_symmetry_Int_Tables_number   1
_chemical_formula_structural   Sm8Sc12Sn15Os
_chemical_formula_sum   'Sm8 Sc12 Sn15 Os1'
_cell_volume   921.26684061
_cell_formula_units_Z   1
loop_
 _symmetry_equiv_pos_site_id
 _symmetry_equiv_pos_as_xyz
  1  'x, y, z'
loop_
 _atom_site_type_symbol
 _atom_site_label
 _atom_site_symmetry_multiplicity
 _atom_site_fract_x
 _atom_site_fract_y
 _atom_site_fract_z
 _atom_site_occupancy
  Sm  Sm0  1  0.506364  0.335118  0.901355  1
  Sm  Sm1  1  0.008769  0.178032  0.595680  1
  Sm  Sm2  1  0.491086  0.678983  0.406156  1
  Sm  Sm3  1  0.992621  0.826959  0.094308  1
  Sm  Sm4  1  0.491086  0.678983  0.093844  1
  Sm  Sm5  1  0.992621  0.826959  0.405692  1
  Sm  Sm6  1  0.506364  0.335118  0.598645  1
  Sm  Sm7  1  0.008769  0.178032  0.904320  1
  Sc  Sc8  1  0.370216  0.813603  0.863158  1
  Sc  Sc9  1  0.808176  0.661021  0.634066  1
  Sc  Sc10  1  0.658614  0.166599  0.373929  1
  Sc  Sc11  1  0.159792  0.337965  0.126376  1
  Sc  Sc12  1  0.658614  0.166599  0.126071  1
  Sc  Sc13  1  0.159792  0.337965  0.373624  1
  Sc  Sc14  1  0.370216  0.813603  0.636842  1
  Sc  Sc15  1  0.808176  0.661021  0.865934  1
  Sc  Sc16  1  0.195543  0.506359  0.750000  1
  Sc  Sc17  1  0.674983  0.983995  0.750000  1
  Sc  Sc18  1  0.826483  0.498769  0.250000  1
  Sc  Sc19  1  0.325942  0.003941  0.250000  1
  Sn  Sn20  1  0.322358  0.043528  0.037666  1
  Sn  Sn21  1  0.823026  0.460667  0.458463  1
  Sn  Sn22  1  0.681679  0.964463  0.541230  1
  Sn  Sn23  1  0.171415  0.545924  0.957103  1
  Sn  Sn24  1  0.681679  0.964463  0.958770  1
  Sn  Sn25  1  0.171415  0.545924  0.542897  1
  Sn  Sn26  1  0.322358  0.043528  0.462334  1
  Sn  Sn27  1  0.823026  0.460667  0.041537  1
  Sn  Sn28  1  0.037783  0.871448  0.750000  1
  Sn  Sn29  1  0.463822  0.372796  0.250000  1
  Sn  Sn30  1  0.964422  0.128139  0.250000  1
  Sn  Sn31  1  0.309399  0.136754  0.750000  1
  Sn  Sn32  1  0.807495  0.358323  0.750000  1
  Sn  Sn33  1  0.685573  0.855944  0.250000  1
  Sn  Sn34  1  0.185296  0.646904  0.250000  1
  Os  Os35  1  0.535025  0.610903  0.750000  1
