# generated using pymatgen
data_ThZn6In5Rh12
_symmetry_space_group_name_H-M   'P 1'
_cell_length_a   4.49061400
_cell_length_b   6.36025000
_cell_length_c   13.44405600
_cell_angle_alpha   90.00000000
_cell_angle_beta   89.99934011
_cell_angle_gamma   90.00000000
_symmetry_Int_Tables_number   1
_chemical_formula_structural   ThZn6In5Rh12
_chemical_formula_sum   'Th1 Zn6 In5 Rh12'
_cell_volume   383.98143334
_cell_formula_units_Z   1
loop_
 _symmetry_equiv_pos_site_id
 _symmetry_equiv_pos_as_xyz
  1  'x, y, z'
loop_
 _atom_site_type_symbol
 _atom_site_label
 _atom_site_symmetry_multiplicity
 _atom_site_fract_x
 _atom_site_fract_y
 _atom_site_fract_z
 _atom_site_occupancy
  Th  Th0  1  0.000000  0.000000  0.000000  1
  Zn  Zn1  1  0.000000  0.500000  0.000000  1
  Zn  Zn2  1  0.499944  0.000000  0.172777  1
  Zn  Zn3  1  0.999905  0.500000  0.338434  1
  Zn  Zn4  1  0.500001  0.000000  0.500000  1
  Zn  Zn5  1  0.000095  0.500000  0.661566  1
  Zn  Zn6  1  0.500056  0.000000  0.827223  1
  In  In7  1  0.499953  0.500000  0.172852  1
  In  In8  1  0.999795  0.000000  0.335669  1
  In  In9  1  0.500001  0.500000  0.500000  1
  In  In10  1  0.000205  0.000000  0.664330  1
  In  In11  1  0.500047  0.500000  0.827148  1
  Rh  Rh12  1  0.500001  0.266674  0.000000  1
  Rh  Rh13  1  0.500001  0.733327  0.000000  1
  Rh  Rh14  1  0.999953  0.254730  0.170810  1
  Rh  Rh15  1  0.999953  0.745269  0.170810  1
  Rh  Rh16  1  0.499882  0.248945  0.335600  1
  Rh  Rh17  1  0.499882  0.751054  0.335600  1
  Rh  Rh18  1  0.000000  0.249729  0.500000  1
  Rh  Rh19  1  0.000000  0.750271  0.500000  1
  Rh  Rh20  1  0.500118  0.248945  0.664400  1
  Rh  Rh21  1  0.500118  0.751054  0.664400  1
  Rh  Rh22  1  0.000047  0.254730  0.829190  1
  Rh  Rh23  1  0.000047  0.745269  0.829190  1
