# generated using pymatgen
data_Tb8HfSc(Si8W5)2
_symmetry_space_group_name_H-M   'P 1'
_cell_length_a   6.95682025
_cell_length_b   6.95682126
_cell_length_c   12.91276401
_cell_angle_alpha   89.98851328
_cell_angle_beta   89.98851215
_cell_angle_gamma   89.89913170
_symmetry_Int_Tables_number   1
_chemical_formula_structural   Tb8HfSc(Si8W5)2
_chemical_formula_sum   'Tb8 Hf1 Sc1 Si16 W10'
_cell_volume   624.94263049
_cell_formula_units_Z   1
loop_
 _symmetry_equiv_pos_site_id
 _symmetry_equiv_pos_as_xyz
  1  'x, y, z'
loop_
 _atom_site_type_symbol
 _atom_site_label
 _atom_site_symmetry_multiplicity
 _atom_site_fract_x
 _atom_site_fract_y
 _atom_site_fract_z
 _atom_site_occupancy
  Tb  Tb0  1  0.000085  0.334747  0.219109  1
  Tb  Tb1  1  0.000509  0.665526  0.719019  1
  Tb  Tb2  1  0.161234  0.500705  0.468625  1
  Tb  Tb3  1  0.499295  0.838766  0.031375  1
  Tb  Tb4  1  0.839036  0.499542  0.969651  1
  Tb  Tb5  1  0.500458  0.160964  0.530349  1
  Tb  Tb6  1  0.334474  0.999491  0.780981  1
  Tb  Tb7  1  0.665253  0.999915  0.280891  1
  Hf  Hf8  1  0.668278  0.331722  0.750000  1
  Sc  Sc9  1  0.332620  0.667380  0.250000  1
  Si  Si10  1  0.375899  0.293081  0.317046  1
  Si  Si11  1  0.625427  0.707365  0.817354  1
  Si  Si12  1  0.199967  0.875875  0.566200  1
  Si  Si13  1  0.124125  0.800033  0.933800  1
  Si  Si14  1  0.799536  0.124713  0.066735  1
  Si  Si15  1  0.875287  0.200464  0.433265  1
  Si  Si16  1  0.292635  0.374573  0.682646  1
  Si  Si17  1  0.706919  0.624101  0.182954  1
  Si  Si18  1  0.288322  0.041180  0.185870  1
  Si  Si19  1  0.710140  0.957134  0.684059  1
  Si  Si20  1  0.466800  0.789775  0.438820  1
  Si  Si21  1  0.210225  0.533200  0.061180  1
  Si  Si22  1  0.532831  0.209029  0.939747  1
  Si  Si23  1  0.790971  0.467169  0.560253  1
  Si  Si24  1  0.042866  0.289860  0.815941  1
  Si  Si25  1  0.958820  0.711678  0.314130  1
  W  W26  1  0.164743  0.165546  0.000213  1
  W  W27  1  0.834454  0.835257  0.499787  1
  W  W28  1  0.164876  0.999058  0.377848  1
  W  W29  1  0.833524  0.003115  0.876362  1
  W  W30  1  0.504070  0.660359  0.625967  1
  W  W31  1  0.339641  0.495930  0.874033  1
  W  W32  1  0.496300  0.337447  0.125693  1
  W  W33  1  0.662553  0.503700  0.374307  1
  W  W34  1  0.996885  0.166476  0.623638  1
  W  W35  1  0.000942  0.835124  0.122152  1
