# generated using pymatgen
data_Ru3NF8
_symmetry_space_group_name_H-M   'P 1'
_cell_length_a   5.15401800
_cell_length_b   5.11789506
_cell_length_c   13.86863191
_cell_angle_alpha   89.24353895
_cell_angle_beta   90.00000000
_cell_angle_gamma   59.76624184
_symmetry_Int_Tables_number   1
_chemical_formula_structural   Ru3NF8
_chemical_formula_sum   'Ru6 N2 F16'
_cell_volume   316.02616513
_cell_formula_units_Z   2
loop_
 _symmetry_equiv_pos_site_id
 _symmetry_equiv_pos_as_xyz
  1  'x, y, z'
loop_
 _atom_site_type_symbol
 _atom_site_label
 _atom_site_symmetry_multiplicity
 _atom_site_fract_x
 _atom_site_fract_y
 _atom_site_fract_z
 _atom_site_occupancy
  Ru  Ru0  1  0.009545  0.970826  0.005993  1
  Ru  Ru1  1  0.019631  0.970826  0.505993  1
  Ru  Ru2  1  0.323864  0.362475  0.660631  1
  Ru  Ru3  1  0.313662  0.362475  0.160631  1
  Ru  Ru4  1  0.666620  0.666745  0.833347  1
  Ru  Ru5  1  0.666634  0.666745  0.333347  1
  N  N6  1  0.102280  0.666524  0.083355  1
  N  N7  1  0.231197  0.666524  0.583355  1
  F  F8  1  0.010001  0.296892  0.590514  1
  F  F9  1  0.992489  0.362336  0.245334  1
  F  F10  1  0.323326  0.036245  0.076194  1
  F  F11  1  0.369671  0.997670  0.745789  1
  F  F12  1  0.632660  0.997670  0.245789  1
  F  F13  1  0.640428  0.036245  0.576194  1
  F  F14  1  0.331908  0.684128  0.910745  1
  F  F15  1  0.349348  0.649372  0.255887  1
  F  F16  1  0.645176  0.362336  0.745334  1
  F  F17  1  0.693110  0.296892  0.090514  1
  F  F18  1  0.340858  0.971109  0.421376  1
  F  F19  1  0.700717  0.335683  0.420834  1
  F  F20  1  0.963600  0.335683  0.920834  1
  F  F21  1  0.688034  0.971109  0.921376  1
  F  F22  1  0.001279  0.649372  0.755887  1
  F  F23  1  0.983965  0.684128  0.410745  1
