# generated using pymatgen
data_Pr(Sn2Rh3)2
_symmetry_space_group_name_H-M   'P 1'
_cell_length_a   7.65984400
_cell_length_b   7.65984357
_cell_length_c   4.08315200
_cell_angle_alpha   90.00000000
_cell_angle_beta   90.00000000
_cell_angle_gamma   120.00000184
_symmetry_Int_Tables_number   1
_chemical_formula_structural   Pr(Sn2Rh3)2
_chemical_formula_sum   'Pr1 Sn4 Rh6'
_cell_volume   207.47510668
_cell_formula_units_Z   1
loop_
 _symmetry_equiv_pos_site_id
 _symmetry_equiv_pos_as_xyz
  1  'x, y, z'
loop_
 _atom_site_type_symbol
 _atom_site_label
 _atom_site_symmetry_multiplicity
 _atom_site_fract_x
 _atom_site_fract_y
 _atom_site_fract_z
 _atom_site_occupancy
  Pr  Pr0  1  0.000000  0.000000  0.000000  1
  Sn  Sn1  1  0.333333  0.666667  0.000000  1
  Sn  Sn2  1  0.393109  0.196554  0.499999  1
  Sn  Sn3  1  0.803445  0.196554  0.499999  1
  Sn  Sn4  1  0.803446  0.606891  0.499999  1
  Rh  Rh5  1  0.533598  0.067198  0.000000  1
  Rh  Rh6  1  0.533598  0.466401  0.000000  1
  Rh  Rh7  1  0.932801  0.466401  0.000000  1
  Rh  Rh8  1  0.201385  0.402769  0.499999  1
  Rh  Rh9  1  0.201384  0.798616  0.499999  1
  Rh  Rh10  1  0.597231  0.798616  0.499999  1
