# generated using pymatgen
data_Sc5Pa3(ReB6)4
_symmetry_space_group_name_H-M   'P 1'
_cell_length_a   3.61756900
_cell_length_b   8.97748476
_cell_length_c   11.33433321
_cell_angle_alpha   90.07171108
_cell_angle_beta   90.00000000
_cell_angle_gamma   90.00000000
_symmetry_Int_Tables_number   1
_chemical_formula_structural   Sc5Pa3(ReB6)4
_chemical_formula_sum   'Sc5 Pa3 Re4 B24'
_cell_volume   368.10111765
_cell_formula_units_Z   1
loop_
 _symmetry_equiv_pos_site_id
 _symmetry_equiv_pos_as_xyz
  1  'x, y, z'
loop_
 _atom_site_type_symbol
 _atom_site_label
 _atom_site_symmetry_multiplicity
 _atom_site_fract_x
 _atom_site_fract_y
 _atom_site_fract_z
 _atom_site_occupancy
  Sc  Sc0  1  0.000000  0.182457  0.913351  1
  Sc  Sc1  1  0.000000  0.946436  0.374488  1
  Sc  Sc2  1  0.000000  0.055353  0.627399  1
  Sc  Sc3  1  0.000000  0.443348  0.123626  1
  Sc  Sc4  1  0.000000  0.552526  0.874741  1
  Pa  Pa5  1  0.000000  0.319103  0.413852  1
  Pa  Pa6  1  0.000000  0.680043  0.587211  1
  Pa  Pa7  1  0.000000  0.821923  0.085088  1
  Re  Re8  1  0.000000  0.640404  0.319431  1
  Re  Re9  1  0.000000  0.360268  0.680130  1
  Re  Re10  1  0.000000  0.140194  0.180468  1
  Re  Re11  1  0.000000  0.859435  0.820129  1
  B  B12  1  0.500000  0.554721  0.432892  1
  B  B13  1  0.500000  0.445035  0.567352  1
  B  B14  1  0.500000  0.055386  0.065645  1
  B  B15  1  0.500000  0.946162  0.932934  1
  B  B16  1  0.500000  0.754112  0.419702  1
  B  B17  1  0.500000  0.246002  0.582057  1
  B  B18  1  0.500000  0.252686  0.077662  1
  B  B19  1  0.500000  0.747365  0.919554  1
  B  B20  1  0.500000  0.794708  0.264566  1
  B  B21  1  0.500000  0.204709  0.737169  1
  B  B22  1  0.500000  0.294545  0.233248  1
  B  B23  1  0.500000  0.705560  0.765540  1
  B  B24  1  0.500000  0.629554  0.182409  1
  B  B25  1  0.500000  0.368352  0.818304  1
  B  B26  1  0.500000  0.129913  0.316618  1
  B  B27  1  0.500000  0.871085  0.684000  1
  B  B28  1  0.500000  0.982075  0.213163  1
  B  B29  1  0.500000  0.020543  0.787150  1
  B  B30  1  0.500000  0.481564  0.284679  1
  B  B31  1  0.500000  0.517242  0.715785  1
  B  B32  1  0.500000  0.599299  0.027251  1
  B  B33  1  0.500000  0.397640  0.971603  1
  B  B34  1  0.500000  0.100085  0.472857  1
  B  B35  1  0.500000  0.900165  0.527944  1
