# generated using pymatgen
data_DyEr7Sc12(SiGe)8
_symmetry_space_group_name_H-M   'P 1'
_cell_length_a   7.14950171
_cell_length_b   7.38321765
_cell_length_c   14.02668623
_cell_angle_alpha   90.00903515
_cell_angle_beta   90.06390972
_cell_angle_gamma   89.95298096
_symmetry_Int_Tables_number   1
_chemical_formula_structural   DyEr7Sc12(SiGe)8
_chemical_formula_sum   'Dy1 Er7 Sc12 Si8 Ge8'
_cell_volume   740.41652958
_cell_formula_units_Z   1
loop_
 _symmetry_equiv_pos_site_id
 _symmetry_equiv_pos_as_xyz
  1  'x, y, z'
loop_
 _atom_site_type_symbol
 _atom_site_label
 _atom_site_symmetry_multiplicity
 _atom_site_fract_x
 _atom_site_fract_y
 _atom_site_fract_z
 _atom_site_occupancy
  Dy  Dy0  1  0.497598  0.677254  0.598048  1
  Er  Er1  1  0.001730  0.177633  0.098370  1
  Er  Er2  1  0.998476  0.822321  0.901959  1
  Er  Er3  1  0.498622  0.677982  0.901512  1
  Er  Er4  1  0.998038  0.822950  0.598440  1
  Er  Er5  1  0.501664  0.322187  0.098392  1
  Er  Er6  1  0.001731  0.177335  0.401286  1
  Er  Er7  1  0.502174  0.322161  0.401269  1
  Sc  Sc8  1  0.174693  0.500146  0.750446  1
  Sc  Sc9  1  0.825151  0.499489  0.249713  1
  Sc  Sc10  1  0.325107  0.000600  0.249721  1
  Sc  Sc11  1  0.674934  0.999503  0.750305  1
  Sc  Sc12  1  0.343659  0.172148  0.626156  1
  Sc  Sc13  1  0.656235  0.828132  0.373623  1
  Sc  Sc14  1  0.156127  0.672822  0.373513  1
  Sc  Sc15  1  0.655721  0.827566  0.126141  1
  Sc  Sc16  1  0.843867  0.327489  0.626499  1
  Sc  Sc17  1  0.344231  0.172391  0.874317  1
  Sc  Sc18  1  0.844262  0.327676  0.874031  1
  Sc  Sc19  1  0.155881  0.672163  0.126384  1
  Si  Si20  1  0.046401  0.116163  0.750183  1
  Si  Si21  1  0.953594  0.883978  0.249850  1
  Si  Si22  1  0.453945  0.616178  0.250061  1
  Si  Si23  1  0.546174  0.383016  0.750092  1
  Si  Si24  1  0.296488  0.871140  0.750335  1
  Si  Si25  1  0.702940  0.129402  0.249904  1
  Si  Si26  1  0.203093  0.370505  0.249969  1
  Si  Si27  1  0.797474  0.629255  0.750359  1
  Ge  Ge28  1  0.175731  0.459804  0.540161  1
  Ge  Ge29  1  0.823407  0.539038  0.459138  1
  Ge  Ge30  1  0.321787  0.960823  0.459176  1
  Ge  Ge31  1  0.821366  0.539758  0.040606  1
  Ge  Ge32  1  0.678558  0.040373  0.540269  1
  Ge  Ge33  1  0.178915  0.460750  0.959652  1
  Ge  Ge34  1  0.678878  0.039887  0.959588  1
  Ge  Ge35  1  0.321348  0.959983  0.040532  1
