# generated using pymatgen
data_ErSc3Al18OsPd5
_symmetry_space_group_name_H-M   'P 1'
_cell_length_a   7.55820558
_cell_length_b   7.55343738
_cell_length_c   9.33950304
_cell_angle_alpha   89.88326390
_cell_angle_beta   89.89236651
_cell_angle_gamma   119.59300955
_symmetry_Int_Tables_number   1
_chemical_formula_structural   ErSc3Al18OsPd5
_chemical_formula_sum   'Er1 Sc3 Al18 Os1 Pd5'
_cell_volume   463.64006735
_cell_formula_units_Z   1
loop_
 _symmetry_equiv_pos_site_id
 _symmetry_equiv_pos_as_xyz
  1  'x, y, z'
loop_
 _atom_site_type_symbol
 _atom_site_label
 _atom_site_symmetry_multiplicity
 _atom_site_fract_x
 _atom_site_fract_y
 _atom_site_fract_z
 _atom_site_occupancy
  Er  Er0  1  0.328646  0.005166  0.751369  1
  Sc  Sc1  1  0.994035  0.670809  0.248607  1
  Sc  Sc2  1  0.005169  0.328534  0.751492  1
  Sc  Sc3  1  0.672534  0.995432  0.248400  1
  Al  Al4  1  0.124755  0.126050  0.247920  1
  Al  Al5  1  0.870855  0.871733  0.752767  1
  Al  Al6  1  0.996184  0.330215  0.077708  1
  Al  Al7  1  0.000294  0.666851  0.926595  1
  Al  Al8  1  0.999237  0.660993  0.578210  1
  Al  Al9  1  0.335921  0.996811  0.414455  1
  Al  Al10  1  0.996680  0.335781  0.417456  1
  Al  Al11  1  0.667408  0.002096  0.577928  1
  Al  Al12  1  0.672615  0.003248  0.925890  1
  Al  Al13  1  0.330206  0.995920  0.081535  1
  Al  Al14  1  0.331361  0.333914  0.559346  1
  Al  Al15  1  0.669840  0.670044  0.433735  1
  Al  Al16  1  0.674171  0.674289  0.063005  1
  Al  Al17  1  0.326964  0.329189  0.943879  1
  Al  Al18  1  0.340736  0.553845  0.249065  1
  Al  Al19  1  0.660424  0.450658  0.750820  1
  Al  Al20  1  0.553701  0.341941  0.248962  1
  Al  Al21  1  0.447902  0.657306  0.750795  1
  Os  Os22  1  0.000666  0.999730  0.000320  1
  Pd  Pd23  1  0.671907  0.327234  0.000013  1
  Pd  Pd24  1  0.327905  0.672542  0.999854  1
  Pd  Pd25  1  0.327489  0.672774  0.500004  1
  Pd  Pd26  1  0.671775  0.327030  0.499856  1
  Pd  Pd27  1  0.000619  0.999863  0.500010  1
