# generated using pymatgen
data_Rb4Nb2PbS8
_symmetry_space_group_name_H-M   'P 1'
_cell_length_a   9.59310775
_cell_length_b   9.80913836
_cell_length_c   11.90285700
_cell_angle_alpha   106.69798698
_cell_angle_beta   103.53649715
_cell_angle_gamma   94.03131693
_symmetry_Int_Tables_number   1
_chemical_formula_structural   Rb4Nb2PbS8
_chemical_formula_sum   'Rb8 Nb4 Pb2 S16'
_cell_volume   1031.58624881
_cell_formula_units_Z   2
loop_
 _symmetry_equiv_pos_site_id
 _symmetry_equiv_pos_as_xyz
  1  'x, y, z'
loop_
 _atom_site_type_symbol
 _atom_site_label
 _atom_site_symmetry_multiplicity
 _atom_site_fract_x
 _atom_site_fract_y
 _atom_site_fract_z
 _atom_site_occupancy
  Rb  Rb0  1  0.947769  0.528906  0.267620  1
  Rb  Rb1  1  0.052231  0.471094  0.732380  1
  Rb  Rb2  1  0.767708  0.015047  0.481006  1
  Rb  Rb3  1  0.232292  0.984953  0.518994  1
  Rb  Rb4  1  0.610484  0.747255  0.027671  1
  Rb  Rb5  1  0.389516  0.252745  0.972329  1
  Rb  Rb6  1  0.621859  0.686772  0.613407  1
  Rb  Rb7  1  0.378141  0.313228  0.386593  1
  Nb  Nb8  1  0.951701  0.114234  0.239939  1
  Nb  Nb9  1  0.048299  0.885766  0.760061  1
  Nb  Nb10  1  0.383167  0.675191  0.262328  1
  Nb  Nb11  1  0.616833  0.324809  0.737672  1
  Pb  Pb12  1  0.846797  0.148380  0.923906  1
  Pb  Pb13  1  0.153203  0.851620  0.076094  1
  S  S14  1  0.952043  0.876859  0.234455  1
  S  S15  1  0.047957  0.123141  0.765545  1
  S  S16  1  0.589394  0.081127  0.721456  1
  S  S17  1  0.410606  0.918873  0.278544  1
  S  S18  1  0.301451  0.645190  0.420269  1
  S  S19  1  0.698549  0.354810  0.579731  1
  S  S20  1  0.788238  0.437037  0.919953  1
  S  S21  1  0.211762  0.562963  0.080047  1
  S  S22  1  0.030620  0.256341  0.435718  1
  S  S23  1  0.969380  0.743659  0.564282  1
  S  S24  1  0.112460  0.164894  0.134325  1
  S  S25  1  0.887540  0.835106  0.865675  1
  S  S26  1  0.729230  0.153236  0.141677  1
  S  S27  1  0.270770  0.846764  0.858323  1
  S  S28  1  0.594173  0.584289  0.264117  1
  S  S29  1  0.405827  0.415711  0.735883  1
