# generated using pymatgen
data_Th4Hg2Pt3Rh
_symmetry_space_group_name_H-M   'P 1'
_cell_length_a   7.96963953
_cell_length_b   7.96963953
_cell_length_c   3.76972400
_cell_angle_alpha   90.00000000
_cell_angle_beta   90.00000000
_cell_angle_gamma   90.21117733
_symmetry_Int_Tables_number   1
_chemical_formula_structural   Th4Hg2Pt3Rh
_chemical_formula_sum   'Th4 Hg2 Pt3 Rh1'
_cell_volume   239.43297516
_cell_formula_units_Z   1
loop_
 _symmetry_equiv_pos_site_id
 _symmetry_equiv_pos_as_xyz
  1  'x, y, z'
loop_
 _atom_site_type_symbol
 _atom_site_label
 _atom_site_symmetry_multiplicity
 _atom_site_fract_x
 _atom_site_fract_y
 _atom_site_fract_z
 _atom_site_occupancy
  Th  Th0  1  0.326811  0.166266  0.500001  1
  Th  Th1  1  0.829197  0.329197  0.500001  1
  Th  Th2  1  0.177566  0.677566  0.500001  1
  Th  Th3  1  0.666266  0.826811  0.500001  1
  Hg  Hg4  1  0.002205  0.999222  0.000000  1
  Hg  Hg5  1  0.499222  0.502205  0.000000  1
  Pt  Pt6  1  0.628316  0.128318  0.000000  1
  Pt  Pt7  1  0.129722  0.371539  0.000000  1
  Pt  Pt8  1  0.871539  0.629720  0.000000  1
  Rh  Rh9  1  0.369158  0.869158  0.000000  1
