# generated using pymatgen
data_Sm6Zn21Pd2S
_symmetry_space_group_name_H-M   'P 1'
_cell_length_a   9.03029572
_cell_length_b   8.98733561
_cell_length_c   9.03029700
_cell_angle_alpha   60.15724640
_cell_angle_beta   59.75246780
_cell_angle_gamma   60.15724585
_symmetry_Int_Tables_number   1
_chemical_formula_structural   Sm6Zn21Pd2S
_chemical_formula_sum   'Sm6 Zn21 Pd2 S1'
_cell_volume   518.47193749
_cell_formula_units_Z   1
loop_
 _symmetry_equiv_pos_site_id
 _symmetry_equiv_pos_as_xyz
  1  'x, y, z'
loop_
 _atom_site_type_symbol
 _atom_site_label
 _atom_site_symmetry_multiplicity
 _atom_site_fract_x
 _atom_site_fract_y
 _atom_site_fract_z
 _atom_site_occupancy
  Sm  Sm0  1  0.714379  0.284481  0.285621  1
  Sm  Sm1  1  0.713432  0.286568  0.713432  1
  Sm  Sm2  1  0.714379  0.715519  0.285621  1
  Sm  Sm3  1  0.285621  0.715519  0.714379  1
  Sm  Sm4  1  0.286568  0.713432  0.286568  1
  Sm  Sm5  1  0.285621  0.284481  0.714379  1
  Zn  Zn6  1  0.631536  0.122017  0.124432  1
  Zn  Zn7  1  0.122688  0.633866  0.122688  1
  Zn  Zn8  1  0.124432  0.122017  0.631536  1
  Zn  Zn9  1  0.122688  0.120757  0.122688  1
  Zn  Zn10  1  0.368464  0.877983  0.875568  1
  Zn  Zn11  1  0.877312  0.366134  0.877312  1
  Zn  Zn12  1  0.875568  0.877983  0.368464  1
  Zn  Zn13  1  0.877312  0.879243  0.877312  1
  Zn  Zn14  1  0.500000  0.000000  0.000000  1
  Zn  Zn15  1  0.500000  0.500000  0.000000  1
  Zn  Zn16  1  0.000000  0.500000  0.500000  1
  Zn  Zn17  1  0.000000  0.500000  0.000000  1
  Zn  Zn18  1  0.000000  0.000000  0.500000  1
  Zn  Zn19  1  0.013988  0.329438  0.327133  1
  Zn  Zn20  1  0.326264  0.019413  0.326264  1
  Zn  Zn21  1  0.327133  0.329438  0.013988  1
  Zn  Zn22  1  0.326264  0.328058  0.326264  1
  Zn  Zn23  1  0.986012  0.670562  0.672867  1
  Zn  Zn24  1  0.673736  0.980587  0.673736  1
  Zn  Zn25  1  0.672867  0.670562  0.986012  1
  Zn  Zn26  1  0.673736  0.671942  0.673736  1
  Pd  Pd27  1  0.500000  0.000000  0.500000  1
  Pd  Pd28  1  0.000000  0.000000  0.000000  1
  S  S29  1  0.500000  0.500000  0.500000  1
