# generated using pymatgen
data_DyErTm4(Co3P2)6
_symmetry_space_group_name_H-M   'P 1'
_cell_length_a   3.67206600
_cell_length_b   10.47073400
_cell_length_c   12.11970200
_cell_angle_alpha   90.00000000
_cell_angle_beta   90.00000000
_cell_angle_gamma   90.00000000
_symmetry_Int_Tables_number   1
_chemical_formula_structural   DyErTm4(Co3P2)6
_chemical_formula_sum   'Dy1 Er1 Tm4 Co18 P12'
_cell_volume   465.99316509
_cell_formula_units_Z   1
loop_
 _symmetry_equiv_pos_site_id
 _symmetry_equiv_pos_as_xyz
  1  'x, y, z'
loop_
 _atom_site_type_symbol
 _atom_site_label
 _atom_site_symmetry_multiplicity
 _atom_site_fract_x
 _atom_site_fract_y
 _atom_site_fract_z
 _atom_site_occupancy
  Dy  Dy0  1  0.750000  0.250000  0.477444  1
  Er  Er1  1  0.250000  0.750000  0.522635  1
  Tm  Tm2  1  0.250000  0.932002  0.794033  1
  Tm  Tm3  1  0.250000  0.567998  0.794033  1
  Tm  Tm4  1  0.750000  0.067842  0.205779  1
  Tm  Tm5  1  0.750000  0.432158  0.205779  1
  Co  Co6  1  0.250000  0.250000  0.840796  1
  Co  Co7  1  0.750000  0.750000  0.159614  1
  Co  Co8  1  0.250000  0.250000  0.295684  1
  Co  Co9  1  0.750000  0.750000  0.703731  1
  Co  Co10  1  0.750000  0.250000  0.013709  1
  Co  Co11  1  0.250000  0.750000  0.986101  1
  Co  Co12  1  0.250000  0.416897  0.005328  1
  Co  Co13  1  0.250000  0.083103  0.005328  1
  Co  Co14  1  0.750000  0.583250  0.994696  1
  Co  Co15  1  0.750000  0.916750  0.994696  1
  Co  Co16  1  0.250000  0.453192  0.569673  1
  Co  Co17  1  0.250000  0.046808  0.569673  1
  Co  Co18  1  0.750000  0.547973  0.430379  1
  Co  Co19  1  0.750000  0.952027  0.430379  1
  Co  Co20  1  0.250000  0.871243  0.290074  1
  Co  Co21  1  0.250000  0.628757  0.290074  1
  Co  Co22  1  0.750000  0.128461  0.710107  1
  Co  Co23  1  0.750000  0.371539  0.710107  1
  P  P24  1  0.250000  0.250000  0.117510  1
  P  P25  1  0.750000  0.750000  0.882229  1
  P  P26  1  0.250000  0.250000  0.655728  1
  P  P27  1  0.750000  0.750000  0.345090  1
  P  P28  1  0.250000  0.439288  0.383081  1
  P  P29  1  0.250000  0.060712  0.383081  1
  P  P30  1  0.750000  0.561508  0.616622  1
  P  P31  1  0.750000  0.938492  0.616622  1
  P  P32  1  0.250000  0.903139  0.107630  1
  P  P33  1  0.250000  0.596861  0.107630  1
  P  P34  1  0.750000  0.096590  0.892461  1
  P  P35  1  0.750000  0.403410  0.892461  1
