# generated using pymatgen
data_TbDy7(TcB6)4
_symmetry_space_group_name_H-M   'P 1'
_cell_length_a   3.69553000
_cell_length_b   9.17276600
_cell_length_c   11.55818801
_cell_angle_alpha   89.99650116
_cell_angle_beta   90.00000000
_cell_angle_gamma   90.00000000
_symmetry_Int_Tables_number   1
_chemical_formula_structural   TbDy7(TcB6)4
_chemical_formula_sum   'Tb1 Dy7 Tc4 B24'
_cell_volume   391.80213722
_cell_formula_units_Z   1
loop_
 _symmetry_equiv_pos_site_id
 _symmetry_equiv_pos_as_xyz
  1  'x, y, z'
loop_
 _atom_site_type_symbol
 _atom_site_label
 _atom_site_symmetry_multiplicity
 _atom_site_fract_x
 _atom_site_fract_y
 _atom_site_fract_z
 _atom_site_occupancy
  Tb  Tb0  1  0.000000  0.323967  0.414147  1
  Dy  Dy1  1  0.000000  0.676096  0.585840  1
  Dy  Dy2  1  0.000000  0.823903  0.085772  1
  Dy  Dy3  1  0.000000  0.175943  0.914125  1
  Dy  Dy4  1  0.000000  0.942360  0.369158  1
  Dy  Dy5  1  0.000000  0.057336  0.630946  1
  Dy  Dy6  1  0.000000  0.442665  0.130790  1
  Dy  Dy7  1  0.000000  0.557580  0.869219  1
  Tc  Tc8  1  0.000000  0.638895  0.320434  1
  Tc  Tc9  1  0.000000  0.361326  0.679684  1
  Tc  Tc10  1  0.000000  0.138544  0.179313  1
  Tc  Tc11  1  0.000000  0.861313  0.820521  1
  B  B12  1  0.500000  0.553587  0.432813  1
  B  B13  1  0.500000  0.446802  0.567349  1
  B  B14  1  0.500000  0.053236  0.067061  1
  B  B15  1  0.500000  0.946666  0.932839  1
  B  B16  1  0.500000  0.748582  0.418456  1
  B  B17  1  0.500000  0.251395  0.581848  1
  B  B18  1  0.500000  0.248576  0.081432  1
  B  B19  1  0.500000  0.751488  0.918440  1
  B  B20  1  0.500000  0.791627  0.265219  1
  B  B21  1  0.500000  0.208337  0.734880  1
  B  B22  1  0.500000  0.291517  0.234533  1
  B  B23  1  0.500000  0.708404  0.765257  1
  B  B24  1  0.500000  0.630961  0.185594  1
  B  B25  1  0.500000  0.369158  0.814457  1
  B  B26  1  0.500000  0.130660  0.314209  1
  B  B27  1  0.500000  0.869101  0.685665  1
  B  B28  1  0.500000  0.982225  0.211533  1
  B  B29  1  0.500000  0.017605  0.788449  1
  B  B30  1  0.500000  0.482680  0.288258  1
  B  B31  1  0.500000  0.517758  0.711673  1
  B  B32  1  0.500000  0.600588  0.028087  1
  B  B33  1  0.500000  0.399492  0.971876  1
  B  B34  1  0.500000  0.100113  0.472003  1
  B  B35  1  0.500000  0.899515  0.528122  1
