# generated using pymatgen
data_Ca20Bi13Au3
_symmetry_space_group_name_H-M   'P 1'
_cell_length_a   7.87388100
_cell_length_b   8.81007766
_cell_length_c   16.21512800
_cell_angle_alpha   90.00000000
_cell_angle_beta   90.00000000
_cell_angle_gamma   88.58866362
_symmetry_Int_Tables_number   1
_chemical_formula_structural   Ca20Bi13Au3
_chemical_formula_sum   'Ca20 Bi13 Au3'
_cell_volume   1124.49413748
_cell_formula_units_Z   1
loop_
 _symmetry_equiv_pos_site_id
 _symmetry_equiv_pos_as_xyz
  1  'x, y, z'
loop_
 _atom_site_type_symbol
 _atom_site_label
 _atom_site_symmetry_multiplicity
 _atom_site_fract_x
 _atom_site_fract_y
 _atom_site_fract_z
 _atom_site_occupancy
  Ca  Ca0  1  0.018454  0.215546  0.410290  1
  Ca  Ca1  1  0.842081  0.637231  0.373747  1
  Ca  Ca2  1  0.520925  0.287099  0.091622  1
  Ca  Ca3  1  0.145189  0.355673  0.616481  1
  Ca  Ca4  1  0.347596  0.861098  0.376479  1
  Ca  Ca5  1  0.145189  0.355673  0.883519  1
  Ca  Ca6  1  0.347596  0.861098  0.123521  1
  Ca  Ca7  1  0.212328  0.503658  0.250000  1
  Ca  Ca8  1  0.520925  0.287099  0.408378  1
  Ca  Ca9  1  0.801809  0.500722  0.750000  1
  Ca  Ca10  1  0.986567  0.780837  0.925670  1
  Ca  Ca11  1  0.986567  0.780837  0.574330  1
  Ca  Ca12  1  0.482685  0.695447  0.593345  1
  Ca  Ca13  1  0.656127  0.142460  0.617676  1
  Ca  Ca14  1  0.277655  0.012077  0.750000  1
  Ca  Ca15  1  0.656127  0.142460  0.882324  1
  Ca  Ca16  1  0.708032  0.996466  0.250000  1
  Ca  Ca17  1  0.842081  0.637231  0.126253  1
  Ca  Ca18  1  0.482685  0.695447  0.906655  1
  Ca  Ca19  1  0.018454  0.215546  0.089710  1
  Bi  Bi20  1  0.795437  0.357865  0.250000  1
  Bi  Bi21  1  0.437891  0.373470  0.750000  1
  Bi  Bi22  1  0.720309  0.862754  0.750000  1
  Bi  Bi23  1  0.779006  0.451779  0.542831  1
  Bi  Bi24  1  0.730815  0.957222  0.052853  1
  Bi  Bi25  1  0.779006  0.451779  0.957169  1
  Bi  Bi26  1  0.236749  0.545613  0.447613  1
  Bi  Bi27  1  0.236749  0.545613  0.052387  1
  Bi  Bi28  1  0.172987  0.651831  0.750000  1
  Bi  Bi29  1  0.295279  0.139966  0.250000  1
  Bi  Bi30  1  0.274153  0.036035  0.949043  1
  Bi  Bi31  1  0.730815  0.957222  0.447147  1
  Bi  Bi32  1  0.274153  0.036035  0.550957  1
  Au  Au33  1  0.550697  0.661546  0.250000  1
  Au  Au34  1  0.052931  0.833894  0.250000  1
  Au  Au35  1  0.933952  0.173674  0.750000  1
