# generated using pymatgen
data_Sc2Mn3Ni3P7Ir6
_symmetry_space_group_name_H-M   'P 1'
_cell_length_a   9.35793500
_cell_length_b   9.35793524
_cell_length_c   3.78133500
_cell_angle_alpha   90.00000000
_cell_angle_beta   90.00000000
_cell_angle_gamma   119.99999563
_symmetry_Int_Tables_number   1
_chemical_formula_structural   Sc2Mn3Ni3P7Ir6
_chemical_formula_sum   'Sc2 Mn3 Ni3 P7 Ir6'
_cell_volume   286.77141876
_cell_formula_units_Z   1
loop_
 _symmetry_equiv_pos_site_id
 _symmetry_equiv_pos_as_xyz
  1  'x, y, z'
loop_
 _atom_site_type_symbol
 _atom_site_label
 _atom_site_symmetry_multiplicity
 _atom_site_fract_x
 _atom_site_fract_y
 _atom_site_fract_z
 _atom_site_occupancy
  Sc  Sc0  1  0.000000  0.000000  0.000000  1
  Sc  Sc1  1  0.666667  0.333333  0.500000  1
  Mn  Mn2  1  0.417400  0.539509  0.500000  1
  Mn  Mn3  1  0.122111  0.582600  0.500000  1
  Mn  Mn4  1  0.460491  0.877889  0.500000  1
  Ni  Ni5  1  0.603933  0.775495  0.000000  1
  Ni  Ni6  1  0.171562  0.396067  0.000000  1
  Ni  Ni7  1  0.224505  0.828438  0.000000  1
  P  P8  1  0.633003  0.552385  0.000000  1
  P  P9  1  0.919382  0.366997  0.000000  1
  P  P10  1  0.447615  0.080618  0.000000  1
  P  P11  1  0.736052  0.950806  0.500000  1
  P  P12  1  0.214754  0.263948  0.500000  1
  P  P13  1  0.049194  0.785246  0.500000  1
  P  P14  1  0.333333  0.666667  0.000000  1
  Ir  Ir15  1  0.401882  0.304955  0.000000  1
  Ir  Ir16  1  0.903072  0.598118  0.000000  1
  Ir  Ir17  1  0.695045  0.096928  0.000000  1
  Ir  Ir18  1  0.773915  0.724414  0.500000  1
  Ir  Ir19  1  0.950499  0.226085  0.500000  1
  Ir  Ir20  1  0.275586  0.049501  0.500000  1
