# generated using pymatgen
data_LiTb16In(AgIr2)2
_symmetry_space_group_name_H-M   'P 1'
_cell_length_a   9.66672393
_cell_length_b   9.66672394
_cell_length_c   9.62495306
_cell_angle_alpha   59.99446151
_cell_angle_beta   59.99446163
_cell_angle_gamma   60.17215473
_symmetry_Int_Tables_number   1
_chemical_formula_structural   LiTb16In(AgIr2)2
_chemical_formula_sum   'Li1 Tb16 In1 Ag2 Ir4'
_cell_volume   636.74809899
_cell_formula_units_Z   1
loop_
 _symmetry_equiv_pos_site_id
 _symmetry_equiv_pos_as_xyz
  1  'x, y, z'
loop_
 _atom_site_type_symbol
 _atom_site_label
 _atom_site_symmetry_multiplicity
 _atom_site_fract_x
 _atom_site_fract_y
 _atom_site_fract_z
 _atom_site_occupancy
  Li  Li0  1  0.315952  0.315952  0.321211  1
  Tb  Tb1  1  0.099655  0.703658  0.098851  1
  Tb  Tb2  1  0.939812  0.939812  0.560856  1
  Tb  Tb3  1  0.942924  0.560435  0.939002  1
  Tb  Tb4  1  0.314020  0.692659  0.308268  1
  Tb  Tb5  1  0.935520  0.561977  0.563685  1
  Tb  Tb6  1  0.314032  0.314032  0.686767  1
  Tb  Tb7  1  0.100268  0.100268  0.101970  1
  Tb  Tb8  1  0.559667  0.559667  0.937612  1
  Tb  Tb9  1  0.099399  0.099399  0.705357  1
  Tb  Tb10  1  0.689638  0.314007  0.682153  1
  Tb  Tb11  1  0.689705  0.689705  0.310537  1
  Tb  Tb12  1  0.692659  0.314020  0.308268  1
  Tb  Tb13  1  0.314007  0.689638  0.682153  1
  Tb  Tb14  1  0.561977  0.935520  0.563685  1
  Tb  Tb15  1  0.703658  0.099655  0.098851  1
  Tb  Tb16  1  0.560435  0.942924  0.939002  1
  In  In17  1  0.331061  0.331061  0.007298  1
  Ag  Ag18  1  0.997992  0.335285  0.335036  1
  Ag  Ag19  1  0.335285  0.997992  0.335036  1
  Ir  Ir20  1  0.892005  0.892005  0.892943  1
  Ir  Ir21  1  0.892346  0.892346  0.327507  1
  Ir  Ir22  1  0.325694  0.892282  0.896975  1
  Ir  Ir23  1  0.892282  0.325694  0.896975  1
