# generated using pymatgen
data_CsNp2Cl7
_symmetry_space_group_name_H-M   'P 1'
_cell_length_a   7.14967503
_cell_length_b   9.69846103
_cell_length_c   7.48811941
_cell_angle_alpha   76.39343596
_cell_angle_beta   118.35025034
_cell_angle_gamma   129.09173887
_symmetry_Int_Tables_number   1
_chemical_formula_structural   CsNp2Cl7
_chemical_formula_sum   'Cs1 Np2 Cl7'
_cell_volume   353.09204594
_cell_formula_units_Z   1
loop_
 _symmetry_equiv_pos_site_id
 _symmetry_equiv_pos_as_xyz
  1  'x, y, z'
loop_
 _atom_site_type_symbol
 _atom_site_label
 _atom_site_symmetry_multiplicity
 _atom_site_fract_x
 _atom_site_fract_y
 _atom_site_fract_z
 _atom_site_occupancy
  Cs  Cs0  1  0.986804  0.288760  0.257715  1
  Np  Np1  1  0.286839  0.827807  0.553332  1
  Np  Np2  1  0.983356  0.826803  0.944958  1
  Cl  Cl3  1  0.802785  0.594397  0.222677  1
  Cl  Cl4  1  0.245913  0.069624  0.275133  1
  Cl  Cl5  1  0.417593  0.825449  0.248418  1
  Cl  Cl6  1  0.334125  0.061050  0.770984  1
  Cl  Cl7  1  0.834605  0.058100  0.776441  1
  Cl  Cl8  1  0.936792  0.599274  0.735613  1
  Cl  Cl9  1  0.421188  0.598736  0.714728  1
