# generated using pymatgen
data_Sr2Pr2As7Ir8
_symmetry_space_group_name_H-M   'P 1'
_cell_length_a   4.13995400
_cell_length_b   13.37819100
_cell_length_c   13.78439467
_cell_angle_alpha   81.13577221
_cell_angle_beta   90.00000000
_cell_angle_gamma   90.00000000
_symmetry_Int_Tables_number   1
_chemical_formula_structural   Sr2Pr2As7Ir8
_chemical_formula_sum   'Sr4 Pr4 As14 Ir16'
_cell_volume   754.33156895
_cell_formula_units_Z   2
loop_
 _symmetry_equiv_pos_site_id
 _symmetry_equiv_pos_as_xyz
  1  'x, y, z'
loop_
 _atom_site_type_symbol
 _atom_site_label
 _atom_site_symmetry_multiplicity
 _atom_site_fract_x
 _atom_site_fract_y
 _atom_site_fract_z
 _atom_site_occupancy
  Sr  Sr0  1  0.250000  0.104126  0.791380  1
  Sr  Sr1  1  0.750000  0.895874  0.208620  1
  Sr  Sr2  1  0.250000  0.286035  0.104819  1
  Sr  Sr3  1  0.750000  0.713965  0.895181  1
  Pr  Pr4  1  0.250000  0.519864  0.293528  1
  Pr  Pr5  1  0.750000  0.480136  0.706472  1
  Pr  Pr6  1  0.250000  0.210523  0.437519  1
  Pr  Pr7  1  0.750000  0.789477  0.562481  1
  As  As8  1  0.250000  0.057368  0.100338  1
  As  As9  1  0.750000  0.942632  0.899662  1
  As  As10  1  0.250000  0.313606  0.686662  1
  As  As11  1  0.750000  0.686394  0.313338  1
  As  As12  1  0.250000  0.606702  0.564560  1
  As  As13  1  0.750000  0.393298  0.435440  1
  As  As14  1  0.250000  0.845963  0.720863  1
  As  As15  1  0.750000  0.154037  0.279137  1
  As  As16  1  0.750000  0.257180  0.917719  1
  As  As17  1  0.250000  0.742820  0.082281  1
  As  As18  1  0.750000  0.094450  0.586177  1
  As  As19  1  0.250000  0.905550  0.413823  1
  As  As20  1  0.750000  0.470625  0.128341  1
  As  As21  1  0.250000  0.529375  0.871659  1
  Ir  Ir22  1  0.250000  0.986079  0.574223  1
  Ir  Ir23  1  0.750000  0.013921  0.425777  1
  Ir  Ir24  1  0.250000  0.663735  0.727783  1
  Ir  Ir25  1  0.750000  0.336265  0.272217  1
  Ir  Ir26  1  0.250000  0.551242  0.049704  1
  Ir  Ir27  1  0.750000  0.448758  0.950296  1
  Ir  Ir28  1  0.250000  0.058611  0.278776  1
  Ir  Ir29  1  0.750000  0.941389  0.721224  1
  Ir  Ir30  1  0.250000  0.425260  0.525129  1
  Ir  Ir31  1  0.750000  0.574740  0.474871  1
  Ir  Ir32  1  0.250000  0.920442  0.998649  1
  Ir  Ir33  1  0.750000  0.079558  0.001351  1
  Ir  Ir34  1  0.250000  0.722571  0.401936  1
  Ir  Ir35  1  0.750000  0.277429  0.598064  1
  Ir  Ir36  1  0.250000  0.346015  0.859743  1
  Ir  Ir37  1  0.750000  0.653985  0.140257  1
