# generated using pymatgen
data_Pr6DyLuO12
_symmetry_space_group_name_H-M   'P 1'
_cell_length_a   6.98966454
_cell_length_b   6.98966447
_cell_length_c   6.98966469
_cell_angle_alpha   92.24305258
_cell_angle_beta   92.24305302
_cell_angle_gamma   92.24303314
_symmetry_Int_Tables_number   1
_chemical_formula_structural   Pr6DyLuO12
_chemical_formula_sum   'Pr6 Dy1 Lu1 O12'
_cell_volume   340.67687024
_cell_formula_units_Z   1
loop_
 _symmetry_equiv_pos_site_id
 _symmetry_equiv_pos_as_xyz
  1  'x, y, z'
loop_
 _atom_site_type_symbol
 _atom_site_label
 _atom_site_symmetry_multiplicity
 _atom_site_fract_x
 _atom_site_fract_y
 _atom_site_fract_z
 _atom_site_occupancy
  Pr  Pr0  1  0.558810  0.066314  0.254954  1
  Pr  Pr1  1  0.066314  0.254954  0.558810  1
  Pr  Pr2  1  0.745046  0.441190  0.933686  1
  Pr  Pr3  1  0.254954  0.558810  0.066314  1
  Pr  Pr4  1  0.933686  0.745046  0.441190  1
  Pr  Pr5  1  0.441190  0.933686  0.745046  1
  Dy  Dy6  1  0.000000  0.000000  0.000000  1
  Lu  Lu7  1  0.500000  0.500000  0.500000  1
  O  O8  1  0.691142  0.088440  0.934646  1
  O  O9  1  0.911560  0.065354  0.308858  1
  O  O10  1  0.407236  0.196416  0.535768  1
  O  O11  1  0.065354  0.308858  0.911560  1
  O  O12  1  0.535768  0.407236  0.196416  1
  O  O13  1  0.803584  0.464232  0.592764  1
  O  O14  1  0.196416  0.535768  0.407236  1
  O  O15  1  0.464232  0.592764  0.803584  1
  O  O16  1  0.934646  0.691142  0.088440  1
  O  O17  1  0.592764  0.803584  0.464232  1
  O  O18  1  0.088440  0.934646  0.691142  1
  O  O19  1  0.308858  0.911560  0.065354  1
