# generated using pymatgen
data_Tb12Pr8Si15S
_symmetry_space_group_name_H-M   'P 1'
_cell_length_a   7.59408365
_cell_length_b   7.74755057
_cell_length_c   14.79056400
_cell_angle_alpha   89.76811845
_cell_angle_beta   86.33669624
_cell_angle_gamma   89.94290304
_symmetry_Int_Tables_number   1
_chemical_formula_structural   Tb12Pr8Si15S
_chemical_formula_sum   'Tb12 Pr8 Si15 S1'
_cell_volume   868.42551230
_cell_formula_units_Z   1
loop_
 _symmetry_equiv_pos_site_id
 _symmetry_equiv_pos_as_xyz
  1  'x, y, z'
loop_
 _atom_site_type_symbol
 _atom_site_label
 _atom_site_symmetry_multiplicity
 _atom_site_fract_x
 _atom_site_fract_y
 _atom_site_fract_z
 _atom_site_occupancy
  Tb  Tb0  1  0.170434  0.507092  0.749255  1
  Tb  Tb1  1  0.829670  0.493668  0.255021  1
  Tb  Tb2  1  0.327429  0.004610  0.254223  1
  Tb  Tb3  1  0.672223  0.994643  0.746027  1
  Tb  Tb4  1  0.357727  0.168907  0.618779  1
  Tb  Tb5  1  0.642052  0.833837  0.380641  1
  Tb  Tb6  1  0.144263  0.659820  0.385784  1
  Tb  Tb7  1  0.672723  0.821037  0.122506  1
  Tb  Tb8  1  0.859856  0.335311  0.615839  1
  Tb  Tb9  1  0.326974  0.179553  0.876414  1
  Tb  Tb10  1  0.827075  0.322435  0.876535  1
  Tb  Tb11  1  0.172312  0.678622  0.122339  1
  Pr  Pr12  1  0.022134  0.181868  0.099977  1
  Pr  Pr13  1  0.978525  0.820543  0.899117  1
  Pr  Pr14  1  0.478582  0.681777  0.899675  1
  Pr  Pr15  1  0.003080  0.819145  0.599158  1
  Pr  Pr16  1  0.522149  0.319165  0.100272  1
  Pr  Pr17  1  0.993344  0.174687  0.398352  1
  Pr  Pr18  1  0.497358  0.314396  0.400127  1
  Pr  Pr19  1  0.503301  0.682650  0.598929  1
  Si  Si20  1  0.048169  0.114395  0.748749  1
  Si  Si21  1  0.952686  0.885536  0.249254  1
  Si  Si22  1  0.450919  0.611734  0.249942  1
  Si  Si23  1  0.548404  0.388371  0.748406  1
  Si  Si24  1  0.286581  0.879799  0.750358  1
  Si  Si25  1  0.714836  0.120547  0.248297  1
  Si  Si26  1  0.215028  0.379630  0.248959  1
  Si  Si27  1  0.785792  0.621264  0.750074  1
  Si  Si28  1  0.794012  0.535453  0.455540  1
  Si  Si29  1  0.297586  0.961757  0.457849  1
  Si  Si30  1  0.856260  0.531383  0.040141  1
  Si  Si31  1  0.698252  0.037046  0.544818  1
  Si  Si32  1  0.142595  0.470955  0.958048  1
  Si  Si33  1  0.642361  0.031843  0.958854  1
  Si  Si34  1  0.356528  0.970002  0.040722  1
  S  S35  1  0.208783  0.466523  0.551020  1
