# generated using pymatgen
data_Ba2Si2Te5
_symmetry_space_group_name_H-M   'P 1'
_cell_length_a   9.21169300
_cell_length_b   10.03023600
_cell_length_c   13.59520800
_cell_angle_alpha   90.00000000
_cell_angle_beta   90.00000000
_cell_angle_gamma   90.00000000
_symmetry_Int_Tables_number   1
_chemical_formula_structural   Ba2Si2Te5
_chemical_formula_sum   'Ba8 Si8 Te20'
_cell_volume   1256.13542557
_cell_formula_units_Z   4
loop_
 _symmetry_equiv_pos_site_id
 _symmetry_equiv_pos_as_xyz
  1  'x, y, z'
loop_
 _atom_site_type_symbol
 _atom_site_label
 _atom_site_symmetry_multiplicity
 _atom_site_fract_x
 _atom_site_fract_y
 _atom_site_fract_z
 _atom_site_occupancy
  Ba  Ba0  1  0.604665  0.918916  0.334542  1
  Ba  Ba1  1  0.395335  0.418916  0.665458  1
  Ba  Ba2  1  0.895335  0.918916  0.834542  1
  Ba  Ba3  1  0.104665  0.418916  0.165458  1
  Ba  Ba4  1  0.560395  0.437651  0.319601  1
  Ba  Ba5  1  0.439605  0.937651  0.680399  1
  Ba  Ba6  1  0.939605  0.437651  0.819601  1
  Ba  Ba7  1  0.060395  0.937651  0.180399  1
  Si  Si8  1  0.174331  0.726974  0.522746  1
  Si  Si9  1  0.825669  0.226974  0.477254  1
  Si  Si10  1  0.325669  0.726974  0.022746  1
  Si  Si11  1  0.674331  0.226974  0.977254  1
  Si  Si12  1  0.026816  0.566037  0.439149  1
  Si  Si13  1  0.973184  0.066037  0.560851  1
  Si  Si14  1  0.473184  0.566037  0.939149  1
  Si  Si15  1  0.526816  0.066037  0.060851  1
  Te  Te16  1  0.197519  0.371608  0.417910  1
  Te  Te17  1  0.802481  0.871608  0.582090  1
  Te  Te18  1  0.302481  0.371608  0.917910  1
  Te  Te19  1  0.697519  0.871608  0.082090  1
  Te  Te20  1  0.173414  0.966215  0.450858  1
  Te  Te21  1  0.826586  0.466215  0.549142  1
  Te  Te22  1  0.326586  0.966215  0.950858  1
  Te  Te23  1  0.673414  0.466215  0.049142  1
  Te  Te24  1  0.884459  0.655755  0.292522  1
  Te  Te25  1  0.115541  0.155755  0.707478  1
  Te  Te26  1  0.615541  0.655755  0.792522  1
  Te  Te27  1  0.384459  0.155755  0.207478  1
  Te  Te28  1  0.154727  0.700221  0.708854  1
  Te  Te29  1  0.845273  0.200221  0.291146  1
  Te  Te30  1  0.345273  0.700221  0.208854  1
  Te  Te31  1  0.654727  0.200221  0.791146  1
  Te  Te32  1  0.446065  0.684123  0.495026  1
  Te  Te33  1  0.553935  0.184123  0.504974  1
  Te  Te34  1  0.053935  0.684123  0.995026  1
  Te  Te35  1  0.946065  0.184123  0.004974  1
