# generated using pymatgen
data_Y3Mg3SiHg2
_symmetry_space_group_name_H-M   'P 1'
_cell_length_a   7.48584700
_cell_length_b   7.48584617
_cell_length_c   4.34203300
_cell_angle_alpha   90.00000000
_cell_angle_beta   90.00000000
_cell_angle_gamma   119.99999925
_symmetry_Int_Tables_number   1
_chemical_formula_structural   Y3Mg3SiHg2
_chemical_formula_sum   'Y3 Mg3 Si1 Hg2'
_cell_volume   210.71992333
_cell_formula_units_Z   1
loop_
 _symmetry_equiv_pos_site_id
 _symmetry_equiv_pos_as_xyz
  1  'x, y, z'
loop_
 _atom_site_type_symbol
 _atom_site_label
 _atom_site_symmetry_multiplicity
 _atom_site_fract_x
 _atom_site_fract_y
 _atom_site_fract_z
 _atom_site_occupancy
  Y  Y0  1  0.581043  0.009892  0.000000  1
  Y  Y1  1  0.990108  0.571149  0.000000  1
  Y  Y2  1  0.428851  0.418957  0.000000  1
  Mg  Mg3  1  0.250058  0.002131  0.500000  1
  Mg  Mg4  1  0.997869  0.247927  0.500000  1
  Mg  Mg5  1  0.752073  0.749942  0.500000  1
  Si  Si6  1  0.666667  0.333333  0.500000  1
  Hg  Hg7  1  0.333333  0.666667  0.500000  1
  Hg  Hg8  1  0.000000  0.000000  0.000000  1
