# generated using pymatgen
data_PrTh(Ga4Co)2
_symmetry_space_group_name_H-M   'P 1'
_cell_length_a   8.19364190
_cell_length_b   8.19364242
_cell_length_c   6.56309500
_cell_angle_alpha   90.00000000
_cell_angle_beta   90.00000000
_cell_angle_gamma   150.24186131
_symmetry_Int_Tables_number   1
_chemical_formula_structural   PrTh(Ga4Co)2
_chemical_formula_sum   'Pr1 Th1 Ga8 Co2'
_cell_volume   218.69648291
_cell_formula_units_Z   1
loop_
 _symmetry_equiv_pos_site_id
 _symmetry_equiv_pos_as_xyz
  1  'x, y, z'
loop_
 _atom_site_type_symbol
 _atom_site_label
 _atom_site_symmetry_multiplicity
 _atom_site_fract_x
 _atom_site_fract_y
 _atom_site_fract_z
 _atom_site_occupancy
  Pr  Pr0  1  0.385394  0.614606  0.750000  1
  Th  Th1  1  0.617501  0.382499  0.250000  1
  Ga  Ga2  1  0.999835  0.000165  0.005044  1
  Ga  Ga3  1  0.999835  0.000165  0.494956  1
  Ga  Ga4  1  0.810206  0.189794  0.052200  1
  Ga  Ga5  1  0.191136  0.808864  0.944067  1
  Ga  Ga6  1  0.191136  0.808864  0.555933  1
  Ga  Ga7  1  0.810206  0.189794  0.447800  1
  Ga  Ga8  1  0.422163  0.577837  0.250000  1
  Ga  Ga9  1  0.576378  0.423622  0.750000  1
  Co  Co10  1  0.722721  0.277279  0.750000  1
  Co  Co11  1  0.273490  0.726510  0.250000  1
