# generated using pymatgen
data_RbLi(NbCl3)3
_symmetry_space_group_name_H-M   'P 1'
_cell_length_a   9.48712552
_cell_length_b   9.56933713
_cell_length_c   9.56148284
_cell_angle_alpha   119.50482686
_cell_angle_beta   96.91831077
_cell_angle_gamma   105.17006962
_symmetry_Int_Tables_number   1
_chemical_formula_structural   RbLi(NbCl3)3
_chemical_formula_sum   'Rb2 Li2 Nb6 Cl18'
_cell_volume   696.28307879
_cell_formula_units_Z   2
loop_
 _symmetry_equiv_pos_site_id
 _symmetry_equiv_pos_as_xyz
  1  'x, y, z'
loop_
 _atom_site_type_symbol
 _atom_site_label
 _atom_site_symmetry_multiplicity
 _atom_site_fract_x
 _atom_site_fract_y
 _atom_site_fract_z
 _atom_site_occupancy
  Rb  Rb0  1  0.667965  0.519800  0.733869  1
  Rb  Rb1  1  0.332045  0.480187  0.266135  1
  Li  Li2  1  0.378682  0.813478  0.953262  1
  Li  Li3  1  0.621322  0.186526  0.046754  1
  Nb  Nb4  1  0.129859  0.896183  0.344412  1
  Nb  Nb5  1  0.870122  0.103835  0.655609  1
  Nb  Nb6  1  0.143410  0.019519  0.697315  1
  Nb  Nb7  1  0.856577  0.980492  0.302694  1
  Nb  Nb8  1  0.138276  0.246826  0.574846  1
  Nb  Nb9  1  0.861716  0.753188  0.425165  1
  Cl  Cl10  1  0.335041  0.052894  0.954530  1
  Cl  Cl11  1  0.664969  0.947089  0.045453  1
  Cl  Cl12  1  0.322650  0.560650  0.671787  1
  Cl  Cl13  1  0.677382  0.439340  0.328189  1
  Cl  Cl14  1  0.990115  0.587733  0.231444  1
  Cl  Cl15  1  0.009869  0.412284  0.768567  1
  Cl  Cl16  1  0.994770  0.267513  0.354992  1
  Cl  Cl17  1  0.005272  0.732464  0.644960  1
  Cl  Cl18  1  0.668705  0.683923  0.176686  1
  Cl  Cl19  1  0.331334  0.316047  0.823262  1
  Cl  Cl20  1  0.293621  0.762393  0.152206  1
  Cl  Cl21  1  0.706354  0.237635  0.847817  1
  Cl  Cl22  1  0.320945  0.902965  0.550741  1
  Cl  Cl23  1  0.679027  0.097029  0.449272  1
  Cl  Cl24  1  0.015696  0.143629  0.915493  1
  Cl  Cl25  1  0.984277  0.856363  0.084514  1
  Cl  Cl26  1  0.316334  0.170272  0.404379  1
  Cl  Cl27  1  0.683663  0.829740  0.595650  1
