# generated using pymatgen
data_Nd6ZnGa7Cl2
_symmetry_space_group_name_H-M   'P 1'
_cell_length_a   7.98604406
_cell_length_b   7.99471035
_cell_length_c   7.99153833
_cell_angle_alpha   119.21515654
_cell_angle_beta   119.17870402
_cell_angle_gamma   91.38856312
_symmetry_Int_Tables_number   1
_chemical_formula_structural   Nd6ZnGa7Cl2
_chemical_formula_sum   'Nd6 Zn1 Ga7 Cl2'
_cell_volume   365.07455109
_cell_formula_units_Z   1
loop_
 _symmetry_equiv_pos_site_id
 _symmetry_equiv_pos_as_xyz
  1  'x, y, z'
loop_
 _atom_site_type_symbol
 _atom_site_label
 _atom_site_symmetry_multiplicity
 _atom_site_fract_x
 _atom_site_fract_y
 _atom_site_fract_z
 _atom_site_occupancy
  Nd  Nd0  1  0.840268  0.660536  0.500000  1
  Nd  Nd1  1  0.660321  0.159652  0.819913  1
  Nd  Nd2  1  0.340407  0.839739  0.180087  1
  Nd  Nd3  1  0.159640  0.340657  0.500000  1
  Nd  Nd4  1  0.248906  0.249986  0.999135  1
  Nd  Nd5  1  0.749771  0.750851  0.000865  1
  Zn  Zn6  1  0.158886  0.945763  0.500000  1
  Ga  Ga7  1  0.446392  0.660110  0.500000  1
  Ga  Ga8  1  0.552233  0.339661  0.500000  1
  Ga  Ga9  1  0.659491  0.158651  0.212000  1
  Ga  Ga10  1  0.844271  0.051515  0.500000  1
  Ga  Ga11  1  0.052415  0.555013  0.212873  1
  Ga  Ga12  1  0.339541  0.842139  0.787127  1
  Ga  Ga13  1  0.947490  0.446650  0.788000  1
  Cl  Cl14  1  0.000281  0.999836  0.000595  1
  Cl  Cl15  1  0.499686  0.499241  0.999405  1
