# generated using pymatgen
data_Nb12B12Os7Ru5
_symmetry_space_group_name_H-M   'P 1'
_cell_length_a   3.12157900
_cell_length_b   9.07863002
_cell_length_c   15.86520704
_cell_angle_alpha   89.99198184
_cell_angle_beta   90.00000000
_cell_angle_gamma   90.00000000
_symmetry_Int_Tables_number   1
_chemical_formula_structural   Nb12B12Os7Ru5
_chemical_formula_sum   'Nb12 B12 Os7 Ru5'
_cell_volume   449.61458202
_cell_formula_units_Z   1
loop_
 _symmetry_equiv_pos_site_id
 _symmetry_equiv_pos_as_xyz
  1  'x, y, z'
loop_
 _atom_site_type_symbol
 _atom_site_label
 _atom_site_symmetry_multiplicity
 _atom_site_fract_x
 _atom_site_fract_y
 _atom_site_fract_z
 _atom_site_occupancy
  Nb  Nb0  1  0.000000  0.799506  0.495202  1
  Nb  Nb1  1  0.000000  0.200574  0.504550  1
  Nb  Nb2  1  0.000000  0.299644  0.004603  1
  Nb  Nb3  1  0.000000  0.699784  0.995977  1
  Nb  Nb4  1  0.000000  0.514435  0.594446  1
  Nb  Nb5  1  0.000000  0.485459  0.405385  1
  Nb  Nb6  1  0.000000  0.014163  0.905646  1
  Nb  Nb7  1  0.000000  0.986121  0.094569  1
  Nb  Nb8  1  0.000000  0.686987  0.202075  1
  Nb  Nb9  1  0.000000  0.312400  0.797600  1
  Nb  Nb10  1  0.000000  0.187610  0.297365  1
  Nb  Nb11  1  0.000000  0.812335  0.702558  1
  B  B12  1  0.500000  0.603591  0.497834  1
  B  B13  1  0.500000  0.396322  0.501926  1
  B  B14  1  0.500000  0.103934  0.002197  1
  B  B15  1  0.500000  0.895960  0.998250  1
  B  B16  1  0.000000  0.608344  0.832760  1
  B  B17  1  0.000000  0.391616  0.167791  1
  B  B18  1  0.000000  0.108585  0.667453  1
  B  B19  1  0.000000  0.891138  0.332328  1
  B  B20  1  0.500000  0.714817  0.597981  1
  B  B21  1  0.500000  0.284853  0.401788  1
  B  B22  1  0.500000  0.214996  0.901951  1
  B  B23  1  0.500000  0.786330  0.098489  1
  Os  Os24  1  0.500000  0.484537  0.905891  1
  Os  Os25  1  0.500000  0.015352  0.405843  1
  Os  Os26  1  0.500000  0.984464  0.594178  1
  Os  Os27  1  0.500000  0.561475  0.735174  1
  Os  Os28  1  0.500000  0.439251  0.264348  1
  Os  Os29  1  0.500000  0.061261  0.764917  1
  Os  Os30  1  0.500000  0.938883  0.234990  1
  Ru  Ru31  1  0.500000  0.720206  0.355172  1
  Ru  Ru32  1  0.500000  0.279639  0.644575  1
  Ru  Ru33  1  0.500000  0.221049  0.144171  1
  Ru  Ru34  1  0.500000  0.779582  0.855916  1
  Ru  Ru35  1  0.500000  0.514797  0.094099  1
