# generated using pymatgen
data_Dy5Y8Tm7Sn16
_symmetry_space_group_name_H-M   'P 1'
_cell_length_a   8.00156544
_cell_length_b   8.13544847
_cell_length_c   15.40154018
_cell_angle_alpha   89.98655385
_cell_angle_beta   89.98876686
_cell_angle_gamma   89.96361295
_symmetry_Int_Tables_number   1
_chemical_formula_structural   Dy5Y8Tm7Sn16
_chemical_formula_sum   'Dy5 Y8 Tm7 Sn16'
_cell_volume   1002.58338985
_cell_formula_units_Z   1
loop_
 _symmetry_equiv_pos_site_id
 _symmetry_equiv_pos_as_xyz
  1  'x, y, z'
loop_
 _atom_site_type_symbol
 _atom_site_label
 _atom_site_symmetry_multiplicity
 _atom_site_fract_x
 _atom_site_fract_y
 _atom_site_fract_z
 _atom_site_occupancy
  Dy  Dy0  1  0.367444  0.837114  0.877571  1
  Dy  Dy1  1  0.867395  0.662965  0.622517  1
  Dy  Dy2  1  0.632629  0.162967  0.377530  1
  Dy  Dy3  1  0.132812  0.336946  0.122785  1
  Dy  Dy4  1  0.633158  0.162987  0.122339  1
  Y  Y5  1  0.521239  0.321659  0.902557  1
  Y  Y6  1  0.021319  0.178599  0.596942  1
  Y  Y7  1  0.478640  0.678546  0.403157  1
  Y  Y8  1  0.978936  0.821183  0.096922  1
  Y  Y9  1  0.478547  0.678725  0.097311  1
  Y  Y10  1  0.978700  0.820942  0.402855  1
  Y  Y11  1  0.521473  0.321095  0.597224  1
  Y  Y12  1  0.021103  0.178845  0.902867  1
  Tm  Tm13  1  0.133168  0.337478  0.377471  1
  Tm  Tm14  1  0.366566  0.837369  0.622632  1
  Tm  Tm15  1  0.866751  0.662534  0.876892  1
  Tm  Tm16  1  0.198545  0.503650  0.749715  1
  Tm  Tm17  1  0.698515  0.996287  0.750116  1
  Tm  Tm18  1  0.801859  0.496769  0.250068  1
  Tm  Tm19  1  0.301327  0.003319  0.250515  1
  Sn  Sn20  1  0.293661  0.036561  0.042208  1
  Sn  Sn21  1  0.794995  0.463113  0.457701  1
  Sn  Sn22  1  0.704940  0.963085  0.542300  1
  Sn  Sn23  1  0.204800  0.536942  0.957728  1
  Sn  Sn24  1  0.707214  0.962198  0.957714  1
  Sn  Sn25  1  0.207004  0.537090  0.541605  1
  Sn  Sn26  1  0.293043  0.036997  0.458437  1
  Sn  Sn27  1  0.793936  0.464262  0.041340  1
  Sn  Sn28  1  0.564241  0.619972  0.749920  1
  Sn  Sn29  1  0.064347  0.880054  0.749943  1
  Sn  Sn30  1  0.435247  0.380522  0.250409  1
  Sn  Sn31  1  0.936302  0.119985  0.250407  1
  Sn  Sn32  1  0.330944  0.148222  0.749733  1
  Sn  Sn33  1  0.830924  0.351605  0.750222  1
  Sn  Sn34  1  0.669173  0.851215  0.250055  1
  Sn  Sn35  1  0.169105  0.648195  0.250292  1
