# generated using pymatgen
data_Dy3HoRu4F28
_symmetry_space_group_name_H-M   'P 1'
_cell_length_a   5.56020440
_cell_length_b   8.87027056
_cell_length_c   11.94517945
_cell_angle_alpha   63.66779193
_cell_angle_beta   89.98908358
_cell_angle_gamma   89.81604599
_symmetry_Int_Tables_number   1
_chemical_formula_structural   Dy3HoRu4F28
_chemical_formula_sum   'Dy3 Ho1 Ru4 F28'
_cell_volume   528.00815390
_cell_formula_units_Z   1
loop_
 _symmetry_equiv_pos_site_id
 _symmetry_equiv_pos_as_xyz
  1  'x, y, z'
loop_
 _atom_site_type_symbol
 _atom_site_label
 _atom_site_symmetry_multiplicity
 _atom_site_fract_x
 _atom_site_fract_y
 _atom_site_fract_z
 _atom_site_occupancy
  Dy  Dy0  1  0.759061  0.810006  0.769114  1
  Dy  Dy1  1  0.258437  0.189603  0.730947  1
  Dy  Dy2  1  0.241101  0.188890  0.231145  1
  Ho  Ho3  1  0.741473  0.810139  0.269178  1
  Ru  Ru4  1  0.755222  0.272053  0.955834  1
  Ru  Ru5  1  0.255434  0.727846  0.543847  1
  Ru  Ru6  1  0.244399  0.727803  0.044915  1
  Ru  Ru7  1  0.744605  0.272719  0.455416  1
  F  F8  1  0.447962  0.705425  0.918561  1
  F  F9  1  0.947577  0.294962  0.581861  1
  F  F10  1  0.552164  0.294787  0.082208  1
  F  F11  1  0.051562  0.705352  0.417658  1
  F  F12  1  0.450330  0.280229  0.545992  1
  F  F13  1  0.950439  0.720309  0.954081  1
  F  F14  1  0.549846  0.720590  0.452964  1
  F  F15  1  0.049701  0.279394  0.046445  1
  F  F16  1  0.769595  0.511610  0.860721  1
  F  F17  1  0.270131  0.488378  0.639217  1
  F  F18  1  0.230036  0.488355  0.140025  1
  F  F19  1  0.730157  0.512471  0.360192  1
  F  F20  1  0.754029  0.034144  0.047896  1
  F  F21  1  0.253573  0.965940  0.451708  1
  F  F22  1  0.246026  0.965796  0.952312  1
  F  F23  1  0.746578  0.034664  0.547696  1
  F  F24  1  0.968897  0.729538  0.640294  1
  F  F25  1  0.468593  0.270712  0.859429  1
  F  F26  1  0.031246  0.270343  0.359313  1
  F  F27  1  0.530966  0.729781  0.141379  1
  F  F28  1  0.042841  0.750154  0.173137  1
  F  F29  1  0.544537  0.250492  0.326983  1
  F  F30  1  0.955383  0.250098  0.827129  1
  F  F31  1  0.455909  0.749800  0.672432  1
  F  F32  1  0.424689  0.972049  0.232944  1
  F  F33  1  0.922856  0.025895  0.267037  1
  F  F34  1  0.577283  0.027328  0.767253  1
  F  F35  1  0.077362  0.972347  0.732738  1
