# generated using pymatgen
data_Ti3Tc3GeBAs
_symmetry_space_group_name_H-M   'P 1'
_cell_length_a   6.73228600
_cell_length_b   6.73228539
_cell_length_c   3.19487200
_cell_angle_alpha   90.00000000
_cell_angle_beta   90.00000000
_cell_angle_gamma   120.00000299
_symmetry_Int_Tables_number   1
_chemical_formula_structural   Ti3Tc3GeBAs
_chemical_formula_sum   'Ti3 Tc3 Ge1 B1 As1'
_cell_volume   125.40335548
_cell_formula_units_Z   1
loop_
 _symmetry_equiv_pos_site_id
 _symmetry_equiv_pos_as_xyz
  1  'x, y, z'
loop_
 _atom_site_type_symbol
 _atom_site_label
 _atom_site_symmetry_multiplicity
 _atom_site_fract_x
 _atom_site_fract_y
 _atom_site_fract_z
 _atom_site_occupancy
  Ti  Ti0  1  0.001068  0.382961  0.500000  1
  Ti  Ti1  1  0.617039  0.618107  0.500000  1
  Ti  Ti2  1  0.381893  0.998932  0.500000  1
  Tc  Tc3  1  0.001243  0.759397  0.000000  1
  Tc  Tc4  1  0.240603  0.241847  0.000000  1
  Tc  Tc5  1  0.758153  0.998757  0.000000  1
  Ge  Ge6  1  0.666667  0.333333  0.000000  1
  B  B7  1  0.000000  0.000000  0.500000  1
  As  As8  1  0.333333  0.666667  0.000000  1
