# generated using pymatgen
data_YTm7(SiI6)2
_symmetry_space_group_name_H-M   'P 1'
_cell_length_a   4.18175100
_cell_length_b   13.82494006
_cell_length_c   14.60077344
_cell_angle_alpha   90.10745338
_cell_angle_beta   90.00000000
_cell_angle_gamma   90.00000000
_symmetry_Int_Tables_number   1
_chemical_formula_structural   YTm7(SiI6)2
_chemical_formula_sum   'Y1 Tm7 Si2 I12'
_cell_volume   844.10510098
_cell_formula_units_Z   1
loop_
 _symmetry_equiv_pos_site_id
 _symmetry_equiv_pos_as_xyz
  1  'x, y, z'
loop_
 _atom_site_type_symbol
 _atom_site_label
 _atom_site_symmetry_multiplicity
 _atom_site_fract_x
 _atom_site_fract_y
 _atom_site_fract_z
 _atom_site_occupancy
  Y  Y0  1  0.500000  0.114628  0.347443  1
  Tm  Tm1  1  0.500000  0.885596  0.652441  1
  Tm  Tm2  1  0.500000  0.613951  0.151747  1
  Tm  Tm3  1  0.500000  0.386153  0.848166  1
  Tm  Tm4  1  0.000000  0.109374  0.573524  1
  Tm  Tm5  1  0.000000  0.890981  0.426041  1
  Tm  Tm6  1  0.000000  0.608883  0.926418  1
  Tm  Tm7  1  0.000000  0.391371  0.073161  1
  Si  Si8  1  0.500000  0.999197  0.501121  1
  Si  Si9  1  0.500000  0.500211  0.999854  1
  I  I10  1  0.500000  0.249931  0.162042  1
  I  I11  1  0.500000  0.750933  0.836654  1
  I  I12  1  0.500000  0.748386  0.336650  1
  I  I13  1  0.500000  0.251000  0.664129  1
  I  I14  1  0.000000  0.261209  0.417770  1
  I  I15  1  0.000000  0.741597  0.584826  1
  I  I16  1  0.000000  0.758087  0.084782  1
  I  I17  1  0.000000  0.241827  0.914871  1
  I  I18  1  0.000000  0.997142  0.238835  1
  I  I19  1  0.000000  0.999496  0.759790  1
  I  I20  1  0.000000  0.500676  0.259418  1
  I  I21  1  0.000000  0.499369  0.740318  1
