# generated using pymatgen
data_Y5Ge6P6IrRh18
_symmetry_space_group_name_H-M   'P 1'
_cell_length_a   12.81644400
_cell_length_b   12.81644342
_cell_length_c   3.91996300
_cell_angle_alpha   90.00000000
_cell_angle_beta   90.00000000
_cell_angle_gamma   119.99999633
_symmetry_Int_Tables_number   1
_chemical_formula_structural   Y5Ge6P6IrRh18
_chemical_formula_sum   'Y5 Ge6 P6 Ir1 Rh18'
_cell_volume   557.63199546
_cell_formula_units_Z   1
loop_
 _symmetry_equiv_pos_site_id
 _symmetry_equiv_pos_as_xyz
  1  'x, y, z'
loop_
 _atom_site_type_symbol
 _atom_site_label
 _atom_site_symmetry_multiplicity
 _atom_site_fract_x
 _atom_site_fract_y
 _atom_site_fract_z
 _atom_site_occupancy
  Y  Y0  1  0.333333  0.666667  0.500000  1
  Y  Y1  1  0.666667  0.333333  0.500000  1
  Y  Y2  1  0.002374  0.819274  0.000000  1
  Y  Y3  1  0.180726  0.183101  0.000000  1
  Y  Y4  1  0.816899  0.997626  0.000000  1
  Ge  Ge5  1  0.998395  0.634631  0.500000  1
  Ge  Ge6  1  0.365369  0.363765  0.500000  1
  Ge  Ge7  1  0.636235  0.001605  0.500000  1
  Ge  Ge8  1  0.520589  0.677849  0.000000  1
  Ge  Ge9  1  0.322151  0.842740  0.000000  1
  Ge  Ge10  1  0.157260  0.479411  0.000000  1
  P  P11  1  0.482895  0.173973  0.000000  1
  P  P12  1  0.691077  0.517105  0.000000  1
  P  P13  1  0.826027  0.308923  0.000000  1
  P  P14  1  0.993973  0.176062  0.500000  1
  P  P15  1  0.823938  0.817910  0.500000  1
  P  P16  1  0.182090  0.006027  0.500000  1
  Ir  Ir17  1  0.000000  0.000000  0.500000  1
  Rh  Rh18  1  0.521361  0.870669  0.000000  1
  Rh  Rh19  1  0.129331  0.650693  0.000000  1
  Rh  Rh20  1  0.349307  0.478639  0.000000  1
  Rh  Rh21  1  0.495977  0.364659  0.000000  1
  Rh  Rh22  1  0.868682  0.504023  0.000000  1
  Rh  Rh23  1  0.635341  0.131318  0.000000  1
  Rh  Rh24  1  0.006709  0.449552  0.500000  1
  Rh  Rh25  1  0.550448  0.557158  0.500000  1
  Rh  Rh26  1  0.442842  0.993291  0.500000  1
  Rh  Rh27  1  0.989508  0.270346  0.000000  1
  Rh  Rh28  1  0.729654  0.719162  0.000000  1
  Rh  Rh29  1  0.280838  0.010492  0.000000  1
  Rh  Rh30  1  0.638180  0.808934  0.500000  1
  Rh  Rh31  1  0.191066  0.829246  0.500000  1
  Rh  Rh32  1  0.170754  0.361820  0.500000  1
  Rh  Rh33  1  0.383506  0.179970  0.500000  1
  Rh  Rh34  1  0.796465  0.616494  0.500000  1
  Rh  Rh35  1  0.820030  0.203535  0.500000  1
