# generated using pymatgen
data_Lu4(SnO4)3
_symmetry_space_group_name_H-M   'P 1'
_cell_length_a   6.22787882
_cell_length_b   6.29105220
_cell_length_c   6.51036179
_cell_angle_alpha   100.57396865
_cell_angle_beta   98.04567488
_cell_angle_gamma   99.72594740
_symmetry_Int_Tables_number   1
_chemical_formula_structural   Lu4(SnO4)3
_chemical_formula_sum   'Lu4 Sn3 O12'
_cell_volume   243.26215574
_cell_formula_units_Z   1
loop_
 _symmetry_equiv_pos_site_id
 _symmetry_equiv_pos_as_xyz
  1  'x, y, z'
loop_
 _atom_site_type_symbol
 _atom_site_label
 _atom_site_symmetry_multiplicity
 _atom_site_fract_x
 _atom_site_fract_y
 _atom_site_fract_z
 _atom_site_occupancy
  Lu  Lu0  1  0.391945  0.698634  0.864996  1
  Lu  Lu1  1  0.694463  0.868456  0.388441  1
  Lu  Lu2  1  0.608055  0.301366  0.135004  1
  Lu  Lu3  1  0.305537  0.131544  0.611559  1
  Sn  Sn4  1  0.000000  0.000000  0.000000  1
  Sn  Sn5  1  0.850260  0.399720  0.671023  1
  Sn  Sn6  1  0.149740  0.600280  0.328977  1
  O  O7  1  0.035584  0.676380  0.884840  1
  O  O8  1  0.684508  0.932015  0.058955  1
  O  O9  1  0.917604  0.080397  0.694694  1
  O  O10  1  0.964416  0.323620  0.115160  1
  O  O11  1  0.315492  0.067985  0.941045  1
  O  O12  1  0.082396  0.919603  0.305306  1
  O  O13  1  0.585516  0.188283  0.430540  1
  O  O14  1  0.170237  0.419010  0.573295  1
  O  O15  1  0.417071  0.584488  0.177679  1
  O  O16  1  0.414484  0.811717  0.569460  1
  O  O17  1  0.829763  0.580990  0.426705  1
  O  O18  1  0.582929  0.415512  0.822321  1
