# generated using pymatgen
data_La12Ge(OsBr4)3
_symmetry_space_group_name_H-M   'P 1'
_cell_length_a   10.77732173
_cell_length_b   10.77732175
_cell_length_c   10.77732163
_cell_angle_alpha   110.09112902
_cell_angle_beta   110.09112654
_cell_angle_gamma   110.09112981
_symmetry_Int_Tables_number   1
_chemical_formula_structural   La12Ge(OsBr4)3
_chemical_formula_sum   'La12 Ge1 Os3 Br12'
_cell_volume   940.86470677
_cell_formula_units_Z   1
loop_
 _symmetry_equiv_pos_site_id
 _symmetry_equiv_pos_as_xyz
  1  'x, y, z'
loop_
 _atom_site_type_symbol
 _atom_site_label
 _atom_site_symmetry_multiplicity
 _atom_site_fract_x
 _atom_site_fract_y
 _atom_site_fract_z
 _atom_site_occupancy
  La  La0  1  0.472539  0.497756  0.229765  1
  La  La1  1  0.750000  0.232938  0.267062  1
  La  La2  1  0.750000  0.015508  0.484492  1
  La  La3  1  0.229765  0.472539  0.497756  1
  La  La4  1  0.267062  0.750000  0.232938  1
  La  La5  1  0.027461  0.270235  0.002244  1
  La  La6  1  0.002244  0.027461  0.270235  1
  La  La7  1  0.484492  0.750000  0.015508  1
  La  La8  1  0.497756  0.229765  0.472539  1
  La  La9  1  0.015508  0.484492  0.750000  1
  La  La10  1  0.270235  0.002244  0.027461  1
  La  La11  1  0.232938  0.267062  0.750000  1
  Ge  Ge12  1  0.250000  0.250000  0.250000  1
  Os  Os13  1  0.499873  0.000127  0.250000  1
  Os  Os14  1  0.000127  0.250000  0.499873  1
  Os  Os15  1  0.250000  0.499873  0.000127  1
  Br  Br16  1  0.250000  0.756723  0.743277  1
  Br  Br17  1  0.506296  0.500061  0.748332  1
  Br  Br18  1  0.993704  0.751668  0.999939  1
  Br  Br19  1  0.743277  0.250000  0.756723  1
  Br  Br20  1  0.999939  0.993704  0.751668  1
  Br  Br21  1  0.250000  0.000752  0.499248  1
  Br  Br22  1  0.748332  0.506296  0.500061  1
  Br  Br23  1  0.499248  0.250000  0.000752  1
  Br  Br24  1  0.756723  0.743277  0.250000  1
  Br  Br25  1  0.751668  0.999939  0.993704  1
  Br  Br26  1  0.000752  0.499248  0.250000  1
  Br  Br27  1  0.500061  0.748332  0.506296  1
