# generated using pymatgen
data_Zr2Ta2TiOs
_symmetry_space_group_name_H-M   'P 1'
_cell_length_a   5.61147506
_cell_length_b   5.61822986
_cell_length_c   5.33089724
_cell_angle_alpha   58.20041405
_cell_angle_beta   57.90429259
_cell_angle_gamma   59.96018105
_symmetry_Int_Tables_number   1
_chemical_formula_structural   Zr2Ta2TiOs
_chemical_formula_sum   'Zr2 Ta2 Ti1 Os1'
_cell_volume   115.18619497
_cell_formula_units_Z   1
loop_
 _symmetry_equiv_pos_site_id
 _symmetry_equiv_pos_as_xyz
  1  'x, y, z'
loop_
 _atom_site_type_symbol
 _atom_site_label
 _atom_site_symmetry_multiplicity
 _atom_site_fract_x
 _atom_site_fract_y
 _atom_site_fract_z
 _atom_site_occupancy
  Zr  Zr0  1  0.250157  0.250175  0.249492  1
  Zr  Zr1  1  0.999843  0.999825  0.000508  1
  Ta  Ta2  1  0.625000  0.125000  0.625000  1
  Ta  Ta3  1  0.625000  0.625000  0.625000  1
  Ti  Ti4  1  0.125000  0.625000  0.625000  1
  Os  Os5  1  0.625000  0.625000  0.125000  1
