# generated using pymatgen
data_HoMgZn3Ir
_symmetry_space_group_name_H-M   'P 1'
_cell_length_a   5.29982512
_cell_length_b   5.29982499
_cell_length_c   5.29982558
_cell_angle_alpha   59.48815293
_cell_angle_beta   59.48815331
_cell_angle_gamma   59.48815393
_symmetry_Int_Tables_number   1
_chemical_formula_structural   HoMgZn3Ir
_chemical_formula_sum   'Ho1 Mg1 Zn3 Ir1'
_cell_volume   104.03610962
_cell_formula_units_Z   1
loop_
 _symmetry_equiv_pos_site_id
 _symmetry_equiv_pos_as_xyz
  1  'x, y, z'
loop_
 _atom_site_type_symbol
 _atom_site_label
 _atom_site_symmetry_multiplicity
 _atom_site_fract_x
 _atom_site_fract_y
 _atom_site_fract_z
 _atom_site_occupancy
  Ho  Ho0  1  0.253887  0.253887  0.253887  1
  Mg  Mg1  1  0.997145  0.997145  0.997145  1
  Zn  Zn2  1  0.626325  0.626325  0.121765  1
  Zn  Zn3  1  0.626325  0.121765  0.626325  1
  Zn  Zn4  1  0.121765  0.626325  0.626325  1
  Ir  Ir5  1  0.624552  0.624552  0.624552  1
