# generated using pymatgen
data_CeThMn3Fe9P7
_symmetry_space_group_name_H-M   'P 1'
_cell_length_a   9.09601000
_cell_length_b   9.09601060
_cell_length_c   3.68606800
_cell_angle_alpha   90.00000000
_cell_angle_beta   90.00000000
_cell_angle_gamma   119.99999055
_symmetry_Int_Tables_number   1
_chemical_formula_structural   CeThMn3Fe9P7
_chemical_formula_sum   'Ce1 Th1 Mn3 Fe9 P7'
_cell_volume   264.11672446
_cell_formula_units_Z   1
loop_
 _symmetry_equiv_pos_site_id
 _symmetry_equiv_pos_as_xyz
  1  'x, y, z'
loop_
 _atom_site_type_symbol
 _atom_site_label
 _atom_site_symmetry_multiplicity
 _atom_site_fract_x
 _atom_site_fract_y
 _atom_site_fract_z
 _atom_site_occupancy
  Ce  Ce0  1  0.000000  0.000000  0.500000  1
  Th  Th1  1  0.333333  0.666667  0.000000  1
  Mn  Mn2  1  0.776061  0.228359  0.500000  1
  Mn  Mn3  1  0.771641  0.547702  0.500000  1
  Mn  Mn4  1  0.452298  0.223939  0.500000  1
  Fe  Fe5  1  0.030891  0.271309  0.000000  1
  Fe  Fe6  1  0.728691  0.759581  0.000000  1
  Fe  Fe7  1  0.240419  0.969109  0.000000  1
  Fe  Fe8  1  0.545392  0.060155  0.000000  1
  Fe  Fe9  1  0.939845  0.485237  0.000000  1
  Fe  Fe10  1  0.514763  0.454608  0.000000  1
  Fe  Fe11  1  0.615684  0.898735  0.500000  1
  Fe  Fe12  1  0.101265  0.716949  0.500000  1
  Fe  Fe13  1  0.283051  0.384316  0.500000  1
  P  P14  1  0.770872  0.026856  0.000000  1
  P  P15  1  0.973144  0.744016  0.000000  1
  P  P16  1  0.255984  0.229128  0.000000  1
  P  P17  1  0.375607  0.935440  0.500000  1
  P  P18  1  0.064560  0.440167  0.500000  1
  P  P19  1  0.559833  0.624393  0.500000  1
  P  P20  1  0.666667  0.333333  0.000000  1
