# generated using pymatgen
data_HfGa11(RuRh)6
_symmetry_space_group_name_H-M   'P 1'
_cell_length_a   4.30142700
_cell_length_b   6.10802600
_cell_length_c   12.97067600
_cell_angle_alpha   90.00000000
_cell_angle_beta   90.00015943
_cell_angle_gamma   90.00000000
_symmetry_Int_Tables_number   1
_chemical_formula_structural   HfGa11(RuRh)6
_chemical_formula_sum   'Hf1 Ga11 Ru6 Rh6'
_cell_volume   340.78152725
_cell_formula_units_Z   1
loop_
 _symmetry_equiv_pos_site_id
 _symmetry_equiv_pos_as_xyz
  1  'x, y, z'
loop_
 _atom_site_type_symbol
 _atom_site_label
 _atom_site_symmetry_multiplicity
 _atom_site_fract_x
 _atom_site_fract_y
 _atom_site_fract_z
 _atom_site_occupancy
  Hf  Hf0  1  0.500000  0.250275  0.000000  1
  Ga  Ga1  1  0.500000  0.750027  0.000000  1
  Ga  Ga2  1  0.000112  0.250141  0.165499  1
  Ga  Ga3  1  0.000126  0.750096  0.169814  1
  Ga  Ga4  1  0.500138  0.249352  0.334367  1
  Ga  Ga5  1  0.500135  0.750767  0.337633  1
  Ga  Ga6  1  0.000000  0.250271  0.500000  1
  Ga  Ga7  1  0.000000  0.749582  0.500000  1
  Ga  Ga8  1  0.499862  0.249352  0.665634  1
  Ga  Ga9  1  0.499865  0.750767  0.662368  1
  Ga  Ga10  1  0.999889  0.250141  0.834501  1
  Ga  Ga11  1  0.999875  0.750096  0.830186  1
  Ru  Ru12  1  0.000000  0.985327  0.000000  1
  Ru  Ru13  1  0.500125  0.506314  0.170875  1
  Ru  Ru14  1  0.000115  0.000754  0.333313  1
  Ru  Ru15  1  0.500000  0.499584  0.500000  1
  Ru  Ru16  1  0.999885  0.000754  0.666686  1
  Ru  Ru17  1  0.499876  0.506314  0.829125  1
  Rh  Rh18  1  0.000000  0.511284  0.000000  1
  Rh  Rh19  1  0.500122  0.995857  0.170114  1
  Rh  Rh20  1  0.000131  0.497416  0.332854  1
  Rh  Rh21  1  0.500000  0.002250  0.500000  1
  Rh  Rh22  1  0.999870  0.497416  0.667147  1
  Rh  Rh23  1  0.499878  0.995857  0.829885  1
