# generated using pymatgen
data_Sr3CaPrU5O18
_symmetry_space_group_name_H-M   'P 1'
_cell_length_a   6.96105845
_cell_length_b   7.71490555
_cell_length_c   8.68906461
_cell_angle_alpha   100.44912116
_cell_angle_beta   98.49289052
_cell_angle_gamma   107.19472239
_symmetry_Int_Tables_number   1
_chemical_formula_structural   Sr3CaPrU5O18
_chemical_formula_sum   'Sr3 Ca1 Pr1 U5 O18'
_cell_volume   428.20598258
_cell_formula_units_Z   1
loop_
 _symmetry_equiv_pos_site_id
 _symmetry_equiv_pos_as_xyz
  1  'x, y, z'
loop_
 _atom_site_type_symbol
 _atom_site_label
 _atom_site_symmetry_multiplicity
 _atom_site_fract_x
 _atom_site_fract_y
 _atom_site_fract_z
 _atom_site_occupancy
  Sr  Sr0  1  0.599528  0.699505  0.198467  1
  Sr  Sr1  1  0.401424  0.301249  0.802658  1
  Sr  Sr2  1  0.201708  0.900021  0.416922  1
  Ca  Ca3  1  0.804011  0.111552  0.583077  1
  Pr  Pr4  1  0.998390  0.498597  0.996663  1
  U  U5  1  0.997508  0.998214  0.996837  1
  U  U6  1  0.792881  0.581893  0.589988  1
  U  U7  1  0.622454  0.199784  0.197617  1
  U  U8  1  0.380963  0.800245  0.803211  1
  U  U9  1  0.203981  0.419172  0.409368  1
  O  O10  1  0.824518  0.797248  0.482172  1
  O  O11  1  0.003191  0.240588  0.170383  1
  O  O12  1  0.673990  0.403809  0.068906  1
  O  O13  1  0.467905  0.998603  0.681864  1
  O  O14  1  0.859925  0.349892  0.418237  1
  O  O15  1  0.495852  0.393330  0.347281  1
  O  O16  1  0.237595  0.606393  0.269423  1
  O  O17  1  0.978058  0.814309  0.144708  1
  O  O18  1  0.661899  0.935514  0.995890  1
  O  O19  1  0.335434  0.062456  0.006663  1
  O  O20  1  0.012296  0.178095  0.845424  1
  O  O21  1  0.761692  0.386247  0.722873  1
  O  O22  1  0.504442  0.603046  0.657257  1
  O  O23  1  0.142740  0.654303  0.580761  1
  O  O24  1  0.552136  0.005763  0.325951  1
  O  O25  1  0.325752  0.595004  0.931403  1
  O  O26  1  0.994626  0.752577  0.828138  1
  O  O27  1  0.165102  0.212591  0.527857  1
