# generated using pymatgen
data_Ho6ReNi17P12
_symmetry_space_group_name_H-M   'P 1'
_cell_length_a   3.76270836
_cell_length_b   10.50660788
_cell_length_c   12.29019209
_cell_angle_alpha   90.16945286
_cell_angle_beta   90.04543063
_cell_angle_gamma   89.98040245
_symmetry_Int_Tables_number   1
_chemical_formula_structural   Ho6ReNi17P12
_chemical_formula_sum   'Ho6 Re1 Ni17 P12'
_cell_volume   485.86956145
_cell_formula_units_Z   1
loop_
 _symmetry_equiv_pos_site_id
 _symmetry_equiv_pos_as_xyz
  1  'x, y, z'
loop_
 _atom_site_type_symbol
 _atom_site_label
 _atom_site_symmetry_multiplicity
 _atom_site_fract_x
 _atom_site_fract_y
 _atom_site_fract_z
 _atom_site_occupancy
  Ho  Ho0  1  0.751863  0.000212  0.475437  1
  Ho  Ho1  1  0.251771  0.499974  0.520397  1
  Ho  Ho2  1  0.251839  0.683021  0.793571  1
  Ho  Ho3  1  0.251750  0.316646  0.793774  1
  Ho  Ho4  1  0.751760  0.815596  0.207363  1
  Ho  Ho5  1  0.751777  0.184686  0.207393  1
  Re  Re6  1  0.252082  0.999833  0.845779  1
  Ni  Ni7  1  0.752685  0.999949  0.015426  1
  Ni  Ni8  1  0.251391  0.500054  0.982638  1
  Ni  Ni9  1  0.252223  0.197733  0.571590  1
  Ni  Ni10  1  0.252180  0.801829  0.570588  1
  Ni  Ni11  1  0.751808  0.302267  0.428219  1
  Ni  Ni12  1  0.751700  0.697935  0.428276  1
  Ni  Ni13  1  0.250496  0.621336  0.288874  1
  Ni  Ni14  1  0.251874  0.379767  0.289104  1
  Ni  Ni15  1  0.751492  0.879735  0.709991  1
  Ni  Ni16  1  0.752117  0.119596  0.710525  1
  Ni  Ni17  1  0.252331  0.170166  0.010782  1
  Ni  Ni18  1  0.252770  0.829808  0.010763  1
  Ni  Ni19  1  0.751714  0.335411  0.993986  1
  Ni  Ni20  1  0.752298  0.664074  0.994026  1
  Ni  Ni21  1  0.750693  0.500249  0.159628  1
  Ni  Ni22  1  0.252068  0.000062  0.299327  1
  Ni  Ni23  1  0.751067  0.500107  0.699066  1
  P  P24  1  0.251746  0.186786  0.385345  1
  P  P25  1  0.251678  0.813692  0.385052  1
  P  P26  1  0.751988  0.314428  0.613428  1
  P  P27  1  0.752036  0.685269  0.613322  1
  P  P28  1  0.252364  0.000092  0.122459  1
  P  P29  1  0.751440  0.499833  0.874907  1
  P  P30  1  0.251750  0.650489  0.108007  1
  P  P31  1  0.251513  0.349771  0.108100  1
  P  P32  1  0.752049  0.845694  0.892869  1
  P  P33  1  0.751895  0.153943  0.893077  1
  P  P34  1  0.251886  0.999843  0.651456  1
  P  P35  1  0.751513  0.500115  0.345452  1
