# generated using pymatgen
data_Hf6Ga6IrRh5
_symmetry_space_group_name_H-M   'P 1'
_cell_length_a   7.16573200
_cell_length_b   7.16573118
_cell_length_c   6.88091400
_cell_angle_alpha   90.00000000
_cell_angle_beta   90.00000000
_cell_angle_gamma   120.00000379
_symmetry_Int_Tables_number   1
_chemical_formula_structural   Hf6Ga6IrRh5
_chemical_formula_sum   'Hf6 Ga6 Ir1 Rh5'
_cell_volume   305.98336617
_cell_formula_units_Z   1
loop_
 _symmetry_equiv_pos_site_id
 _symmetry_equiv_pos_as_xyz
  1  'x, y, z'
loop_
 _atom_site_type_symbol
 _atom_site_label
 _atom_site_symmetry_multiplicity
 _atom_site_fract_x
 _atom_site_fract_y
 _atom_site_fract_z
 _atom_site_occupancy
  Hf  Hf0  1  0.400874  0.395382  0.251595  1
  Hf  Hf1  1  0.598988  0.994043  0.748202  1
  Hf  Hf2  1  0.395055  0.401012  0.748202  1
  Hf  Hf3  1  0.005957  0.604945  0.748202  1
  Hf  Hf4  1  0.994507  0.599126  0.251595  1
  Hf  Hf5  1  0.604618  0.005493  0.251595  1
  Ga  Ga6  1  0.274661  0.999105  0.999947  1
  Ga  Ga7  1  0.260531  0.001227  0.499808  1
  Ga  Ga8  1  0.998773  0.259305  0.499808  1
  Ga  Ga9  1  0.000895  0.275557  0.999947  1
  Ga  Ga10  1  0.724443  0.725339  0.999947  1
  Ga  Ga11  1  0.740695  0.739469  0.499808  1
  Ir  Ir12  1  0.333333  0.666667  0.493159  1
  Rh  Rh13  1  0.666667  0.333333  0.507977  1
  Rh  Rh14  1  0.000000  0.000000  0.766161  1
  Rh  Rh15  1  0.666667  0.333333  0.991920  1
  Rh  Rh16  1  0.333333  0.666667  0.008504  1
  Rh  Rh17  1  0.000000  0.000000  0.233622  1
