# generated using pymatgen
data_AcPr2Lu(AsPt)4
_symmetry_space_group_name_H-M   'P 1'
_cell_length_a   4.34170600
_cell_length_b   4.34170540
_cell_length_c   16.31644900
_cell_angle_alpha   90.00000000
_cell_angle_beta   90.00000000
_cell_angle_gamma   120.00000456
_symmetry_Int_Tables_number   1
_chemical_formula_structural   AcPr2Lu(AsPt)4
_chemical_formula_sum   'Ac1 Pr2 Lu1 As4 Pt4'
_cell_volume   266.36491692
_cell_formula_units_Z   1
loop_
 _symmetry_equiv_pos_site_id
 _symmetry_equiv_pos_as_xyz
  1  'x, y, z'
loop_
 _atom_site_type_symbol
 _atom_site_label
 _atom_site_symmetry_multiplicity
 _atom_site_fract_x
 _atom_site_fract_y
 _atom_site_fract_z
 _atom_site_occupancy
  Ac  Ac0  1  0.000000  0.000000  0.250000  1
  Pr  Pr1  1  0.000000  0.000000  0.514033  1
  Pr  Pr2  1  0.000000  0.000000  0.985967  1
  Lu  Lu3  1  0.000000  0.000000  0.750000  1
  As  As4  1  0.333333  0.666667  0.872982  1
  As  As5  1  0.666667  0.333333  0.116302  1
  As  As6  1  0.666667  0.333333  0.383698  1
  As  As7  1  0.333333  0.666667  0.627018  1
  Pt  Pt8  1  0.333333  0.666667  0.389404  1
  Pt  Pt9  1  0.666667  0.333333  0.653258  1
  Pt  Pt10  1  0.666667  0.333333  0.846742  1
  Pt  Pt11  1  0.333333  0.666667  0.110596  1
