# generated using pymatgen
data_HoU(AlC)6
_symmetry_space_group_name_H-M   'P 1'
_cell_length_a   3.40911700
_cell_length_b   3.40911681
_cell_length_c   17.30887700
_cell_angle_alpha   90.00000000
_cell_angle_beta   90.00000000
_cell_angle_gamma   119.99999210
_symmetry_Int_Tables_number   1
_chemical_formula_structural   HoU(AlC)6
_chemical_formula_sum   'Ho1 U1 Al6 C6'
_cell_volume   174.21411818
_cell_formula_units_Z   1
loop_
 _symmetry_equiv_pos_site_id
 _symmetry_equiv_pos_as_xyz
  1  'x, y, z'
loop_
 _atom_site_type_symbol
 _atom_site_label
 _atom_site_symmetry_multiplicity
 _atom_site_fract_x
 _atom_site_fract_y
 _atom_site_fract_z
 _atom_site_occupancy
  Ho  Ho0  1  0.000000  0.000000  0.500000  1
  U  U1  1  0.000000  0.000000  0.000000  1
  Al  Al2  1  0.333333  0.666667  0.134317  1
  Al  Al3  1  0.666667  0.333333  0.256852  1
  Al  Al4  1  0.333333  0.666667  0.367605  1
  Al  Al5  1  0.666667  0.333333  0.632395  1
  Al  Al6  1  0.333333  0.666667  0.743148  1
  Al  Al7  1  0.666667  0.333333  0.865683  1
  C  C8  1  0.666667  0.333333  0.091369  1
  C  C9  1  0.333333  0.666667  0.250052  1
  C  C10  1  0.666667  0.333333  0.404682  1
  C  C11  1  0.333333  0.666667  0.595318  1
  C  C12  1  0.666667  0.333333  0.749948  1
  C  C13  1  0.333333  0.666667  0.908631  1
