# generated using pymatgen
data_La3Tb3Th2(CdIr)2
_symmetry_space_group_name_H-M   'P 1'
_cell_length_a   9.93705109
_cell_length_b   9.93705128
_cell_length_c   9.93705200
_cell_angle_alpha   60.00000425
_cell_angle_beta   60.00000364
_cell_angle_gamma   60.00000688
_symmetry_Int_Tables_number   1
_chemical_formula_structural   La3Tb3Th2(CdIr)2
_chemical_formula_sum   'La6 Tb6 Th4 Cd4 Ir4'
_cell_volume   693.83733733
_cell_formula_units_Z   2
loop_
 _symmetry_equiv_pos_site_id
 _symmetry_equiv_pos_as_xyz
  1  'x, y, z'
loop_
 _atom_site_type_symbol
 _atom_site_label
 _atom_site_symmetry_multiplicity
 _atom_site_fract_x
 _atom_site_fract_y
 _atom_site_fract_z
 _atom_site_occupancy
  La  La0  1  0.191331  0.808669  0.808669  1
  La  La1  1  0.808669  0.191331  0.191331  1
  La  La2  1  0.808669  0.191331  0.808669  1
  La  La3  1  0.191331  0.808669  0.191331  1
  La  La4  1  0.808669  0.808669  0.191331  1
  La  La5  1  0.191331  0.191331  0.808669  1
  Tb  Tb6  1  0.064823  0.435177  0.435177  1
  Tb  Tb7  1  0.435177  0.064823  0.064823  1
  Tb  Tb8  1  0.435177  0.064823  0.435177  1
  Tb  Tb9  1  0.064823  0.435177  0.064823  1
  Tb  Tb10  1  0.435177  0.435177  0.064823  1
  Tb  Tb11  1  0.064823  0.064823  0.435177  1
  Th  Th12  1  0.597808  0.597808  0.597808  1
  Th  Th13  1  0.597808  0.597808  0.206575  1
  Th  Th14  1  0.597808  0.206575  0.597808  1
  Th  Th15  1  0.206575  0.597808  0.597808  1
  Cd  Cd16  1  0.828934  0.828934  0.828934  1
  Cd  Cd17  1  0.828934  0.828934  0.513196  1
  Cd  Cd18  1  0.828934  0.513196  0.828934  1
  Cd  Cd19  1  0.513196  0.828934  0.828934  1
  Ir  Ir20  1  0.394014  0.394014  0.394014  1
  Ir  Ir21  1  0.394014  0.394014  0.817958  1
  Ir  Ir22  1  0.394014  0.817958  0.394014  1
  Ir  Ir23  1  0.817958  0.394014  0.394014  1
