# generated using pymatgen
data_Tm2Zr5ReF30
_symmetry_space_group_name_H-M   'P 1'
_cell_length_a   8.13803868
_cell_length_b   8.13803750
_cell_length_c   8.13724829
_cell_angle_alpha   79.82310976
_cell_angle_beta   79.82311886
_cell_angle_gamma   100.12953007
_symmetry_Int_Tables_number   1
_chemical_formula_structural   Tm2Zr5ReF30
_chemical_formula_sum   'Tm2 Zr5 Re1 F30'
_cell_volume   510.01882653
_cell_formula_units_Z   1
loop_
 _symmetry_equiv_pos_site_id
 _symmetry_equiv_pos_as_xyz
  1  'x, y, z'
loop_
 _atom_site_type_symbol
 _atom_site_label
 _atom_site_symmetry_multiplicity
 _atom_site_fract_x
 _atom_site_fract_y
 _atom_site_fract_z
 _atom_site_occupancy
  Tm  Tm0  1  0.677581  0.322419  0.750000  1
  Tm  Tm1  1  0.322076  0.677924  0.250000  1
  Zr  Zr2  1  0.748605  0.251395  0.250000  1
  Zr  Zr3  1  0.821729  0.750426  0.325828  1
  Zr  Zr4  1  0.249574  0.178271  0.174172  1
  Zr  Zr5  1  0.177485  0.249536  0.673588  1
  Zr  Zr6  1  0.750464  0.822515  0.826412  1
  Re  Re7  1  0.250264  0.749736  0.750000  1
  F  F8  1  0.150356  0.184833  0.945564  1
  F  F9  1  0.687986  0.562331  0.847678  1
  F  F10  1  0.042645  0.655908  0.315278  1
  F  F11  1  0.655251  0.041616  0.816470  1
  F  F12  1  0.561028  0.685160  0.347402  1
  F  F13  1  0.181827  0.149437  0.447787  1
  F  F14  1  0.850563  0.818173  0.052213  1
  F  F15  1  0.314840  0.438972  0.152598  1
  F  F16  1  0.958384  0.344749  0.683530  1
  F  F17  1  0.344092  0.957355  0.184722  1
  F  F18  1  0.437669  0.312014  0.652322  1
  F  F19  1  0.815167  0.849644  0.554436  1
  F  F20  1  0.968318  0.031682  0.750000  1
  F  F21  1  0.542517  0.752216  0.029808  1
  F  F22  1  0.247784  0.457483  0.470192  1
  F  F23  1  0.457237  0.247703  0.969853  1
  F  F24  1  0.752297  0.542763  0.530147  1
  F  F25  1  0.032516  0.967484  0.250000  1
  F  F26  1  0.218903  0.725014  0.000115  1
  F  F27  1  0.225594  0.497831  0.783722  1
  F  F28  1  0.998023  0.719213  0.776347  1
  F  F29  1  0.722006  0.991980  0.277170  1
  F  F30  1  0.490074  0.223790  0.281677  1
  F  F31  1  0.725584  0.220608  0.505509  1
  F  F32  1  0.779392  0.274416  0.994491  1
  F  F33  1  0.776210  0.509926  0.218323  1
  F  F34  1  0.008020  0.277994  0.222830  1
  F  F35  1  0.280787  0.001977  0.723653  1
  F  F36  1  0.502169  0.774406  0.716278  1
  F  F37  1  0.274986  0.781097  0.499885  1
