# generated using pymatgen
data_Pr6Dy10Cd4CoPt3
_symmetry_space_group_name_H-M   'P 1'
_cell_length_a   9.77088714
_cell_length_b   9.77088592
_cell_length_c   9.77088610
_cell_angle_alpha   60.29298652
_cell_angle_beta   60.29298228
_cell_angle_gamma   60.29298420
_symmetry_Int_Tables_number   1
_chemical_formula_structural   Pr6Dy10Cd4CoPt3
_chemical_formula_sum   'Pr6 Dy10 Cd4 Co1 Pt3'
_cell_volume   663.98289835
_cell_formula_units_Z   1
loop_
 _symmetry_equiv_pos_site_id
 _symmetry_equiv_pos_as_xyz
  1  'x, y, z'
loop_
 _atom_site_type_symbol
 _atom_site_label
 _atom_site_symmetry_multiplicity
 _atom_site_fract_x
 _atom_site_fract_y
 _atom_site_fract_z
 _atom_site_occupancy
  Pr  Pr0  1  0.939575  0.560260  0.560260  1
  Pr  Pr1  1  0.560021  0.938424  0.938424  1
  Pr  Pr2  1  0.560260  0.939575  0.560260  1
  Pr  Pr3  1  0.938424  0.560021  0.938424  1
  Pr  Pr4  1  0.560260  0.560260  0.939575  1
  Pr  Pr5  1  0.938424  0.938424  0.560021  1
  Dy  Dy6  1  0.350350  0.350350  0.350350  1
  Dy  Dy7  1  0.344351  0.344351  0.956165  1
  Dy  Dy8  1  0.344351  0.956165  0.344351  1
  Dy  Dy9  1  0.956165  0.344351  0.344351  1
  Dy  Dy10  1  0.821426  0.186630  0.186630  1
  Dy  Dy11  1  0.186965  0.811856  0.811856  1
  Dy  Dy12  1  0.186630  0.821426  0.186630  1
  Dy  Dy13  1  0.811856  0.186965  0.811856  1
  Dy  Dy14  1  0.186630  0.186630  0.821426  1
  Dy  Dy15  1  0.811856  0.811856  0.186965  1
  Cd  Cd16  1  0.579044  0.579044  0.579044  1
  Cd  Cd17  1  0.580061  0.580061  0.261437  1
  Cd  Cd18  1  0.580061  0.261437  0.580061  1
  Cd  Cd19  1  0.261437  0.580061  0.580061  1
  Co  Co20  1  0.141891  0.141891  0.141891  1
  Pt  Pt21  1  0.143640  0.143640  0.572680  1
  Pt  Pt22  1  0.143640  0.572680  0.143640  1
  Pt  Pt23  1  0.572680  0.143640  0.143640  1
