# generated using pymatgen
data_Cs2NpF7
_symmetry_space_group_name_H-M   'P 1'
_cell_length_a   8.19442616
_cell_length_b   8.19442639
_cell_length_c   8.78168583
_cell_angle_alpha   60.10368076
_cell_angle_beta   60.10367751
_cell_angle_gamma   53.60171467
_symmetry_Int_Tables_number   1
_chemical_formula_structural   Cs2NpF7
_chemical_formula_sum   'Cs4 Np2 F14'
_cell_volume   393.74121773
_cell_formula_units_Z   2
loop_
 _symmetry_equiv_pos_site_id
 _symmetry_equiv_pos_as_xyz
  1  'x, y, z'
loop_
 _atom_site_type_symbol
 _atom_site_label
 _atom_site_symmetry_multiplicity
 _atom_site_fract_x
 _atom_site_fract_y
 _atom_site_fract_z
 _atom_site_occupancy
  Cs  Cs0  1  0.839276  0.818026  0.616346  1
  Cs  Cs1  1  0.181974  0.160724  0.883654  1
  Cs  Cs2  1  0.160724  0.181974  0.383654  1
  Cs  Cs3  1  0.818026  0.839276  0.116346  1
  Np  Np4  1  0.452831  0.547169  0.750000  1
  Np  Np5  1  0.547169  0.452831  0.250000  1
  F  F6  1  0.554319  0.302247  0.100556  1
  F  F7  1  0.697753  0.445681  0.399444  1
  F  F8  1  0.445681  0.697753  0.899444  1
  F  F9  1  0.302247  0.554319  0.600556  1
  F  F10  1  0.577666  0.212540  0.794171  1
  F  F11  1  0.787460  0.422334  0.705829  1
  F  F12  1  0.422334  0.787460  0.205829  1
  F  F13  1  0.212540  0.577666  0.294171  1
  F  F14  1  0.540177  0.779944  0.517126  1
  F  F15  1  0.220056  0.459823  0.982874  1
  F  F16  1  0.459823  0.220056  0.482874  1
  F  F17  1  0.779944  0.540177  0.017126  1
  F  F18  1  0.152092  0.847908  0.750000  1
  F  F19  1  0.847908  0.152092  0.250000  1
