# generated using pymatgen
data_Y4ScU2Co17P12
_symmetry_space_group_name_H-M   'P 1'
_cell_length_a   3.68869000
_cell_length_b   10.54353489
_cell_length_c   12.21716134
_cell_angle_alpha   90.37435069
_cell_angle_beta   90.00000000
_cell_angle_gamma   90.00000000
_symmetry_Int_Tables_number   1
_chemical_formula_structural   Y4ScU2Co17P12
_chemical_formula_sum   'Y4 Sc1 U2 Co17 P12'
_cell_volume   475.13764131
_cell_formula_units_Z   1
loop_
 _symmetry_equiv_pos_site_id
 _symmetry_equiv_pos_as_xyz
  1  'x, y, z'
loop_
 _atom_site_type_symbol
 _atom_site_label
 _atom_site_symmetry_multiplicity
 _atom_site_fract_x
 _atom_site_fract_y
 _atom_site_fract_z
 _atom_site_occupancy
  Y  Y0  1  0.500000  0.999301  0.478108  1
  Y  Y1  1  0.500000  0.181995  0.206118  1
  Y  Y2  1  0.000000  0.683395  0.796762  1
  Y  Y3  1  0.000000  0.316805  0.795710  1
  Sc  Sc4  1  0.500000  0.502977  0.154558  1
  U  U5  1  0.000000  0.498242  0.534782  1
  U  U6  1  0.500000  0.826603  0.211253  1
  Co  Co7  1  0.000000  0.001405  0.837585  1
  Co  Co8  1  0.500000  0.499166  0.692522  1
  Co  Co9  1  0.000000  0.988986  0.292328  1
  Co  Co10  1  0.000000  0.502010  0.985349  1
  Co  Co11  1  0.500000  0.001022  0.012670  1
  Co  Co12  1  0.500000  0.330216  0.989309  1
  Co  Co13  1  0.500000  0.673712  0.990837  1
  Co  Co14  1  0.000000  0.164106  0.001408  1
  Co  Co15  1  0.000000  0.839191  0.000190  1
  Co  Co16  1  0.500000  0.293423  0.434304  1
  Co  Co17  1  0.500000  0.700711  0.434953  1
  Co  Co18  1  0.000000  0.199032  0.568869  1
  Co  Co19  1  0.000000  0.798766  0.571260  1
  Co  Co20  1  0.500000  0.880532  0.709373  1
  Co  Co21  1  0.500000  0.118973  0.708604  1
  Co  Co22  1  0.000000  0.624637  0.295743  1
  Co  Co23  1  0.000000  0.378557  0.299006  1
  P  P24  1  0.500000  0.501262  0.879378  1
  P  P25  1  0.000000  0.001509  0.113137  1
  P  P26  1  0.500000  0.496174  0.361971  1
  P  P27  1  0.000000  0.999452  0.654769  1
  P  P28  1  0.500000  0.304056  0.615837  1
  P  P29  1  0.500000  0.693535  0.617215  1
  P  P30  1  0.000000  0.183535  0.384209  1
  P  P31  1  0.000000  0.808176  0.389928  1
  P  P32  1  0.500000  0.851744  0.889060  1
  P  P33  1  0.500000  0.149990  0.889239  1
  P  P34  1  0.000000  0.667728  0.102568  1
  P  P35  1  0.000000  0.339078  0.101091  1
