# generated using pymatgen
data_Li3ScB4(AsRh5)2
_symmetry_space_group_name_H-M   'P 1'
_cell_length_a   2.93791200
_cell_length_b   9.35311177
_cell_length_c   9.35311177
_cell_angle_alpha   90.60827547
_cell_angle_beta   90.00000000
_cell_angle_gamma   90.00000000
_symmetry_Int_Tables_number   1
_chemical_formula_structural   Li3ScB4(AsRh5)2
_chemical_formula_sum   'Li3 Sc1 B4 As2 Rh10'
_cell_volume   256.99611426
_cell_formula_units_Z   1
loop_
 _symmetry_equiv_pos_site_id
 _symmetry_equiv_pos_as_xyz
  1  'x, y, z'
loop_
 _atom_site_type_symbol
 _atom_site_label
 _atom_site_symmetry_multiplicity
 _atom_site_fract_x
 _atom_site_fract_y
 _atom_site_fract_z
 _atom_site_occupancy
  Li  Li0  1  0.000000  0.323602  0.176396  1
  Li  Li1  1  0.000000  0.828846  0.326501  1
  Li  Li2  1  0.000000  0.173497  0.671154  1
  Sc  Sc3  1  0.000000  0.672452  0.827548  1
  B  B4  1  0.000000  0.625329  0.128547  1
  B  B5  1  0.000000  0.123974  0.376025  1
  B  B6  1  0.000000  0.880411  0.619588  1
  B  B7  1  0.000000  0.371452  0.874670  1
  As  As8  1  0.000000  0.002728  0.002229  1
  As  As9  1  0.000000  0.497771  0.497272  1
  Rh  Rh10  1  0.499999  0.496744  0.003256  1
  Rh  Rh11  1  0.499999  0.785337  0.070626  1
  Rh  Rh12  1  0.499999  0.072910  0.213066  1
  Rh  Rh13  1  0.499999  0.575039  0.286916  1
  Rh  Rh14  1  0.499999  0.286932  0.427088  1
  Rh  Rh15  1  0.499999  0.000556  0.499444  1
  Rh  Rh16  1  0.499999  0.713831  0.573875  1
  Rh  Rh17  1  0.499999  0.429372  0.714663  1
  Rh  Rh18  1  0.499999  0.926124  0.786169  1
  Rh  Rh19  1  0.499999  0.213082  0.924960  1
