# generated using pymatgen
data_Ho5Tm(Lu3Ni2)2
_symmetry_space_group_name_H-M   'P 1'
_cell_length_a   6.23824303
_cell_length_b   6.71582357
_cell_length_c   9.39984730
_cell_angle_alpha   90.02885616
_cell_angle_beta   89.64260344
_cell_angle_gamma   89.92567027
_symmetry_Int_Tables_number   1
_chemical_formula_structural   Ho5Tm(Lu3Ni2)2
_chemical_formula_sum   'Ho5 Tm1 Lu6 Ni4'
_cell_volume   393.79799031
_cell_formula_units_Z   1
loop_
 _symmetry_equiv_pos_site_id
 _symmetry_equiv_pos_as_xyz
  1  'x, y, z'
loop_
 _atom_site_type_symbol
 _atom_site_label
 _atom_site_symmetry_multiplicity
 _atom_site_fract_x
 _atom_site_fract_y
 _atom_site_fract_z
 _atom_site_occupancy
  Ho  Ho0  1  0.634642  0.030331  0.250732  1
  Ho  Ho1  1  0.365444  0.970132  0.749690  1
  Ho  Ho2  1  0.136458  0.470115  0.750668  1
  Ho  Ho3  1  0.863500  0.529713  0.249323  1
  Ho  Ho4  1  0.318279  0.677492  0.432923  1
  Tm  Tm5  1  0.681414  0.322221  0.567707  1
  Lu  Lu6  1  0.180707  0.178058  0.064529  1
  Lu  Lu7  1  0.820150  0.822509  0.935704  1
  Lu  Lu8  1  0.681183  0.321137  0.936496  1
  Lu  Lu9  1  0.820569  0.821944  0.567982  1
  Lu  Lu10  1  0.319271  0.678648  0.063448  1
  Lu  Lu11  1  0.178800  0.177985  0.432784  1
  Ni  Ni12  1  0.443587  0.391568  0.244362  1
  Ni  Ni13  1  0.558685  0.607150  0.754830  1
  Ni  Ni14  1  0.944496  0.107079  0.751461  1
  Ni  Ni15  1  0.052814  0.893917  0.247361  1
