# generated using pymatgen
data_Zr6Ti16Re5Ir2
_symmetry_space_group_name_H-M   'P 1'
_cell_length_a   8.99270970
_cell_length_b   8.99270989
_cell_length_c   9.04380000
_cell_angle_alpha   59.81188611
_cell_angle_beta   59.81188540
_cell_angle_gamma   60.37623855
_symmetry_Int_Tables_number   1
_chemical_formula_structural   Zr6Ti16Re5Ir2
_chemical_formula_sum   'Zr6 Ti16 Re5 Ir2'
_cell_volume   517.11715270
_cell_formula_units_Z   1
loop_
 _symmetry_equiv_pos_site_id
 _symmetry_equiv_pos_as_xyz
  1  'x, y, z'
loop_
 _atom_site_type_symbol
 _atom_site_label
 _atom_site_symmetry_multiplicity
 _atom_site_fract_x
 _atom_site_fract_y
 _atom_site_fract_z
 _atom_site_occupancy
  Zr  Zr0  1  0.690727  0.690727  0.309273  1
  Zr  Zr1  1  0.307379  0.692621  0.307379  1
  Zr  Zr2  1  0.692621  0.307379  0.307379  1
  Zr  Zr3  1  0.309273  0.309273  0.690727  1
  Zr  Zr4  1  0.692621  0.307379  0.692621  1
  Zr  Zr5  1  0.307379  0.692621  0.692621  1
  Ti  Ti6  1  0.881539  0.881539  0.351644  1
  Ti  Ti7  1  0.885280  0.351644  0.881539  1
  Ti  Ti8  1  0.351644  0.885280  0.881539  1
  Ti  Ti9  1  0.881539  0.881539  0.885280  1
  Ti  Ti10  1  0.118461  0.118461  0.648356  1
  Ti  Ti11  1  0.114720  0.648356  0.118461  1
  Ti  Ti12  1  0.648356  0.114720  0.118461  1
  Ti  Ti13  1  0.118461  0.118461  0.114720  1
  Ti  Ti14  1  0.667573  0.667573  0.994891  1
  Ti  Ti15  1  0.669960  0.994891  0.667573  1
  Ti  Ti16  1  0.994891  0.669960  0.667573  1
  Ti  Ti17  1  0.667573  0.667573  0.669960  1
  Ti  Ti18  1  0.332427  0.332427  0.005109  1
  Ti  Ti19  1  0.330040  0.005109  0.332427  1
  Ti  Ti20  1  0.005109  0.330040  0.332427  1
  Ti  Ti21  1  0.332427  0.332427  0.330040  1
  Re  Re22  1  0.000000  0.000000  0.000000  1
  Re  Re23  1  0.500000  0.000000  0.500000  1
  Re  Re24  1  0.000000  0.500000  0.500000  1
  Re  Re25  1  0.000000  0.500000  0.000000  1
  Re  Re26  1  0.500000  0.000000  0.000000  1
  Ir  Ir27  1  0.000000  0.000000  0.500000  1
  Ir  Ir28  1  0.500000  0.500000  0.000000  1
