# generated using pymatgen
data_K4Sn7PbAu8
_symmetry_space_group_name_H-M   'P 1'
_cell_length_a   4.78852400
_cell_length_b   8.85635499
_cell_length_c   12.56224800
_cell_angle_alpha   90.11222569
_cell_angle_beta   90.00000000
_cell_angle_gamma   90.00000000
_symmetry_Int_Tables_number   1
_chemical_formula_structural   K4Sn7PbAu8
_chemical_formula_sum   'K4 Sn7 Pb1 Au8'
_cell_volume   532.74970049
_cell_formula_units_Z   1
loop_
 _symmetry_equiv_pos_site_id
 _symmetry_equiv_pos_as_xyz
  1  'x, y, z'
loop_
 _atom_site_type_symbol
 _atom_site_label
 _atom_site_symmetry_multiplicity
 _atom_site_fract_x
 _atom_site_fract_y
 _atom_site_fract_z
 _atom_site_occupancy
  K  K0  1  0.750000  0.724832  0.334558  1
  K  K1  1  0.250000  0.776096  0.831973  1
  K  K2  1  0.250000  0.274924  0.666628  1
  K  K3  1  0.750000  0.223483  0.166674  1
  Sn  Sn4  1  0.250000  0.361818  0.357767  1
  Sn  Sn5  1  0.250000  0.862275  0.144346  1
  Sn  Sn6  1  0.750000  0.604381  0.056861  1
  Sn  Sn7  1  0.750000  0.639716  0.639863  1
  Sn  Sn8  1  0.750000  0.135490  0.857571  1
  Sn  Sn9  1  0.250000  0.896693  0.553072  1
  Sn  Sn10  1  0.750000  0.102757  0.446853  1
  Pb  Pb11  1  0.250000  0.397682  0.947326  1
  Au  Au12  1  0.250000  0.079232  0.974498  1
  Au  Au13  1  0.750000  0.474791  0.826173  1
  Au  Au14  1  0.750000  0.970417  0.664727  1
  Au  Au15  1  0.250000  0.535714  0.172111  1
  Au  Au16  1  0.250000  0.030486  0.335717  1
  Au  Au17  1  0.750000  0.909992  0.024152  1
  Au  Au18  1  0.250000  0.588609  0.522157  1
  Au  Au19  1  0.750000  0.410608  0.476973  1
