# generated using pymatgen
data_Nd3Mn8NiP6
_symmetry_space_group_name_H-M   'P 1'
_cell_length_a   3.74127900
_cell_length_b   10.94132900
_cell_length_c   12.80925600
_cell_angle_alpha   90.00000000
_cell_angle_beta   90.00000000
_cell_angle_gamma   90.00000000
_symmetry_Int_Tables_number   1
_chemical_formula_structural   Nd3Mn8NiP6
_chemical_formula_sum   'Nd6 Mn16 Ni2 P12'
_cell_volume   524.34131490
_cell_formula_units_Z   2
loop_
 _symmetry_equiv_pos_site_id
 _symmetry_equiv_pos_as_xyz
  1  'x, y, z'
loop_
 _atom_site_type_symbol
 _atom_site_label
 _atom_site_symmetry_multiplicity
 _atom_site_fract_x
 _atom_site_fract_y
 _atom_site_fract_z
 _atom_site_occupancy
  Nd  Nd0  1  0.000000  0.500000  0.529975  1
  Nd  Nd1  1  0.500000  0.000000  0.470025  1
  Nd  Nd2  1  0.500000  0.819162  0.205138  1
  Nd  Nd3  1  0.500000  0.180838  0.205138  1
  Nd  Nd4  1  0.000000  0.680838  0.794862  1
  Nd  Nd5  1  0.000000  0.319162  0.794862  1
  Mn  Mn6  1  0.000000  0.500000  0.991541  1
  Mn  Mn7  1  0.500000  0.000000  0.008459  1
  Mn  Mn8  1  0.500000  0.298743  0.431738  1
  Mn  Mn9  1  0.500000  0.701257  0.431738  1
  Mn  Mn10  1  0.000000  0.201257  0.568262  1
  Mn  Mn11  1  0.000000  0.798743  0.568262  1
  Mn  Mn12  1  0.500000  0.884398  0.703514  1
  Mn  Mn13  1  0.500000  0.115602  0.703514  1
  Mn  Mn14  1  0.000000  0.615602  0.296486  1
  Mn  Mn15  1  0.000000  0.384398  0.296486  1
  Mn  Mn16  1  0.500000  0.333423  0.998658  1
  Mn  Mn17  1  0.500000  0.666577  0.998658  1
  Mn  Mn18  1  0.000000  0.166577  0.001342  1
  Mn  Mn19  1  0.000000  0.833423  0.001342  1
  Mn  Mn20  1  0.500000  0.500000  0.166909  1
  Mn  Mn21  1  0.000000  0.000000  0.833091  1
  Ni  Ni22  1  0.500000  0.500000  0.705690  1
  Ni  Ni23  1  0.000000  0.000000  0.294310  1
  P  P24  1  0.500000  0.311967  0.616289  1
  P  P25  1  0.500000  0.688033  0.616289  1
  P  P26  1  0.000000  0.188033  0.383711  1
  P  P27  1  0.000000  0.811967  0.383711  1
  P  P28  1  0.500000  0.500000  0.884948  1
  P  P29  1  0.000000  0.000000  0.115052  1
  P  P30  1  0.500000  0.848554  0.887885  1
  P  P31  1  0.500000  0.151446  0.887885  1
  P  P32  1  0.000000  0.651446  0.112115  1
  P  P33  1  0.000000  0.348554  0.112115  1
  P  P34  1  0.500000  0.500000  0.355488  1
  P  P35  1  0.000000  0.000000  0.644512  1
