# generated using pymatgen
data_YbHo2Si6(Pd7Pt3)2
_symmetry_space_group_name_H-M   'P 1'
_cell_length_a   8.70835148
_cell_length_b   8.72615089
_cell_length_c   8.72601700
_cell_angle_alpha   59.99824118
_cell_angle_beta   59.93237907
_cell_angle_gamma   59.93224791
_symmetry_Int_Tables_number   1
_chemical_formula_structural   YbHo2Si6(Pd7Pt3)2
_chemical_formula_sum   'Yb1 Ho2 Si6 Pd14 Pt6'
_cell_volume   468.39137196
_cell_formula_units_Z   1
loop_
 _symmetry_equiv_pos_site_id
 _symmetry_equiv_pos_as_xyz
  1  'x, y, z'
loop_
 _atom_site_type_symbol
 _atom_site_label
 _atom_site_symmetry_multiplicity
 _atom_site_fract_x
 _atom_site_fract_y
 _atom_site_fract_z
 _atom_site_occupancy
  Yb  Yb0  1  0.000000  0.000000  0.000000  1
  Ho  Ho1  1  0.250925  0.249693  0.249680  1
  Ho  Ho2  1  0.749075  0.750307  0.750320  1
  Si  Si3  1  0.730917  0.268344  0.268334  1
  Si  Si4  1  0.269083  0.731656  0.731666  1
  Si  Si5  1  0.269085  0.731657  0.267596  1
  Si  Si6  1  0.730915  0.268343  0.732404  1
  Si  Si7  1  0.269082  0.267597  0.731664  1
  Si  Si8  1  0.730918  0.732403  0.268336  1
  Pd  Pd9  1  0.853088  0.382313  0.382298  1
  Pd  Pd10  1  0.146912  0.617687  0.617702  1
  Pd  Pd11  1  0.344367  0.000037  0.000029  1
  Pd  Pd12  1  0.655633  0.999963  0.999971  1
  Pd  Pd13  1  0.000017  0.344653  0.655321  1
  Pd  Pd14  1  0.999983  0.655347  0.344679  1
  Pd  Pd15  1  0.000020  0.344651  0.000010  1
  Pd  Pd16  1  0.655621  0.999964  0.344442  1
  Pd  Pd17  1  0.999980  0.655349  0.999990  1
  Pd  Pd18  1  0.344379  0.000036  0.655558  1
  Pd  Pd19  1  0.000003  0.000000  0.344661  1
  Pd  Pd20  1  0.999997  0.000000  0.655339  1
  Pd  Pd21  1  0.655601  0.344435  0.999980  1
  Pd  Pd22  1  0.344399  0.655565  0.000020  1
  Pt  Pt23  1  0.381188  0.384442  0.384445  1
  Pt  Pt24  1  0.618812  0.615558  0.615555  1
  Pt  Pt25  1  0.381194  0.384453  0.849908  1
  Pt  Pt26  1  0.381191  0.849935  0.384443  1
  Pt  Pt27  1  0.618806  0.615547  0.150092  1
  Pt  Pt28  1  0.618809  0.150065  0.615557  1
