# generated using pymatgen
data_LiPr8AgRh2
_symmetry_space_group_name_H-M   'P 1'
_cell_length_a   10.00596179
_cell_length_b   10.00596234
_cell_length_c   10.01949000
_cell_angle_alpha   59.95526083
_cell_angle_beta   59.95525900
_cell_angle_gamma   60.04451213
_symmetry_Int_Tables_number   1
_chemical_formula_structural   LiPr8AgRh2
_chemical_formula_sum   'Li2 Pr16 Ag2 Rh4'
_cell_volume   709.08775681
_cell_formula_units_Z   2
loop_
 _symmetry_equiv_pos_site_id
 _symmetry_equiv_pos_as_xyz
  1  'x, y, z'
loop_
 _atom_site_type_symbol
 _atom_site_label
 _atom_site_symmetry_multiplicity
 _atom_site_fract_x
 _atom_site_fract_y
 _atom_site_fract_z
 _atom_site_occupancy
  Li  Li0  1  0.568469  0.568469  0.577585  1
  Li  Li1  1  0.568469  0.568469  0.285476  1
  Pr  Pr2  1  0.349360  0.349360  0.350527  1
  Pr  Pr3  1  0.349360  0.349360  0.950752  1
  Pr  Pr4  1  0.348355  0.955253  0.348196  1
  Pr  Pr5  1  0.955253  0.348355  0.348196  1
  Pr  Pr6  1  0.813050  0.188457  0.187130  1
  Pr  Pr7  1  0.188457  0.813051  0.811363  1
  Pr  Pr8  1  0.188457  0.813050  0.187129  1
  Pr  Pr9  1  0.813050  0.188457  0.811363  1
  Pr  Pr10  1  0.191461  0.191461  0.808539  1
  Pr  Pr11  1  0.815693  0.815693  0.184307  1
  Pr  Pr12  1  0.939678  0.564798  0.561632  1
  Pr  Pr13  1  0.564798  0.939678  0.933892  1
  Pr  Pr14  1  0.564798  0.939678  0.561632  1
  Pr  Pr15  1  0.939678  0.564798  0.933892  1
  Pr  Pr16  1  0.564641  0.564641  0.935359  1
  Pr  Pr17  1  0.938268  0.938268  0.561732  1
  Ag  Ag18  1  0.583400  0.250120  0.583239  1
  Ag  Ag19  1  0.250120  0.583400  0.583239  1
  Rh  Rh20  1  0.143648  0.143648  0.141033  1
  Rh  Rh21  1  0.143648  0.143648  0.571672  1
  Rh  Rh22  1  0.144360  0.573528  0.141057  1
  Rh  Rh23  1  0.573528  0.144360  0.141057  1
