# generated using pymatgen
data_Pr7ErC3
_symmetry_space_group_name_H-M   'P 1'
_cell_length_a   6.80798388
_cell_length_b   7.22448300
_cell_length_c   13.35054198
_cell_angle_alpha   87.51116225
_cell_angle_beta   85.17567607
_cell_angle_gamma   90.61866988
_symmetry_Int_Tables_number   1
_chemical_formula_structural   Pr7ErC3
_chemical_formula_sum   'Pr7 Er1 C3'
_cell_volume   653.62287387
_cell_formula_units_Z   1
loop_
 _symmetry_equiv_pos_site_id
 _symmetry_equiv_pos_as_xyz
  1  'x, y, z'
loop_
 _atom_site_type_symbol
 _atom_site_label
 _atom_site_symmetry_multiplicity
 _atom_site_fract_x
 _atom_site_fract_y
 _atom_site_fract_z
 _atom_site_occupancy
  Pr  Pr0  1  0.882389  0.326764  0.587178  1
  Pr  Pr1  1  0.416522  0.710781  0.777642  1
  Pr  Pr2  1  0.763018  0.494044  0.368871  1
  Pr  Pr3  1  0.335870  0.736603  0.689491  1
  Pr  Pr4  1  0.077536  0.052033  0.979657  1
  Pr  Pr5  1  0.389433  0.894868  0.645452  1
  Pr  Pr6  1  0.378897  0.063485  0.081335  1
  Er  Er7  1  0.520915  0.794643  0.527691  1
  C  C8  1  0.857990  0.410780  0.085796  1
  C  C9  1  0.408571  0.930016  0.917633  1
  C  C10  1  0.784962  0.962263  0.085679  1
