# generated using pymatgen
data_Tb3AlGaNi6
_symmetry_space_group_name_H-M   'P 1'
_cell_length_a   7.72047871
_cell_length_b   7.70496417
_cell_length_c   7.70496438
_cell_angle_alpha   109.42626802
_cell_angle_beta   109.45294462
_cell_angle_gamma   109.45295599
_symmetry_Int_Tables_number   1
_chemical_formula_structural   Tb3AlGaNi6
_chemical_formula_sum   'Tb6 Al2 Ga2 Ni12'
_cell_volume   353.18283804
_cell_formula_units_Z   2
loop_
 _symmetry_equiv_pos_site_id
 _symmetry_equiv_pos_as_xyz
  1  'x, y, z'
loop_
 _atom_site_type_symbol
 _atom_site_label
 _atom_site_symmetry_multiplicity
 _atom_site_fract_x
 _atom_site_fract_y
 _atom_site_fract_z
 _atom_site_occupancy
  Tb  Tb0  1  0.711889  0.709463  0.002427  1
  Tb  Tb1  1  0.288111  0.997573  0.290537  1
  Tb  Tb2  1  0.000000  0.290058  0.290058  1
  Tb  Tb3  1  0.288111  0.290537  0.997573  1
  Tb  Tb4  1  0.711889  0.002427  0.709463  1
  Tb  Tb5  1  0.000000  0.709942  0.709942  1
  Al  Al6  1  0.500000  0.000000  0.000000  1
  Al  Al7  1  0.500000  0.500000  0.500000  1
  Ga  Ga8  1  0.000000  0.000000  0.500000  1
  Ga  Ga9  1  0.000000  0.500000  0.000000  1
  Ni  Ni10  1  0.337796  0.337857  0.672147  1
  Ni  Ni11  1  0.662204  0.000062  0.334351  1
  Ni  Ni12  1  0.000000  0.662355  0.337645  1
  Ni  Ni13  1  0.662204  0.334351  0.000062  1
  Ni  Ni14  1  0.337796  0.672147  0.337857  1
  Ni  Ni15  1  0.000000  0.337645  0.662355  1
  Ni  Ni16  1  0.337796  0.665649  0.999938  1
  Ni  Ni17  1  0.337796  0.999938  0.665649  1
  Ni  Ni18  1  0.670338  0.335170  0.335170  1
  Ni  Ni19  1  0.662204  0.662143  0.327853  1
  Ni  Ni20  1  0.662204  0.327853  0.662143  1
  Ni  Ni21  1  0.329662  0.664830  0.664830  1
