# generated using pymatgen
data_DyTh2(RhPb)3
_symmetry_space_group_name_H-M   'P 1'
_cell_length_a   7.85339202
_cell_length_b   7.85339218
_cell_length_c   3.95953900
_cell_angle_alpha   90.00000000
_cell_angle_beta   90.00000000
_cell_angle_gamma   120.65946744
_symmetry_Int_Tables_number   1
_chemical_formula_structural   DyTh2(RhPb)3
_chemical_formula_sum   'Dy1 Th2 Rh3 Pb3'
_cell_volume   210.07061353
_cell_formula_units_Z   1
loop_
 _symmetry_equiv_pos_site_id
 _symmetry_equiv_pos_as_xyz
  1  'x, y, z'
loop_
 _atom_site_type_symbol
 _atom_site_label
 _atom_site_symmetry_multiplicity
 _atom_site_fract_x
 _atom_site_fract_y
 _atom_site_fract_z
 _atom_site_occupancy
  Dy  Dy0  1  0.402984  0.402984  0.500000  1
  Th  Th1  1  0.591538  0.999927  0.500000  1
  Th  Th2  1  0.999927  0.591538  0.500000  1
  Rh  Rh3  1  0.991742  0.991742  0.500000  1
  Rh  Rh4  1  0.681483  0.331718  0.000000  1
  Rh  Rh5  1  0.331718  0.681483  0.000000  1
  Pb  Pb6  1  0.728895  0.728895  0.000000  1
  Pb  Pb7  1  0.260340  0.011372  0.000000  1
  Pb  Pb8  1  0.011372  0.260340  0.000000  1
