# generated using pymatgen
data_Np(AgI3)2
_symmetry_space_group_name_H-M   'P 1'
_cell_length_a   7.49920446
_cell_length_b   7.47299469
_cell_length_c   8.83281008
_cell_angle_alpha   115.16856618
_cell_angle_beta   89.87215859
_cell_angle_gamma   119.98831484
_symmetry_Int_Tables_number   1
_chemical_formula_structural   Np(AgI3)2
_chemical_formula_sum   'Np1 Ag2 I6'
_cell_volume   373.80336470
_cell_formula_units_Z   1
loop_
 _symmetry_equiv_pos_site_id
 _symmetry_equiv_pos_as_xyz
  1  'x, y, z'
loop_
 _atom_site_type_symbol
 _atom_site_label
 _atom_site_symmetry_multiplicity
 _atom_site_fract_x
 _atom_site_fract_y
 _atom_site_fract_z
 _atom_site_occupancy
  Np  Np0  1  0.000000  0.000000  0.000000  1
  Ag  Ag1  1  0.674554  0.348846  0.023209  1
  Ag  Ag2  1  0.325446  0.651155  0.976791  1
  I  I3  1  0.082237  0.484497  0.232333  1
  I  I4  1  0.401164  0.149030  0.231076  1
  I  I5  1  0.747853  0.829426  0.231496  1
  I  I6  1  0.252148  0.170574  0.768504  1
  I  I7  1  0.598836  0.850970  0.768924  1
  I  I8  1  0.917764  0.515503  0.767667  1
