# generated using pymatgen
data_MnPbO4
_symmetry_space_group_name_H-M   'P 1'
_cell_length_a   5.02794100
_cell_length_b   4.76593638
_cell_length_c   12.98216724
_cell_angle_alpha   68.39934112
_cell_angle_beta   90.00000000
_cell_angle_gamma   90.00000000
_symmetry_Int_Tables_number   1
_chemical_formula_structural   MnPbO4
_chemical_formula_sum   'Mn4 Pb4 O16'
_cell_volume   289.24255842
_cell_formula_units_Z   4
loop_
 _symmetry_equiv_pos_site_id
 _symmetry_equiv_pos_as_xyz
  1  'x, y, z'
loop_
 _atom_site_type_symbol
 _atom_site_label
 _atom_site_symmetry_multiplicity
 _atom_site_fract_x
 _atom_site_fract_y
 _atom_site_fract_z
 _atom_site_occupancy
  Mn  Mn0  1  0.249905  0.564274  0.436268  1
  Mn  Mn1  1  0.749905  0.435726  0.063732  1
  Mn  Mn2  1  0.750095  0.435726  0.563732  1
  Mn  Mn3  1  0.250095  0.564274  0.936268  1
  Pb  Pb4  1  0.749238  0.167708  0.332119  1
  Pb  Pb5  1  0.249238  0.832292  0.167881  1
  Pb  Pb6  1  0.250762  0.832292  0.667881  1
  Pb  Pb7  1  0.750762  0.167708  0.832119  1
  O  O8  1  0.562833  0.769475  0.455493  1
  O  O9  1  0.062833  0.230525  0.044507  1
  O  O10  1  0.437167  0.230525  0.544507  1
  O  O11  1  0.937167  0.769475  0.955493  1
  O  O12  1  0.937375  0.321926  0.454605  1
  O  O13  1  0.437375  0.678074  0.045395  1
  O  O14  1  0.062625  0.678074  0.545395  1
  O  O15  1  0.562625  0.321926  0.954605  1
  O  O16  1  0.104508  0.902589  0.319525  1
  O  O17  1  0.604508  0.097411  0.180475  1
  O  O18  1  0.895492  0.097411  0.680475  1
  O  O19  1  0.395492  0.902589  0.819525  1
  O  O20  1  0.396937  0.460999  0.319216  1
  O  O21  1  0.896937  0.539001  0.180784  1
  O  O22  1  0.603063  0.539001  0.680784  1
  O  O23  1  0.103063  0.460999  0.819216  1
