# generated using pymatgen
data_Ho5Er11In4RuRh3
_symmetry_space_group_name_H-M   'P 1'
_cell_length_a   9.59958682
_cell_length_b   9.60049637
_cell_length_c   9.60387270
_cell_angle_alpha   59.93818953
_cell_angle_beta   59.90275371
_cell_angle_gamma   59.95825622
_symmetry_Int_Tables_number   1
_chemical_formula_structural   Ho5Er11In4RuRh3
_chemical_formula_sum   'Ho5 Er11 In4 Ru1 Rh3'
_cell_volume   624.91014412
_cell_formula_units_Z   1
loop_
 _symmetry_equiv_pos_site_id
 _symmetry_equiv_pos_as_xyz
  1  'x, y, z'
loop_
 _atom_site_type_symbol
 _atom_site_label
 _atom_site_symmetry_multiplicity
 _atom_site_fract_x
 _atom_site_fract_y
 _atom_site_fract_z
 _atom_site_occupancy
  Ho  Ho0  1  0.188885  0.193299  0.810067  1
  Ho  Ho1  1  0.438763  0.060357  0.061686  1
  Ho  Ho2  1  0.437324  0.061892  0.437431  1
  Ho  Ho3  1  0.059022  0.439180  0.059469  1
  Ho  Ho4  1  0.650112  0.048302  0.649806  1
  Er  Er5  1  0.192341  0.808475  0.808902  1
  Er  Er6  1  0.061100  0.060171  0.438876  1
  Er  Er7  1  0.809796  0.193246  0.189364  1
  Er  Er8  1  0.809213  0.808497  0.192282  1
  Er  Er9  1  0.650393  0.649551  0.046851  1
  Er  Er10  1  0.652095  0.650696  0.651735  1
  Er  Er11  1  0.060403  0.436709  0.441547  1
  Er  Er12  1  0.046414  0.649948  0.650312  1
  Er  Er13  1  0.809334  0.193736  0.809263  1
  Er  Er14  1  0.441960  0.437018  0.060228  1
  Er  Er15  1  0.191582  0.808581  0.191852  1
  In  In16  1  0.417685  0.747045  0.417792  1
  In  In17  1  0.417802  0.416633  0.749013  1
  In  In18  1  0.749488  0.416012  0.417970  1
  In  In19  1  0.417087  0.418267  0.416346  1
  Ru  Ru20  1  0.857242  0.425235  0.857966  1
  Rh  Rh21  1  0.859230  0.859186  0.423163  1
  Rh  Rh22  1  0.423455  0.858249  0.859172  1
  Rh  Rh23  1  0.859281  0.859711  0.858912  1
