# generated using pymatgen
data_Er2BeB3Ir5
_symmetry_space_group_name_H-M   'P 1'
_cell_length_a   7.59897625
_cell_length_b   6.43551008
_cell_length_c   5.55422984
_cell_angle_alpha   77.07456450
_cell_angle_beta   56.02046182
_cell_angle_gamma   45.69906756
_symmetry_Int_Tables_number   1
_chemical_formula_structural   Er2BeB3Ir5
_chemical_formula_sum   'Er2 Be1 B3 Ir5'
_cell_volume   154.71113089
_cell_formula_units_Z   1
loop_
 _symmetry_equiv_pos_site_id
 _symmetry_equiv_pos_as_xyz
  1  'x, y, z'
loop_
 _atom_site_type_symbol
 _atom_site_label
 _atom_site_symmetry_multiplicity
 _atom_site_fract_x
 _atom_site_fract_y
 _atom_site_fract_z
 _atom_site_occupancy
  Er  Er0  1  0.640226  0.638638  0.361361  1
  Er  Er1  1  0.366518  0.363884  0.636115  1
  Be  Be2  1  0.278265  0.996258  0.003741  1
  B  B3  1  0.032350  0.706221  0.293777  1
  B  B4  1  0.980240  0.282699  0.717299  1
  B  B5  1  0.705819  0.026544  0.973455  1
  Ir  Ir6  1  0.985846  0.991486  0.008514  1
  Ir  Ir7  1  0.501295  0.498753  0.998463  1
  Ir  Ir8  1  0.252185  0.250271  0.256293  1
  Ir  Ir9  1  0.998512  0.001537  0.501248  1
  Ir  Ir10  1  0.758749  0.743707  0.749730  1
