# generated using pymatgen
data_SmDy7Sc12Si15Ru
_symmetry_space_group_name_H-M   'P 1'
_cell_length_a   7.08562404
_cell_length_b   7.45210876
_cell_length_c   13.95765107
_cell_angle_alpha   90.04358032
_cell_angle_beta   90.01018708
_cell_angle_gamma   90.21843082
_symmetry_Int_Tables_number   1
_chemical_formula_structural   SmDy7Sc12Si15Ru
_chemical_formula_sum   'Sm1 Dy7 Sc12 Si15 Ru1'
_cell_volume   736.99804947
_cell_formula_units_Z   1
loop_
 _symmetry_equiv_pos_site_id
 _symmetry_equiv_pos_as_xyz
  1  'x, y, z'
loop_
 _atom_site_type_symbol
 _atom_site_label
 _atom_site_symmetry_multiplicity
 _atom_site_fract_x
 _atom_site_fract_y
 _atom_site_fract_z
 _atom_site_occupancy
  Sm  Sm0  1  0.010769  0.177665  0.095207  1
  Dy  Dy1  1  0.991006  0.826511  0.903943  1
  Dy  Dy2  1  0.489365  0.676757  0.903933  1
  Dy  Dy3  1  0.991064  0.826648  0.595809  1
  Dy  Dy4  1  0.510808  0.323097  0.096013  1
  Dy  Dy5  1  0.011314  0.178947  0.403764  1
  Dy  Dy6  1  0.511082  0.322907  0.404184  1
  Dy  Dy7  1  0.489087  0.676705  0.595839  1
  Sc  Sc8  1  0.157622  0.501413  0.750033  1
  Sc  Sc9  1  0.838271  0.495855  0.250273  1
  Sc  Sc10  1  0.339205  0.005182  0.250217  1
  Sc  Sc11  1  0.669867  0.998967  0.750032  1
  Sc  Sc12  1  0.316466  0.171650  0.628136  1
  Sc  Sc13  1  0.671514  0.825666  0.374147  1
  Sc  Sc14  1  0.171345  0.677650  0.374304  1
  Sc  Sc15  1  0.671556  0.825434  0.126156  1
  Sc  Sc16  1  0.837592  0.319666  0.627845  1
  Sc  Sc17  1  0.317031  0.171584  0.871577  1
  Sc  Sc18  1  0.837063  0.320289  0.871982  1
  Sc  Sc19  1  0.171438  0.677495  0.126046  1
  Si  Si20  1  0.968367  0.883308  0.250561  1
  Si  Si21  1  0.469279  0.614203  0.250155  1
  Si  Si22  1  0.529287  0.388243  0.749895  1
  Si  Si23  1  0.286525  0.867396  0.749885  1
  Si  Si24  1  0.711980  0.128962  0.250915  1
  Si  Si25  1  0.214951  0.372469  0.250876  1
  Si  Si26  1  0.779962  0.626998  0.749919  1
  Si  Si27  1  0.159637  0.468351  0.537369  1
  Si  Si28  1  0.844250  0.535782  0.461515  1
  Si  Si29  1  0.344518  0.965763  0.460304  1
  Si  Si30  1  0.843594  0.537440  0.038020  1
  Si  Si31  1  0.655716  0.034716  0.538797  1
  Si  Si32  1  0.159999  0.469899  0.962025  1
  Si  Si33  1  0.655123  0.034399  0.960902  1
  Si  Si34  1  0.346605  0.964597  0.039321  1
  Ru  Ru35  1  0.026742  0.107390  0.750098  1
