# generated using pymatgen
data_Mn2PbO6
_symmetry_space_group_name_H-M   'P 1'
_cell_length_a   5.03856000
_cell_length_b   5.03859354
_cell_length_c   4.65655500
_cell_angle_alpha   90.00098651
_cell_angle_beta   90.00009472
_cell_angle_gamma   119.99713452
_symmetry_Int_Tables_number   1
_chemical_formula_structural   Mn2PbO6
_chemical_formula_sum   'Mn2 Pb1 O6'
_cell_volume   102.38201394
_cell_formula_units_Z   1
loop_
 _symmetry_equiv_pos_site_id
 _symmetry_equiv_pos_as_xyz
  1  'x, y, z'
loop_
 _atom_site_type_symbol
 _atom_site_label
 _atom_site_symmetry_multiplicity
 _atom_site_fract_x
 _atom_site_fract_y
 _atom_site_fract_z
 _atom_site_occupancy
  Mn  Mn0  1  0.666658  0.333327  0.499994  1
  Mn  Mn1  1  0.333342  0.666672  0.500006  1
  Pb  Pb2  1  0.000000  0.000000  0.000000  1
  O  O3  1  0.366414  0.000010  0.273696  1
  O  O4  1  0.999972  0.366405  0.273710  1
  O  O5  1  0.633588  0.633599  0.273692  1
  O  O6  1  0.633586  0.999990  0.726305  1
  O  O7  1  0.366410  0.366400  0.726309  1
  O  O8  1  0.000028  0.633594  0.726291  1
