# generated using pymatgen
data_Tb9Y7MgHg3Rh4
_symmetry_space_group_name_H-M   'P 1'
_cell_length_a   9.66210232
_cell_length_b   9.64617681
_cell_length_c   9.65767500
_cell_angle_alpha   59.96056471
_cell_angle_beta   60.01515991
_cell_angle_gamma   60.03054107
_symmetry_Int_Tables_number   1
_chemical_formula_structural   Tb9Y7MgHg3Rh4
_chemical_formula_sum   'Tb9 Y7 Mg1 Hg3 Rh4'
_cell_volume   636.50914190
_cell_formula_units_Z   1
loop_
 _symmetry_equiv_pos_site_id
 _symmetry_equiv_pos_as_xyz
  1  'x, y, z'
loop_
 _atom_site_type_symbol
 _atom_site_label
 _atom_site_symmetry_multiplicity
 _atom_site_fract_x
 _atom_site_fract_y
 _atom_site_fract_z
 _atom_site_occupancy
  Tb  Tb0  1  0.600499  0.598195  0.597593  1
  Tb  Tb1  1  0.600499  0.598195  0.203714  1
  Tb  Tb2  1  0.602060  0.202804  0.597569  1
  Tb  Tb3  1  0.191648  0.603771  0.602291  1
  Tb  Tb4  1  0.057495  0.440559  0.441977  1
  Tb  Tb5  1  0.436452  0.061038  0.062706  1
  Tb  Tb6  1  0.436452  0.061038  0.439802  1
  Tb  Tb7  1  0.057495  0.440559  0.059971  1
  Tb  Tb8  1  0.437280  0.438860  0.061929  1
  Y  Y9  1  0.057735  0.059080  0.441593  1
  Y  Y10  1  0.186119  0.813087  0.813536  1
  Y  Y11  1  0.812342  0.187149  0.185887  1
  Y  Y12  1  0.812342  0.187149  0.814621  1
  Y  Y13  1  0.186119  0.813087  0.187258  1
  Y  Y14  1  0.812208  0.814237  0.186777  1
  Y  Y15  1  0.185836  0.188234  0.812965  1
  Mg  Mg16  1  0.533989  0.821350  0.822330  1
  Hg  Hg17  1  0.832760  0.837316  0.836679  1
  Hg  Hg18  1  0.832760  0.837316  0.493244  1
  Hg  Hg19  1  0.832567  0.492359  0.837537  1
  Rh  Rh20  1  0.390013  0.393957  0.392972  1
  Rh  Rh21  1  0.390013  0.393957  0.823059  1
  Rh  Rh22  1  0.392563  0.821952  0.392743  1
  Rh  Rh23  1  0.822755  0.394752  0.391247  1
