# generated using pymatgen
data_KAl(CoO3)2
_symmetry_space_group_name_H-M   'P 1'
_cell_length_a   4.89998103
_cell_length_b   4.89961590
_cell_length_c   12.97679700
_cell_angle_alpha   79.54944843
_cell_angle_beta   100.42933728
_cell_angle_gamma   120.03106424
_symmetry_Int_Tables_number   1
_chemical_formula_structural   KAl(CoO3)2
_chemical_formula_sum   'K2 Al2 Co4 O12'
_cell_volume   263.75486795
_cell_formula_units_Z   2
loop_
 _symmetry_equiv_pos_site_id
 _symmetry_equiv_pos_as_xyz
  1  'x, y, z'
loop_
 _atom_site_type_symbol
 _atom_site_label
 _atom_site_symmetry_multiplicity
 _atom_site_fract_x
 _atom_site_fract_y
 _atom_site_fract_z
 _atom_site_occupancy
  K  K0  1  0.407678  0.907779  0.249999  1
  K  K1  1  0.592398  0.092281  0.750005  1
  Al  Al2  1  0.499844  0.500029  0.499966  1
  Al  Al3  1  0.000135  0.999964  0.000038  1
  Co  Co4  1  0.165862  0.833099  0.500078  1
  Co  Co5  1  0.333182  0.665958  0.999932  1
  Co  Co6  1  0.667076  0.333967  0.000125  1
  Co  Co7  1  0.833873  0.166957  0.499867  1
  O  O8  1  0.524158  0.812423  0.576242  1
  O  O9  1  0.687648  0.975670  0.076317  1
  O  O10  1  0.312598  0.024250  0.923755  1
  O  O11  1  0.859423  0.474754  0.576108  1
  O  O12  1  0.475561  0.187621  0.423695  1
  O  O13  1  0.810718  0.860477  0.423622  1
  O  O14  1  0.025376  0.640232  0.076205  1
  O  O15  1  0.974879  0.359670  0.923857  1
  O  O16  1  0.639924  0.689313  0.923724  1
  O  O17  1  0.189019  0.139594  0.576304  1
  O  O18  1  0.360329  0.310626  0.076344  1
  O  O19  1  0.140316  0.525333  0.423812  1
