# generated using pymatgen
data_YbZnCu4Sn
_symmetry_space_group_name_H-M   'P 1'
_cell_length_a   5.01723200
_cell_length_b   8.20281500
_cell_length_c   10.67509200
_cell_angle_alpha   90.00000000
_cell_angle_beta   90.00000000
_cell_angle_gamma   90.00000000
_symmetry_Int_Tables_number   1
_chemical_formula_structural   YbZnCu4Sn
_chemical_formula_sum   'Yb4 Zn4 Cu16 Sn4'
_cell_volume   439.33795787
_cell_formula_units_Z   4
loop_
 _symmetry_equiv_pos_site_id
 _symmetry_equiv_pos_as_xyz
  1  'x, y, z'
loop_
 _atom_site_type_symbol
 _atom_site_label
 _atom_site_symmetry_multiplicity
 _atom_site_fract_x
 _atom_site_fract_y
 _atom_site_fract_z
 _atom_site_occupancy
  Yb  Yb0  1  0.250000  0.748013  0.059093  1
  Yb  Yb1  1  0.750000  0.251987  0.940907  1
  Yb  Yb2  1  0.750000  0.751987  0.559093  1
  Yb  Yb3  1  0.250000  0.248013  0.440907  1
  Zn  Zn4  1  0.250000  0.811459  0.737953  1
  Zn  Zn5  1  0.750000  0.188541  0.262047  1
  Zn  Zn6  1  0.750000  0.688541  0.237953  1
  Zn  Zn7  1  0.250000  0.311459  0.762047  1
  Cu  Cu8  1  0.502750  0.565671  0.812927  1
  Cu  Cu9  1  0.497250  0.434329  0.187073  1
  Cu  Cu10  1  0.497250  0.934329  0.312927  1
  Cu  Cu11  1  0.002750  0.434329  0.187073  1
  Cu  Cu12  1  0.502750  0.065671  0.687073  1
  Cu  Cu13  1  0.997250  0.565671  0.812927  1
  Cu  Cu14  1  0.997250  0.065671  0.687073  1
  Cu  Cu15  1  0.002750  0.934329  0.312927  1
  Cu  Cu16  1  0.250000  0.913032  0.515093  1
  Cu  Cu17  1  0.750000  0.086968  0.484907  1
  Cu  Cu18  1  0.750000  0.586968  0.015093  1
  Cu  Cu19  1  0.250000  0.413032  0.984907  1
  Cu  Cu20  1  0.250000  0.556095  0.601201  1
  Cu  Cu21  1  0.750000  0.443905  0.398799  1
  Cu  Cu22  1  0.750000  0.943905  0.101201  1
  Cu  Cu23  1  0.250000  0.056095  0.898799  1
  Sn  Sn24  1  0.250000  0.635629  0.363968  1
  Sn  Sn25  1  0.750000  0.364371  0.636032  1
  Sn  Sn26  1  0.750000  0.864371  0.863968  1
  Sn  Sn27  1  0.250000  0.135629  0.136032  1
