# generated using pymatgen
data_AcEu3H10
_symmetry_space_group_name_H-M   'P 1'
_cell_length_a   6.84071278
_cell_length_b   6.84071309
_cell_length_c   6.84071302
_cell_angle_alpha   131.49792818
_cell_angle_beta   130.89775253
_cell_angle_gamma   71.50002696
_symmetry_Int_Tables_number   1
_chemical_formula_structural   AcEu3H10
_chemical_formula_sum   'Ac1 Eu3 H10'
_cell_volume   177.34970711
_cell_formula_units_Z   1
loop_
 _symmetry_equiv_pos_site_id
 _symmetry_equiv_pos_as_xyz
  1  'x, y, z'
loop_
 _atom_site_type_symbol
 _atom_site_label
 _atom_site_symmetry_multiplicity
 _atom_site_fract_x
 _atom_site_fract_y
 _atom_site_fract_z
 _atom_site_occupancy
  Ac  Ac0  1  0.764248  0.764248  0.000000  1
  Eu  Eu1  1  0.514099  0.014099  0.500000  1
  Eu  Eu2  1  0.234691  0.234691  0.000000  1
  Eu  Eu3  1  0.986065  0.486065  0.500000  1
  H  H4  1  0.591498  0.621854  0.456644  1
  H  H5  1  0.165211  0.134854  0.543356  1
  H  H6  1  0.591498  0.134854  0.969643  1
  H  H7  1  0.165211  0.621854  0.030357  1
  H  H8  1  0.364210  0.395110  0.514634  1
  H  H9  1  0.880476  0.849576  0.485366  1
  H  H10  1  0.880476  0.395110  0.030900  1
  H  H11  1  0.364210  0.849576  0.969100  1
  H  H12  1  0.750970  0.250970  0.500000  1
  H  H13  1  0.997137  0.997137  0.000000  1
