# generated using pymatgen
data_K5Er(MoH9)3
_symmetry_space_group_name_H-M   'P 1'
_cell_length_a   9.48880900
_cell_length_b   9.33969129
_cell_length_c   5.42991400
_cell_angle_alpha   90.00000000
_cell_angle_beta   90.00000000
_cell_angle_gamma   119.48151335
_symmetry_Int_Tables_number   1
_chemical_formula_structural   K5Er(MoH9)3
_chemical_formula_sum   'K5 Er1 Mo3 H27'
_cell_volume   418.90274224
_cell_formula_units_Z   1
loop_
 _symmetry_equiv_pos_site_id
 _symmetry_equiv_pos_as_xyz
  1  'x, y, z'
loop_
 _atom_site_type_symbol
 _atom_site_label
 _atom_site_symmetry_multiplicity
 _atom_site_fract_x
 _atom_site_fract_y
 _atom_site_fract_z
 _atom_site_occupancy
  K  K0  1  0.730949  0.741057  0.500000  1
  K  K1  1  0.269051  0.010108  0.500000  1
  K  K2  1  0.000000  0.608430  0.000000  1
  K  K3  1  0.416968  0.397052  0.000000  1
  K  K4  1  0.583032  0.980084  0.000000  1
  Er  Er5  1  0.000000  0.253368  0.500000  1
  Mo  Mo6  1  0.714176  0.331695  0.500000  1
  Mo  Mo7  1  0.285824  0.617522  0.500000  1
  Mo  Mo8  1  0.000000  0.038109  0.000000  1
  H  H9  1  0.841532  0.325054  0.736095  1
  H  H10  1  0.721647  0.462343  0.734804  1
  H  H11  1  0.558864  0.204458  0.704448  1
  H  H12  1  0.158468  0.483523  0.263905  1
  H  H13  1  0.558864  0.204458  0.295552  1
  H  H14  1  0.841532  0.325054  0.263905  1
  H  H15  1  0.721647  0.462343  0.265196  1
  H  H16  1  0.278353  0.740697  0.734804  1
  H  H17  1  0.441136  0.645593  0.704448  1
  H  H18  1  0.179429  0.034036  0.000000  1
  H  H19  1  0.820571  0.854607  0.000000  1
  H  H20  1  0.000000  0.227346  0.000000  1
  H  H21  1  0.869535  0.033780  0.240789  1
  H  H22  1  0.130465  0.164245  0.759211  1
  H  H23  1  0.000000  0.898409  0.785506  1
  H  H24  1  0.000000  0.898409  0.214494  1
  H  H25  1  0.130465  0.164245  0.240789  1
  H  H26  1  0.869535  0.033780  0.759211  1
  H  H27  1  0.133356  0.675706  0.500000  1
  H  H28  1  0.438480  0.821000  0.500000  1
  H  H29  1  0.287615  0.428212  0.500000  1
  H  H30  1  0.561520  0.382520  0.500000  1
  H  H31  1  0.866644  0.542350  0.500000  1
  H  H32  1  0.712385  0.140596  0.500000  1
  H  H33  1  0.158468  0.483523  0.736095  1
  H  H34  1  0.278353  0.740697  0.265196  1
  H  H35  1  0.441136  0.645593  0.295552  1
