# generated using pymatgen
data_TmZr4(ReTc)12
_symmetry_space_group_name_H-M   'P 1'
_cell_length_a   8.48545307
_cell_length_b   8.48545264
_cell_length_c   8.48545200
_cell_angle_alpha   109.47121911
_cell_angle_beta   109.47121809
_cell_angle_gamma   109.47122421
_symmetry_Int_Tables_number   1
_chemical_formula_structural   TmZr4(ReTc)12
_chemical_formula_sum   'Tm1 Zr4 Re12 Tc12'
_cell_volume   470.33049973
_cell_formula_units_Z   1
loop_
 _symmetry_equiv_pos_site_id
 _symmetry_equiv_pos_as_xyz
  1  'x, y, z'
loop_
 _atom_site_type_symbol
 _atom_site_label
 _atom_site_symmetry_multiplicity
 _atom_site_fract_x
 _atom_site_fract_y
 _atom_site_fract_z
 _atom_site_occupancy
  Tm  Tm0  1  0.000000  0.000000  0.000000  1
  Zr  Zr1  1  0.625339  0.000000  0.000000  1
  Zr  Zr2  1  0.000000  0.625339  0.000000  1
  Zr  Zr3  1  0.000000  0.000000  0.625339  1
  Zr  Zr4  1  0.374661  0.374661  0.374661  1
  Re  Re5  1  0.377182  0.194997  0.000000  1
  Re  Re6  1  0.182186  0.805003  0.805003  1
  Re  Re7  1  0.377182  0.000000  0.194997  1
  Re  Re8  1  0.194997  0.377182  0.000000  1
  Re  Re9  1  0.000000  0.377182  0.194997  1
  Re  Re10  1  0.805003  0.182186  0.805003  1
  Re  Re11  1  0.805003  0.805003  0.182186  1
  Re  Re12  1  0.000000  0.194997  0.377182  1
  Re  Re13  1  0.194997  0.000000  0.377182  1
  Re  Re14  1  0.622818  0.622818  0.817814  1
  Re  Re15  1  0.817814  0.622818  0.622818  1
  Re  Re16  1  0.622818  0.817814  0.622818  1
  Tc  Tc17  1  0.396220  0.675405  0.000000  1
  Tc  Tc18  1  0.720814  0.324595  0.324595  1
  Tc  Tc19  1  0.396220  0.000000  0.675405  1
  Tc  Tc20  1  0.675405  0.396220  0.000000  1
  Tc  Tc21  1  0.000000  0.396220  0.675405  1
  Tc  Tc22  1  0.324595  0.720814  0.324595  1
  Tc  Tc23  1  0.324595  0.324595  0.720814  1
  Tc  Tc24  1  0.000000  0.675405  0.396220  1
  Tc  Tc25  1  0.675405  0.000000  0.396220  1
  Tc  Tc26  1  0.603780  0.603780  0.279186  1
  Tc  Tc27  1  0.279186  0.603780  0.603780  1
  Tc  Tc28  1  0.603780  0.279186  0.603780  1
