# generated using pymatgen
data_HoNbCrB6
_symmetry_space_group_name_H-M   'P 1'
_cell_length_a   3.40349700
_cell_length_b   8.92103900
_cell_length_c   11.27741600
_cell_angle_alpha   90.00000000
_cell_angle_beta   90.00000000
_cell_angle_gamma   90.00000000
_symmetry_Int_Tables_number   1
_chemical_formula_structural   HoNbCrB6
_chemical_formula_sum   'Ho4 Nb4 Cr4 B24'
_cell_volume   342.41313117
_cell_formula_units_Z   4
loop_
 _symmetry_equiv_pos_site_id
 _symmetry_equiv_pos_as_xyz
  1  'x, y, z'
loop_
 _atom_site_type_symbol
 _atom_site_label
 _atom_site_symmetry_multiplicity
 _atom_site_fract_x
 _atom_site_fract_y
 _atom_site_fract_z
 _atom_site_occupancy
  Ho  Ho0  1  0.000000  0.822155  0.085863  1
  Ho  Ho1  1  0.000000  0.177845  0.914137  1
  Ho  Ho2  1  0.000000  0.322155  0.414137  1
  Ho  Ho3  1  0.000000  0.677845  0.585863  1
  Nb  Nb4  1  0.000000  0.444638  0.127869  1
  Nb  Nb5  1  0.000000  0.555362  0.872131  1
  Nb  Nb6  1  0.000000  0.944638  0.372131  1
  Nb  Nb7  1  0.000000  0.055362  0.627869  1
  Cr  Cr8  1  0.000000  0.143254  0.183427  1
  Cr  Cr9  1  0.000000  0.856746  0.816573  1
  Cr  Cr10  1  0.000000  0.643254  0.316573  1
  Cr  Cr11  1  0.000000  0.356746  0.683427  1
  B  B12  1  0.500000  0.054212  0.067393  1
  B  B13  1  0.500000  0.945788  0.932607  1
  B  B14  1  0.500000  0.554212  0.432607  1
  B  B15  1  0.500000  0.445788  0.567393  1
  B  B16  1  0.500000  0.253106  0.082543  1
  B  B17  1  0.500000  0.746894  0.917457  1
  B  B18  1  0.500000  0.753106  0.417457  1
  B  B19  1  0.500000  0.246894  0.582543  1
  B  B20  1  0.500000  0.296106  0.236476  1
  B  B21  1  0.500000  0.703894  0.763524  1
  B  B22  1  0.500000  0.796106  0.263524  1
  B  B23  1  0.500000  0.203894  0.736476  1
  B  B24  1  0.500000  0.129840  0.317449  1
  B  B25  1  0.500000  0.870160  0.682551  1
  B  B26  1  0.500000  0.629840  0.182551  1
  B  B27  1  0.500000  0.370160  0.817449  1
  B  B28  1  0.500000  0.481881  0.286975  1
  B  B29  1  0.500000  0.518119  0.713025  1
  B  B30  1  0.500000  0.981881  0.213025  1
  B  B31  1  0.500000  0.018119  0.786975  1
  B  B32  1  0.500000  0.099419  0.473784  1
  B  B33  1  0.500000  0.900581  0.526216  1
  B  B34  1  0.500000  0.599419  0.026216  1
  B  B35  1  0.500000  0.400581  0.973784  1
