# generated using pymatgen
data_TaNb3Ag4F28
_symmetry_space_group_name_H-M   'P 1'
_cell_length_a   5.71835320
_cell_length_b   8.69896606
_cell_length_c   13.10083178
_cell_angle_alpha   68.59456151
_cell_angle_beta   89.97339349
_cell_angle_gamma   89.95538881
_symmetry_Int_Tables_number   1
_chemical_formula_structural   TaNb3Ag4F28
_chemical_formula_sum   'Ta1 Nb3 Ag4 F28'
_cell_volume   606.73200322
_cell_formula_units_Z   1
loop_
 _symmetry_equiv_pos_site_id
 _symmetry_equiv_pos_as_xyz
  1  'x, y, z'
loop_
 _atom_site_type_symbol
 _atom_site_label
 _atom_site_symmetry_multiplicity
 _atom_site_fract_x
 _atom_site_fract_y
 _atom_site_fract_z
 _atom_site_occupancy
  Ta  Ta0  1  0.209540  0.292362  0.439631  1
  Nb  Nb1  1  0.710043  0.708811  0.059716  1
  Nb  Nb2  1  0.790407  0.709089  0.560929  1
  Nb  Nb3  1  0.289877  0.290025  0.939695  1
  Ag  Ag4  1  0.285606  0.859586  0.714398  1
  Ag  Ag5  1  0.785706  0.139967  0.785630  1
  Ag  Ag6  1  0.713725  0.138063  0.286022  1
  Ag  Ag7  1  0.214442  0.859081  0.212748  1
  F  F8  1  0.576948  0.978936  0.741755  1
  F  F9  1  0.076612  0.019841  0.759106  1
  F  F10  1  0.424411  0.019449  0.256279  1
  F  F11  1  0.924581  0.980362  0.239276  1
  F  F12  1  0.385261  0.324240  0.551428  1
  F  F13  1  0.886765  0.681255  0.945890  1
  F  F14  1  0.613093  0.681474  0.447436  1
  F  F15  1  0.111808  0.317894  0.053120  1
  F  F16  1  0.471856  0.255728  0.816833  1
  F  F17  1  0.971663  0.744426  0.683448  1
  F  F18  1  0.529205  0.743153  0.182951  1
  F  F19  1  0.025584  0.254519  0.320540  1
  F  F20  1  0.005397  0.290539  0.849098  1
  F  F21  1  0.505435  0.709393  0.651144  1
  F  F22  1  0.995487  0.707562  0.150065  1
  F  F23  1  0.489828  0.287358  0.350121  1
  F  F24  1  0.247830  0.052696  0.003240  1
  F  F25  1  0.748626  0.946572  0.496406  1
  F  F26  1  0.752877  0.945875  0.996761  1
  F  F27  1  0.251509  0.056842  0.507144  1
  F  F28  1  0.314347  0.522648  0.859933  1
  F  F29  1  0.815130  0.476849  0.641441  1
  F  F30  1  0.685018  0.476193  0.139819  1
  F  F31  1  0.190220  0.523366  0.358017  1
  F  F32  1  0.578460  0.273477  0.013679  1
  F  F33  1  0.079069  0.725313  0.487081  1
  F  F34  1  0.420775  0.726094  0.986231  1
  F  F35  1  0.922862  0.280961  0.512992  1
