# generated using pymatgen
data_Nd2HoPa(GePt)4
_symmetry_space_group_name_H-M   'P 1'
_cell_length_a   4.43358200
_cell_length_b   7.27763379
_cell_length_c   7.60652600
_cell_angle_alpha   90.05615011
_cell_angle_beta   90.00000000
_cell_angle_gamma   90.00000000
_symmetry_Int_Tables_number   1
_chemical_formula_structural   Nd2HoPa(GePt)4
_chemical_formula_sum   'Nd2 Ho1 Pa1 Ge4 Pt4'
_cell_volume   245.43194505
_cell_formula_units_Z   1
loop_
 _symmetry_equiv_pos_site_id
 _symmetry_equiv_pos_as_xyz
  1  'x, y, z'
loop_
 _atom_site_type_symbol
 _atom_site_label
 _atom_site_symmetry_multiplicity
 _atom_site_fract_x
 _atom_site_fract_y
 _atom_site_fract_z
 _atom_site_occupancy
  Nd  Nd0  1  0.750000  0.496117  0.288432  1
  Nd  Nd1  1  0.250000  0.504140  0.707858  1
  Ho  Ho2  1  0.750000  0.996824  0.207833  1
  Pa  Pa3  1  0.250000  0.001539  0.795550  1
  Ge  Ge4  1  0.250000  0.704739  0.091358  1
  Ge  Ge5  1  0.250000  0.193142  0.410631  1
  Ge  Ge6  1  0.750000  0.815460  0.583168  1
  Ge  Ge7  1  0.750000  0.311162  0.912952  1
  Pt  Pt8  1  0.250000  0.262607  0.073939  1
  Pt  Pt9  1  0.250000  0.800048  0.419148  1
  Pt  Pt10  1  0.750000  0.188889  0.591896  1
  Pt  Pt11  1  0.750000  0.725329  0.917234  1
