# generated using pymatgen
data_TbEr3Ga18(PdRu)3
_symmetry_space_group_name_H-M   'P 1'
_cell_length_a   7.61231708
_cell_length_b   7.61531055
_cell_length_c   9.56923218
_cell_angle_alpha   89.95782904
_cell_angle_beta   89.94002224
_cell_angle_gamma   120.13319000
_symmetry_Int_Tables_number   1
_chemical_formula_structural   TbEr3Ga18(PdRu)3
_chemical_formula_sum   'Tb1 Er3 Ga18 Pd3 Ru3'
_cell_volume   479.76335677
_cell_formula_units_Z   1
loop_
 _symmetry_equiv_pos_site_id
 _symmetry_equiv_pos_as_xyz
  1  'x, y, z'
loop_
 _atom_site_type_symbol
 _atom_site_label
 _atom_site_symmetry_multiplicity
 _atom_site_fract_x
 _atom_site_fract_y
 _atom_site_fract_z
 _atom_site_occupancy
  Tb  Tb0  1  0.996612  0.668480  0.251405  1
  Er  Er1  1  0.002607  0.331681  0.748022  1
  Er  Er2  1  0.668448  0.997512  0.251917  1
  Er  Er3  1  0.331768  0.003083  0.748290  1
  Ga  Ga4  1  0.129627  0.127865  0.249979  1
  Ga  Ga5  1  0.872809  0.870628  0.750023  1
  Ga  Ga6  1  0.004294  0.337002  0.081102  1
  Ga  Ga7  1  0.003537  0.665728  0.918335  1
  Ga  Ga8  1  0.000108  0.661617  0.579307  1
  Ga  Ga9  1  0.338918  0.000240  0.421311  1
  Ga  Ga10  1  0.000768  0.337949  0.420062  1
  Ga  Ga11  1  0.661391  0.999302  0.580152  1
  Ga  Ga12  1  0.662273  0.995765  0.918753  1
  Ga  Ga13  1  0.335027  0.996963  0.081103  1
  Ga  Ga14  1  0.339737  0.339295  0.564579  1
  Ga  Ga15  1  0.660283  0.660277  0.435687  1
  Ga  Ga16  1  0.660029  0.665725  0.068036  1
  Ga  Ga17  1  0.334291  0.339670  0.931776  1
  Ga  Ga18  1  0.337188  0.550796  0.250812  1
  Ga  Ga19  1  0.664643  0.453087  0.746483  1
  Ga  Ga20  1  0.546424  0.335081  0.253531  1
  Ga  Ga21  1  0.449010  0.662950  0.749193  1
  Pd  Pd22  1  0.671892  0.327863  0.999896  1
  Pd  Pd23  1  0.000639  0.999441  0.999912  1
  Pd  Pd24  1  0.999697  0.000404  0.500100  1
  Ru  Ru25  1  0.327576  0.672413  0.999710  1
  Ru  Ru26  1  0.327250  0.672772  0.500296  1
  Ru  Ru27  1  0.673153  0.326409  0.500227  1
