# generated using pymatgen
data_HoCoNi3MoP3
_symmetry_space_group_name_H-M   'P 1'
_cell_length_a   3.68430100
_cell_length_b   10.49586900
_cell_length_c   12.08245600
_cell_angle_alpha   90.00000000
_cell_angle_beta   90.00000000
_cell_angle_gamma   90.00000000
_symmetry_Int_Tables_number   1
_chemical_formula_structural   HoCoNi3MoP3
_chemical_formula_sum   'Ho4 Co4 Ni12 Mo4 P12'
_cell_volume   467.22785646
_cell_formula_units_Z   4
loop_
 _symmetry_equiv_pos_site_id
 _symmetry_equiv_pos_as_xyz
  1  'x, y, z'
loop_
 _atom_site_type_symbol
 _atom_site_label
 _atom_site_symmetry_multiplicity
 _atom_site_fract_x
 _atom_site_fract_y
 _atom_site_fract_z
 _atom_site_occupancy
  Ho  Ho0  1  0.250000  0.583095  0.707079  1
  Ho  Ho1  1  0.250000  0.916905  0.207079  1
  Ho  Ho2  1  0.750000  0.416905  0.292921  1
  Ho  Ho3  1  0.750000  0.083095  0.792921  1
  Co  Co4  1  0.250000  0.465897  0.933400  1
  Co  Co5  1  0.250000  0.034103  0.433400  1
  Co  Co6  1  0.750000  0.534103  0.066600  1
  Co  Co7  1  0.750000  0.965897  0.566600  1
  Ni  Ni8  1  0.250000  0.409934  0.487538  1
  Ni  Ni9  1  0.250000  0.090066  0.987538  1
  Ni  Ni10  1  0.750000  0.590066  0.512462  1
  Ni  Ni11  1  0.750000  0.909934  0.012462  1
  Ni  Ni12  1  0.250000  0.222086  0.177427  1
  Ni  Ni13  1  0.250000  0.277914  0.677427  1
  Ni  Ni14  1  0.750000  0.777914  0.822573  1
  Ni  Ni15  1  0.750000  0.722086  0.322573  1
  Ni  Ni16  1  0.250000  0.883959  0.702684  1
  Ni  Ni17  1  0.250000  0.616041  0.202684  1
  Ni  Ni18  1  0.750000  0.116041  0.297316  1
  Ni  Ni19  1  0.750000  0.383959  0.797316  1
  Mo  Mo20  1  0.250000  0.706964  0.989519  1
  Mo  Mo21  1  0.250000  0.793036  0.489519  1
  Mo  Mo22  1  0.750000  0.293036  0.010481  1
  Mo  Mo23  1  0.750000  0.206964  0.510481  1
  P  P24  1  0.250000  0.422614  0.113640  1
  P  P25  1  0.250000  0.077386  0.613640  1
  P  P26  1  0.750000  0.577386  0.886360  1
  P  P27  1  0.750000  0.922614  0.386360  1
  P  P28  1  0.250000  0.267032  0.867133  1
  P  P29  1  0.250000  0.232968  0.367133  1
  P  P30  1  0.750000  0.732968  0.132867  1
  P  P31  1  0.750000  0.767032  0.632867  1
  P  P32  1  0.250000  0.598196  0.389827  1
  P  P33  1  0.250000  0.901804  0.889827  1
  P  P34  1  0.750000  0.401804  0.610173  1
  P  P35  1  0.750000  0.098196  0.110173  1
