# generated using pymatgen
data_Lu4Ga18Ir5Pt
_symmetry_space_group_name_H-M   'P 1'
_cell_length_a   7.57661364
_cell_length_b   7.57661355
_cell_length_c   9.43931194
_cell_angle_alpha   89.94908619
_cell_angle_beta   89.94908804
_cell_angle_gamma   119.95798263
_symmetry_Int_Tables_number   1
_chemical_formula_structural   Lu4Ga18Ir5Pt
_chemical_formula_sum   'Lu4 Ga18 Ir5 Pt1'
_cell_volume   469.46615125
_cell_formula_units_Z   1
loop_
 _symmetry_equiv_pos_site_id
 _symmetry_equiv_pos_as_xyz
  1  'x, y, z'
loop_
 _atom_site_type_symbol
 _atom_site_label
 _atom_site_symmetry_multiplicity
 _atom_site_fract_x
 _atom_site_fract_y
 _atom_site_fract_z
 _atom_site_occupancy
  Lu  Lu0  1  0.997256  0.668987  0.248878  1
  Lu  Lu1  1  0.002744  0.331013  0.751122  1
  Lu  Lu2  1  0.668987  0.997256  0.248878  1
  Lu  Lu3  1  0.331013  0.002744  0.751122  1
  Ga  Ga4  1  0.339185  0.547973  0.249828  1
  Ga  Ga5  1  0.660815  0.452027  0.750172  1
  Ga  Ga6  1  0.547973  0.339185  0.249828  1
  Ga  Ga7  1  0.452027  0.660815  0.750172  1
  Ga  Ga8  1  0.998546  0.334535  0.081067  1
  Ga  Ga9  1  0.001454  0.665465  0.918933  1
  Ga  Ga10  1  0.001321  0.662666  0.582511  1
  Ga  Ga11  1  0.337334  0.998679  0.417489  1
  Ga  Ga12  1  0.998679  0.337334  0.417489  1
  Ga  Ga13  1  0.662666  0.001321  0.582511  1
  Ga  Ga14  1  0.665465  0.001454  0.918933  1
  Ga  Ga15  1  0.334535  0.998546  0.081067  1
  Ga  Ga16  1  0.334565  0.334565  0.569212  1
  Ga  Ga17  1  0.665435  0.665435  0.430788  1
  Ga  Ga18  1  0.668452  0.668452  0.067780  1
  Ga  Ga19  1  0.331548  0.331548  0.932220  1
  Ga  Ga20  1  0.128761  0.128761  0.248070  1
  Ga  Ga21  1  0.871239  0.871239  0.751930  1
  Ir  Ir22  1  0.672040  0.327960  0.000000  1
  Ir  Ir23  1  0.327960  0.672040  0.000000  1
  Ir  Ir24  1  0.328033  0.671967  0.500000  1
  Ir  Ir25  1  0.671967  0.328033  0.500000  1
  Ir  Ir26  1  0.000000  0.000000  0.000000  1
  Pt  Pt27  1  0.000000  0.000000  0.500000  1
