# generated using pymatgen
data_Pa8CrSe17
_symmetry_space_group_name_H-M   'P 1'
_cell_length_a   8.27397562
_cell_length_b   8.26404939
_cell_length_c   10.97599941
_cell_angle_alpha   79.94855865
_cell_angle_beta   80.09221102
_cell_angle_gamma   64.53322626
_symmetry_Int_Tables_number   1
_chemical_formula_structural   Pa8CrSe17
_chemical_formula_sum   'Pa8 Cr1 Se17'
_cell_volume   663.19356373
_cell_formula_units_Z   1
loop_
 _symmetry_equiv_pos_site_id
 _symmetry_equiv_pos_as_xyz
  1  'x, y, z'
loop_
 _atom_site_type_symbol
 _atom_site_label
 _atom_site_symmetry_multiplicity
 _atom_site_fract_x
 _atom_site_fract_y
 _atom_site_fract_z
 _atom_site_occupancy
  Pa  Pa0  1  0.819635  0.303332  0.298753  1
  Pa  Pa1  1  0.696651  0.180295  0.701224  1
  Pa  Pa2  1  0.180295  0.696609  0.701285  1
  Pa  Pa3  1  0.303307  0.819682  0.298788  1
  Pa  Pa4  1  0.201897  0.201966  0.542358  1
  Pa  Pa5  1  0.798108  0.798069  0.457717  1
  Pa  Pa6  1  0.680640  0.680611  0.985336  1
  Pa  Pa7  1  0.319357  0.319446  0.014663  1
  Cr  Cr8  1  0.000007  0.000012  0.999962  1
  Se  Se9  1  0.819588  0.434615  0.536515  1
  Se  Se10  1  0.565394  0.180455  0.463462  1
  Se  Se11  1  0.180419  0.565296  0.463533  1
  Se  Se12  1  0.434616  0.819498  0.536662  1
  Se  Se13  1  0.945526  0.323554  0.029208  1
  Se  Se14  1  0.676299  0.054732  0.970777  1
  Se  Se15  1  0.054751  0.676338  0.970646  1
  Se  Se16  1  0.323589  0.945553  0.029136  1
  Se  Se17  1  0.215338  0.215490  0.276326  1
  Se  Se18  1  0.784783  0.784657  0.723632  1
  Se  Se19  1  0.056751  0.056492  0.772183  1
  Se  Se20  1  0.943206  0.943368  0.227840  1
  Se  Se21  1  0.299687  0.299807  0.754624  1
  Se  Se22  1  0.700334  0.700232  0.245454  1
  Se  Se23  1  0.519447  0.519634  0.831256  1
  Se  Se24  1  0.480422  0.480266  0.168592  1
  Se  Se25  1  0.999954  0.999991  0.500069  1
