# generated using pymatgen
data_Sr4Si11GePd20
_symmetry_space_group_name_H-M   'P 1'
_cell_length_a   4.08455400
_cell_length_b   7.38303326
_cell_length_c   20.13809774
_cell_angle_alpha   90.03085339
_cell_angle_beta   90.00000000
_cell_angle_gamma   90.00000000
_symmetry_Int_Tables_number   1
_chemical_formula_structural   Sr4Si11GePd20
_chemical_formula_sum   'Sr4 Si11 Ge1 Pd20'
_cell_volume   607.29240337
_cell_formula_units_Z   1
loop_
 _symmetry_equiv_pos_site_id
 _symmetry_equiv_pos_as_xyz
  1  'x, y, z'
loop_
 _atom_site_type_symbol
 _atom_site_label
 _atom_site_symmetry_multiplicity
 _atom_site_fract_x
 _atom_site_fract_y
 _atom_site_fract_z
 _atom_site_occupancy
  Sr  Sr0  1  0.750000  0.376796  0.356684  1
  Sr  Sr1  1  0.750000  0.121802  0.857457  1
  Sr  Sr2  1  0.250000  0.621912  0.643182  1
  Sr  Sr3  1  0.250000  0.878469  0.142210  1
  Si  Si4  1  0.250000  0.373634  0.236256  1
  Si  Si5  1  0.750000  0.155990  0.074252  1
  Si  Si6  1  0.750000  0.916654  0.584243  1
  Si  Si7  1  0.750000  0.874719  0.262189  1
  Si  Si8  1  0.750000  0.583589  0.083329  1
  Si  Si9  1  0.250000  0.844197  0.925595  1
  Si  Si10  1  0.250000  0.125786  0.737294  1
  Si  Si11  1  0.250000  0.416409  0.916200  1
  Si  Si12  1  0.250000  0.083462  0.416598  1
  Si  Si13  1  0.750000  0.342597  0.575222  1
  Si  Si14  1  0.750000  0.625757  0.763319  1
  Ge  Ge15  1  0.250000  0.652363  0.423831  1
  Pd  Pd16  1  0.750000  0.119747  0.486951  1
  Pd  Pd17  1  0.250000  0.821861  0.800206  1
  Pd  Pd18  1  0.250000  0.680064  0.295549  1
  Pd  Pd19  1  0.750000  0.640694  0.883732  1
  Pd  Pd20  1  0.250000  0.140684  0.617409  1
  Pd  Pd21  1  0.250000  0.127462  0.994590  1
  Pd  Pd22  1  0.750000  0.177201  0.199595  1
  Pd  Pd23  1  0.250000  0.359353  0.116159  1
  Pd  Pd24  1  0.750000  0.868148  0.381893  1
  Pd  Pd25  1  0.250000  0.431179  0.795997  1
  Pd  Pd26  1  0.250000  0.881699  0.514555  1
  Pd  Pd27  1  0.750000  0.627221  0.509159  1
  Pd  Pd28  1  0.750000  0.379320  0.986890  1
  Pd  Pd29  1  0.250000  0.367562  0.497297  1
  Pd  Pd30  1  0.250000  0.070191  0.295909  1
  Pd  Pd31  1  0.750000  0.567359  0.203187  1
  Pd  Pd32  1  0.750000  0.931363  0.704457  1
  Pd  Pd33  1  0.750000  0.321947  0.700301  1
  Pd  Pd34  1  0.750000  0.872381  0.005413  1
  Pd  Pd35  1  0.250000  0.620427  0.012890  1
