# generated using pymatgen
data_Ho2Tm3Bi3C
_symmetry_space_group_name_H-M   'P 1'
_cell_length_a   6.42535100
_cell_length_b   9.09386558
_cell_length_c   9.09344000
_cell_angle_alpha   120.00154483
_cell_angle_beta   90.00000000
_cell_angle_gamma   90.00000000
_symmetry_Int_Tables_number   1
_chemical_formula_structural   Ho2Tm3Bi3C
_chemical_formula_sum   'Ho4 Tm6 Bi6 C2'
_cell_volume   460.14792093
_cell_formula_units_Z   2
loop_
 _symmetry_equiv_pos_site_id
 _symmetry_equiv_pos_as_xyz
  1  'x, y, z'
loop_
 _atom_site_type_symbol
 _atom_site_label
 _atom_site_symmetry_multiplicity
 _atom_site_fract_x
 _atom_site_fract_y
 _atom_site_fract_z
 _atom_site_occupancy
  Ho  Ho0  1  0.500006  0.333356  0.666704  1
  Ho  Ho1  1  0.500006  0.666652  0.333296  1
  Ho  Ho2  1  0.000006  0.666644  0.333296  1
  Ho  Ho3  1  0.000006  0.333348  0.666704  1
  Tm  Tm4  1  0.749996  0.204752  0.000000  1
  Tm  Tm5  1  0.750003  0.795209  0.795209  1
  Tm  Tm6  1  0.750003  0.000000  0.204791  1
  Tm  Tm7  1  0.249996  0.795248  0.000000  1
  Tm  Tm8  1  0.250003  0.204791  0.204791  1
  Tm  Tm9  1  0.250003  0.000000  0.795209  1
  Bi  Bi10  1  0.750001  0.599770  0.000000  1
  Bi  Bi11  1  0.749994  0.400235  0.400223  1
  Bi  Bi12  1  0.749994  0.000013  0.599777  1
  Bi  Bi13  1  0.250001  0.400230  0.000000  1
  Bi  Bi14  1  0.249994  0.599765  0.599777  1
  Bi  Bi15  1  0.249994  0.999987  0.400223  1
  C  C16  1  0.499999  0.000000  0.000000  1
  C  C17  1  0.999999  0.000000  0.000000  1
