# generated using pymatgen
data_Li3La4YbPt4
_symmetry_space_group_name_H-M   'P 1'
_cell_length_a   4.20419100
_cell_length_b   7.42484746
_cell_length_c   8.95657326
_cell_angle_alpha   90.90690923
_cell_angle_beta   90.00000000
_cell_angle_gamma   90.00000000
_symmetry_Int_Tables_number   1
_chemical_formula_structural   Li3La4YbPt4
_chemical_formula_sum   'Li3 La4 Yb1 Pt4'
_cell_volume   279.54868219
_cell_formula_units_Z   1
loop_
 _symmetry_equiv_pos_site_id
 _symmetry_equiv_pos_as_xyz
  1  'x, y, z'
loop_
 _atom_site_type_symbol
 _atom_site_label
 _atom_site_symmetry_multiplicity
 _atom_site_fract_x
 _atom_site_fract_y
 _atom_site_fract_z
 _atom_site_occupancy
  Li  Li0  1  0.250000  0.129370  0.053017  1
  Li  Li1  1  0.250000  0.644004  0.436046  1
  Li  Li2  1  0.750000  0.875973  0.948193  1
  La  La3  1  0.250000  0.020171  0.694583  1
  La  La4  1  0.250000  0.552835  0.832515  1
  La  La5  1  0.750000  0.954392  0.306424  1
  La  La6  1  0.750000  0.458425  0.178190  1
  Yb  Yb7  1  0.750000  0.370538  0.560129  1
  Pt  Pt8  1  0.250000  0.237154  0.374198  1
  Pt  Pt9  1  0.250000  0.752695  0.115638  1
  Pt  Pt10  1  0.750000  0.750751  0.620206  1
  Pt  Pt11  1  0.750000  0.253690  0.880861  1
