# generated using pymatgen
data_Yb10Zn4CuRu
_symmetry_space_group_name_H-M   'P 1'
_cell_length_a   9.01698446
_cell_length_b   9.01698550
_cell_length_c   9.00051494
_cell_angle_alpha   129.17645608
_cell_angle_beta   129.00736581
_cell_angle_gamma   74.99948472
_symmetry_Int_Tables_number   1
_chemical_formula_structural   Yb10Zn4CuRu
_chemical_formula_sum   'Yb10 Zn4 Cu1 Ru1'
_cell_volume   428.96330948
_cell_formula_units_Z   1
loop_
 _symmetry_equiv_pos_site_id
 _symmetry_equiv_pos_as_xyz
  1  'x, y, z'
loop_
 _atom_site_type_symbol
 _atom_site_label
 _atom_site_symmetry_multiplicity
 _atom_site_fract_x
 _atom_site_fract_y
 _atom_site_fract_z
 _atom_site_occupancy
  Yb  Yb0  1  0.489784  0.497864  0.987649  1
  Yb  Yb1  1  0.004872  0.993515  0.998387  1
  Yb  Yb2  1  0.521290  0.026347  0.830170  1
  Yb  Yb3  1  0.179454  0.683706  0.137542  1
  Yb  Yb4  1  0.037008  0.202094  0.516657  1
  Yb  Yb5  1  0.705103  0.531924  0.517711  1
  Yb  Yb6  1  0.453837  0.958090  0.137542  1
  Yb  Yb7  1  0.803822  0.308879  0.830170  1
  Yb  Yb8  1  0.985787  0.812607  0.517711  1
  Yb  Yb9  1  0.314562  0.479649  0.516657  1
  Zn  Zn10  1  0.884200  0.383887  0.268088  1
  Zn  Zn11  1  0.615159  0.878428  0.493587  1
  Zn  Zn12  1  0.253180  0.255632  0.009057  1
  Zn  Zn13  1  0.753425  0.755877  0.009057  1
  Cu  Cu14  1  0.381363  0.114749  0.496111  1
  Ru  Ru15  1  0.117153  0.616753  0.733906  1
