# generated using pymatgen
data_Sc10Cd3Tc
_symmetry_space_group_name_H-M   'P 1'
_cell_length_a   8.93764000
_cell_length_b   8.93763925
_cell_length_c   9.29123800
_cell_angle_alpha   90.00000000
_cell_angle_beta   90.00000000
_cell_angle_gamma   119.99999538
_symmetry_Int_Tables_number   1
_chemical_formula_structural   Sc10Cd3Tc
_chemical_formula_sum   'Sc20 Cd6 Tc2'
_cell_volume   642.76158899
_cell_formula_units_Z   2
loop_
 _symmetry_equiv_pos_site_id
 _symmetry_equiv_pos_as_xyz
  1  'x, y, z'
loop_
 _atom_site_type_symbol
 _atom_site_label
 _atom_site_symmetry_multiplicity
 _atom_site_fract_x
 _atom_site_fract_y
 _atom_site_fract_z
 _atom_site_occupancy
  Sc  Sc0  1  0.000000  0.000000  0.500000  1
  Sc  Sc1  1  0.000000  0.000000  0.000000  1
  Sc  Sc2  1  0.210537  0.789463  0.443373  1
  Sc  Sc3  1  0.210537  0.421076  0.443373  1
  Sc  Sc4  1  0.578924  0.789463  0.443373  1
  Sc  Sc5  1  0.789463  0.210537  0.556627  1
  Sc  Sc6  1  0.789463  0.578924  0.556627  1
  Sc  Sc7  1  0.421076  0.210537  0.556627  1
  Sc  Sc8  1  0.789463  0.210537  0.943373  1
  Sc  Sc9  1  0.789463  0.578924  0.943373  1
  Sc  Sc10  1  0.421076  0.210537  0.943373  1
  Sc  Sc11  1  0.210537  0.789463  0.056627  1
  Sc  Sc12  1  0.210537  0.421076  0.056627  1
  Sc  Sc13  1  0.578924  0.789463  0.056627  1
  Sc  Sc14  1  0.539656  0.460344  0.250000  1
  Sc  Sc15  1  0.539656  0.079311  0.250000  1
  Sc  Sc16  1  0.920689  0.460344  0.250000  1
  Sc  Sc17  1  0.460344  0.539656  0.750000  1
  Sc  Sc18  1  0.460344  0.920689  0.750000  1
  Sc  Sc19  1  0.079311  0.539656  0.750000  1
  Cd  Cd20  1  0.884868  0.115132  0.250000  1
  Cd  Cd21  1  0.884868  0.769737  0.250000  1
  Cd  Cd22  1  0.230263  0.115132  0.250000  1
  Cd  Cd23  1  0.115132  0.884868  0.750000  1
  Cd  Cd24  1  0.115132  0.230263  0.750000  1
  Cd  Cd25  1  0.769737  0.884868  0.750000  1
  Tc  Tc26  1  0.333333  0.666667  0.250000  1
  Tc  Tc27  1  0.666667  0.333333  0.750000  1
