# generated using pymatgen
data_Nd2ErHf(NiAs)4
_symmetry_space_group_name_H-M   'P 1'
_cell_length_a   4.04114700
_cell_length_b   4.04114678
_cell_length_c   15.59515200
_cell_angle_alpha   90.00000000
_cell_angle_beta   90.00000000
_cell_angle_gamma   119.99999359
_symmetry_Int_Tables_number   1
_chemical_formula_structural   Nd2ErHf(NiAs)4
_chemical_formula_sum   'Nd2 Er1 Hf1 Ni4 As4'
_cell_volume   220.56141813
_cell_formula_units_Z   1
loop_
 _symmetry_equiv_pos_site_id
 _symmetry_equiv_pos_as_xyz
  1  'x, y, z'
loop_
 _atom_site_type_symbol
 _atom_site_label
 _atom_site_symmetry_multiplicity
 _atom_site_fract_x
 _atom_site_fract_y
 _atom_site_fract_z
 _atom_site_occupancy
  Nd  Nd0  1  0.000000  0.000000  0.006983  1
  Nd  Nd1  1  0.000000  0.000000  0.493017  1
  Er  Er2  1  0.000000  0.000000  0.750000  1
  Hf  Hf3  1  0.000000  0.000000  0.250000  1
  Ni  Ni4  1  0.333333  0.666667  0.163428  1
  Ni  Ni5  1  0.666667  0.333333  0.865793  1
  Ni  Ni6  1  0.666667  0.333333  0.634207  1
  Ni  Ni7  1  0.333333  0.666667  0.336572  1
  As  As8  1  0.333333  0.666667  0.623388  1
  As  As9  1  0.666667  0.333333  0.370408  1
  As  As10  1  0.666667  0.333333  0.129592  1
  As  As11  1  0.333333  0.666667  0.876612  1
