# generated using pymatgen
data_NaNd6RhI12
_symmetry_space_group_name_H-M   'P 1'
_cell_length_a   10.05676356
_cell_length_b   10.05676187
_cell_length_c   10.05676231
_cell_angle_alpha   106.90529218
_cell_angle_beta   106.90527569
_cell_angle_gamma   106.90527775
_symmetry_Int_Tables_number   1
_chemical_formula_structural   NaNd6RhI12
_chemical_formula_sum   'Na1 Nd6 Rh1 I12'
_cell_volume   849.25111037
_cell_formula_units_Z   1
loop_
 _symmetry_equiv_pos_site_id
 _symmetry_equiv_pos_as_xyz
  1  'x, y, z'
loop_
 _atom_site_type_symbol
 _atom_site_label
 _atom_site_symmetry_multiplicity
 _atom_site_fract_x
 _atom_site_fract_y
 _atom_site_fract_z
 _atom_site_occupancy
  Na  Na0  1  0.500000  0.500000  0.500000  1
  Nd  Nd1  1  0.898461  0.971842  0.692387  1
  Nd  Nd2  1  0.971842  0.692387  0.898461  1
  Nd  Nd3  1  0.692387  0.898461  0.971842  1
  Nd  Nd4  1  0.101539  0.028158  0.307613  1
  Nd  Nd5  1  0.028158  0.307613  0.101539  1
  Nd  Nd6  1  0.307613  0.101539  0.028158  1
  Rh  Rh7  1  0.000000  0.000000  0.000000  1
  I  I8  1  0.547995  0.855958  0.627102  1
  I  I9  1  0.855958  0.627102  0.547995  1
  I  I10  1  0.627102  0.547995  0.855958  1
  I  I11  1  0.452005  0.144042  0.372898  1
  I  I12  1  0.144042  0.372898  0.452005  1
  I  I13  1  0.372898  0.452005  0.144042  1
  I  I14  1  0.680479  0.223795  0.073122  1
  I  I15  1  0.223795  0.073122  0.680479  1
  I  I16  1  0.073122  0.680479  0.223795  1
  I  I17  1  0.319521  0.776205  0.926878  1
  I  I18  1  0.776205  0.926878  0.319521  1
  I  I19  1  0.926878  0.319521  0.776205  1
