# generated using pymatgen
data_Nd8Zn3Si12Ir
_symmetry_space_group_name_H-M   'P 1'
_cell_length_a   8.21738200
_cell_length_b   8.21738188
_cell_length_c   8.54690200
_cell_angle_alpha   90.00000000
_cell_angle_beta   90.00000000
_cell_angle_gamma   119.99999244
_symmetry_Int_Tables_number   1
_chemical_formula_structural   Nd8Zn3Si12Ir
_chemical_formula_sum   'Nd8 Zn3 Si12 Ir1'
_cell_volume   499.81160468
_cell_formula_units_Z   1
loop_
 _symmetry_equiv_pos_site_id
 _symmetry_equiv_pos_as_xyz
  1  'x, y, z'
loop_
 _atom_site_type_symbol
 _atom_site_label
 _atom_site_symmetry_multiplicity
 _atom_site_fract_x
 _atom_site_fract_y
 _atom_site_fract_z
 _atom_site_occupancy
  Nd  Nd0  1  0.500455  0.499545  0.749502  1
  Nd  Nd1  1  0.501378  0.498622  0.250460  1
  Nd  Nd2  1  0.999089  0.499545  0.749502  1
  Nd  Nd3  1  0.997243  0.498622  0.250460  1
  Nd  Nd4  1  0.500455  0.000911  0.749502  1
  Nd  Nd5  1  0.501378  0.002757  0.250460  1
  Nd  Nd6  1  0.000000  0.000000  0.750261  1
  Nd  Nd7  1  0.000000  0.000000  0.249988  1
  Zn  Zn8  1  0.666667  0.333333  0.995998  1
  Zn  Zn9  1  0.333333  0.666667  0.003280  1
  Zn  Zn10  1  0.333333  0.666667  0.497950  1
  Si  Si11  1  0.833443  0.166557  0.000882  1
  Si  Si12  1  0.166196  0.833804  0.999377  1
  Si  Si13  1  0.333114  0.166557  0.000882  1
  Si  Si14  1  0.163187  0.836813  0.499860  1
  Si  Si15  1  0.667610  0.833804  0.999377  1
  Si  Si16  1  0.830308  0.169692  0.500351  1
  Si  Si17  1  0.833443  0.666886  0.000882  1
  Si  Si18  1  0.673624  0.836813  0.499860  1
  Si  Si19  1  0.166196  0.332390  0.999377  1
  Si  Si20  1  0.339384  0.169692  0.500351  1
  Si  Si21  1  0.163187  0.326376  0.499860  1
  Si  Si22  1  0.830308  0.660616  0.500351  1
  Ir  Ir23  1  0.666667  0.333333  0.501226  1
