# generated using pymatgen
data_CsSr(VS2)6
_symmetry_space_group_name_H-M   'P 1'
_cell_length_a   5.57408100
_cell_length_b   5.57408097
_cell_length_c   16.41070200
_cell_angle_alpha   90.00000000
_cell_angle_beta   90.00000000
_cell_angle_gamma   119.99999426
_symmetry_Int_Tables_number   1
_chemical_formula_structural   CsSr(VS2)6
_chemical_formula_sum   'Cs1 Sr1 V6 S12'
_cell_volume   441.57488483
_cell_formula_units_Z   1
loop_
 _symmetry_equiv_pos_site_id
 _symmetry_equiv_pos_as_xyz
  1  'x, y, z'
loop_
 _atom_site_type_symbol
 _atom_site_label
 _atom_site_symmetry_multiplicity
 _atom_site_fract_x
 _atom_site_fract_y
 _atom_site_fract_z
 _atom_site_occupancy
  Cs  Cs0  1  0.000000  0.000000  0.500000  1
  Sr  Sr1  1  0.000000  0.000000  0.000000  1
  V  V2  1  0.000000  0.000000  0.226740  1
  V  V3  1  0.000000  0.000000  0.773260  1
  V  V4  1  0.333333  0.666667  0.227328  1
  V  V5  1  0.666667  0.333333  0.772672  1
  V  V6  1  0.666667  0.333333  0.227328  1
  V  V7  1  0.333333  0.666667  0.772672  1
  S  S8  1  0.338421  0.000000  0.137720  1
  S  S9  1  0.000000  0.338421  0.137720  1
  S  S10  1  0.661579  0.661579  0.137720  1
  S  S11  1  0.334332  0.334332  0.683831  1
  S  S12  1  0.665668  0.665668  0.316169  1
  S  S13  1  0.665668  0.000000  0.683831  1
  S  S14  1  0.000000  0.665668  0.683831  1
  S  S15  1  0.000000  0.661579  0.862280  1
  S  S16  1  0.338421  0.338421  0.862280  1
  S  S17  1  0.000000  0.334332  0.316169  1
  S  S18  1  0.334332  0.000000  0.316169  1
  S  S19  1  0.661579  0.000000  0.862280  1
