# generated using pymatgen
data_La13NdIr5Pd
_symmetry_space_group_name_H-M   'P 1'
_cell_length_a   10.24672900
_cell_length_b   10.23233985
_cell_length_c   6.58819400
_cell_angle_alpha   90.01034250
_cell_angle_beta   90.00000000
_cell_angle_gamma   120.04652579
_symmetry_Int_Tables_number   1
_chemical_formula_structural   La13NdIr5Pd
_chemical_formula_sum   'La13 Nd1 Ir5 Pd1'
_cell_volume   597.93422034
_cell_formula_units_Z   1
loop_
 _symmetry_equiv_pos_site_id
 _symmetry_equiv_pos_as_xyz
  1  'x, y, z'
loop_
 _atom_site_type_symbol
 _atom_site_label
 _atom_site_symmetry_multiplicity
 _atom_site_fract_x
 _atom_site_fract_y
 _atom_site_fract_z
 _atom_site_occupancy
  La  La0  1  0.666526  0.333051  0.973975  1
  La  La1  1  0.125899  0.874124  0.244887  1
  La  La2  1  0.748225  0.874124  0.244887  1
  La  La3  1  0.124874  0.249748  0.235390  1
  La  La4  1  0.864878  0.119906  0.746157  1
  La  La5  1  0.255028  0.119906  0.746157  1
  La  La6  1  0.875171  0.750343  0.744632  1
  La  La7  1  0.539614  0.462990  0.434950  1
  La  La8  1  0.923376  0.462990  0.434950  1
  La  La9  1  0.538689  0.077376  0.430361  1
  La  La10  1  0.468597  0.542962  0.938756  1
  La  La11  1  0.074365  0.542962  0.938756  1
  La  La12  1  0.459760  0.919520  0.933934  1
  Nd  Nd13  1  0.335909  0.671820  0.465558  1
  Ir  Ir14  1  0.815410  0.189311  0.194728  1
  Ir  Ir15  1  0.373900  0.189311  0.194728  1
  Ir  Ir16  1  0.812182  0.624365  0.194568  1
  Ir  Ir17  1  0.185769  0.810078  0.697151  1
  Ir  Ir18  1  0.624309  0.810078  0.697151  1
  Pd  Pd19  1  0.187518  0.375035  0.694111  1
