# generated using pymatgen
data_Ba5Sr2LaFe4O15
_symmetry_space_group_name_H-M   'P 1'
_cell_length_a   11.96626398
_cell_length_b   11.96626481
_cell_length_c   7.12519821
_cell_angle_alpha   90.51752123
_cell_angle_beta   90.51751633
_cell_angle_gamma   119.75542297
_symmetry_Int_Tables_number   1
_chemical_formula_structural   Ba5Sr2LaFe4O15
_chemical_formula_sum   'Ba10 Sr4 La2 Fe8 O30'
_cell_volume   885.60381574
_cell_formula_units_Z   2
loop_
 _symmetry_equiv_pos_site_id
 _symmetry_equiv_pos_as_xyz
  1  'x, y, z'
loop_
 _atom_site_type_symbol
 _atom_site_label
 _atom_site_symmetry_multiplicity
 _atom_site_fract_x
 _atom_site_fract_y
 _atom_site_fract_z
 _atom_site_occupancy
  Ba  Ba0  1  0.997232  0.998126  0.495172  1
  Ba  Ba1  1  0.998126  0.997232  0.995172  1
  Ba  Ba2  1  0.333840  0.663013  0.017632  1
  Ba  Ba3  1  0.663013  0.333840  0.517632  1
  Ba  Ba4  1  0.822946  0.649963  0.837817  1
  Ba  Ba5  1  0.347549  0.177952  0.833873  1
  Ba  Ba6  1  0.827894  0.174509  0.833627  1
  Ba  Ba7  1  0.177952  0.347549  0.333873  1
  Ba  Ba8  1  0.649963  0.822946  0.337817  1
  Ba  Ba9  1  0.174509  0.827894  0.333627  1
  Sr  Sr10  1  0.960521  0.480033  0.166503  1
  Sr  Sr11  1  0.520680  0.476627  0.172659  1
  Sr  Sr12  1  0.480033  0.960521  0.666503  1
  Sr  Sr13  1  0.476627  0.520680  0.672659  1
  La  La14  1  0.519003  0.041917  0.171359  1
  La  La15  1  0.041917  0.519003  0.671359  1
  Fe  Fe16  1  0.671780  0.336566  0.981546  1
  Fe  Fe17  1  0.336566  0.671780  0.481546  1
  Fe  Fe18  1  0.182289  0.823262  0.832154  1
  Fe  Fe19  1  0.177877  0.354709  0.835598  1
  Fe  Fe20  1  0.638211  0.821692  0.836539  1
  Fe  Fe21  1  0.823262  0.182289  0.332154  1
  Fe  Fe22  1  0.821692  0.638211  0.336539  1
  Fe  Fe23  1  0.354709  0.177877  0.335598  1
  O  O24  1  0.938736  0.330170  0.475014  1
  O  O25  1  0.678168  0.604594  0.479751  1
  O  O26  1  0.392369  0.063236  0.465572  1
  O  O27  1  0.938904  0.607076  0.476377  1
  O  O28  1  0.673235  0.072964  0.463832  1
  O  O29  1  0.390573  0.324074  0.481149  1
  O  O30  1  0.072964  0.673235  0.963832  1
  O  O31  1  0.324074  0.390573  0.981149  1
  O  O32  1  0.607076  0.938904  0.976377  1
  O  O33  1  0.063236  0.392369  0.965572  1
  O  O34  1  0.330170  0.938736  0.975014  1
  O  O35  1  0.604594  0.678168  0.979751  1
  O  O36  1  0.411317  0.591189  0.341571  1
  O  O37  1  0.416912  0.832678  0.326987  1
  O  O38  1  0.180717  0.591677  0.340217  1
  O  O39  1  0.591189  0.411317  0.841571  1
  O  O40  1  0.591677  0.180717  0.840217  1
  O  O41  1  0.832678  0.416912  0.826987  1
  O  O42  1  0.748019  0.250635  0.155615  1
  O  O43  1  0.749050  0.493405  0.159081  1
  O  O44  1  0.496134  0.242745  0.161650  1
  O  O45  1  0.250635  0.748019  0.655615  1
  O  O46  1  0.242745  0.496134  0.661650  1
  O  O47  1  0.493405  0.749050  0.659081  1
  O  O48  1  0.093196  0.186999  0.733893  1
  O  O49  1  0.798656  0.902584  0.722926  1
  O  O50  1  0.098315  0.903322  0.726372  1
  O  O51  1  0.902584  0.798656  0.222926  1
  O  O52  1  0.186999  0.093196  0.233893  1
  O  O53  1  0.903322  0.098315  0.226372  1
