# generated using pymatgen
data_Ho3Er9(CoNi)2
_symmetry_space_group_name_H-M   'P 1'
_cell_length_a   6.21644400
_cell_length_b   6.86164300
_cell_length_c   9.42064300
_cell_angle_alpha   90.00000000
_cell_angle_beta   90.00000000
_cell_angle_gamma   90.00020159
_symmetry_Int_Tables_number   1
_chemical_formula_structural   Ho3Er9(CoNi)2
_chemical_formula_sum   'Ho3 Er9 Co2 Ni2'
_cell_volume   401.83771047
_cell_formula_units_Z   1
loop_
 _symmetry_equiv_pos_site_id
 _symmetry_equiv_pos_as_xyz
  1  'x, y, z'
loop_
 _atom_site_type_symbol
 _atom_site_label
 _atom_site_symmetry_multiplicity
 _atom_site_fract_x
 _atom_site_fract_y
 _atom_site_fract_z
 _atom_site_occupancy
  Ho  Ho0  1  0.142069  0.035626  0.250000  1
  Ho  Ho1  1  0.864971  0.959485  0.750000  1
  Ho  Ho2  1  0.641739  0.464296  0.750000  1
  Er  Er3  1  0.674773  0.176017  0.067619  1
  Er  Er4  1  0.364330  0.540358  0.250000  1
  Er  Er5  1  0.822092  0.679717  0.434272  1
  Er  Er6  1  0.322282  0.819886  0.934427  1
  Er  Er7  1  0.174791  0.324450  0.567541  1
  Er  Er8  1  0.674773  0.176017  0.432381  1
  Er  Er9  1  0.174791  0.324450  0.932459  1
  Er  Er10  1  0.322282  0.819886  0.565573  1
  Er  Er11  1  0.822092  0.679717  0.065728  1
  Co  Co12  1  0.550872  0.888259  0.250000  1
  Co  Co13  1  0.051090  0.611557  0.750000  1
  Ni  Ni14  1  0.948772  0.389976  0.250000  1
  Ni  Ni15  1  0.448279  0.110303  0.750000  1
