# generated using pymatgen
data_Sm7Y(Lu3Sn4)4
_symmetry_space_group_name_H-M   'P 1'
_cell_length_a   7.99763279
_cell_length_b   8.13834629
_cell_length_c   15.34975825
_cell_angle_alpha   90.01529520
_cell_angle_beta   90.04358632
_cell_angle_gamma   89.97379211
_symmetry_Int_Tables_number   1
_chemical_formula_structural   Sm7Y(Lu3Sn4)4
_chemical_formula_sum   'Sm7 Y1 Lu12 Sn16'
_cell_volume   999.07703889
_cell_formula_units_Z   1
loop_
 _symmetry_equiv_pos_site_id
 _symmetry_equiv_pos_as_xyz
  1  'x, y, z'
loop_
 _atom_site_type_symbol
 _atom_site_label
 _atom_site_symmetry_multiplicity
 _atom_site_fract_x
 _atom_site_fract_y
 _atom_site_fract_z
 _atom_site_occupancy
  Sm  Sm0  1  0.019134  0.178674  0.596902  1
  Sm  Sm1  1  0.480881  0.678602  0.403192  1
  Sm  Sm2  1  0.980836  0.821435  0.096807  1
  Sm  Sm3  1  0.480823  0.678481  0.096711  1
  Sm  Sm4  1  0.980873  0.821377  0.403182  1
  Sm  Sm5  1  0.519077  0.321449  0.596720  1
  Sm  Sm6  1  0.019084  0.178753  0.903179  1
  Y  Y7  1  0.519342  0.321384  0.903028  1
  Lu  Lu8  1  0.364717  0.836478  0.876862  1
  Lu  Lu9  1  0.864633  0.663546  0.623164  1
  Lu  Lu10  1  0.635372  0.163553  0.376871  1
  Lu  Lu11  1  0.135357  0.336385  0.123115  1
  Lu  Lu12  1  0.635295  0.163658  0.123048  1
  Lu  Lu13  1  0.135373  0.336438  0.376862  1
  Lu  Lu14  1  0.364633  0.836441  0.623206  1
  Lu  Lu15  1  0.864600  0.663365  0.876850  1
  Lu  Lu16  1  0.196385  0.504924  0.750133  1
  Lu  Lu17  1  0.696126  0.995014  0.750084  1
  Lu  Lu18  1  0.803750  0.494892  0.250027  1
  Lu  Lu19  1  0.303776  0.005105  0.249976  1
  Sn  Sn20  1  0.299409  0.039779  0.041903  1
  Sn  Sn21  1  0.799252  0.460360  0.458044  1
  Sn  Sn22  1  0.700749  0.960350  0.541967  1
  Sn  Sn23  1  0.201496  0.539149  0.957873  1
  Sn  Sn24  1  0.700435  0.960853  0.957981  1
  Sn  Sn25  1  0.200687  0.539670  0.541966  1
  Sn  Sn26  1  0.299265  0.039629  0.458054  1
  Sn  Sn27  1  0.798481  0.460065  0.041687  1
  Sn  Sn28  1  0.562315  0.623377  0.750069  1
  Sn  Sn29  1  0.062323  0.876253  0.749996  1
  Sn  Sn30  1  0.437664  0.376295  0.249983  1
  Sn  Sn31  1  0.937650  0.123753  0.249991  1
  Sn  Sn32  1  0.328524  0.145699  0.750402  1
  Sn  Sn33  1  0.827566  0.354844  0.750168  1
  Sn  Sn34  1  0.672070  0.854835  0.249997  1
  Sn  Sn35  1  0.172049  0.645134  0.250004  1
