# generated using pymatgen
data_Lu4ScCu2Bi
_symmetry_space_group_name_H-M   'P 1'
_cell_length_a   8.32639597
_cell_length_b   8.32639566
_cell_length_c   8.32639648
_cell_angle_alpha   124.42970350
_cell_angle_beta   124.42971077
_cell_angle_gamma   82.48478590
_symmetry_Int_Tables_number   1
_chemical_formula_structural   Lu4ScCu2Bi
_chemical_formula_sum   'Lu8 Sc2 Cu4 Bi2'
_cell_volume   377.28717576
_cell_formula_units_Z   2
loop_
 _symmetry_equiv_pos_site_id
 _symmetry_equiv_pos_as_xyz
  1  'x, y, z'
loop_
 _atom_site_type_symbol
 _atom_site_label
 _atom_site_symmetry_multiplicity
 _atom_site_fract_x
 _atom_site_fract_y
 _atom_site_fract_z
 _atom_site_occupancy
  Lu  Lu0  1  0.791764  0.291764  0.809493  1
  Lu  Lu1  1  0.208236  0.708236  0.190507  1
  Lu  Lu2  1  0.482270  0.982270  0.190507  1
  Lu  Lu3  1  0.291764  0.482270  0.500000  1
  Lu  Lu4  1  0.017730  0.208236  0.500000  1
  Lu  Lu5  1  0.517730  0.017730  0.809493  1
  Lu  Lu6  1  0.708236  0.517730  0.500000  1
  Lu  Lu7  1  0.982270  0.791764  0.500000  1
  Sc  Sc8  1  0.000000  0.000000  0.000000  1
  Sc  Sc9  1  0.500000  0.500000  0.000000  1
  Cu  Cu10  1  0.134734  0.634734  0.769469  1
  Cu  Cu11  1  0.865266  0.365266  0.230531  1
  Cu  Cu12  1  0.634734  0.865266  0.500000  1
  Cu  Cu13  1  0.365266  0.134734  0.500000  1
  Bi  Bi14  1  0.250000  0.250000  0.000000  1
  Bi  Bi15  1  0.750000  0.750000  0.000000  1
