# generated using pymatgen
data_Ho4Al24Ir(PdPt)4
_symmetry_space_group_name_H-M   'P 1'
_cell_length_a   7.51895753
_cell_length_b   7.54402733
_cell_length_c   13.16916377
_cell_angle_alpha   84.67989520
_cell_angle_beta   79.15142204
_cell_angle_gamma   59.90568141
_symmetry_Int_Tables_number   1
_chemical_formula_structural   Ho4Al24Ir(PdPt)4
_chemical_formula_sum   'Ho4 Al24 Ir1 Pd4 Pt4'
_cell_volume   634.75108231
_cell_formula_units_Z   1
loop_
 _symmetry_equiv_pos_site_id
 _symmetry_equiv_pos_as_xyz
  1  'x, y, z'
loop_
 _atom_site_type_symbol
 _atom_site_label
 _atom_site_symmetry_multiplicity
 _atom_site_fract_x
 _atom_site_fract_y
 _atom_site_fract_z
 _atom_site_occupancy
  Ho  Ho0  1  0.393614  0.168539  0.808764  1
  Ho  Ho1  1  0.606386  0.831461  0.191236  1
  Ho  Ho2  1  0.733632  0.498457  0.808755  1
  Ho  Ho3  1  0.266368  0.501543  0.191245  1
  Al  Al4  1  0.686601  0.831123  0.945305  1
  Al  Al5  1  0.313399  0.168877  0.054695  1
  Al  Al6  1  0.146594  0.832501  0.561712  1
  Al  Al7  1  0.853406  0.167499  0.438288  1
  Al  Al8  1  0.480395  0.166142  0.559143  1
  Al  Al9  1  0.519605  0.833858  0.440857  1
  Al  Al10  1  0.217124  0.165476  0.328407  1
  Al  Al11  1  0.782876  0.834524  0.671593  1
  Al  Al12  1  0.436125  0.506980  0.671499  1
  Al  Al13  1  0.563875  0.493020  0.328501  1
  Al  Al14  1  0.109332  0.160119  0.669703  1
  Al  Al15  1  0.890668  0.839881  0.330297  1
  Al  Al16  1  0.350082  0.499327  0.945463  1
  Al  Al17  1  0.649918  0.500673  0.054537  1
  Al  Al18  1  0.015312  0.171035  0.954205  1
  Al  Al19  1  0.984688  0.828965  0.045795  1
  Al  Al20  1  0.186852  0.499407  0.441196  1
  Al  Al21  1  0.813148  0.500593  0.558804  1
  Al  Al22  1  0.734085  0.163680  0.183007  1
  Al  Al23  1  0.265915  0.836320  0.816993  1
  Al  Al24  1  0.061128  0.629455  0.817100  1
  Al  Al25  1  0.938872  0.370545  0.182900  1
  Al  Al26  1  0.855304  0.042039  0.816581  1
  Al  Al27  1  0.144696  0.957961  0.183419  1
  Ir  Ir28  1  0.000000  0.500000  0.000000  1
  Pd  Pd29  1  0.119806  0.492254  0.638916  1
  Pd  Pd30  1  0.880194  0.507746  0.361084  1
  Pd  Pd31  1  0.657341  0.171309  0.999769  1
  Pd  Pd32  1  0.342659  0.828691  0.000231  1
  Pt  Pt33  1  0.537467  0.166909  0.361920  1
  Pt  Pt34  1  0.462533  0.833091  0.638080  1
  Pt  Pt35  1  0.778621  0.174900  0.636921  1
  Pt  Pt36  1  0.221379  0.825100  0.363079  1
