# generated using pymatgen
data_Ho2Mg(Co3B2)3
_symmetry_space_group_name_H-M   'P 1'
_cell_length_a   5.76289083
_cell_length_b   5.76289231
_cell_length_c   5.76289129
_cell_angle_alpha   95.86617280
_cell_angle_beta   95.86617085
_cell_angle_gamma   95.86618404
_symmetry_Int_Tables_number   1
_chemical_formula_structural   Ho2Mg(Co3B2)3
_chemical_formula_sum   'Ho2 Mg1 Co9 B6'
_cell_volume   188.16043653
_cell_formula_units_Z   1
loop_
 _symmetry_equiv_pos_site_id
 _symmetry_equiv_pos_as_xyz
  1  'x, y, z'
loop_
 _atom_site_type_symbol
 _atom_site_label
 _atom_site_symmetry_multiplicity
 _atom_site_fract_x
 _atom_site_fract_y
 _atom_site_fract_z
 _atom_site_occupancy
  Ho  Ho0  1  0.674900  0.674900  0.674900  1
  Ho  Ho1  1  0.325100  0.325100  0.325100  1
  Mg  Mg2  1  0.000000  0.000000  0.000000  1
  Co  Co3  1  0.000000  0.000000  0.500000  1
  Co  Co4  1  0.500000  0.000000  0.000000  1
  Co  Co5  1  0.000000  0.500000  0.000000  1
  Co  Co6  1  0.701752  0.196765  0.701752  1
  Co  Co7  1  0.701752  0.701752  0.196765  1
  Co  Co8  1  0.196765  0.701752  0.701752  1
  Co  Co9  1  0.298248  0.803235  0.298248  1
  Co  Co10  1  0.298248  0.298248  0.803235  1
  Co  Co11  1  0.803235  0.298248  0.298248  1
  B  B12  1  0.620001  0.379999  0.000000  1
  B  B13  1  0.000000  0.620001  0.379999  1
  B  B14  1  0.379999  0.000000  0.620001  1
  B  B15  1  0.000000  0.379999  0.620001  1
  B  B16  1  0.620001  0.000000  0.379999  1
  B  B17  1  0.379999  0.620001  0.000000  1
