# generated using pymatgen
data_Th3AlIn2IrPdPt
_symmetry_space_group_name_H-M   'P 1'
_cell_length_a   7.65316326
_cell_length_b   7.65159366
_cell_length_c   4.08343000
_cell_angle_alpha   90.00000000
_cell_angle_beta   90.00000000
_cell_angle_gamma   120.56255372
_symmetry_Int_Tables_number   1
_chemical_formula_structural   Th3AlIn2IrPdPt
_chemical_formula_sum   'Th3 Al1 In2 Ir1 Pd1 Pt1'
_cell_volume   205.90113295
_cell_formula_units_Z   1
loop_
 _symmetry_equiv_pos_site_id
 _symmetry_equiv_pos_as_xyz
  1  'x, y, z'
loop_
 _atom_site_type_symbol
 _atom_site_label
 _atom_site_symmetry_multiplicity
 _atom_site_fract_x
 _atom_site_fract_y
 _atom_site_fract_z
 _atom_site_occupancy
  Th  Th0  1  0.420710  0.009936  0.500000  1
  Th  Th1  1  0.999481  0.415286  0.500000  1
  Th  Th2  1  0.576599  0.570732  0.500000  1
  Al  Al3  1  0.249609  0.246186  0.000000  1
  In  In4  1  0.755455  0.999737  0.000000  1
  In  In5  1  0.996727  0.754074  0.000000  1
  Ir  Ir6  1  0.645076  0.325600  0.000000  1
  Pd  Pd7  1  0.030800  0.031157  0.500000  1
  Pt  Pt8  1  0.325543  0.647291  0.000000  1
