# generated using pymatgen
data_Ho3Co2CuSn3
_symmetry_space_group_name_H-M   'P 1'
_cell_length_a   7.40033600
_cell_length_b   7.40033466
_cell_length_c   3.79813800
_cell_angle_alpha   90.00000000
_cell_angle_beta   90.00000000
_cell_angle_gamma   119.99999706
_symmetry_Int_Tables_number   1
_chemical_formula_structural   Ho3Co2CuSn3
_chemical_formula_sum   'Ho3 Co2 Cu1 Sn3'
_cell_volume   180.13752156
_cell_formula_units_Z   1
loop_
 _symmetry_equiv_pos_site_id
 _symmetry_equiv_pos_as_xyz
  1  'x, y, z'
loop_
 _atom_site_type_symbol
 _atom_site_label
 _atom_site_symmetry_multiplicity
 _atom_site_fract_x
 _atom_site_fract_y
 _atom_site_fract_z
 _atom_site_occupancy
  Ho  Ho0  1  0.393587  0.410160  0.500000  1
  Ho  Ho1  1  0.589840  0.983427  0.500000  1
  Ho  Ho2  1  0.016573  0.606413  0.500000  1
  Co  Co3  1  0.333333  0.666667  0.000000  1
  Co  Co4  1  0.000000  0.000000  0.500000  1
  Cu  Cu5  1  0.666667  0.333333  0.000000  1
  Sn  Sn6  1  0.742671  0.740888  0.000000  1
  Sn  Sn7  1  0.259112  0.001783  0.000000  1
  Sn  Sn8  1  0.998217  0.257329  0.000000  1
