# generated using pymatgen
data_Y3PaNiIr3
_symmetry_space_group_name_H-M   'P 1'
_cell_length_a   4.27677000
_cell_length_b   5.57158498
_cell_length_c   7.08766400
_cell_angle_alpha   91.92061053
_cell_angle_beta   90.00000000
_cell_angle_gamma   90.00000000
_symmetry_Int_Tables_number   1
_chemical_formula_structural   Y3PaNiIr3
_chemical_formula_sum   'Y3 Pa1 Ni1 Ir3'
_cell_volume   168.79272731
_cell_formula_units_Z   1
loop_
 _symmetry_equiv_pos_site_id
 _symmetry_equiv_pos_as_xyz
  1  'x, y, z'
loop_
 _atom_site_type_symbol
 _atom_site_label
 _atom_site_symmetry_multiplicity
 _atom_site_fract_x
 _atom_site_fract_y
 _atom_site_fract_z
 _atom_site_occupancy
  Y  Y0  1  0.750000  0.641085  0.320321  1
  Y  Y1  1  0.750000  0.861602  0.825236  1
  Y  Y2  1  0.250000  0.139541  0.180862  1
  Pa  Pa3  1  0.250000  0.363267  0.677256  1
  Ni  Ni4  1  0.250000  0.625878  0.029548  1
  Ir  Ir5  1  0.250000  0.835939  0.557108  1
  Ir  Ir6  1  0.750000  0.167752  0.468534  1
  Ir  Ir7  1  0.750000  0.364935  0.941132  1
