# generated using pymatgen
data_LiMgZr2(B4Ru5)2
_symmetry_space_group_name_H-M   'P 1'
_cell_length_a   3.00229700
_cell_length_b   8.44024053
_cell_length_c   10.09686181
_cell_angle_alpha   91.55007244
_cell_angle_beta   90.00000000
_cell_angle_gamma   90.00000000
_symmetry_Int_Tables_number   1
_chemical_formula_structural   LiMgZr2(B4Ru5)2
_chemical_formula_sum   'Li1 Mg1 Zr2 B8 Ru10'
_cell_volume   255.76195108
_cell_formula_units_Z   1
loop_
 _symmetry_equiv_pos_site_id
 _symmetry_equiv_pos_as_xyz
  1  'x, y, z'
loop_
 _atom_site_type_symbol
 _atom_site_label
 _atom_site_symmetry_multiplicity
 _atom_site_fract_x
 _atom_site_fract_y
 _atom_site_fract_z
 _atom_site_occupancy
  Li  Li0  1  0.500000  0.151172  0.677727  1
  Mg  Mg1  1  0.500000  0.846353  0.330406  1
  Zr  Zr2  1  0.500000  0.655402  0.811917  1
  Zr  Zr3  1  0.500000  0.342184  0.183010  1
  B  B4  1  0.500000  0.862230  0.600655  1
  B  B5  1  0.500000  0.144940  0.404003  1
  B  B6  1  0.500000  0.344073  0.890970  1
  B  B7  1  0.500000  0.651659  0.102624  1
  B  B8  1  0.500000  0.966273  0.910098  1
  B  B9  1  0.500000  0.033778  0.090782  1
  B  B10  1  0.500000  0.459768  0.587715  1
  B  B11  1  0.500000  0.538968  0.410848  1
  Ru  Ru12  1  0.000000  0.390727  0.734449  1
  Ru  Ru13  1  0.000000  0.603552  0.261426  1
  Ru  Ru14  1  0.000000  0.909149  0.761121  1
  Ru  Ru15  1  0.000000  0.091937  0.240902  1
  Ru  Ru16  1  0.000000  0.006245  0.504346  1
  Ru  Ru17  1  0.000000  0.498815  0.997827  1
  Ru  Ru18  1  0.000000  0.659353  0.549903  1
  Ru  Ru19  1  0.000000  0.344444  0.447648  1
  Ru  Ru20  1  0.000000  0.159384  0.957876  1
  Ru  Ru21  1  0.000000  0.839592  0.043746  1
