# generated using pymatgen
data_Pu8Si13Os3
_symmetry_space_group_name_H-M   'P 1'
_cell_length_a   8.20302300
_cell_length_b   8.19802377
_cell_length_c   7.77797000
_cell_angle_alpha   89.99834298
_cell_angle_beta   89.99864726
_cell_angle_gamma   120.00321282
_symmetry_Int_Tables_number   1
_chemical_formula_structural   Pu8Si13Os3
_chemical_formula_sum   'Pu8 Si13 Os3'
_cell_volume   452.96634617
_cell_formula_units_Z   1
loop_
 _symmetry_equiv_pos_site_id
 _symmetry_equiv_pos_as_xyz
  1  'x, y, z'
loop_
 _atom_site_type_symbol
 _atom_site_label
 _atom_site_symmetry_multiplicity
 _atom_site_fract_x
 _atom_site_fract_y
 _atom_site_fract_z
 _atom_site_occupancy
  Pu  Pu0  1  0.999988  0.000034  0.248187  1
  Pu  Pu1  1  0.000000  0.999996  0.751293  1
  Pu  Pu2  1  0.502801  0.497363  0.253433  1
  Pu  Pu3  1  0.502880  0.005586  0.253433  1
  Pu  Pu4  1  0.994475  0.497212  0.253349  1
  Pu  Pu5  1  0.501033  0.499020  0.746611  1
  Pu  Pu6  1  0.500862  0.001712  0.746596  1
  Pu  Pu7  1  0.998151  0.499099  0.746649  1
  Si  Si8  1  0.164786  0.835184  0.497833  1
  Si  Si9  1  0.164712  0.329409  0.498016  1
  Si  Si10  1  0.670472  0.835205  0.497771  1
  Si  Si11  1  0.836314  0.163639  0.500183  1
  Si  Si12  1  0.836365  0.672646  0.500143  1
  Si  Si13  1  0.327432  0.163659  0.500237  1
  Si  Si14  1  0.835118  0.164880  0.001484  1
  Si  Si15  1  0.835281  0.670610  0.001708  1
  Si  Si16  1  0.329633  0.164843  0.001861  1
  Si  Si17  1  0.165583  0.834445  0.999783  1
  Si  Si18  1  0.165423  0.331049  0.999721  1
  Si  Si19  1  0.668716  0.834476  0.999677  1
  Si  Si20  1  0.333325  0.666573  0.005185  1
  Os  Os21  1  0.333455  0.666659  0.502691  1
  Os  Os22  1  0.666624  0.333245  0.502717  1
  Os  Os23  1  0.666573  0.333457  0.991436  1
