# generated using pymatgen
data_Nd10ZnBi6Te
_symmetry_space_group_name_H-M   'P 1'
_cell_length_a   9.73973300
_cell_length_b   9.73973257
_cell_length_c   6.65801600
_cell_angle_alpha   90.00000000
_cell_angle_beta   90.00000000
_cell_angle_gamma   119.99999805
_symmetry_Int_Tables_number   1
_chemical_formula_structural   Nd10ZnBi6Te
_chemical_formula_sum   'Nd10 Zn1 Bi6 Te1'
_cell_volume   546.97762188
_cell_formula_units_Z   1
loop_
 _symmetry_equiv_pos_site_id
 _symmetry_equiv_pos_as_xyz
  1  'x, y, z'
loop_
 _atom_site_type_symbol
 _atom_site_label
 _atom_site_symmetry_multiplicity
 _atom_site_fract_x
 _atom_site_fract_y
 _atom_site_fract_z
 _atom_site_occupancy
  Nd  Nd0  1  0.666667  0.333333  0.000000  1
  Nd  Nd1  1  0.333333  0.666667  0.000000  1
  Nd  Nd2  1  0.333333  0.666667  0.500000  1
  Nd  Nd3  1  0.666667  0.333333  0.500000  1
  Nd  Nd4  1  0.732047  0.732047  0.741559  1
  Nd  Nd5  1  0.267953  0.000000  0.741559  1
  Nd  Nd6  1  0.000000  0.267953  0.741559  1
  Nd  Nd7  1  0.267953  0.267953  0.258441  1
  Nd  Nd8  1  0.732047  0.000000  0.258441  1
  Nd  Nd9  1  0.000000  0.732047  0.258441  1
  Zn  Zn10  1  0.000000  0.000000  0.500000  1
  Bi  Bi11  1  0.383811  0.383811  0.750245  1
  Bi  Bi12  1  0.616189  0.000000  0.750245  1
  Bi  Bi13  1  0.000000  0.616189  0.750245  1
  Bi  Bi14  1  0.616189  0.616189  0.249755  1
  Bi  Bi15  1  0.383811  0.000000  0.249755  1
  Bi  Bi16  1  0.000000  0.383811  0.249755  1
  Te  Te17  1  0.000000  0.000000  0.000000  1
