# generated using pymatgen
data_La6HoEr9(CdIr)4
_symmetry_space_group_name_H-M   'P 1'
_cell_length_a   9.78295602
_cell_length_b   9.78320049
_cell_length_c   9.78276885
_cell_angle_alpha   59.80561700
_cell_angle_beta   59.80091595
_cell_angle_gamma   59.80374143
_symmetry_Int_Tables_number   1
_chemical_formula_structural   La6HoEr9(CdIr)4
_chemical_formula_sum   'La6 Ho1 Er9 Cd4 Ir4'
_cell_volume   659.10642485
_cell_formula_units_Z   1
loop_
 _symmetry_equiv_pos_site_id
 _symmetry_equiv_pos_as_xyz
  1  'x, y, z'
loop_
 _atom_site_type_symbol
 _atom_site_label
 _atom_site_symmetry_multiplicity
 _atom_site_fract_x
 _atom_site_fract_y
 _atom_site_fract_z
 _atom_site_occupancy
  La  La0  1  0.191614  0.807147  0.807154  1
  La  La1  1  0.805138  0.194199  0.194138  1
  La  La2  1  0.807148  0.191604  0.807140  1
  La  La3  1  0.194177  0.805062  0.194215  1
  La  La4  1  0.807173  0.807135  0.191609  1
  La  La5  1  0.194177  0.194162  0.805107  1
  Ho  Ho6  1  0.596323  0.596318  0.596329  1
  Er  Er7  1  0.596817  0.596827  0.212126  1
  Er  Er8  1  0.596793  0.212157  0.596819  1
  Er  Er9  1  0.212107  0.596821  0.596863  1
  Er  Er10  1  0.062967  0.435920  0.435948  1
  Er  Er11  1  0.434296  0.063677  0.063630  1
  Er  Er12  1  0.435923  0.062979  0.435927  1
  Er  Er13  1  0.063702  0.434284  0.063655  1
  Er  Er14  1  0.435941  0.435933  0.062950  1
  Er  Er15  1  0.063676  0.063671  0.434282  1
  Cd  Cd16  1  0.827937  0.827916  0.827941  1
  Cd  Cd17  1  0.829103  0.829156  0.514050  1
  Cd  Cd18  1  0.829144  0.514011  0.829169  1
  Cd  Cd19  1  0.514040  0.829140  0.829130  1
  Ir  Ir20  1  0.391153  0.391216  0.391181  1
  Ir  Ir21  1  0.391508  0.391503  0.827642  1
  Ir  Ir22  1  0.391483  0.827669  0.391486  1
  Ir  Ir23  1  0.827659  0.391492  0.391506  1
