# generated using pymatgen
data_TbLu2(SiIr2)3
_symmetry_space_group_name_H-M   'P 1'
_cell_length_a   5.55060700
_cell_length_b   5.55060754
_cell_length_c   15.06439600
_cell_angle_alpha   90.00000000
_cell_angle_beta   90.00000000
_cell_angle_gamma   120.00000276
_symmetry_Int_Tables_number   1
_chemical_formula_structural   TbLu2(SiIr2)3
_chemical_formula_sum   'Tb2 Lu4 Si6 Ir12'
_cell_volume   401.94195751
_cell_formula_units_Z   2
loop_
 _symmetry_equiv_pos_site_id
 _symmetry_equiv_pos_as_xyz
  1  'x, y, z'
loop_
 _atom_site_type_symbol
 _atom_site_label
 _atom_site_symmetry_multiplicity
 _atom_site_fract_x
 _atom_site_fract_y
 _atom_site_fract_z
 _atom_site_occupancy
  Tb  Tb0  1  0.333333  0.666667  0.750000  1
  Tb  Tb1  1  0.666667  0.333333  0.250000  1
  Lu  Lu2  1  0.333333  0.666667  0.538633  1
  Lu  Lu3  1  0.666667  0.333333  0.461367  1
  Lu  Lu4  1  0.666667  0.333333  0.038633  1
  Lu  Lu5  1  0.333333  0.666667  0.961367  1
  Si  Si6  1  0.000000  0.000000  0.250000  1
  Si  Si7  1  0.000000  0.000000  0.750000  1
  Si  Si8  1  0.333333  0.666667  0.250000  1
  Si  Si9  1  0.666667  0.333333  0.750000  1
  Si  Si10  1  0.000000  0.000000  0.000000  1
  Si  Si11  1  0.000000  0.000000  0.500000  1
  Ir  Ir12  1  0.167796  0.335592  0.128745  1
  Ir  Ir13  1  0.832204  0.664408  0.871255  1
  Ir  Ir14  1  0.664408  0.832204  0.128745  1
  Ir  Ir15  1  0.832204  0.664408  0.628745  1
  Ir  Ir16  1  0.335592  0.167796  0.871255  1
  Ir  Ir17  1  0.167796  0.335592  0.371255  1
  Ir  Ir18  1  0.167796  0.832204  0.128745  1
  Ir  Ir19  1  0.335592  0.167796  0.628745  1
  Ir  Ir20  1  0.832204  0.167796  0.871255  1
  Ir  Ir21  1  0.664408  0.832204  0.371255  1
  Ir  Ir22  1  0.832204  0.167796  0.628745  1
  Ir  Ir23  1  0.167796  0.832204  0.371255  1
