# generated using pymatgen
data_Pr3Dy5Cd2IrRu
_symmetry_space_group_name_H-M   'P 1'
_cell_length_a   9.77905305
_cell_length_b   9.77905234
_cell_length_c   9.80900100
_cell_angle_alpha   59.89864381
_cell_angle_beta   59.89864626
_cell_angle_gamma   59.85679763
_symmetry_Int_Tables_number   1
_chemical_formula_structural   Pr3Dy5Cd2IrRu
_chemical_formula_sum   'Pr6 Dy10 Cd4 Ir2 Ru2'
_cell_volume   661.55436984
_cell_formula_units_Z   2
loop_
 _symmetry_equiv_pos_site_id
 _symmetry_equiv_pos_as_xyz
  1  'x, y, z'
loop_
 _atom_site_type_symbol
 _atom_site_label
 _atom_site_symmetry_multiplicity
 _atom_site_fract_x
 _atom_site_fract_y
 _atom_site_fract_z
 _atom_site_occupancy
  Pr  Pr0  1  0.940741  0.556872  0.560115  1
  Pr  Pr1  1  0.556872  0.940741  0.942272  1
  Pr  Pr2  1  0.556872  0.940741  0.560115  1
  Pr  Pr3  1  0.940741  0.556872  0.942272  1
  Pr  Pr4  1  0.558931  0.558931  0.941069  1
  Pr  Pr5  1  0.941665  0.941665  0.558335  1
  Dy  Dy6  1  0.346020  0.346020  0.345819  1
  Dy  Dy7  1  0.346020  0.346020  0.962140  1
  Dy  Dy8  1  0.345707  0.963447  0.345423  1
  Dy  Dy9  1  0.963447  0.345707  0.345423  1
  Dy  Dy10  1  0.813392  0.187214  0.187147  1
  Dy  Dy11  1  0.187214  0.813392  0.812247  1
  Dy  Dy12  1  0.187214  0.813392  0.187147  1
  Dy  Dy13  1  0.813392  0.187214  0.812247  1
  Dy  Dy14  1  0.186893  0.186893  0.813107  1
  Dy  Dy15  1  0.812224  0.812224  0.187776  1
  Cd  Cd16  1  0.579141  0.579141  0.578817  1
  Cd  Cd17  1  0.579141  0.579141  0.262900  1
  Cd  Cd18  1  0.579163  0.262357  0.579239  1
  Cd  Cd19  1  0.262357  0.579163  0.579239  1
  Ir  Ir20  1  0.142690  0.578070  0.139620  1
  Ir  Ir21  1  0.578070  0.142690  0.139620  1
  Ru  Ru22  1  0.141046  0.141046  0.137874  1
  Ru  Ru23  1  0.141046  0.141046  0.580034  1
