# generated using pymatgen
data_Tm12Fe2Co2BiRu
_symmetry_space_group_name_H-M   'P 1'
_cell_length_a   8.20742845
_cell_length_b   8.20742777
_cell_length_c   8.20742795
_cell_angle_alpha   111.28749361
_cell_angle_beta   111.83015467
_cell_angle_gamma   105.37263882
_symmetry_Int_Tables_number   1
_chemical_formula_structural   Tm12Fe2Co2BiRu
_chemical_formula_sum   'Tm12 Fe2 Co2 Bi1 Ru1'
_cell_volume   423.96939341
_cell_formula_units_Z   1
loop_
 _symmetry_equiv_pos_site_id
 _symmetry_equiv_pos_as_xyz
  1  'x, y, z'
loop_
 _atom_site_type_symbol
 _atom_site_label
 _atom_site_symmetry_multiplicity
 _atom_site_fract_x
 _atom_site_fract_y
 _atom_site_fract_z
 _atom_site_occupancy
  Tm  Tm0  1  0.280279  0.184171  0.464451  1
  Tm  Tm1  1  0.719721  0.815829  0.535549  1
  Tm  Tm2  1  0.280279  0.815829  0.096108  1
  Tm  Tm3  1  0.719721  0.184171  0.903892  1
  Tm  Tm4  1  0.618268  0.310119  0.308149  1
  Tm  Tm5  1  0.381732  0.689881  0.691851  1
  Tm  Tm6  1  0.001970  0.310119  0.691851  1
  Tm  Tm7  1  0.998030  0.689881  0.308149  1
  Tm  Tm8  1  0.214530  0.412489  0.197960  1
  Tm  Tm9  1  0.785470  0.587511  0.802040  1
  Tm  Tm10  1  0.214530  0.016571  0.802040  1
  Tm  Tm11  1  0.785470  0.983429  0.197960  1
  Fe  Fe12  1  0.000000  0.381616  0.381616  1
  Fe  Fe13  1  0.000000  0.618384  0.618384  1
  Co  Co14  1  0.389629  0.889629  0.500000  1
  Co  Co15  1  0.610371  0.110371  0.500000  1
  Bi  Bi16  1  0.500000  0.500000  0.000000  1
  Ru  Ru17  1  0.000000  0.000000  0.000000  1
