# generated using pymatgen
data_Tb3Nd13InHg3Ir4
_symmetry_space_group_name_H-M   'P 1'
_cell_length_a   9.91608137
_cell_length_b   9.90601369
_cell_length_c   9.88101560
_cell_angle_alpha   60.02345057
_cell_angle_beta   59.99194502
_cell_angle_gamma   60.22905052
_symmetry_Int_Tables_number   1
_chemical_formula_structural   Tb3Nd13InHg3Ir4
_chemical_formula_sum   'Tb3 Nd13 In1 Hg3 Ir4'
_cell_volume   687.57863648
_cell_formula_units_Z   1
loop_
 _symmetry_equiv_pos_site_id
 _symmetry_equiv_pos_as_xyz
  1  'x, y, z'
loop_
 _atom_site_type_symbol
 _atom_site_label
 _atom_site_symmetry_multiplicity
 _atom_site_fract_x
 _atom_site_fract_y
 _atom_site_fract_z
 _atom_site_occupancy
  Tb  Tb0  1  0.559423  0.939345  0.559630  1
  Tb  Tb1  1  0.701427  0.098303  0.100428  1
  Tb  Tb2  1  0.558717  0.943578  0.938791  1
  Nd  Nd3  1  0.100467  0.702201  0.099437  1
  Nd  Nd4  1  0.935033  0.940676  0.561618  1
  Nd  Nd5  1  0.939934  0.559462  0.940301  1
  Nd  Nd6  1  0.313979  0.691971  0.308151  1
  Nd  Nd7  1  0.935623  0.560525  0.560002  1
  Nd  Nd8  1  0.314850  0.309302  0.688193  1
  Nd  Nd9  1  0.100222  0.098257  0.098040  1
  Nd  Nd10  1  0.558319  0.559347  0.937645  1
  Nd  Nd11  1  0.102846  0.099259  0.699694  1
  Nd  Nd12  1  0.692441  0.306781  0.691083  1
  Nd  Nd13  1  0.690639  0.694343  0.306004  1
  Nd  Nd14  1  0.692821  0.308086  0.308709  1
  Nd  Nd15  1  0.312264  0.691701  0.686671  1
  In  In16  1  0.331732  0.326436  0.010752  1
  Hg  Hg17  1  0.335416  0.331460  0.333013  1
  Hg  Hg18  1  0.997536  0.334361  0.333799  1
  Hg  Hg19  1  0.337411  0.997903  0.332107  1
  Ir  Ir20  1  0.885168  0.895088  0.896251  1
  Ir  Ir21  1  0.884556  0.895534  0.324798  1
  Ir  Ir22  1  0.330113  0.893959  0.889367  1
  Ir  Ir23  1  0.889065  0.322120  0.895518  1
