# generated using pymatgen
data_U8GeS17
_symmetry_space_group_name_H-M   'P 1'
_cell_length_a   7.82555756
_cell_length_b   7.82555868
_cell_length_c   10.51588520
_cell_angle_alpha   79.57016346
_cell_angle_beta   79.57015947
_cell_angle_gamma   64.58017473
_symmetry_Int_Tables_number   1
_chemical_formula_structural   U8GeS17
_chemical_formula_sum   'U8 Ge1 S17'
_cell_volume   568.14634620
_cell_formula_units_Z   1
loop_
 _symmetry_equiv_pos_site_id
 _symmetry_equiv_pos_as_xyz
  1  'x, y, z'
loop_
 _atom_site_type_symbol
 _atom_site_label
 _atom_site_symmetry_multiplicity
 _atom_site_fract_x
 _atom_site_fract_y
 _atom_site_fract_z
 _atom_site_occupancy
  U  U0  1  0.817988  0.304317  0.302853  1
  U  U1  1  0.304317  0.817988  0.302853  1
  U  U2  1  0.182012  0.695683  0.697147  1
  U  U3  1  0.695683  0.182012  0.697147  1
  U  U4  1  0.796642  0.796642  0.458330  1
  U  U5  1  0.203358  0.203358  0.541670  1
  U  U6  1  0.321450  0.321450  0.015401  1
  U  U7  1  0.678550  0.678550  0.984599  1
  Ge  Ge8  1  0.000000  0.000000  0.000000  1
  S  S9  1  0.179779  0.566576  0.465335  1
  S  S10  1  0.566576  0.179779  0.465335  1
  S  S11  1  0.820221  0.433424  0.534665  1
  S  S12  1  0.433424  0.820221  0.534665  1
  S  S13  1  0.945745  0.329745  0.035479  1
  S  S14  1  0.329745  0.945745  0.035479  1
  S  S15  1  0.054255  0.670255  0.964521  1
  S  S16  1  0.670255  0.054255  0.964521  1
  S  S17  1  0.944357  0.944357  0.235106  1
  S  S18  1  0.055643  0.055643  0.764894  1
  S  S19  1  0.785210  0.785210  0.722778  1
  S  S20  1  0.214790  0.214790  0.277222  1
  S  S21  1  0.699495  0.699495  0.242926  1
  S  S22  1  0.300505  0.300505  0.757074  1
  S  S23  1  0.479975  0.479975  0.167559  1
  S  S24  1  0.520025  0.520025  0.832441  1
  S  S25  1  0.000000  0.000000  0.500000  1
