# generated using pymatgen
data_YbSm2Si6Pd17Pt3
_symmetry_space_group_name_H-M   'P 1'
_cell_length_a   8.74648779
_cell_length_b   8.74648864
_cell_length_c   8.75239946
_cell_angle_alpha   59.86466670
_cell_angle_beta   59.86466097
_cell_angle_gamma   59.82074784
_symmetry_Int_Tables_number   1
_chemical_formula_structural   YbSm2Si6Pd17Pt3
_chemical_formula_sum   'Yb1 Sm2 Si6 Pd17 Pt3'
_cell_volume   471.84434070
_cell_formula_units_Z   1
loop_
 _symmetry_equiv_pos_site_id
 _symmetry_equiv_pos_as_xyz
  1  'x, y, z'
loop_
 _atom_site_type_symbol
 _atom_site_label
 _atom_site_symmetry_multiplicity
 _atom_site_fract_x
 _atom_site_fract_y
 _atom_site_fract_z
 _atom_site_occupancy
  Yb  Yb0  1  0.999967  0.999967  0.000069  1
  Sm  Sm1  1  0.250170  0.250170  0.250244  1
  Sm  Sm2  1  0.749480  0.749480  0.750540  1
  Si  Si3  1  0.732253  0.267027  0.266264  1
  Si  Si4  1  0.268554  0.731810  0.732996  1
  Si  Si5  1  0.267027  0.732253  0.266264  1
  Si  Si6  1  0.731810  0.268554  0.732996  1
  Si  Si7  1  0.267764  0.267764  0.731801  1
  Si  Si8  1  0.733388  0.733388  0.267223  1
  Pd  Pd9  1  0.382579  0.848061  0.383006  1
  Pd  Pd10  1  0.617329  0.617329  0.151742  1
  Pd  Pd11  1  0.618934  0.150588  0.615467  1
  Pd  Pd12  1  0.848061  0.382579  0.383006  1
  Pd  Pd13  1  0.150588  0.618934  0.615467  1
  Pd  Pd14  1  0.344586  0.999753  0.000566  1
  Pd  Pd15  1  0.654746  0.000001  0.001016  1
  Pd  Pd16  1  0.999510  0.344619  0.656580  1
  Pd  Pd17  1  0.999634  0.655389  0.345347  1
  Pd  Pd18  1  0.999753  0.344586  0.000566  1
  Pd  Pd19  1  0.655389  0.999634  0.345347  1
  Pd  Pd20  1  0.000001  0.654746  0.001016  1
  Pd  Pd21  1  0.344619  0.999510  0.656580  1
  Pd  Pd22  1  0.999623  0.999623  0.345797  1
  Pd  Pd23  1  0.999766  0.999766  0.655599  1
  Pd  Pd24  1  0.655416  0.344125  0.000552  1
  Pd  Pd25  1  0.344125  0.655416  0.000552  1
  Pt  Pt26  1  0.385117  0.385117  0.385437  1
  Pt  Pt27  1  0.616238  0.616238  0.612680  1
  Pt  Pt28  1  0.383572  0.383572  0.845283  1
