# generated using pymatgen
data_La14Nd6(Ir3Ru)3
_symmetry_space_group_name_H-M   'P 1'
_cell_length_a   11.40642987
_cell_length_b   11.37807289
_cell_length_c   6.61067300
_cell_angle_alpha   90.00000000
_cell_angle_beta   90.00000000
_cell_angle_gamma   90.12597574
_symmetry_Int_Tables_number   1
_chemical_formula_structural   La14Nd6(Ir3Ru)3
_chemical_formula_sum   'La14 Nd6 Ir9 Ru3'
_cell_volume   857.95215997
_cell_formula_units_Z   1
loop_
 _symmetry_equiv_pos_site_id
 _symmetry_equiv_pos_as_xyz
  1  'x, y, z'
loop_
 _atom_site_type_symbol
 _atom_site_label
 _atom_site_symmetry_multiplicity
 _atom_site_fract_x
 _atom_site_fract_y
 _atom_site_fract_z
 _atom_site_occupancy
  La  La0  1  0.090552  0.292266  0.114548  1
  La  La1  1  0.791041  0.411196  0.115182  1
  La  La2  1  0.208959  0.588804  0.115182  1
  La  La3  1  0.909448  0.707734  0.114548  1
  La  La4  1  0.412485  0.792913  0.388311  1
  La  La5  1  0.587515  0.207087  0.388311  1
  La  La6  1  0.292741  0.088933  0.388288  1
  La  La7  1  0.707259  0.911067  0.388288  1
  La  La8  1  0.410743  0.207383  0.887238  1
  La  La9  1  0.707190  0.089059  0.887329  1
  La  La10  1  0.292810  0.910941  0.887329  1
  La  La11  1  0.589257  0.792617  0.887238  1
  La  La12  1  0.089173  0.706340  0.611025  1
  La  La13  1  0.910827  0.293660  0.611025  1
  Nd  Nd14  1  0.208266  0.410206  0.613106  1
  Nd  Nd15  1  0.791734  0.589794  0.613106  1
  Nd  Nd16  1  0.000000  0.000000  0.998173  1
  Nd  Nd17  1  0.500000  0.500000  0.997076  1
  Nd  Nd18  1  0.500000  0.500000  0.499103  1
  Nd  Nd19  1  0.000000  0.000000  0.498969  1
  Ir  Ir20  1  0.152938  0.846613  0.249338  1
  Ir  Ir21  1  0.347165  0.346826  0.248631  1
  Ir  Ir22  1  0.652835  0.653174  0.248631  1
  Ir  Ir23  1  0.847062  0.153387  0.249338  1
  Ir  Ir24  1  0.346384  0.651631  0.748831  1
  Ir  Ir25  1  0.152509  0.153950  0.749225  1
  Ir  Ir26  1  0.847491  0.846050  0.749225  1
  Ir  Ir27  1  0.653616  0.348369  0.748831  1
  Ir  Ir28  1  0.000000  0.500000  0.879912  1
  Ru  Ru29  1  0.000000  0.500000  0.380831  1
  Ru  Ru30  1  0.500000  0.000000  0.121505  1
  Ru  Ru31  1  0.500000  0.000000  0.622326  1
