# generated using pymatgen
data_Nd2TeC2
_symmetry_space_group_name_H-M   'P 1'
_cell_length_a   7.67110821
_cell_length_b   7.67110793
_cell_length_c   7.21281611
_cell_angle_alpha   100.69181462
_cell_angle_beta   100.69181306
_cell_angle_gamma   32.88026207
_symmetry_Int_Tables_number   1
_chemical_formula_structural   Nd2TeC2
_chemical_formula_sum   'Nd4 Te2 C4'
_cell_volume   226.07271526
_cell_formula_units_Z   2
loop_
 _symmetry_equiv_pos_site_id
 _symmetry_equiv_pos_as_xyz
  1  'x, y, z'
loop_
 _atom_site_type_symbol
 _atom_site_label
 _atom_site_symmetry_multiplicity
 _atom_site_fract_x
 _atom_site_fract_y
 _atom_site_fract_z
 _atom_site_occupancy
  Nd  Nd0  1  0.457591  0.843017  0.142389  1
  Nd  Nd1  1  0.156984  0.542409  0.357611  1
  Nd  Nd2  1  0.843016  0.457591  0.642389  1
  Nd  Nd3  1  0.542409  0.156983  0.857611  1
  Te  Te4  1  0.793145  0.206855  0.249999  1
  Te  Te5  1  0.206855  0.793145  0.749999  1
  C  C6  1  0.100267  0.360933  0.032618  1
  C  C7  1  0.639066  0.899733  0.467382  1
  C  C8  1  0.360934  0.100267  0.532618  1
  C  C9  1  0.899733  0.639066  0.967382  1
