# generated using pymatgen
data_Ac12OsRu3
_symmetry_space_group_name_H-M   'P 1'
_cell_length_a   6.88073508
_cell_length_b   7.75575305
_cell_length_c   10.56125600
_cell_angle_alpha   90.00000000
_cell_angle_beta   90.00000000
_cell_angle_gamma   90.01535367
_symmetry_Int_Tables_number   1
_chemical_formula_structural   Ac12OsRu3
_chemical_formula_sum   'Ac12 Os1 Ru3'
_cell_volume   563.60438555
_cell_formula_units_Z   1
loop_
 _symmetry_equiv_pos_site_id
 _symmetry_equiv_pos_as_xyz
  1  'x, y, z'
loop_
 _atom_site_type_symbol
 _atom_site_label
 _atom_site_symmetry_multiplicity
 _atom_site_fract_x
 _atom_site_fract_y
 _atom_site_fract_z
 _atom_site_occupancy
  Ac  Ac0  1  0.324552  0.673557  0.072773  1
  Ac  Ac1  1  0.174584  0.172966  0.427693  1
  Ac  Ac2  1  0.674177  0.327334  0.572687  1
  Ac  Ac3  1  0.826377  0.827533  0.928479  1
  Ac  Ac4  1  0.674177  0.327334  0.927313  1
  Ac  Ac5  1  0.826377  0.827533  0.571521  1
  Ac  Ac6  1  0.324552  0.673557  0.427227  1
  Ac  Ac7  1  0.174584  0.172966  0.072307  1
  Ac  Ac8  1  0.842424  0.545641  0.250000  1
  Ac  Ac9  1  0.656981  0.046230  0.250000  1
  Ac  Ac10  1  0.157902  0.452996  0.750000  1
  Ac  Ac11  1  0.342776  0.952687  0.750000  1
  Os  Os12  1  0.055083  0.883435  0.250000  1
  Ru  Ru13  1  0.445933  0.384575  0.250000  1
  Ru  Ru14  1  0.946365  0.116337  0.750000  1
  Ru  Ru15  1  0.553159  0.615318  0.750000  1
