# generated using pymatgen
data_Ce8Zn2CuSi12Ir
_symmetry_space_group_name_H-M   'P 1'
_cell_length_a   8.14890600
_cell_length_b   8.14890584
_cell_length_c   8.36723400
_cell_angle_alpha   90.00000000
_cell_angle_beta   90.00000000
_cell_angle_gamma   119.99999254
_symmetry_Int_Tables_number   1
_chemical_formula_structural   Ce8Zn2CuSi12Ir
_chemical_formula_sum   'Ce8 Zn2 Cu1 Si12 Ir1'
_cell_volume   481.18400962
_cell_formula_units_Z   1
loop_
 _symmetry_equiv_pos_site_id
 _symmetry_equiv_pos_as_xyz
  1  'x, y, z'
loop_
 _atom_site_type_symbol
 _atom_site_label
 _atom_site_symmetry_multiplicity
 _atom_site_fract_x
 _atom_site_fract_y
 _atom_site_fract_z
 _atom_site_occupancy
  Ce  Ce0  1  0.000000  0.000000  0.250262  1
  Ce  Ce1  1  0.000000  0.000000  0.749648  1
  Ce  Ce2  1  0.498362  0.501638  0.246763  1
  Ce  Ce3  1  0.498362  0.996722  0.246763  1
  Ce  Ce4  1  0.003278  0.501638  0.246763  1
  Ce  Ce5  1  0.497693  0.502307  0.753401  1
  Ce  Ce6  1  0.497693  0.995386  0.753401  1
  Ce  Ce7  1  0.004614  0.502307  0.753401  1
  Zn  Zn8  1  0.333333  0.666667  0.499318  1
  Zn  Zn9  1  0.666667  0.333333  0.502650  1
  Cu  Cu10  1  0.666667  0.333333  0.998179  1
  Si  Si11  1  0.165952  0.834048  0.500273  1
  Si  Si12  1  0.165952  0.331907  0.500273  1
  Si  Si13  1  0.668093  0.834048  0.500273  1
  Si  Si14  1  0.833834  0.166166  0.500415  1
  Si  Si15  1  0.833834  0.667666  0.500415  1
  Si  Si16  1  0.332334  0.166166  0.500415  1
  Si  Si17  1  0.831792  0.168208  0.999167  1
  Si  Si18  1  0.831792  0.663581  0.999167  1
  Si  Si19  1  0.336419  0.168208  0.999167  1
  Si  Si20  1  0.164680  0.835320  0.000009  1
  Si  Si21  1  0.164680  0.329361  0.000009  1
  Si  Si22  1  0.670639  0.835320  0.000009  1
  Ir  Ir23  1  0.333333  0.666667  0.999864  1
