# generated using pymatgen
data_CeMn3As12Ru
_symmetry_space_group_name_H-M   'P 1'
_cell_length_a   7.38847554
_cell_length_b   7.38847562
_cell_length_c   7.38847566
_cell_angle_alpha   109.49551161
_cell_angle_beta   109.49551897
_cell_angle_gamma   109.49551827
_symmetry_Int_Tables_number   1
_chemical_formula_structural   CeMn3As12Ru
_chemical_formula_sum   'Ce1 Mn3 As12 Ru1'
_cell_volume   310.20683836
_cell_formula_units_Z   1
loop_
 _symmetry_equiv_pos_site_id
 _symmetry_equiv_pos_as_xyz
  1  'x, y, z'
loop_
 _atom_site_type_symbol
 _atom_site_label
 _atom_site_symmetry_multiplicity
 _atom_site_fract_x
 _atom_site_fract_y
 _atom_site_fract_z
 _atom_site_occupancy
  Ce  Ce0  1  0.000000  0.000000  0.000000  1
  Mn  Mn1  1  0.500000  0.000000  0.000000  1
  Mn  Mn2  1  0.000000  0.500000  0.000000  1
  Mn  Mn3  1  0.000000  0.000000  0.500000  1
  As  As4  1  0.853338  0.659875  0.504683  1
  As  As5  1  0.146662  0.340125  0.495317  1
  As  As6  1  0.153936  0.658269  0.811065  1
  As  As7  1  0.846064  0.341731  0.188935  1
  As  As8  1  0.659875  0.504683  0.853338  1
  As  As9  1  0.340125  0.495317  0.146662  1
  As  As10  1  0.658269  0.811065  0.153936  1
  As  As11  1  0.341731  0.188935  0.846064  1
  As  As12  1  0.504683  0.853338  0.659875  1
  As  As13  1  0.495317  0.146662  0.340125  1
  As  As14  1  0.811065  0.153936  0.658269  1
  As  As15  1  0.188935  0.846064  0.341731  1
  Ru  Ru16  1  0.500000  0.500000  0.500000  1
