# generated using pymatgen
data_InCl15
_symmetry_space_group_name_H-M   'P 1'
_cell_length_a   10.58134334
_cell_length_b   11.43066232
_cell_length_c   14.09022335
_cell_angle_alpha   67.03758017
_cell_angle_beta   121.74669772
_cell_angle_gamma   106.07654241
_symmetry_Int_Tables_number   1
_chemical_formula_structural   InCl15
_chemical_formula_sum   'In2 Cl30'
_cell_volume   1328.81755227
_cell_formula_units_Z   2
loop_
 _symmetry_equiv_pos_site_id
 _symmetry_equiv_pos_as_xyz
  1  'x, y, z'
loop_
 _atom_site_type_symbol
 _atom_site_label
 _atom_site_symmetry_multiplicity
 _atom_site_fract_x
 _atom_site_fract_y
 _atom_site_fract_z
 _atom_site_occupancy
  In  In0  1  0.315105  0.170156  0.004518  1
  In  In1  1  0.684895  0.829844  0.995482  1
  Cl  Cl2  1  0.150452  0.322577  0.926033  1
  Cl  Cl3  1  0.849548  0.677423  0.073967  1
  Cl  Cl4  1  0.228653  0.955614  0.055833  1
  Cl  Cl5  1  0.771347  0.044386  0.944167  1
  Cl  Cl6  1  0.167667  0.708326  0.314551  1
  Cl  Cl7  1  0.832333  0.291674  0.685449  1
  Cl  Cl8  1  0.361391  0.680883  0.463661  1
  Cl  Cl9  1  0.638609  0.319117  0.536339  1
  Cl  Cl10  1  0.176784  0.607801  0.682702  1
  Cl  Cl11  1  0.823216  0.392199  0.317298  1
  Cl  Cl12  1  0.008007  0.344614  0.470437  1
  Cl  Cl13  1  0.991993  0.655386  0.529563  1
  Cl  Cl14  1  0.420767  0.243349  0.831414  1
  Cl  Cl15  1  0.579233  0.756651  0.168586  1
  Cl  Cl16  1  0.298530  0.977959  0.531342  1
  Cl  Cl17  1  0.701470  0.022041  0.468658  1
  Cl  Cl18  1  0.319748  0.428246  0.305342  1
  Cl  Cl19  1  0.680252  0.571754  0.694658  1
  Cl  Cl20  1  0.001024  0.917145  0.654054  1
  Cl  Cl21  1  0.998976  0.082855  0.345946  1
  Cl  Cl22  1  0.755637  0.615236  0.841793  1
  Cl  Cl23  1  0.244363  0.384764  0.158207  1
  Cl  Cl24  1  0.692947  0.753803  0.339010  1
  Cl  Cl25  1  0.307053  0.246197  0.660990  1
  Cl  Cl26  1  0.504922  0.925281  0.651957  1
  Cl  Cl27  1  0.495078  0.074719  0.348043  1
  Cl  Cl28  1  0.078548  0.936817  0.812288  1
  Cl  Cl29  1  0.921452  0.063183  0.187712  1
  Cl  Cl30  1  0.427455  0.770613  0.923662  1
  Cl  Cl31  1  0.572545  0.229387  0.076338  1
