# generated using pymatgen
data_ErBiIr2O7
_symmetry_space_group_name_H-M   'P 1'
_cell_length_a   7.26844524
_cell_length_b   7.28707762
_cell_length_c   7.28707684
_cell_angle_alpha   60.18178901
_cell_angle_beta   60.08454240
_cell_angle_gamma   60.08454188
_symmetry_Int_Tables_number   1
_chemical_formula_structural   ErBiIr2O7
_chemical_formula_sum   'Er2 Bi2 Ir4 O14'
_cell_volume   273.64133069
_cell_formula_units_Z   2
loop_
 _symmetry_equiv_pos_site_id
 _symmetry_equiv_pos_as_xyz
  1  'x, y, z'
loop_
 _atom_site_type_symbol
 _atom_site_label
 _atom_site_symmetry_multiplicity
 _atom_site_fract_x
 _atom_site_fract_y
 _atom_site_fract_z
 _atom_site_occupancy
  Er  Er0  1  0.625000  0.125000  0.125000  1
  Er  Er1  1  0.125000  0.125000  0.125000  1
  Bi  Bi2  1  0.125000  0.625000  0.125000  1
  Bi  Bi3  1  0.125000  0.125000  0.625000  1
  Ir  Ir4  1  0.125000  0.625000  0.625000  1
  Ir  Ir5  1  0.625000  0.125000  0.625000  1
  Ir  Ir6  1  0.625000  0.625000  0.125000  1
  Ir  Ir7  1  0.625000  0.625000  0.625000  1
  O  O8  1  0.703616  0.718661  0.288649  1
  O  O9  1  0.289073  0.288649  0.718661  1
  O  O10  1  0.703616  0.288649  0.718661  1
  O  O11  1  0.289073  0.718661  0.288649  1
  O  O12  1  0.293296  0.706704  0.706704  1
  O  O13  1  0.712206  0.287794  0.287794  1
  O  O14  1  0.546384  0.531339  0.961351  1
  O  O15  1  0.960927  0.961351  0.531339  1
  O  O16  1  0.546384  0.961351  0.531339  1
  O  O17  1  0.960927  0.531339  0.961351  1
  O  O18  1  0.956704  0.543296  0.543296  1
  O  O19  1  0.537794  0.962206  0.962206  1
  O  O20  1  0.257621  0.242379  0.242379  1
  O  O21  1  0.992379  0.007621  0.007621  1
