# generated using pymatgen
data_K7RbBa4(ZrBi4)2
_symmetry_space_group_name_H-M   'P 1'
_cell_length_a   11.42090780
_cell_length_b   11.42434815
_cell_length_c   8.79331160
_cell_angle_alpha   88.78309230
_cell_angle_beta   88.51676713
_cell_angle_gamma   119.45155035
_symmetry_Int_Tables_number   1
_chemical_formula_structural   K7RbBa4(ZrBi4)2
_chemical_formula_sum   'K7 Rb1 Ba4 Zr2 Bi8'
_cell_volume   997.95851253
_cell_formula_units_Z   1
loop_
 _symmetry_equiv_pos_site_id
 _symmetry_equiv_pos_as_xyz
  1  'x, y, z'
loop_
 _atom_site_type_symbol
 _atom_site_label
 _atom_site_symmetry_multiplicity
 _atom_site_fract_x
 _atom_site_fract_y
 _atom_site_fract_z
 _atom_site_occupancy
  K  K0  1  0.475239  0.943051  0.382875  1
  K  K1  1  0.943068  0.473153  0.883241  1
  K  K2  1  0.863679  0.719168  0.178798  1
  K  K3  1  0.272803  0.130314  0.233620  1
  K  K4  1  0.854851  0.139886  0.203699  1
  K  K5  1  0.129889  0.273032  0.733929  1
  K  K6  1  0.718491  0.863291  0.677791  1
  Rb  Rb7  1  0.136104  0.857042  0.699918  1
  Ba  Ba8  1  0.060930  0.529993  0.391678  1
  Ba  Ba9  1  0.478170  0.530321  0.378109  1
  Ba  Ba10  1  0.531856  0.060970  0.890588  1
  Ba  Ba11  1  0.530878  0.478699  0.877812  1
  Zr  Zr12  1  0.665211  0.332516  0.489394  1
  Zr  Zr13  1  0.333725  0.664848  0.992765  1
  Bi  Bi14  1  0.650380  0.330749  0.159283  1
  Bi  Bi15  1  0.331692  0.649594  0.662206  1
  Bi  Bi16  1  0.202621  0.391509  0.120780  1
  Bi  Bi17  1  0.614182  0.804534  0.079354  1
  Bi  Bi18  1  0.202384  0.808399  0.103474  1
  Bi  Bi19  1  0.800487  0.611360  0.577387  1
  Bi  Bi20  1  0.393832  0.206278  0.620004  1
  Bi  Bi21  1  0.809336  0.201101  0.598630  1
