# generated using pymatgen
data_Nd12IrPt2Rh
_symmetry_space_group_name_H-M   'P 1'
_cell_length_a   6.59834211
_cell_length_b   7.34131019
_cell_length_c   9.97709000
_cell_angle_alpha   90.00000000
_cell_angle_beta   90.00000000
_cell_angle_gamma   90.19537655
_symmetry_Int_Tables_number   1
_chemical_formula_structural   Nd12IrPt2Rh
_chemical_formula_sum   'Nd12 Ir1 Pt2 Rh1'
_cell_volume   483.29218084
_cell_formula_units_Z   1
loop_
 _symmetry_equiv_pos_site_id
 _symmetry_equiv_pos_as_xyz
  1  'x, y, z'
loop_
 _atom_site_type_symbol
 _atom_site_label
 _atom_site_symmetry_multiplicity
 _atom_site_fract_x
 _atom_site_fract_y
 _atom_site_fract_z
 _atom_site_occupancy
  Nd  Nd0  1  0.327018  0.678500  0.062205  1
  Nd  Nd1  1  0.166942  0.173834  0.435253  1
  Nd  Nd2  1  0.668628  0.327735  0.565279  1
  Nd  Nd3  1  0.826898  0.820158  0.937030  1
  Nd  Nd4  1  0.668628  0.327735  0.934721  1
  Nd  Nd5  1  0.826898  0.820158  0.562970  1
  Nd  Nd6  1  0.327018  0.678500  0.437795  1
  Nd  Nd7  1  0.166942  0.173834  0.064747  1
  Nd  Nd8  1  0.864803  0.535793  0.250000  1
  Nd  Nd9  1  0.641670  0.030742  0.250000  1
  Nd  Nd10  1  0.143201  0.469979  0.750000  1
  Nd  Nd11  1  0.367314  0.962597  0.750000  1
  Ir  Ir12  1  0.564151  0.618182  0.750000  1
  Pt  Pt13  1  0.435001  0.384068  0.250000  1
  Pt  Pt14  1  0.936454  0.116018  0.750000  1
  Rh  Rh15  1  0.068438  0.882166  0.250000  1
