# generated using pymatgen
data_NdDy4Si10P2Ir19
_symmetry_space_group_name_H-M   'P 1'
_cell_length_a   12.85858013
_cell_length_b   12.84611143
_cell_length_c   3.96766700
_cell_angle_alpha   90.00000000
_cell_angle_beta   90.00000000
_cell_angle_gamma   119.96792407
_symmetry_Int_Tables_number   1
_chemical_formula_structural   NdDy4Si10P2Ir19
_chemical_formula_sum   'Nd1 Dy4 Si10 P2 Ir19'
_cell_volume   567.76789206
_cell_formula_units_Z   1
loop_
 _symmetry_equiv_pos_site_id
 _symmetry_equiv_pos_as_xyz
  1  'x, y, z'
loop_
 _atom_site_type_symbol
 _atom_site_label
 _atom_site_symmetry_multiplicity
 _atom_site_fract_x
 _atom_site_fract_y
 _atom_site_fract_z
 _atom_site_occupancy
  Nd  Nd0  1  0.000000  0.813456  0.000000  1
  Dy  Dy1  1  0.332976  0.666255  0.500000  1
  Dy  Dy2  1  0.667024  0.333278  0.500000  1
  Dy  Dy3  1  0.185509  0.187261  0.000000  1
  Dy  Dy4  1  0.814491  0.001753  0.000000  1
  Si  Si5  1  0.000000  0.630887  0.500000  1
  Si  Si6  1  0.367277  0.367591  0.500000  1
  Si  Si7  1  0.632723  0.000314  0.500000  1
  Si  Si8  1  0.518105  0.686802  0.000000  1
  Si  Si9  1  0.313434  0.831680  0.000000  1
  Si  Si10  1  0.168643  0.480608  0.000000  1
  Si  Si11  1  0.481895  0.168697  0.000000  1
  Si  Si12  1  0.686566  0.518245  0.000000  1
  Si  Si13  1  0.831357  0.311965  0.000000  1
  Si  Si14  1  0.000000  0.179442  0.500000  1
  P  P15  1  0.818519  0.820334  0.500000  1
  P  P16  1  0.181481  0.001816  0.500000  1
  Ir  Ir17  1  0.512432  0.872607  0.000000  1
  Ir  Ir18  1  0.127449  0.639140  0.000000  1
  Ir  Ir19  1  0.361276  0.487669  0.000000  1
  Ir  Ir20  1  0.487568  0.360175  0.000000  1
  Ir  Ir21  1  0.872551  0.511690  0.000000  1
  Ir  Ir22  1  0.638724  0.126393  0.000000  1
  Ir  Ir23  1  0.000000  0.446687  0.500000  1
  Ir  Ir24  1  0.553318  0.552851  0.500000  1
  Ir  Ir25  1  0.446682  0.999534  0.500000  1
  Ir  Ir26  1  0.000000  0.282163  0.000000  1
  Ir  Ir27  1  0.719016  0.720109  0.000000  1
  Ir  Ir28  1  0.280984  0.001093  0.000000  1
  Ir  Ir29  1  0.626158  0.806880  0.500000  1
  Ir  Ir30  1  0.196019  0.820223  0.500000  1
  Ir  Ir31  1  0.182103  0.375942  0.500000  1
  Ir  Ir32  1  0.373842  0.180722  0.500000  1
  Ir  Ir33  1  0.803981  0.624205  0.500000  1
  Ir  Ir34  1  0.817897  0.193838  0.500000  1
  Ir  Ir35  1  0.000000  0.997696  0.500000  1
