# generated using pymatgen
data_Y13Tm7(Cd3Ni)2
_symmetry_space_group_name_H-M   'P 1'
_cell_length_a   9.59842091
_cell_length_b   9.60061383
_cell_length_c   9.74059943
_cell_angle_alpha   89.99999867
_cell_angle_beta   89.92960107
_cell_angle_gamma   120.00755049
_symmetry_Int_Tables_number   1
_chemical_formula_structural   Y13Tm7(Cd3Ni)2
_chemical_formula_sum   'Y13 Tm7 Cd6 Ni2'
_cell_volume   777.28739102
_cell_formula_units_Z   1
loop_
 _symmetry_equiv_pos_site_id
 _symmetry_equiv_pos_as_xyz
  1  'x, y, z'
loop_
 _atom_site_type_symbol
 _atom_site_label
 _atom_site_symmetry_multiplicity
 _atom_site_fract_x
 _atom_site_fract_y
 _atom_site_fract_z
 _atom_site_occupancy
  Y  Y0  1  0.543348  0.457527  0.252454  1
  Y  Y1  1  0.543348  0.085821  0.252454  1
  Y  Y2  1  0.913469  0.456734  0.253520  1
  Y  Y3  1  0.456864  0.543855  0.747136  1
  Y  Y4  1  0.456864  0.913009  0.747136  1
  Y  Y5  1  0.085962  0.542981  0.746762  1
  Y  Y6  1  0.420398  0.210198  0.562190  1
  Y  Y7  1  0.790148  0.209701  0.936798  1
  Y  Y8  1  0.790148  0.580445  0.936798  1
  Y  Y9  1  0.419486  0.209742  0.937951  1
  Y  Y10  1  0.209543  0.790058  0.063164  1
  Y  Y11  1  0.209543  0.419486  0.063164  1
  Y  Y12  1  0.580907  0.790454  0.063221  1
  Tm  Tm13  1  0.998536  0.999268  0.499848  1
  Tm  Tm14  1  0.000095  0.000047  0.999751  1
  Tm  Tm15  1  0.210257  0.788541  0.437058  1
  Tm  Tm16  1  0.210257  0.421717  0.437058  1
  Tm  Tm17  1  0.577822  0.788911  0.437320  1
  Tm  Tm18  1  0.790347  0.210935  0.562622  1
  Tm  Tm19  1  0.790347  0.579411  0.562622  1
  Cd  Cd20  1  0.885491  0.114665  0.250541  1
  Cd  Cd21  1  0.885491  0.770826  0.250541  1
  Cd  Cd22  1  0.229058  0.114529  0.250226  1
  Cd  Cd23  1  0.114448  0.885179  0.749465  1
  Cd  Cd24  1  0.114448  0.229269  0.749465  1
  Cd  Cd25  1  0.770866  0.885433  0.749704  1
  Ni  Ni26  1  0.333404  0.666703  0.254039  1
  Ni  Ni27  1  0.669107  0.334553  0.746991  1
