# generated using pymatgen
data_Ho16TcNi3Hg4
_symmetry_space_group_name_H-M   'P 1'
_cell_length_a   9.50951167
_cell_length_b   9.50951120
_cell_length_c   9.50951115
_cell_angle_alpha   59.60193415
_cell_angle_beta   59.60193603
_cell_angle_gamma   59.60193555
_symmetry_Int_Tables_number   1
_chemical_formula_structural   Ho16TcNi3Hg4
_chemical_formula_sum   'Ho16 Tc1 Ni3 Hg4'
_cell_volume   602.57688425
_cell_formula_units_Z   1
loop_
 _symmetry_equiv_pos_site_id
 _symmetry_equiv_pos_as_xyz
  1  'x, y, z'
loop_
 _atom_site_type_symbol
 _atom_site_label
 _atom_site_symmetry_multiplicity
 _atom_site_fract_x
 _atom_site_fract_y
 _atom_site_fract_z
 _atom_site_occupancy
  Ho  Ho0  1  0.348674  0.348674  0.348674  1
  Ho  Ho1  1  0.353525  0.353525  0.948873  1
  Ho  Ho2  1  0.353525  0.948873  0.353525  1
  Ho  Ho3  1  0.948873  0.353525  0.353525  1
  Ho  Ho4  1  0.811011  0.187832  0.187832  1
  Ho  Ho5  1  0.186973  0.810824  0.810824  1
  Ho  Ho6  1  0.187832  0.811011  0.187832  1
  Ho  Ho7  1  0.810824  0.186973  0.810824  1
  Ho  Ho8  1  0.187832  0.187832  0.811011  1
  Ho  Ho9  1  0.810824  0.810824  0.186973  1
  Ho  Ho10  1  0.936464  0.564414  0.564414  1
  Ho  Ho11  1  0.555355  0.939095  0.939095  1
  Ho  Ho12  1  0.564414  0.936464  0.564414  1
  Ho  Ho13  1  0.939095  0.555355  0.939095  1
  Ho  Ho14  1  0.564414  0.564414  0.936464  1
  Ho  Ho15  1  0.939095  0.939095  0.555355  1
  Tc  Tc16  1  0.144637  0.144637  0.144637  1
  Ni  Ni17  1  0.142723  0.142723  0.574634  1
  Ni  Ni18  1  0.142723  0.574634  0.142723  1
  Ni  Ni19  1  0.574634  0.142723  0.142723  1
  Hg  Hg20  1  0.583896  0.583896  0.583896  1
  Hg  Hg21  1  0.584316  0.584316  0.244021  1
  Hg  Hg22  1  0.584316  0.244021  0.584316  1
  Hg  Hg23  1  0.244021  0.584316  0.584316  1
