# generated using pymatgen
data_Zr6TaTi3Si5Ge
_symmetry_space_group_name_H-M   'P 1'
_cell_length_a   7.85154723
_cell_length_b   7.84943104
_cell_length_c   5.34269967
_cell_angle_alpha   90.03982328
_cell_angle_beta   89.94439896
_cell_angle_gamma   120.04112004
_symmetry_Int_Tables_number   1
_chemical_formula_structural   Zr6TaTi3Si5Ge
_chemical_formula_sum   'Zr6 Ta1 Ti3 Si5 Ge1'
_cell_volume   285.03914190
_cell_formula_units_Z   1
loop_
 _symmetry_equiv_pos_site_id
 _symmetry_equiv_pos_as_xyz
  1  'x, y, z'
loop_
 _atom_site_type_symbol
 _atom_site_label
 _atom_site_symmetry_multiplicity
 _atom_site_fract_x
 _atom_site_fract_y
 _atom_site_fract_z
 _atom_site_occupancy
  Zr  Zr0  1  0.751115  0.750530  0.750735  1
  Zr  Zr1  1  0.251234  0.997513  0.750767  1
  Zr  Zr2  1  0.996369  0.250461  0.750641  1
  Zr  Zr3  1  0.250691  0.250153  0.249180  1
  Zr  Zr4  1  0.748368  0.000468  0.249278  1
  Zr  Zr5  1  0.999541  0.747939  0.249378  1
  Ta  Ta6  1  0.668610  0.332841  0.001631  1
  Ti  Ti7  1  0.332951  0.668142  0.001566  1
  Ti  Ti8  1  0.332860  0.668165  0.498432  1
  Ti  Ti9  1  0.668119  0.332964  0.499203  1
  Si  Si10  1  0.601428  0.998735  0.748851  1
  Si  Si11  1  0.000701  0.602423  0.748817  1
  Si  Si12  1  0.602792  0.603657  0.251041  1
  Si  Si13  1  0.397220  0.999592  0.251172  1
  Si  Si14  1  0.001486  0.398154  0.251261  1
  Ge  Ge15  1  0.396517  0.398265  0.748046  1
