# generated using pymatgen
data_Dy3Y3Al24Co3Os5
_symmetry_space_group_name_H-M   'P 1'
_cell_length_a   8.73702688
_cell_length_b   8.77053512
_cell_length_c   9.46407307
_cell_angle_alpha   89.99740009
_cell_angle_beta   89.73812675
_cell_angle_gamma   120.12795681
_symmetry_Int_Tables_number   1
_chemical_formula_structural   Dy3Y3Al24Co3Os5
_chemical_formula_sum   'Dy3 Y3 Al24 Co3 Os5'
_cell_volume   627.23594738
_cell_formula_units_Z   1
loop_
 _symmetry_equiv_pos_site_id
 _symmetry_equiv_pos_as_xyz
  1  'x, y, z'
loop_
 _atom_site_type_symbol
 _atom_site_label
 _atom_site_symmetry_multiplicity
 _atom_site_fract_x
 _atom_site_fract_y
 _atom_site_fract_z
 _atom_site_occupancy
  Dy  Dy0  1  0.389061  0.194509  0.752051  1
  Dy  Dy1  1  0.196426  0.808890  0.250490  1
  Dy  Dy2  1  0.803539  0.191117  0.749508  1
  Y  Y3  1  0.196357  0.387609  0.250448  1
  Y  Y4  1  0.803589  0.612314  0.749547  1
  Y  Y5  1  0.610950  0.805497  0.247954  1
  Al  Al6  1  0.326772  0.663386  0.015532  1
  Al  Al7  1  0.673183  0.336591  0.984530  1
  Al  Al8  1  0.666521  0.333254  0.514857  1
  Al  Al9  1  0.333421  0.666718  0.485086  1
  Al  Al10  1  0.159166  0.319416  0.576236  1
  Al  Al11  1  0.840868  0.680578  0.423777  1
  Al  Al12  1  0.680653  0.840357  0.574865  1
  Al  Al13  1  0.841541  0.679396  0.074905  1
  Al  Al14  1  0.319341  0.159641  0.425173  1
  Al  Al15  1  0.158493  0.320578  0.925084  1
  Al  Al16  1  0.159196  0.839780  0.576143  1
  Al  Al17  1  0.321277  0.160601  0.075083  1
  Al  Al18  1  0.840838  0.160265  0.423870  1
  Al  Al19  1  0.678707  0.839394  0.924883  1
  Al  Al20  1  0.841489  0.162100  0.074811  1
  Al  Al21  1  0.158545  0.837963  0.925179  1
  Al  Al22  1  0.563345  0.124595  0.249037  1
  Al  Al23  1  0.436629  0.875414  0.750961  1
  Al  Al24  1  0.881866  0.440983  0.244303  1
  Al  Al25  1  0.118155  0.559028  0.755692  1
  Al  Al26  1  0.563405  0.438770  0.249040  1
  Al  Al27  1  0.436568  0.561198  0.750959  1
  Al  Al28  1  0.000907  0.000295  0.250130  1
  Al  Al29  1  0.999328  0.999820  0.749866  1
  Co  Co30  1  0.999959  0.499980  0.999950  1
  Co  Co31  1  0.000008  0.000007  0.000012  1
  Co  Co32  1  0.999991  0.999997  0.499995  1
  Os  Os33  1  0.499991  0.000092  0.999893  1
  Os  Os34  1  0.500000  0.000086  0.500100  1
  Os  Os35  1  0.499992  0.499903  0.999894  1
  Os  Os36  1  0.999924  0.499965  0.500053  1
  Os  Os37  1  0.500001  0.499913  0.500102  1
