# generated using pymatgen
data_LiTb16Hg3Ir4
_symmetry_space_group_name_H-M   'P 1'
_cell_length_a   9.65972206
_cell_length_b   9.65988363
_cell_length_c   9.65988400
_cell_angle_alpha   59.99999874
_cell_angle_beta   59.99944542
_cell_angle_gamma   59.99944044
_symmetry_Int_Tables_number   1
_chemical_formula_structural   LiTb16Hg3Ir4
_chemical_formula_sum   'Li1 Tb16 Hg3 Ir4'
_cell_volume   637.36729900
_cell_formula_units_Z   1
loop_
 _symmetry_equiv_pos_site_id
 _symmetry_equiv_pos_as_xyz
  1  'x, y, z'
loop_
 _atom_site_type_symbol
 _atom_site_label
 _atom_site_symmetry_multiplicity
 _atom_site_fract_x
 _atom_site_fract_y
 _atom_site_fract_z
 _atom_site_occupancy
  Li  Li0  1  0.698715  0.433762  0.433762  1
  Tb  Tb1  1  0.191355  0.809687  0.809687  1
  Tb  Tb2  1  0.814545  0.185876  0.185876  1
  Tb  Tb3  1  0.063440  0.437110  0.062340  1
  Tb  Tb4  1  0.059963  0.646679  0.646679  1
  Tb  Tb5  1  0.649131  0.651684  0.651684  1
  Tb  Tb6  1  0.063440  0.062340  0.437110  1
  Tb  Tb7  1  0.191355  0.809687  0.189271  1
  Tb  Tb8  1  0.814545  0.813703  0.185876  1
  Tb  Tb9  1  0.814545  0.185876  0.813703  1
  Tb  Tb10  1  0.436237  0.063880  0.436003  1
  Tb  Tb11  1  0.436237  0.436003  0.063880  1
  Tb  Tb12  1  0.436237  0.063880  0.063880  1
  Tb  Tb13  1  0.063440  0.437110  0.437110  1
  Tb  Tb14  1  0.191355  0.189271  0.809687  1
  Tb  Tb15  1  0.649131  0.651684  0.047501  1
  Tb  Tb16  1  0.649131  0.047501  0.651684  1
  Hg  Hg17  1  0.421940  0.412956  0.752147  1
  Hg  Hg18  1  0.421940  0.752147  0.412956  1
  Hg  Hg19  1  0.421940  0.412956  0.412956  1
  Ir  Ir20  1  0.861667  0.855702  0.426931  1
  Ir  Ir21  1  0.861667  0.426931  0.855702  1
  Ir  Ir22  1  0.861667  0.855702  0.855702  1
  Ir  Ir23  1  0.426382  0.857873  0.857873  1
