# generated using pymatgen
data_Sm8Ti(Pd5Pt7)2
_symmetry_space_group_name_H-M   'P 1'
_cell_length_a   8.47788500
_cell_length_b   8.43959100
_cell_length_c   8.47903200
_cell_angle_alpha   90.00000000
_cell_angle_beta   90.00000000
_cell_angle_gamma   90.00000000
_symmetry_Int_Tables_number   1
_chemical_formula_structural   Sm8Ti(Pd5Pt7)2
_chemical_formula_sum   'Sm8 Ti1 Pd10 Pt14'
_cell_volume   606.67373861
_cell_formula_units_Z   1
loop_
 _symmetry_equiv_pos_site_id
 _symmetry_equiv_pos_as_xyz
  1  'x, y, z'
loop_
 _atom_site_type_symbol
 _atom_site_label
 _atom_site_symmetry_multiplicity
 _atom_site_fract_x
 _atom_site_fract_y
 _atom_site_fract_z
 _atom_site_occupancy
  Sm  Sm0  1  0.250847  0.251084  0.251121  1
  Sm  Sm1  1  0.749153  0.748916  0.748879  1
  Sm  Sm2  1  0.749153  0.748916  0.251121  1
  Sm  Sm3  1  0.749153  0.251084  0.748879  1
  Sm  Sm4  1  0.250847  0.251084  0.748879  1
  Sm  Sm5  1  0.250847  0.748916  0.251121  1
  Sm  Sm6  1  0.250847  0.748916  0.748879  1
  Sm  Sm7  1  0.749153  0.251084  0.251121  1
  Ti  Ti8  1  0.000000  0.000000  0.000000  1
  Pd  Pd9  1  0.500000  0.000000  0.265178  1
  Pd  Pd10  1  0.265469  0.000000  0.500000  1
  Pd  Pd11  1  0.500000  0.000000  0.734822  1
  Pd  Pd12  1  0.734531  0.000000  0.500000  1
  Pd  Pd13  1  0.000000  0.500000  0.265019  1
  Pd  Pd14  1  0.000000  0.500000  0.734981  1
  Pd  Pd15  1  0.500000  0.255084  0.500000  1
  Pd  Pd16  1  0.500000  0.744916  0.500000  1
  Pd  Pd17  1  0.500000  0.500000  0.255852  1
  Pd  Pd18  1  0.500000  0.500000  0.744148  1
  Pt  Pt19  1  0.264925  0.500000  0.000000  1
  Pt  Pt20  1  0.735075  0.500000  0.000000  1
  Pt  Pt21  1  0.000000  0.263814  0.500000  1
  Pt  Pt22  1  0.500000  0.264079  0.000000  1
  Pt  Pt23  1  0.000000  0.736186  0.500000  1
  Pt  Pt24  1  0.500000  0.735921  0.000000  1
  Pt  Pt25  1  0.254020  0.500000  0.500000  1
  Pt  Pt26  1  0.745980  0.500000  0.500000  1
  Pt  Pt27  1  0.301111  0.000000  0.000000  1
  Pt  Pt28  1  0.698889  0.000000  0.000000  1
  Pt  Pt29  1  0.000000  0.301012  0.000000  1
  Pt  Pt30  1  0.000000  0.698988  0.000000  1
  Pt  Pt31  1  0.000000  0.000000  0.300448  1
  Pt  Pt32  1  0.000000  0.000000  0.699552  1
