# generated using pymatgen
data_Y11TmGaCo4Sn
_symmetry_space_group_name_H-M   'P 1'
_cell_length_a   8.37615795
_cell_length_b   8.37615808
_cell_length_c   8.35863308
_cell_angle_alpha   111.94617783
_cell_angle_beta   109.22752446
_cell_angle_gamma   107.36243528
_symmetry_Int_Tables_number   1
_chemical_formula_structural   Y11TmGaCo4Sn
_chemical_formula_sum   'Y11 Tm1 Ga1 Co4 Sn1'
_cell_volume   450.21068862
_cell_formula_units_Z   1
loop_
 _symmetry_equiv_pos_site_id
 _symmetry_equiv_pos_as_xyz
  1  'x, y, z'
loop_
 _atom_site_type_symbol
 _atom_site_label
 _atom_site_symmetry_multiplicity
 _atom_site_fract_x
 _atom_site_fract_y
 _atom_site_fract_z
 _atom_site_occupancy
  Y  Y0  1  0.032083  0.732670  0.300973  1
  Y  Y1  1  0.967060  0.266032  0.699607  1
  Y  Y2  1  0.568302  0.268890  0.300973  1
  Y  Y3  1  0.433576  0.732547  0.699607  1
  Y  Y4  1  0.675216  0.861107  0.187510  1
  Y  Y5  1  0.326402  0.512294  0.187510  1
  Y  Y6  1  0.324364  0.138021  0.813095  1
  Y  Y7  1  0.675074  0.488731  0.813095  1
  Y  Y8  1  0.179985  0.218762  0.398748  1
  Y  Y9  1  0.819826  0.218668  0.038494  1
  Y  Y10  1  0.179086  0.781119  0.960205  1
  Tm  Tm11  1  0.821334  0.781441  0.602773  1
  Ga  Ga12  1  0.999669  0.501048  0.500716  1
  Co  Co13  1  0.660468  0.501158  0.161626  1
  Co  Co14  1  0.340408  0.500110  0.840519  1
  Co  Co15  1  0.885911  0.885818  0.997307  1
  Co  Co16  1  0.111489  0.111396  0.997307  1
  Sn  Sn17  1  0.499750  0.000188  0.499938  1
