# generated using pymatgen
data_Cs6Na4TiSnAs6
_symmetry_space_group_name_H-M   'P 1'
_cell_length_a   10.98238178
_cell_length_b   10.98238040
_cell_length_c   16.99378600
_cell_angle_alpha   90.00000000
_cell_angle_beta   90.00000000
_cell_angle_gamma   142.62839509
_symmetry_Int_Tables_number   1
_chemical_formula_structural   Cs6Na4TiSnAs6
_chemical_formula_sum   'Cs12 Na8 Ti2 Sn2 As12'
_cell_volume   1244.11068991
_cell_formula_units_Z   2
loop_
 _symmetry_equiv_pos_site_id
 _symmetry_equiv_pos_as_xyz
  1  'x, y, z'
loop_
 _atom_site_type_symbol
 _atom_site_label
 _atom_site_symmetry_multiplicity
 _atom_site_fract_x
 _atom_site_fract_y
 _atom_site_fract_z
 _atom_site_occupancy
  Cs  Cs0  1  0.939598  0.605248  0.827349  1
  Cs  Cs1  1  0.560402  0.894752  0.327349  1
  Cs  Cs2  1  0.394752  0.060402  0.172651  1
  Cs  Cs3  1  0.054075  0.390605  0.171585  1
  Cs  Cs4  1  0.890605  0.554075  0.328415  1
  Cs  Cs5  1  0.445925  0.109395  0.671585  1
  Cs  Cs6  1  0.609395  0.945925  0.828415  1
  Cs  Cs7  1  0.273960  0.275098  0.318670  1
  Cs  Cs8  1  0.775098  0.773960  0.181330  1
  Cs  Cs9  1  0.226040  0.224902  0.818670  1
  Cs  Cs10  1  0.724902  0.726040  0.681330  1
  Cs  Cs11  1  0.105248  0.439598  0.672651  1
  Na  Na12  1  0.919524  0.080476  0.000000  1
  Na  Na13  1  0.580476  0.419524  0.500000  1
  Na  Na14  1  0.079958  0.920042  0.000000  1
  Na  Na15  1  0.420042  0.579958  0.500000  1
  Na  Na16  1  0.754497  0.245503  0.000000  1
  Na  Na17  1  0.745503  0.254497  0.500000  1
  Na  Na18  1  0.246380  0.753620  0.000000  1
  Na  Na19  1  0.253620  0.746380  0.500000  1
  Ti  Ti20  1  0.416870  0.583130  0.000000  1
  Ti  Ti21  1  0.083130  0.916870  0.500000  1
  Sn  Sn22  1  0.583227  0.416773  0.000000  1
  Sn  Sn23  1  0.916773  0.083227  0.500000  1
  As  As24  1  0.876369  0.562035  0.094249  1
  As  As25  1  0.437965  0.123631  0.905751  1
  As  As26  1  0.623631  0.937965  0.594249  1
  As  As27  1  0.948717  0.644200  0.586782  1
  As  As28  1  0.144200  0.448717  0.913218  1
  As  As29  1  0.551283  0.855800  0.086782  1
  As  As30  1  0.355800  0.051283  0.413218  1
  As  As31  1  0.205054  0.195910  0.585786  1
  As  As32  1  0.695910  0.705054  0.914214  1
  As  As33  1  0.294946  0.304090  0.085786  1
  As  As34  1  0.062035  0.376369  0.405751  1
  As  As35  1  0.804090  0.794946  0.414214  1
