# generated using pymatgen
data_Y2Ho10Os3Rh
_symmetry_space_group_name_H-M   'P 1'
_cell_length_a   6.35021301
_cell_length_b   7.34624606
_cell_length_c   9.04799500
_cell_angle_alpha   90.00000000
_cell_angle_beta   90.00000000
_cell_angle_gamma   90.23283896
_symmetry_Int_Tables_number   1
_chemical_formula_structural   Y2Ho10Os3Rh
_chemical_formula_sum   'Y2 Ho10 Os3 Rh1'
_cell_volume   422.08753819
_cell_formula_units_Z   1
loop_
 _symmetry_equiv_pos_site_id
 _symmetry_equiv_pos_as_xyz
  1  'x, y, z'
loop_
 _atom_site_type_symbol
 _atom_site_label
 _atom_site_symmetry_multiplicity
 _atom_site_fract_x
 _atom_site_fract_y
 _atom_site_fract_z
 _atom_site_occupancy
  Y  Y0  1  0.870692  0.537790  0.250000  1
  Y  Y1  1  0.629289  0.039530  0.250000  1
  Ho  Ho2  1  0.334087  0.673188  0.061209  1
  Ho  Ho3  1  0.169361  0.177722  0.438535  1
  Ho  Ho4  1  0.669436  0.324275  0.563871  1
  Ho  Ho5  1  0.827312  0.823825  0.933269  1
  Ho  Ho6  1  0.669436  0.324275  0.936129  1
  Ho  Ho7  1  0.827312  0.823825  0.566731  1
  Ho  Ho8  1  0.334087  0.673188  0.438791  1
  Ho  Ho9  1  0.169361  0.177722  0.061465  1
  Ho  Ho10  1  0.129491  0.461464  0.750000  1
  Ho  Ho11  1  0.369178  0.961458  0.750000  1
  Os  Os12  1  0.457645  0.384160  0.250000  1
  Os  Os13  1  0.961853  0.115551  0.750000  1
  Os  Os14  1  0.537919  0.616685  0.750000  1
  Rh  Rh15  1  0.043543  0.885344  0.250000  1
