# generated using pymatgen
data_Li3Ca2Mg
_symmetry_space_group_name_H-M   'P 1'
_cell_length_a   6.21242600
_cell_length_b   6.21242586
_cell_length_c   9.90666800
_cell_angle_alpha   90.00000000
_cell_angle_beta   90.00000000
_cell_angle_gamma   120.00001138
_symmetry_Int_Tables_number   1
_chemical_formula_structural   Li3Ca2Mg
_chemical_formula_sum   'Li6 Ca4 Mg2'
_cell_volume   331.11635943
_cell_formula_units_Z   2
loop_
 _symmetry_equiv_pos_site_id
 _symmetry_equiv_pos_as_xyz
  1  'x, y, z'
loop_
 _atom_site_type_symbol
 _atom_site_label
 _atom_site_symmetry_multiplicity
 _atom_site_fract_x
 _atom_site_fract_y
 _atom_site_fract_z
 _atom_site_occupancy
  Li  Li0  1  0.833300  0.166700  0.250000  1
  Li  Li1  1  0.833300  0.666600  0.250000  1
  Li  Li2  1  0.333400  0.166700  0.250000  1
  Li  Li3  1  0.166700  0.833300  0.750000  1
  Li  Li4  1  0.166700  0.333400  0.750000  1
  Li  Li5  1  0.666600  0.833300  0.750000  1
  Ca  Ca6  1  0.333333  0.666667  0.440992  1
  Ca  Ca7  1  0.666667  0.333333  0.559008  1
  Ca  Ca8  1  0.666667  0.333333  0.940992  1
  Ca  Ca9  1  0.333333  0.666667  0.059008  1
  Mg  Mg10  1  0.000000  0.000000  0.500000  1
  Mg  Mg11  1  0.000000  0.000000  0.000000  1
