# generated using pymatgen
data_Ho9Tm3In2Fe2Ru
_symmetry_space_group_name_H-M   'P 1'
_cell_length_a   8.31652019
_cell_length_b   8.31183839
_cell_length_c   8.31183127
_cell_angle_alpha   108.69086936
_cell_angle_beta   108.60629903
_cell_angle_gamma   111.10589374
_symmetry_Int_Tables_number   1
_chemical_formula_structural   Ho9Tm3In2Fe2Ru
_chemical_formula_sum   'Ho9 Tm3 In2 Fe2 Ru1'
_cell_volume   442.14943364
_cell_formula_units_Z   1
loop_
 _symmetry_equiv_pos_site_id
 _symmetry_equiv_pos_as_xyz
  1  'x, y, z'
loop_
 _atom_site_type_symbol
 _atom_site_label
 _atom_site_symmetry_multiplicity
 _atom_site_fract_x
 _atom_site_fract_y
 _atom_site_fract_z
 _atom_site_occupancy
  Ho  Ho0  1  0.193598  0.955141  0.761949  1
  Ho  Ho1  1  0.046459  0.807399  0.239059  1
  Ho  Ho2  1  0.806266  0.045557  0.238619  1
  Ho  Ho3  1  0.193602  0.431647  0.238454  1
  Ho  Ho4  1  0.806265  0.567648  0.760710  1
  Ho  Ho5  1  0.306745  0.307237  0.613703  1
  Ho  Ho6  1  0.692960  0.693086  0.386797  1
  Ho  Ho7  1  0.306745  0.693044  0.999509  1
  Ho  Ho8  1  0.692966  0.306167  0.999878  1
  Tm  Tm9  1  0.431102  0.192770  0.238336  1
  Tm  Tm10  1  0.569279  0.807737  0.761543  1
  Tm  Tm11  1  0.954184  0.192309  0.761874  1
  In  In12  1  0.500809  0.000452  0.500357  1
  In  In13  1  0.999979  0.500007  0.499971  1
  Fe  Fe14  1  0.385161  0.385135  0.000026  1
  Fe  Fe15  1  0.614026  0.614273  0.999753  1
  Ru  Ru16  1  0.999853  0.000391  0.999462  1
