# generated using pymatgen
data_Zr10InGe2Sb5
_symmetry_space_group_name_H-M   'P 1'
_cell_length_a   8.72216466
_cell_length_b   8.72216477
_cell_length_c   5.89414600
_cell_angle_alpha   90.00000000
_cell_angle_beta   90.00000000
_cell_angle_gamma   120.20283636
_symmetry_Int_Tables_number   1
_chemical_formula_structural   Zr10InGe2Sb5
_chemical_formula_sum   'Zr10 In1 Ge2 Sb5'
_cell_volume   387.53309329
_cell_formula_units_Z   1
loop_
 _symmetry_equiv_pos_site_id
 _symmetry_equiv_pos_as_xyz
  1  'x, y, z'
loop_
 _atom_site_type_symbol
 _atom_site_label
 _atom_site_symmetry_multiplicity
 _atom_site_fract_x
 _atom_site_fract_y
 _atom_site_fract_z
 _atom_site_occupancy
  Zr  Zr0  1  0.667658  0.333589  0.999388  1
  Zr  Zr1  1  0.333589  0.667658  0.999388  1
  Zr  Zr2  1  0.333589  0.667658  0.500612  1
  Zr  Zr3  1  0.667658  0.333589  0.500612  1
  Zr  Zr4  1  0.735333  0.735333  0.750000  1
  Zr  Zr5  1  0.265715  0.998345  0.750000  1
  Zr  Zr6  1  0.998345  0.265715  0.750000  1
  Zr  Zr7  1  0.263879  0.263879  0.250000  1
  Zr  Zr8  1  0.735336  0.000619  0.250000  1
  Zr  Zr9  1  0.000619  0.735336  0.250000  1
  In  In10  1  0.389894  0.389894  0.750000  1
  Ge  Ge11  1  0.001264  0.001264  0.998616  1
  Ge  Ge12  1  0.001264  0.001264  0.501384  1
  Sb  Sb13  1  0.606928  0.999911  0.750000  1
  Sb  Sb14  1  0.999911  0.606928  0.750000  1
  Sb  Sb15  1  0.603555  0.603555  0.250000  1
  Sb  Sb16  1  0.393685  0.001778  0.250000  1
  Sb  Sb17  1  0.001778  0.393685  0.250000  1
