# generated using pymatgen
data_Cs4La3Tb(GeSe4)4
_symmetry_space_group_name_H-M   'P 1'
_cell_length_a   7.24217362
_cell_length_b   6.94195914
_cell_length_c   19.85428078
_cell_angle_alpha   71.36070797
_cell_angle_beta   89.76219325
_cell_angle_gamma   90.00489798
_symmetry_Int_Tables_number   1
_chemical_formula_structural   Cs4La3Tb(GeSe4)4
_chemical_formula_sum   'Cs4 La3 Tb1 Ge4 Se16'
_cell_volume   945.80761543
_cell_formula_units_Z   1
loop_
 _symmetry_equiv_pos_site_id
 _symmetry_equiv_pos_as_xyz
  1  'x, y, z'
loop_
 _atom_site_type_symbol
 _atom_site_label
 _atom_site_symmetry_multiplicity
 _atom_site_fract_x
 _atom_site_fract_y
 _atom_site_fract_z
 _atom_site_occupancy
  Cs  Cs0  1  0.751535  0.729663  0.033292  1
  Cs  Cs1  1  0.247842  0.270806  0.968088  1
  Cs  Cs2  1  0.748010  0.731375  0.531678  1
  Cs  Cs3  1  0.251904  0.270467  0.466671  1
  La  La4  1  0.733009  0.770071  0.273366  1
  La  La5  1  0.766170  0.770083  0.774120  1
  La  La6  1  0.266077  0.229860  0.725827  1
  Tb  Tb7  1  0.229349  0.229842  0.226448  1
  Ge  Ge8  1  0.731933  0.210894  0.835636  1
  Ge  Ge9  1  0.766953  0.213329  0.333679  1
  Ge  Ge10  1  0.231962  0.789148  0.664309  1
  Ge  Ge11  1  0.266424  0.787159  0.165946  1
  Se  Se12  1  0.500689  0.043408  0.145237  1
  Se  Se13  1  0.759964  0.408749  0.411423  1
  Se  Se14  1  0.004781  0.008286  0.850053  1
  Se  Se15  1  0.843339  0.423742  0.215830  1
  Se  Se16  1  0.991110  0.037424  0.641696  1
  Se  Se17  1  0.259852  0.576310  0.093212  1
  Se  Se18  1  0.738681  0.410055  0.912075  1
  Se  Se19  1  0.332202  0.561986  0.282106  1
  Se  Se20  1  0.238736  0.589827  0.587920  1
  Se  Se21  1  0.491070  0.962018  0.858490  1
  Se  Se22  1  0.671703  0.420432  0.716689  1
  Se  Se23  1  0.171180  0.579239  0.783402  1
  Se  Se24  1  0.010354  0.968446  0.355242  1
  Se  Se25  1  0.999951  0.999871  0.152671  1
  Se  Se26  1  0.490166  0.015748  0.344894  1
  Se  Se27  1  0.505055  0.991764  0.650000  1
