# generated using pymatgen
data_Ho10InSn5O2
_symmetry_space_group_name_H-M   'P 1'
_cell_length_a   9.01034540
_cell_length_b   9.01034592
_cell_length_c   9.01034600
_cell_angle_alpha   125.99527276
_cell_angle_beta   125.99526727
_cell_angle_gamma   79.89591532
_symmetry_Int_Tables_number   1
_chemical_formula_structural   Ho10InSn5O2
_chemical_formula_sum   'Ho10 In1 Sn5 O2'
_cell_volume   462.41607040
_cell_formula_units_Z   1
loop_
 _symmetry_equiv_pos_site_id
 _symmetry_equiv_pos_as_xyz
  1  'x, y, z'
loop_
 _atom_site_type_symbol
 _atom_site_label
 _atom_site_symmetry_multiplicity
 _atom_site_fract_x
 _atom_site_fract_y
 _atom_site_fract_z
 _atom_site_occupancy
  Ho  Ho0  1  0.000833  0.200802  0.501101  1
  Ho  Ho1  1  0.800299  0.299201  0.800010  1
  Ho  Ho2  1  0.499716  0.000815  0.800011  1
  Ho  Ho3  1  0.499191  0.000289  0.199990  1
  Ho  Ho4  1  0.000273  0.800306  0.501103  1
  Ho  Ho5  1  0.499593  0.499593  0.000000  1
  Ho  Ho6  1  0.200804  0.699704  0.199989  1
  Ho  Ho7  1  0.699702  0.499732  0.498899  1
  Ho  Ho8  1  0.299203  0.499170  0.498897  1
  Ho  Ho9  1  0.000409  0.000409  0.000000  1
  In  In10  1  0.250005  0.250005  0.000000  1
  Sn  Sn11  1  0.853632  0.353660  0.207292  1
  Sn  Sn12  1  0.146369  0.646340  0.792708  1
  Sn  Sn13  1  0.353631  0.146353  0.499977  1
  Sn  Sn14  1  0.749952  0.749952  0.000000  1
  Sn  Sn15  1  0.646376  0.853654  0.500023  1
  O  O16  1  0.749926  0.249926  0.500000  1
  O  O17  1  0.250087  0.750087  0.500000  1
