# generated using pymatgen
data_La3Mg3Ge2Rh
_symmetry_space_group_name_H-M   'P 1'
_cell_length_a   7.42879200
_cell_length_b   7.42879235
_cell_length_c   4.57947500
_cell_angle_alpha   90.00000000
_cell_angle_beta   90.00000000
_cell_angle_gamma   119.99999842
_symmetry_Int_Tables_number   1
_chemical_formula_structural   La3Mg3Ge2Rh
_chemical_formula_sum   'La3 Mg3 Ge2 Rh1'
_cell_volume   218.86824172
_cell_formula_units_Z   1
loop_
 _symmetry_equiv_pos_site_id
 _symmetry_equiv_pos_as_xyz
  1  'x, y, z'
loop_
 _atom_site_type_symbol
 _atom_site_label
 _atom_site_symmetry_multiplicity
 _atom_site_fract_x
 _atom_site_fract_y
 _atom_site_fract_z
 _atom_site_occupancy
  La  La0  1  0.402491  0.000000  0.000000  1
  La  La1  1  0.000000  0.402492  0.000000  1
  La  La2  1  0.597509  0.597508  0.000000  1
  Mg  Mg3  1  0.763879  0.000000  0.500001  1
  Mg  Mg4  1  0.236121  0.236120  0.500001  1
  Mg  Mg5  1  0.000000  0.763880  0.500001  1
  Ge  Ge6  1  0.666667  0.333334  0.500001  1
  Ge  Ge7  1  0.333333  0.666666  0.500001  1
  Rh  Rh8  1  0.000000  0.000000  0.000000  1
