# generated using pymatgen
data_Y9ErCd3Tc
_symmetry_space_group_name_H-M   'P 1'
_cell_length_a   9.57523000
_cell_length_b   9.57523100
_cell_length_c   10.00117600
_cell_angle_alpha   90.00000000
_cell_angle_beta   90.00000000
_cell_angle_gamma   120.00000347
_symmetry_Int_Tables_number   1
_chemical_formula_structural   Y9ErCd3Tc
_chemical_formula_sum   'Y18 Er2 Cd6 Tc2'
_cell_volume   794.10907850
_cell_formula_units_Z   2
loop_
 _symmetry_equiv_pos_site_id
 _symmetry_equiv_pos_as_xyz
  1  'x, y, z'
loop_
 _atom_site_type_symbol
 _atom_site_label
 _atom_site_symmetry_multiplicity
 _atom_site_fract_x
 _atom_site_fract_y
 _atom_site_fract_z
 _atom_site_occupancy
  Y  Y0  1  0.209861  0.790139  0.941227  1
  Y  Y1  1  0.209861  0.419721  0.941227  1
  Y  Y2  1  0.580279  0.790139  0.941227  1
  Y  Y3  1  0.790139  0.209861  0.058773  1
  Y  Y4  1  0.790139  0.580279  0.058773  1
  Y  Y5  1  0.419721  0.209861  0.058773  1
  Y  Y6  1  0.790139  0.209861  0.441227  1
  Y  Y7  1  0.790139  0.580279  0.441227  1
  Y  Y8  1  0.419721  0.209861  0.441227  1
  Y  Y9  1  0.209861  0.790139  0.558773  1
  Y  Y10  1  0.209861  0.419721  0.558773  1
  Y  Y11  1  0.580279  0.790139  0.558773  1
  Y  Y12  1  0.539625  0.460375  0.750000  1
  Y  Y13  1  0.539625  0.079249  0.750000  1
  Y  Y14  1  0.920751  0.460375  0.750000  1
  Y  Y15  1  0.460375  0.539625  0.250000  1
  Y  Y16  1  0.460375  0.920751  0.250000  1
  Y  Y17  1  0.079249  0.539625  0.250000  1
  Er  Er18  1  0.000000  0.000000  0.000000  1
  Er  Er19  1  0.000000  0.000000  0.500000  1
  Cd  Cd20  1  0.886855  0.113145  0.750000  1
  Cd  Cd21  1  0.886855  0.773709  0.750000  1
  Cd  Cd22  1  0.226291  0.113145  0.750000  1
  Cd  Cd23  1  0.113145  0.886855  0.250000  1
  Cd  Cd24  1  0.113145  0.226291  0.250000  1
  Cd  Cd25  1  0.773709  0.886855  0.250000  1
  Tc  Tc26  1  0.333333  0.666667  0.750000  1
  Tc  Tc27  1  0.666667  0.333333  0.250000  1
