# generated using pymatgen
data_K2CoGeO4
_symmetry_space_group_name_H-M   'P 1'
_cell_length_a   5.56598649
_cell_length_b   5.56598751
_cell_length_c   5.56598649
_cell_angle_alpha   117.38095509
_cell_angle_beta   117.38095857
_cell_angle_gamma   94.59952116
_symmetry_Int_Tables_number   1
_chemical_formula_structural   K2CoGeO4
_chemical_formula_sum   'K2 Co1 Ge1 O4'
_cell_volume   126.31672538
_cell_formula_units_Z   1
loop_
 _symmetry_equiv_pos_site_id
 _symmetry_equiv_pos_as_xyz
  1  'x, y, z'
loop_
 _atom_site_type_symbol
 _atom_site_label
 _atom_site_symmetry_multiplicity
 _atom_site_fract_x
 _atom_site_fract_y
 _atom_site_fract_z
 _atom_site_occupancy
  K  K0  1  0.750000  0.250000  0.500000  1
  K  K1  1  0.000000  0.000000  0.000000  1
  Co  Co2  1  0.500000  0.500000  0.000000  1
  Ge  Ge3  1  0.250000  0.750000  0.500000  1
  O  O4  1  0.247568  0.652595  0.144202  1
  O  O5  1  0.896634  0.752432  0.405026  1
  O  O6  1  0.347405  0.491607  0.594974  1
  O  O7  1  0.508393  0.103366  0.855798  1
