# generated using pymatgen
data_V8Ru3
_symmetry_space_group_name_H-M   'P 1'
_cell_length_a   4.99207696
_cell_length_b   4.99207649
_cell_length_c   10.75849346
_cell_angle_alpha   104.42475252
_cell_angle_beta   104.42475016
_cell_angle_gamma   34.71941691
_symmetry_Int_Tables_number   1
_chemical_formula_structural   V8Ru3
_chemical_formula_sum   'V8 Ru3'
_cell_volume   147.41177659
_cell_formula_units_Z   1
loop_
 _symmetry_equiv_pos_site_id
 _symmetry_equiv_pos_as_xyz
  1  'x, y, z'
loop_
 _atom_site_type_symbol
 _atom_site_label
 _atom_site_symmetry_multiplicity
 _atom_site_fract_x
 _atom_site_fract_y
 _atom_site_fract_z
 _atom_site_occupancy
  V  V0  1  0.728236  0.728236  0.090986  1
  V  V1  1  0.455251  0.455251  0.181838  1
  V  V2  1  0.182786  0.182786  0.271521  1
  V  V3  1  0.638510  0.638510  0.452724  1
  V  V4  1  0.361490  0.361490  0.547276  1
  V  V5  1  0.817214  0.817214  0.728479  1
  V  V6  1  0.544749  0.544749  0.818162  1
  V  V7  1  0.271764  0.271764  0.909015  1
  Ru  Ru8  1  0.000000  0.000000  0.000000  1
  Ru  Ru9  1  0.909772  0.909772  0.363629  1
  Ru  Ru10  1  0.090228  0.090228  0.636372  1
