# generated using pymatgen
data_Mo3Pt(SeO3)8
_symmetry_space_group_name_H-M   'P 1'
_cell_length_a   8.27203954
_cell_length_b   8.27203979
_cell_length_c   8.27204044
_cell_angle_alpha   90.24894552
_cell_angle_beta   89.75105974
_cell_angle_gamma   89.75105482
_symmetry_Int_Tables_number   1
_chemical_formula_structural   Mo3Pt(SeO3)8
_chemical_formula_sum   'Mo3 Pt1 Se8 O24'
_cell_volume   566.01186008
_cell_formula_units_Z   1
loop_
 _symmetry_equiv_pos_site_id
 _symmetry_equiv_pos_as_xyz
  1  'x, y, z'
loop_
 _atom_site_type_symbol
 _atom_site_label
 _atom_site_symmetry_multiplicity
 _atom_site_fract_x
 _atom_site_fract_y
 _atom_site_fract_z
 _atom_site_occupancy
  Mo  Mo0  1  0.500000  0.000000  0.500000  1
  Mo  Mo1  1  0.000000  0.000000  0.000000  1
  Mo  Mo2  1  0.000000  0.500000  0.500000  1
  Pt  Pt3  1  0.500000  0.500000  0.000000  1
  Se  Se4  1  0.832950  0.167050  0.667050  1
  Se  Se5  1  0.167050  0.832950  0.332950  1
  Se  Se6  1  0.661475  0.663044  0.680524  1
  Se  Se7  1  0.180524  0.661475  0.836956  1
  Se  Se8  1  0.336956  0.180524  0.838525  1
  Se  Se9  1  0.819476  0.338525  0.163044  1
  Se  Se10  1  0.663044  0.819476  0.161475  1
  Se  Se11  1  0.338525  0.336956  0.319476  1
  O  O12  1  0.244474  0.464577  0.457637  1
  O  O13  1  0.957637  0.244474  0.035423  1
  O  O14  1  0.028680  0.743880  0.463470  1
  O  O15  1  0.477455  0.256193  0.979402  1
  O  O16  1  0.256120  0.963470  0.471320  1
  O  O17  1  0.520598  0.522545  0.756193  1
  O  O18  1  0.963470  0.028680  0.756120  1
  O  O19  1  0.522545  0.743807  0.020598  1
  O  O20  1  0.535423  0.957637  0.255526  1
  O  O21  1  0.464577  0.042363  0.744474  1
  O  O22  1  0.757863  0.954201  0.031870  1
  O  O23  1  0.256193  0.520598  0.977455  1
  O  O24  1  0.045799  0.531870  0.742137  1
  O  O25  1  0.036530  0.971320  0.243880  1
  O  O26  1  0.242137  0.045799  0.968130  1
  O  O27  1  0.479402  0.477455  0.243807  1
  O  O28  1  0.755526  0.535423  0.542363  1
  O  O29  1  0.954201  0.468130  0.257863  1
  O  O30  1  0.042363  0.755526  0.964577  1
  O  O31  1  0.468130  0.242137  0.454201  1
  O  O32  1  0.531870  0.757863  0.545799  1
  O  O33  1  0.971320  0.256120  0.536530  1
  O  O34  1  0.743880  0.036530  0.528680  1
  O  O35  1  0.743807  0.479402  0.022545  1
