# generated using pymatgen
data_YTaB6Ru
_symmetry_space_group_name_H-M   'P 1'
_cell_length_a   3.48280300
_cell_length_b   9.00882700
_cell_length_c   11.29255700
_cell_angle_alpha   90.00000000
_cell_angle_beta   90.00000000
_cell_angle_gamma   90.00000000
_symmetry_Int_Tables_number   1
_chemical_formula_structural   YTaB6Ru
_chemical_formula_sum   'Y4 Ta4 B24 Ru4'
_cell_volume   354.31492629
_cell_formula_units_Z   4
loop_
 _symmetry_equiv_pos_site_id
 _symmetry_equiv_pos_as_xyz
  1  'x, y, z'
loop_
 _atom_site_type_symbol
 _atom_site_label
 _atom_site_symmetry_multiplicity
 _atom_site_fract_x
 _atom_site_fract_y
 _atom_site_fract_z
 _atom_site_occupancy
  Y  Y0  1  0.000000  0.323219  0.413202  1
  Y  Y1  1  0.000000  0.676781  0.586798  1
  Y  Y2  1  0.000000  0.823219  0.086798  1
  Y  Y3  1  0.000000  0.176781  0.913202  1
  Ta  Ta4  1  0.000000  0.946386  0.375177  1
  Ta  Ta5  1  0.000000  0.053614  0.624823  1
  Ta  Ta6  1  0.000000  0.446386  0.124823  1
  Ta  Ta7  1  0.000000  0.553614  0.875177  1
  B  B8  1  0.500000  0.554610  0.433982  1
  B  B9  1  0.500000  0.445390  0.566018  1
  B  B10  1  0.500000  0.054610  0.066018  1
  B  B11  1  0.500000  0.945390  0.933982  1
  B  B12  1  0.500000  0.754877  0.418506  1
  B  B13  1  0.500000  0.245123  0.581494  1
  B  B14  1  0.500000  0.254877  0.081494  1
  B  B15  1  0.500000  0.745123  0.918506  1
  B  B16  1  0.500000  0.798505  0.263198  1
  B  B17  1  0.500000  0.201495  0.736802  1
  B  B18  1  0.500000  0.298505  0.236802  1
  B  B19  1  0.500000  0.701495  0.763198  1
  B  B20  1  0.500000  0.628974  0.181258  1
  B  B21  1  0.500000  0.371026  0.818742  1
  B  B22  1  0.500000  0.128974  0.318742  1
  B  B23  1  0.500000  0.871026  0.681258  1
  B  B24  1  0.500000  0.980715  0.214359  1
  B  B25  1  0.500000  0.019285  0.785641  1
  B  B26  1  0.500000  0.480715  0.285641  1
  B  B27  1  0.500000  0.519285  0.714359  1
  B  B28  1  0.500000  0.599520  0.026412  1
  B  B29  1  0.500000  0.400480  0.973588  1
  B  B30  1  0.500000  0.099520  0.473588  1
  B  B31  1  0.500000  0.900480  0.526412  1
  Ru  Ru32  1  0.000000  0.643947  0.317327  1
  Ru  Ru33  1  0.000000  0.356053  0.682673  1
  Ru  Ru34  1  0.000000  0.143947  0.182673  1
  Ru  Ru35  1  0.000000  0.856053  0.817327  1
