# generated using pymatgen
data_Tb3Pa(Ni2Sn)2
_symmetry_space_group_name_H-M   'P 1'
_cell_length_a   7.43014425
_cell_length_b   7.43015221
_cell_length_c   3.62540600
_cell_angle_alpha   90.00000000
_cell_angle_beta   90.00000000
_cell_angle_gamma   92.04852731
_symmetry_Int_Tables_number   1
_chemical_formula_structural   Tb3Pa(Ni2Sn)2
_chemical_formula_sum   'Tb3 Pa1 Ni4 Sn2'
_cell_volume   200.02024866
_cell_formula_units_Z   1
loop_
 _symmetry_equiv_pos_site_id
 _symmetry_equiv_pos_as_xyz
  1  'x, y, z'
loop_
 _atom_site_type_symbol
 _atom_site_label
 _atom_site_symmetry_multiplicity
 _atom_site_fract_x
 _atom_site_fract_y
 _atom_site_fract_z
 _atom_site_occupancy
  Tb  Tb0  1  0.323239  0.823239  0.500000  1
  Tb  Tb1  1  0.172927  0.326028  0.500000  1
  Tb  Tb2  1  0.826028  0.672927  0.500000  1
  Pa  Pa3  1  0.672699  0.172699  0.500000  1
  Ni  Ni4  1  0.860773  0.360774  0.000000  1
  Ni  Ni5  1  0.113694  0.613694  0.000000  1
  Ni  Ni6  1  0.398198  0.133327  0.000000  1
  Ni  Ni7  1  0.633328  0.898199  0.000000  1
  Sn  Sn8  1  0.494466  0.504648  0.000000  1
  Sn  Sn9  1  0.004649  0.994466  0.000000  1
