# generated using pymatgen
data_Nd4Dy15ErBi12
_symmetry_space_group_name_H-M   'P 1'
_cell_length_a   8.34790211
_cell_length_b   9.54093302
_cell_length_c   12.21107519
_cell_angle_alpha   90.00737025
_cell_angle_beta   90.01865026
_cell_angle_gamma   90.00353573
_symmetry_Int_Tables_number   1
_chemical_formula_structural   Nd4Dy15ErBi12
_chemical_formula_sum   'Nd4 Dy15 Er1 Bi12'
_cell_volume   972.57269611
_cell_formula_units_Z   1
loop_
 _symmetry_equiv_pos_site_id
 _symmetry_equiv_pos_as_xyz
  1  'x, y, z'
loop_
 _atom_site_type_symbol
 _atom_site_label
 _atom_site_symmetry_multiplicity
 _atom_site_fract_x
 _atom_site_fract_y
 _atom_site_fract_z
 _atom_site_occupancy
  Nd  Nd0  1  0.168224  0.749973  0.222897  1
  Nd  Nd1  1  0.331798  0.749910  0.722837  1
  Nd  Nd2  1  0.831747  0.250033  0.777070  1
  Nd  Nd3  1  0.668182  0.249988  0.277061  1
  Dy  Dy4  1  0.813025  0.563997  0.063153  1
  Dy  Dy5  1  0.686935  0.935775  0.563180  1
  Dy  Dy6  1  0.186915  0.063984  0.936846  1
  Dy  Dy7  1  0.313033  0.436006  0.436860  1
  Dy  Dy8  1  0.186878  0.435978  0.936839  1
  Dy  Dy9  1  0.313159  0.064033  0.436859  1
  Dy  Dy10  1  0.813064  0.935988  0.063167  1
  Dy  Dy11  1  0.477920  0.749975  0.003131  1
  Dy  Dy12  1  0.021875  0.749885  0.503239  1
  Dy  Dy13  1  0.522066  0.249997  0.996808  1
  Dy  Dy14  1  0.977863  0.250002  0.496811  1
  Dy  Dy15  1  0.668280  0.749888  0.288701  1
  Dy  Dy16  1  0.831736  0.749813  0.788361  1
  Dy  Dy17  1  0.331697  0.249923  0.711432  1
  Dy  Dy18  1  0.168303  0.249985  0.211437  1
  Er  Er19  1  0.686903  0.564652  0.563204  1
  Bi  Bi20  1  0.400677  0.749764  0.462495  1
  Bi  Bi21  1  0.099465  0.750005  0.962436  1
  Bi  Bi22  1  0.599716  0.250759  0.537640  1
  Bi  Bi23  1  0.900515  0.249990  0.037556  1
  Bi  Bi24  1  0.936120  0.505781  0.328233  1
  Bi  Bi25  1  0.563931  0.994140  0.828173  1
  Bi  Bi26  1  0.063895  0.005767  0.671797  1
  Bi  Bi27  1  0.436130  0.494143  0.171849  1
  Bi  Bi28  1  0.063801  0.494169  0.671761  1
  Bi  Bi29  1  0.436082  0.005816  0.171837  1
  Bi  Bi30  1  0.936058  0.994087  0.328209  1
  Bi  Bi31  1  0.564008  0.505795  0.828121  1
