# generated using pymatgen
data_Pr5Si2Ir
_symmetry_space_group_name_H-M   'P 1'
_cell_length_a   8.02458700
_cell_length_b   8.94945800
_cell_length_c   12.47250600
_cell_angle_alpha   90.00000000
_cell_angle_beta   90.00000000
_cell_angle_gamma   90.00000000
_symmetry_Int_Tables_number   1
_chemical_formula_structural   Pr5Si2Ir
_chemical_formula_sum   'Pr20 Si8 Ir4'
_cell_volume   895.72180307
_cell_formula_units_Z   4
loop_
 _symmetry_equiv_pos_site_id
 _symmetry_equiv_pos_as_xyz
  1  'x, y, z'
loop_
 _atom_site_type_symbol
 _atom_site_label
 _atom_site_symmetry_multiplicity
 _atom_site_fract_x
 _atom_site_fract_y
 _atom_site_fract_z
 _atom_site_occupancy
  Pr  Pr0  1  0.672973  0.750000  0.717521  1
  Pr  Pr1  1  0.327027  0.250000  0.282479  1
  Pr  Pr2  1  0.172973  0.250000  0.782479  1
  Pr  Pr3  1  0.827027  0.750000  0.217521  1
  Pr  Pr4  1  0.149759  0.750000  0.795349  1
  Pr  Pr5  1  0.850241  0.250000  0.204651  1
  Pr  Pr6  1  0.649759  0.250000  0.704651  1
  Pr  Pr7  1  0.350241  0.750000  0.295349  1
  Pr  Pr8  1  0.539585  0.750000  0.999449  1
  Pr  Pr9  1  0.460415  0.250000  0.000551  1
  Pr  Pr10  1  0.039585  0.250000  0.500551  1
  Pr  Pr11  1  0.960415  0.750000  0.499449  1
  Pr  Pr12  1  0.818530  0.463961  0.924953  1
  Pr  Pr13  1  0.181470  0.536039  0.075047  1
  Pr  Pr14  1  0.318530  0.536039  0.575047  1
  Pr  Pr15  1  0.181470  0.963961  0.075047  1
  Pr  Pr16  1  0.681470  0.463961  0.424953  1
  Pr  Pr17  1  0.818530  0.036039  0.924953  1
  Pr  Pr18  1  0.681470  0.036039  0.424953  1
  Pr  Pr19  1  0.318530  0.963961  0.575047  1
  Si  Si20  1  0.942553  0.005139  0.671559  1
  Si  Si21  1  0.057447  0.994861  0.328441  1
  Si  Si22  1  0.442553  0.994861  0.828441  1
  Si  Si23  1  0.057447  0.505139  0.328441  1
  Si  Si24  1  0.557447  0.005139  0.171559  1
  Si  Si25  1  0.942553  0.494861  0.671559  1
  Si  Si26  1  0.557447  0.494861  0.171559  1
  Si  Si27  1  0.442553  0.505139  0.828441  1
  Ir  Ir28  1  0.925986  0.750000  0.985287  1
  Ir  Ir29  1  0.074014  0.250000  0.014713  1
  Ir  Ir30  1  0.425986  0.250000  0.514713  1
  Ir  Ir31  1  0.574014  0.750000  0.485287  1
