# generated using pymatgen
data_Ho5Er11Cd4Pd3Ru
_symmetry_space_group_name_H-M   'P 1'
_cell_length_a   9.62593091
_cell_length_b   9.62350993
_cell_length_c   9.62351165
_cell_angle_alpha   59.54839712
_cell_angle_beta   59.54730053
_cell_angle_gamma   59.54729574
_symmetry_Int_Tables_number   1
_chemical_formula_structural   Ho5Er11Cd4Pd3Ru
_chemical_formula_sum   'Ho5 Er11 Cd4 Pd3 Ru1'
_cell_volume   623.88602534
_cell_formula_units_Z   1
loop_
 _symmetry_equiv_pos_site_id
 _symmetry_equiv_pos_as_xyz
  1  'x, y, z'
loop_
 _atom_site_type_symbol
 _atom_site_label
 _atom_site_symmetry_multiplicity
 _atom_site_fract_x
 _atom_site_fract_y
 _atom_site_fract_z
 _atom_site_occupancy
  Ho  Ho0  1  0.560657  0.936171  0.936171  1
  Ho  Ho1  1  0.566474  0.934262  0.566302  1
  Ho  Ho2  1  0.936181  0.560669  0.935973  1
  Ho  Ho3  1  0.566474  0.566302  0.934262  1
  Ho  Ho4  1  0.936181  0.935973  0.560669  1
  Er  Er5  1  0.353050  0.353142  0.353142  1
  Er  Er6  1  0.350417  0.350443  0.944947  1
  Er  Er7  1  0.350417  0.944947  0.350443  1
  Er  Er8  1  0.944812  0.350527  0.350527  1
  Er  Er9  1  0.816726  0.188048  0.188048  1
  Er  Er10  1  0.187922  0.810931  0.810931  1
  Er  Er11  1  0.187941  0.816629  0.188200  1
  Er  Er12  1  0.810970  0.188111  0.810842  1
  Er  Er13  1  0.187941  0.188200  0.816629  1
  Er  Er14  1  0.810970  0.810842  0.188111  1
  Er  Er15  1  0.934568  0.566202  0.566202  1
  Cd  Cd16  1  0.580559  0.580341  0.580341  1
  Cd  Cd17  1  0.581161  0.581191  0.253854  1
  Cd  Cd18  1  0.581161  0.253854  0.581191  1
  Cd  Cd19  1  0.253573  0.581227  0.581227  1
  Pd  Pd20  1  0.144390  0.144564  0.568822  1
  Pd  Pd21  1  0.144390  0.568822  0.144564  1
  Pd  Pd22  1  0.568856  0.144413  0.144413  1
  Ru  Ru23  1  0.144208  0.144186  0.144186  1
