# generated using pymatgen
data_Ho4GaTc6Os
_symmetry_space_group_name_H-M   'P 1'
_cell_length_a   5.28365600
_cell_length_b   5.28365486
_cell_length_c   9.09422800
_cell_angle_alpha   90.00000000
_cell_angle_beta   90.00000000
_cell_angle_gamma   120.00000716
_symmetry_Int_Tables_number   1
_chemical_formula_structural   Ho4GaTc6Os
_chemical_formula_sum   'Ho4 Ga1 Tc6 Os1'
_cell_volume   219.86971500
_cell_formula_units_Z   1
loop_
 _symmetry_equiv_pos_site_id
 _symmetry_equiv_pos_as_xyz
  1  'x, y, z'
loop_
 _atom_site_type_symbol
 _atom_site_label
 _atom_site_symmetry_multiplicity
 _atom_site_fract_x
 _atom_site_fract_y
 _atom_site_fract_z
 _atom_site_occupancy
  Ho  Ho0  1  0.333333  0.666667  0.431636  1
  Ho  Ho1  1  0.666667  0.333333  0.568364  1
  Ho  Ho2  1  0.666667  0.333333  0.935536  1
  Ho  Ho3  1  0.333333  0.666667  0.064464  1
  Ga  Ga4  1  0.000000  0.000000  0.500000  1
  Tc  Tc5  1  0.829502  0.170498  0.250795  1
  Tc  Tc6  1  0.829502  0.659004  0.250795  1
  Tc  Tc7  1  0.340996  0.170498  0.250795  1
  Tc  Tc8  1  0.170498  0.829502  0.749205  1
  Tc  Tc9  1  0.170498  0.340996  0.749205  1
  Tc  Tc10  1  0.659004  0.829502  0.749205  1
  Os  Os11  1  0.000000  0.000000  0.000000  1
