# generated using pymatgen
data_LiEuCdPd3
_symmetry_space_group_name_H-M   'P 1'
_cell_length_a   5.31042144
_cell_length_b   5.55726219
_cell_length_c   5.55726200
_cell_angle_alpha   60.00001305
_cell_angle_beta   58.45009928
_cell_angle_gamma   58.45009468
_symmetry_Int_Tables_number   1
_chemical_formula_structural   LiEuCdPd3
_chemical_formula_sum   'Li1 Eu1 Cd1 Pd3'
_cell_volume   113.17593365
_cell_formula_units_Z   1
loop_
 _symmetry_equiv_pos_site_id
 _symmetry_equiv_pos_as_xyz
  1  'x, y, z'
loop_
 _atom_site_type_symbol
 _atom_site_label
 _atom_site_symmetry_multiplicity
 _atom_site_fract_x
 _atom_site_fract_y
 _atom_site_fract_z
 _atom_site_occupancy
  Li  Li0  1  0.634235  0.121922  0.121922  1
  Eu  Eu1  1  0.490722  0.503092  0.503092  1
  Cd  Cd2  1  0.735778  0.754741  0.754741  1
  Pd  Pd3  1  0.129755  0.122972  0.624301  1
  Pd  Pd4  1  0.129755  0.624301  0.122972  1
  Pd  Pd5  1  0.129755  0.122972  0.122972  1
