# generated using pymatgen
data_Lu6Sc4Ga5Te
_symmetry_space_group_name_H-M   'P 1'
_cell_length_a   8.35628353
_cell_length_b   8.35628377
_cell_length_c   6.12710200
_cell_angle_alpha   90.00000000
_cell_angle_beta   90.00000000
_cell_angle_gamma   119.91808501
_symmetry_Int_Tables_number   1
_chemical_formula_structural   Lu6Sc4Ga5Te
_chemical_formula_sum   'Lu6 Sc4 Ga5 Te1'
_cell_volume   370.82582969
_cell_formula_units_Z   1
loop_
 _symmetry_equiv_pos_site_id
 _symmetry_equiv_pos_as_xyz
  1  'x, y, z'
loop_
 _atom_site_type_symbol
 _atom_site_label
 _atom_site_symmetry_multiplicity
 _atom_site_fract_x
 _atom_site_fract_y
 _atom_site_fract_z
 _atom_site_occupancy
  Lu  Lu0  1  0.768249  0.768249  0.750000  1
  Lu  Lu1  1  0.235675  0.983591  0.750000  1
  Lu  Lu2  1  0.983591  0.235675  0.750000  1
  Lu  Lu3  1  0.238374  0.238374  0.250000  1
  Lu  Lu4  1  0.757792  0.998744  0.250000  1
  Lu  Lu5  1  0.998744  0.757792  0.250000  1
  Sc  Sc6  1  0.679105  0.332590  0.007705  1
  Sc  Sc7  1  0.332590  0.679105  0.007705  1
  Sc  Sc8  1  0.332590  0.679105  0.492295  1
  Sc  Sc9  1  0.679105  0.332590  0.492295  1
  Ga  Ga10  1  0.593483  0.996957  0.750000  1
  Ga  Ga11  1  0.996957  0.593483  0.750000  1
  Ga  Ga12  1  0.598108  0.598108  0.250000  1
  Ga  Ga13  1  0.403750  0.005777  0.250000  1
  Ga  Ga14  1  0.005777  0.403750  0.250000  1
  Te  Te15  1  0.396110  0.396110  0.750000  1
