# generated using pymatgen
data_Li8Pr7TmBi8
_symmetry_space_group_name_H-M   'P 1'
_cell_length_a   9.89463000
_cell_length_b   9.89462955
_cell_length_c   7.39274100
_cell_angle_alpha   90.00000000
_cell_angle_beta   90.00000000
_cell_angle_gamma   119.99999481
_symmetry_Int_Tables_number   1
_chemical_formula_structural   Li8Pr7TmBi8
_chemical_formula_sum   'Li8 Pr7 Tm1 Bi8'
_cell_volume   626.80902878
_cell_formula_units_Z   1
loop_
 _symmetry_equiv_pos_site_id
 _symmetry_equiv_pos_as_xyz
  1  'x, y, z'
loop_
 _atom_site_type_symbol
 _atom_site_label
 _atom_site_symmetry_multiplicity
 _atom_site_fract_x
 _atom_site_fract_y
 _atom_site_fract_z
 _atom_site_occupancy
  Li  Li0  1  0.166531  0.833469  0.285569  1
  Li  Li1  1  0.666936  0.833469  0.285569  1
  Li  Li2  1  0.166531  0.333064  0.285569  1
  Li  Li3  1  0.833822  0.166178  0.799155  1
  Li  Li4  1  0.332356  0.166178  0.799155  1
  Li  Li5  1  0.833822  0.667644  0.799155  1
  Li  Li6  1  0.333333  0.666667  0.701479  1
  Li  Li7  1  0.666667  0.333333  0.202375  1
  Pr  Pr8  1  0.508460  0.491540  0.508565  1
  Pr  Pr9  1  0.983081  0.491540  0.508565  1
  Pr  Pr10  1  0.508460  0.016919  0.508565  1
  Pr  Pr11  1  0.490331  0.509669  0.008918  1
  Pr  Pr12  1  0.019339  0.509669  0.008918  1
  Pr  Pr13  1  0.490331  0.980661  0.008918  1
  Pr  Pr14  1  0.000000  0.000000  0.518406  1
  Tm  Tm15  1  0.000000  0.000000  0.017869  1
  Bi  Bi16  1  0.165613  0.834387  0.757806  1
  Bi  Bi17  1  0.668776  0.834387  0.757806  1
  Bi  Bi18  1  0.165613  0.331224  0.757806  1
  Bi  Bi19  1  0.835186  0.164814  0.245993  1
  Bi  Bi20  1  0.329627  0.164814  0.245993  1
  Bi  Bi21  1  0.835186  0.670373  0.245993  1
  Bi  Bi22  1  0.333333  0.666667  0.278302  1
  Bi  Bi23  1  0.666667  0.333333  0.773542  1
