# generated using pymatgen
data_Pr2B10Os
_symmetry_space_group_name_H-M   'P 1'
_cell_length_a   4.24551500
_cell_length_b   5.78978200
_cell_length_c   11.52437200
_cell_angle_alpha   90.00000000
_cell_angle_beta   90.00000000
_cell_angle_gamma   90.00000000
_symmetry_Int_Tables_number   1
_chemical_formula_structural   Pr2B10Os
_chemical_formula_sum   'Pr4 B20 Os2'
_cell_volume   283.27605131
_cell_formula_units_Z   2
loop_
 _symmetry_equiv_pos_site_id
 _symmetry_equiv_pos_as_xyz
  1  'x, y, z'
loop_
 _atom_site_type_symbol
 _atom_site_label
 _atom_site_symmetry_multiplicity
 _atom_site_fract_x
 _atom_site_fract_y
 _atom_site_fract_z
 _atom_site_occupancy
  Pr  Pr0  1  0.500000  0.219461  0.369440  1
  Pr  Pr1  1  0.500000  0.780539  0.630560  1
  Pr  Pr2  1  0.500000  0.280539  0.869440  1
  Pr  Pr3  1  0.500000  0.719461  0.130560  1
  B  B4  1  0.000000  0.379188  0.042314  1
  B  B5  1  0.000000  0.620812  0.957686  1
  B  B6  1  0.000000  0.120812  0.542314  1
  B  B7  1  0.000000  0.879188  0.457686  1
  B  B8  1  0.000000  0.363163  0.197200  1
  B  B9  1  0.000000  0.636837  0.802800  1
  B  B10  1  0.000000  0.136837  0.697200  1
  B  B11  1  0.000000  0.863163  0.302800  1
  B  B12  1  0.000000  0.056391  0.191987  1
  B  B13  1  0.000000  0.943609  0.808013  1
  B  B14  1  0.000000  0.443609  0.691987  1
  B  B15  1  0.000000  0.556391  0.308013  1
  B  B16  1  0.298625  0.220723  0.118324  1
  B  B17  1  0.701375  0.779277  0.881676  1
  B  B18  1  0.298625  0.779277  0.881676  1
  B  B19  1  0.701375  0.279277  0.618324  1
  B  B20  1  0.701375  0.220723  0.118324  1
  B  B21  1  0.298625  0.720723  0.381676  1
  B  B22  1  0.701375  0.720723  0.381676  1
  B  B23  1  0.298625  0.279277  0.618324  1
  Os  Os24  1  0.000000  0.000000  0.000000  1
  Os  Os25  1  0.000000  0.500000  0.500000  1
