# generated using pymatgen
data_Tb2Y5PI12
_symmetry_space_group_name_H-M   'P 1'
_cell_length_a   9.70234950
_cell_length_b   9.70016224
_cell_length_c   9.70202287
_cell_angle_alpha   107.96258183
_cell_angle_beta   107.98042757
_cell_angle_gamma   107.97973578
_symmetry_Int_Tables_number   1
_chemical_formula_structural   Tb2Y5PI12
_chemical_formula_sum   'Tb2 Y5 P1 I12'
_cell_volume   739.29794035
_cell_formula_units_Z   1
loop_
 _symmetry_equiv_pos_site_id
 _symmetry_equiv_pos_as_xyz
  1  'x, y, z'
loop_
 _atom_site_type_symbol
 _atom_site_label
 _atom_site_symmetry_multiplicity
 _atom_site_fract_x
 _atom_site_fract_y
 _atom_site_fract_z
 _atom_site_occupancy
  Tb  Tb0  1  0.899825  0.698214  0.969505  1
  Tb  Tb1  1  0.698195  0.969376  0.899857  1
  Y  Y2  1  0.502092  0.502081  0.502068  1
  Y  Y3  1  0.029548  0.099226  0.301125  1
  Y  Y4  1  0.099230  0.301119  0.029644  1
  Y  Y5  1  0.301065  0.029547  0.099258  1
  Y  Y6  1  0.969330  0.899941  0.698460  1
  P  P7  1  0.000049  0.000070  0.000097  1
  I  I8  1  0.154019  0.465976  0.385835  1
  I  I9  1  0.465882  0.385706  0.153877  1
  I  I10  1  0.385863  0.153988  0.465980  1
  I  I11  1  0.847379  0.533761  0.613644  1
  I  I12  1  0.532956  0.613652  0.847005  1
  I  I13  1  0.614200  0.847010  0.532970  1
  I  I14  1  0.685738  0.075701  0.228350  1
  I  I15  1  0.075529  0.227814  0.685606  1
  I  I16  1  0.228334  0.685729  0.075590  1
  I  I17  1  0.313957  0.924651  0.771894  1
  I  I18  1  0.924765  0.772175  0.314645  1
  I  I19  1  0.772045  0.314263  0.924589  1
