# generated using pymatgen
data_Tb5NdTcP12Rh17
_symmetry_space_group_name_H-M   'P 1'
_cell_length_a   3.94488800
_cell_length_b   11.20177400
_cell_length_c   12.83169100
_cell_angle_alpha   90.00000000
_cell_angle_beta   90.00000000
_cell_angle_gamma   90.00000000
_symmetry_Int_Tables_number   1
_chemical_formula_structural   Tb5NdTcP12Rh17
_chemical_formula_sum   'Tb5 Nd1 Tc1 P12 Rh17'
_cell_volume   567.02913821
_cell_formula_units_Z   1
loop_
 _symmetry_equiv_pos_site_id
 _symmetry_equiv_pos_as_xyz
  1  'x, y, z'
loop_
 _atom_site_type_symbol
 _atom_site_label
 _atom_site_symmetry_multiplicity
 _atom_site_fract_x
 _atom_site_fract_y
 _atom_site_fract_z
 _atom_site_occupancy
  Tb  Tb0  1  0.000000  0.500000  0.520264  1
  Tb  Tb1  1  0.500000  0.814250  0.205533  1
  Tb  Tb2  1  0.500000  0.185750  0.205533  1
  Tb  Tb3  1  0.000000  0.683039  0.796143  1
  Tb  Tb4  1  0.000000  0.316961  0.796143  1
  Nd  Nd5  1  0.500000  0.000000  0.479021  1
  Tc  Tc6  1  0.500000  0.500000  0.160183  1
  P  P7  1  0.500000  0.500000  0.878302  1
  P  P8  1  0.000000  0.000000  0.120401  1
  P  P9  1  0.500000  0.500000  0.346036  1
  P  P10  1  0.000000  0.000000  0.651991  1
  P  P11  1  0.500000  0.315905  0.618324  1
  P  P12  1  0.500000  0.684095  0.618324  1
  P  P13  1  0.000000  0.187349  0.380535  1
  P  P14  1  0.000000  0.812651  0.380535  1
  P  P15  1  0.500000  0.847590  0.891850  1
  P  P16  1  0.500000  0.152410  0.891850  1
  P  P17  1  0.000000  0.653437  0.109724  1
  P  P18  1  0.000000  0.346563  0.109724  1
  Rh  Rh19  1  0.000000  0.000000  0.833131  1
  Rh  Rh20  1  0.500000  0.500000  0.701219  1
  Rh  Rh21  1  0.000000  0.000000  0.295895  1
  Rh  Rh22  1  0.000000  0.500000  0.989239  1
  Rh  Rh23  1  0.500000  0.000000  0.019483  1
  Rh  Rh24  1  0.500000  0.333157  0.988893  1
  Rh  Rh25  1  0.500000  0.666843  0.988893  1
  Rh  Rh26  1  0.000000  0.167606  0.009551  1
  Rh  Rh27  1  0.000000  0.832394  0.009551  1
  Rh  Rh28  1  0.500000  0.296878  0.430972  1
  Rh  Rh29  1  0.500000  0.703122  0.430972  1
  Rh  Rh30  1  0.000000  0.207855  0.569798  1
  Rh  Rh31  1  0.000000  0.792145  0.569798  1
  Rh  Rh32  1  0.500000  0.872252  0.712085  1
  Rh  Rh33  1  0.500000  0.127748  0.712085  1
  Rh  Rh34  1  0.000000  0.624014  0.289011  1
  Rh  Rh35  1  0.000000  0.375986  0.289011  1
