# generated using pymatgen
data_Na2Pt5S6
_symmetry_space_group_name_H-M   'P 1'
_cell_length_a   6.97130639
_cell_length_b   7.07746300
_cell_length_c   11.04537977
_cell_angle_alpha   89.99989907
_cell_angle_beta   99.43145856
_cell_angle_gamma   90.00007213
_symmetry_Int_Tables_number   1
_chemical_formula_structural   Na2Pt5S6
_chemical_formula_sum   'Na4 Pt10 S12'
_cell_volume   537.60307556
_cell_formula_units_Z   2
loop_
 _symmetry_equiv_pos_site_id
 _symmetry_equiv_pos_as_xyz
  1  'x, y, z'
loop_
 _atom_site_type_symbol
 _atom_site_label
 _atom_site_symmetry_multiplicity
 _atom_site_fract_x
 _atom_site_fract_y
 _atom_site_fract_z
 _atom_site_occupancy
  Na  Na0  1  0.374296  0.269499  0.041897  1
  Na  Na1  1  0.125705  0.769496  0.458101  1
  Na  Na2  1  0.874294  0.230506  0.541899  1
  Na  Na3  1  0.625704  0.730503  0.958103  1
  Pt  Pt4  1  0.000000  0.000000  0.000000  1
  Pt  Pt5  1  0.227633  0.571903  0.228735  1
  Pt  Pt6  1  0.744513  0.312830  0.243560  1
  Pt  Pt7  1  0.755487  0.812831  0.256439  1
  Pt  Pt8  1  0.272367  0.071904  0.271266  1
  Pt  Pt9  1  0.500000  0.500000  0.500000  1
  Pt  Pt10  1  0.727633  0.928096  0.728734  1
  Pt  Pt11  1  0.244514  0.187169  0.743561  1
  Pt  Pt12  1  0.255487  0.687171  0.756440  1
  Pt  Pt13  1  0.772367  0.428096  0.771266  1
  S  S14  1  0.271941  0.841654  0.112258  1
  S  S15  1  0.895585  0.563891  0.158112  1
  S  S16  1  0.937385  0.062530  0.196341  1
  S  S17  1  0.562615  0.562530  0.303659  1
  S  S18  1  0.604416  0.063891  0.341888  1
  S  S19  1  0.228059  0.341653  0.387743  1
  S  S20  1  0.771941  0.658346  0.612258  1
  S  S21  1  0.395585  0.936108  0.658112  1
  S  S22  1  0.437385  0.437470  0.696342  1
  S  S23  1  0.062616  0.937469  0.803658  1
  S  S24  1  0.104416  0.436109  0.841888  1
  S  S25  1  0.728059  0.158345  0.887742  1
