# generated using pymatgen
data_Ho3LuAlZn11
_symmetry_space_group_name_H-M   'P 1'
_cell_length_a   4.37733000
_cell_length_b   6.65608180
_cell_length_c   10.05097642
_cell_angle_alpha   90.09220464
_cell_angle_beta   90.00000000
_cell_angle_gamma   90.00000000
_symmetry_Int_Tables_number   1
_chemical_formula_structural   Ho3LuAlZn11
_chemical_formula_sum   'Ho3 Lu1 Al1 Zn11'
_cell_volume   292.84352852
_cell_formula_units_Z   1
loop_
 _symmetry_equiv_pos_site_id
 _symmetry_equiv_pos_as_xyz
  1  'x, y, z'
loop_
 _atom_site_type_symbol
 _atom_site_label
 _atom_site_symmetry_multiplicity
 _atom_site_fract_x
 _atom_site_fract_y
 _atom_site_fract_z
 _atom_site_occupancy
  Ho  Ho0  1  0.250000  0.279735  0.661770  1
  Ho  Ho1  1  0.250000  0.779711  0.834220  1
  Ho  Ho2  1  0.750000  0.718911  0.335845  1
  Lu  Lu3  1  0.750000  0.217986  0.165032  1
  Al  Al4  1  0.250000  0.537487  0.105124  1
  Zn  Zn5  1  0.250000  0.036076  0.396073  1
  Zn  Zn6  1  0.750000  0.462579  0.897313  1
  Zn  Zn7  1  0.750000  0.963616  0.603307  1
  Zn  Zn8  1  0.250000  0.924773  0.148818  1
  Zn  Zn9  1  0.250000  0.418259  0.352262  1
  Zn  Zn10  1  0.750000  0.080737  0.852263  1
  Zn  Zn11  1  0.750000  0.581085  0.648249  1
  Zn  Zn12  1  0.250000  0.214529  0.958334  1
  Zn  Zn13  1  0.250000  0.716406  0.542251  1
  Zn  Zn14  1  0.750000  0.785667  0.042190  1
  Zn  Zn15  1  0.750000  0.282441  0.456950  1
