# generated using pymatgen
data_TbDy3GaBr6
_symmetry_space_group_name_H-M   'P 1'
_cell_length_a   4.06170200
_cell_length_b   13.37804415
_cell_length_c   14.15206616
_cell_angle_alpha   90.01737499
_cell_angle_beta   90.00000000
_cell_angle_gamma   90.00000000
_symmetry_Int_Tables_number   1
_chemical_formula_structural   TbDy3GaBr6
_chemical_formula_sum   'Tb2 Dy6 Ga2 Br12'
_cell_volume   768.98968106
_cell_formula_units_Z   2
loop_
 _symmetry_equiv_pos_site_id
 _symmetry_equiv_pos_as_xyz
  1  'x, y, z'
loop_
 _atom_site_type_symbol
 _atom_site_label
 _atom_site_symmetry_multiplicity
 _atom_site_fract_x
 _atom_site_fract_y
 _atom_site_fract_z
 _atom_site_occupancy
  Tb  Tb0  1  0.000000  0.622120  0.919116  1
  Tb  Tb1  1  0.000000  0.377880  0.080884  1
  Dy  Dy2  1  0.500000  0.118503  0.340033  1
  Dy  Dy3  1  0.500000  0.881497  0.659967  1
  Dy  Dy4  1  0.500000  0.618613  0.160327  1
  Dy  Dy5  1  0.500000  0.381387  0.839673  1
  Dy  Dy6  1  0.000000  0.121251  0.580472  1
  Dy  Dy7  1  0.000000  0.878749  0.419528  1
  Ga  Ga8  1  0.500000  0.000000  0.500000  1
  Ga  Ga9  1  0.500000  0.500000  0.000000  1
  Br  Br10  1  0.500000  0.244236  0.165442  1
  Br  Br11  1  0.500000  0.755764  0.834558  1
  Br  Br12  1  0.500000  0.745246  0.335242  1
  Br  Br13  1  0.500000  0.254754  0.664758  1
  Br  Br14  1  0.000000  0.254288  0.410889  1
  Br  Br15  1  0.000000  0.745712  0.589111  1
  Br  Br16  1  0.000000  0.754547  0.089881  1
  Br  Br17  1  0.000000  0.245453  0.910119  1
  Br  Br18  1  0.000000  0.002334  0.243758  1
  Br  Br19  1  0.000000  0.997666  0.756242  1
  Br  Br20  1  0.000000  0.502987  0.256901  1
  Br  Br21  1  0.000000  0.497013  0.743099  1
