# generated using pymatgen
data_NdY2Ni9
_symmetry_space_group_name_H-M   'P 1'
_cell_length_a   8.67617260
_cell_length_b   8.67617309
_cell_length_c   8.67617225
_cell_angle_alpha   33.60297053
_cell_angle_beta   33.60296531
_cell_angle_gamma   33.60296345
_symmetry_Int_Tables_number   1
_chemical_formula_structural   NdY2Ni9
_chemical_formula_sum   'Nd1 Y2 Ni9'
_cell_volume   178.19390420
_cell_formula_units_Z   1
loop_
 _symmetry_equiv_pos_site_id
 _symmetry_equiv_pos_as_xyz
  1  'x, y, z'
loop_
 _atom_site_type_symbol
 _atom_site_label
 _atom_site_symmetry_multiplicity
 _atom_site_fract_x
 _atom_site_fract_y
 _atom_site_fract_z
 _atom_site_occupancy
  Nd  Nd0  1  0.000000  0.000000  0.000000  1
  Y  Y1  1  0.860422  0.860422  0.860422  1
  Y  Y2  1  0.139578  0.139578  0.139578  1
  Ni  Ni3  1  0.417554  0.917282  0.417554  1
  Ni  Ni4  1  0.582446  0.582446  0.082718  1
  Ni  Ni5  1  0.667094  0.667094  0.667094  1
  Ni  Ni6  1  0.917282  0.417554  0.417554  1
  Ni  Ni7  1  0.082718  0.582446  0.582446  1
  Ni  Ni8  1  0.332906  0.332906  0.332906  1
  Ni  Ni9  1  0.500000  0.500000  0.500000  1
  Ni  Ni10  1  0.417554  0.417554  0.917282  1
  Ni  Ni11  1  0.582446  0.082718  0.582446  1
