# generated using pymatgen
data_Nd2Ga5PtRh2
_symmetry_space_group_name_H-M   'P 1'
_cell_length_a   8.69464728
_cell_length_b   8.69464711
_cell_length_c   5.81749122
_cell_angle_alpha   70.41258683
_cell_angle_beta   70.41258137
_cell_angle_gamma   95.08281463
_symmetry_Int_Tables_number   1
_chemical_formula_structural   Nd2Ga5PtRh2
_chemical_formula_sum   'Nd4 Ga10 Pt2 Rh4'
_cell_volume   380.21848084
_cell_formula_units_Z   2
loop_
 _symmetry_equiv_pos_site_id
 _symmetry_equiv_pos_as_xyz
  1  'x, y, z'
loop_
 _atom_site_type_symbol
 _atom_site_label
 _atom_site_symmetry_multiplicity
 _atom_site_fract_x
 _atom_site_fract_y
 _atom_site_fract_z
 _atom_site_occupancy
  Nd  Nd0  1  0.862725  0.588918  0.774527  1
  Nd  Nd1  1  0.411082  0.137275  0.725473  1
  Nd  Nd2  1  0.135514  0.408773  0.227477  1
  Nd  Nd3  1  0.591227  0.864486  0.272523  1
  Ga  Ga4  1  0.073600  0.255770  0.835130  1
  Ga  Ga5  1  0.744230  0.926400  0.664870  1
  Ga  Ga6  1  0.922071  0.738068  0.170820  1
  Ga  Ga7  1  0.261932  0.077929  0.329180  1
  Ga  Ga8  1  0.205377  0.794623  0.750000  1
  Ga  Ga9  1  0.792161  0.207839  0.250000  1
  Ga  Ga10  1  0.502278  0.497722  0.750000  1
  Ga  Ga11  1  0.501413  0.498587  0.250000  1
  Ga  Ga12  1  0.791330  0.208670  0.750000  1
  Ga  Ga13  1  0.206006  0.793994  0.250000  1
  Pt  Pt14  1  0.255112  0.549817  0.598800  1
  Pt  Pt15  1  0.450183  0.744888  0.901200  1
  Rh  Rh16  1  0.739800  0.447803  0.404509  1
  Rh  Rh17  1  0.552197  0.260200  0.095491  1
  Rh  Rh18  1  0.000741  0.999259  0.750000  1
  Rh  Rh19  1  0.001022  0.998978  0.250000  1
