# generated using pymatgen
data_Na2U(OF2)2
_symmetry_space_group_name_H-M   'P 1'
_cell_length_a   5.29252300
_cell_length_b   5.87188300
_cell_length_c   18.57488000
_cell_angle_alpha   90.00000000
_cell_angle_beta   90.00000000
_cell_angle_gamma   90.00000000
_symmetry_Int_Tables_number   1
_chemical_formula_structural   Na2U(OF2)2
_chemical_formula_sum   'Na8 U4 O8 F16'
_cell_volume   577.25295431
_cell_formula_units_Z   4
loop_
 _symmetry_equiv_pos_site_id
 _symmetry_equiv_pos_as_xyz
  1  'x, y, z'
loop_
 _atom_site_type_symbol
 _atom_site_label
 _atom_site_symmetry_multiplicity
 _atom_site_fract_x
 _atom_site_fract_y
 _atom_site_fract_z
 _atom_site_occupancy
  Na  Na0  1  0.000000  0.750000  0.778080  1
  Na  Na1  1  0.500000  0.250000  0.721920  1
  Na  Na2  1  0.000000  0.250000  0.221920  1
  Na  Na3  1  0.500000  0.750000  0.278080  1
  Na  Na4  1  0.000000  0.750000  0.446582  1
  Na  Na5  1  0.500000  0.250000  0.053418  1
  Na  Na6  1  0.000000  0.250000  0.553418  1
  Na  Na7  1  0.500000  0.750000  0.946582  1
  U  U8  1  0.000000  0.750000  0.108738  1
  U  U9  1  0.500000  0.250000  0.391262  1
  U  U10  1  0.000000  0.250000  0.891262  1
  U  U11  1  0.500000  0.750000  0.608738  1
  O  O12  1  0.766607  0.888640  0.045203  1
  O  O13  1  0.266607  0.111360  0.454797  1
  O  O14  1  0.733393  0.388640  0.454797  1
  O  O15  1  0.233393  0.611360  0.045203  1
  O  O16  1  0.233393  0.111360  0.954797  1
  O  O17  1  0.733393  0.888640  0.545203  1
  O  O18  1  0.266607  0.611360  0.545203  1
  O  O19  1  0.766607  0.388640  0.954797  1
  F  F20  1  0.722358  0.936132  0.371915  1
  F  F21  1  0.222358  0.063868  0.128085  1
  F  F22  1  0.777642  0.436132  0.128085  1
  F  F23  1  0.277642  0.563868  0.371915  1
  F  F24  1  0.277642  0.063868  0.628085  1
  F  F25  1  0.777642  0.936132  0.871915  1
  F  F26  1  0.222358  0.563868  0.871915  1
  F  F27  1  0.722358  0.436132  0.628085  1
  F  F28  1  0.786170  0.899511  0.196771  1
  F  F29  1  0.286170  0.100489  0.303229  1
  F  F30  1  0.713830  0.399511  0.303229  1
  F  F31  1  0.213830  0.600489  0.196771  1
  F  F32  1  0.213830  0.100489  0.803229  1
  F  F33  1  0.713830  0.899511  0.696771  1
  F  F34  1  0.286170  0.600489  0.696771  1
  F  F35  1  0.786170  0.399511  0.803229  1
