# generated using pymatgen
data_Tb5Y3Re2(B12Ru)2
_symmetry_space_group_name_H-M   'P 1'
_cell_length_a   3.68666200
_cell_length_b   9.18958155
_cell_length_c   11.58246014
_cell_angle_alpha   89.78443597
_cell_angle_beta   90.00000000
_cell_angle_gamma   90.00000000
_symmetry_Int_Tables_number   1
_chemical_formula_structural   Tb5Y3Re2(B12Ru)2
_chemical_formula_sum   'Tb5 Y3 Re2 B24 Ru2'
_cell_volume   392.39801238
_cell_formula_units_Z   1
loop_
 _symmetry_equiv_pos_site_id
 _symmetry_equiv_pos_as_xyz
  1  'x, y, z'
loop_
 _atom_site_type_symbol
 _atom_site_label
 _atom_site_symmetry_multiplicity
 _atom_site_fract_x
 _atom_site_fract_y
 _atom_site_fract_z
 _atom_site_occupancy
  Tb  Tb0  1  0.000000  0.821398  0.087470  1
  Tb  Tb1  1  0.000000  0.178529  0.912433  1
  Tb  Tb2  1  0.000000  0.324778  0.415570  1
  Tb  Tb3  1  0.000000  0.675328  0.584564  1
  Tb  Tb4  1  0.000000  0.442163  0.129661  1
  Y  Y5  1  0.000000  0.557726  0.870344  1
  Y  Y6  1  0.000000  0.942628  0.370820  1
  Y  Y7  1  0.000000  0.057425  0.629243  1
  Re  Re8  1  0.000000  0.638639  0.320255  1
  Re  Re9  1  0.000000  0.361593  0.679780  1
  B  B10  1  0.500000  0.053564  0.067294  1
  B  B11  1  0.500000  0.946166  0.932664  1
  B  B12  1  0.500000  0.553229  0.432866  1
  B  B13  1  0.500000  0.446911  0.567234  1
  B  B14  1  0.500000  0.247521  0.081553  1
  B  B15  1  0.500000  0.752085  0.918438  1
  B  B16  1  0.500000  0.748409  0.418658  1
  B  B17  1  0.500000  0.251701  0.581385  1
  B  B18  1  0.500000  0.289516  0.234104  1
  B  B19  1  0.500000  0.710138  0.765811  1
  B  B20  1  0.500000  0.791205  0.265351  1
  B  B21  1  0.500000  0.208953  0.734705  1
  B  B22  1  0.500000  0.130625  0.313791  1
  B  B23  1  0.500000  0.869306  0.686248  1
  B  B24  1  0.500000  0.631240  0.185462  1
  B  B25  1  0.500000  0.368946  0.814686  1
  B  B26  1  0.500000  0.483164  0.287895  1
  B  B27  1  0.500000  0.517228  0.712270  1
  B  B28  1  0.500000  0.983350  0.211721  1
  B  B29  1  0.500000  0.016575  0.788300  1
  B  B30  1  0.500000  0.103288  0.471189  1
  B  B31  1  0.500000  0.896765  0.528866  1
  B  B32  1  0.500000  0.604207  0.028482  1
  B  B33  1  0.500000  0.395981  0.970993  1
  Ru  Ru34  1  0.000000  0.137238  0.178530  1
  Ru  Ru35  1  0.000000  0.862482  0.821366  1
