# generated using pymatgen
data_Nd10Co2Ge3Bi
_symmetry_space_group_name_H-M   'P 1'
_cell_length_a   8.08113029
_cell_length_b   8.86221274
_cell_length_c   12.35978851
_cell_angle_alpha   90.28802702
_cell_angle_beta   89.86237941
_cell_angle_gamma   89.76459379
_symmetry_Int_Tables_number   1
_chemical_formula_structural   Nd10Co2Ge3Bi
_chemical_formula_sum   'Nd20 Co4 Ge6 Bi2'
_cell_volume   885.14596094
_cell_formula_units_Z   2
loop_
 _symmetry_equiv_pos_site_id
 _symmetry_equiv_pos_as_xyz
  1  'x, y, z'
loop_
 _atom_site_type_symbol
 _atom_site_label
 _atom_site_symmetry_multiplicity
 _atom_site_fract_x
 _atom_site_fract_y
 _atom_site_fract_z
 _atom_site_occupancy
  Nd  Nd0  1  0.831017  0.743055  0.793266  1
  Nd  Nd1  1  0.168983  0.256945  0.206734  1
  Nd  Nd2  1  0.344624  0.259896  0.714581  1
  Nd  Nd3  1  0.655376  0.740104  0.285419  1
  Nd  Nd4  1  0.372917  0.742315  0.706080  1
  Nd  Nd5  1  0.627083  0.257685  0.293920  1
  Nd  Nd6  1  0.854404  0.258255  0.799246  1
  Nd  Nd7  1  0.145596  0.741745  0.200754  1
  Nd  Nd8  1  0.956999  0.729572  0.500843  1
  Nd  Nd9  1  0.043001  0.270428  0.499157  1
  Nd  Nd10  1  0.465753  0.250489  0.997699  1
  Nd  Nd11  1  0.534247  0.749511  0.002301  1
  Nd  Nd12  1  0.673177  0.025925  0.572688  1
  Nd  Nd13  1  0.326823  0.974075  0.427312  1
  Nd  Nd14  1  0.183385  0.971628  0.938978  1
  Nd  Nd15  1  0.323522  0.537231  0.430523  1
  Nd  Nd16  1  0.816615  0.028372  0.061022  1
  Nd  Nd17  1  0.676478  0.462769  0.569477  1
  Nd  Nd18  1  0.822176  0.468718  0.070161  1
  Nd  Nd19  1  0.177824  0.531282  0.929839  1
  Co  Co20  1  0.570839  0.748124  0.512703  1
  Co  Co21  1  0.429161  0.251876  0.487297  1
  Co  Co22  1  0.072296  0.250710  0.984761  1
  Co  Co23  1  0.927704  0.749290  0.015239  1
  Ge  Ge24  1  0.567330  0.496023  0.832118  1
  Ge  Ge25  1  0.432670  0.503977  0.167882  1
  Ge  Ge26  1  0.067059  0.505802  0.675145  1
  Ge  Ge27  1  0.432096  0.996154  0.170302  1
  Ge  Ge28  1  0.932941  0.494198  0.324855  1
  Ge  Ge29  1  0.567904  0.003846  0.829698  1
  Bi  Bi30  1  0.927054  0.006511  0.328312  1
  Bi  Bi31  1  0.072946  0.993489  0.671688  1
