# generated using pymatgen
data_Eu2Y6Si12PdRh3
_symmetry_space_group_name_H-M   'P 1'
_cell_length_a   8.20417500
_cell_length_b   8.20417564
_cell_length_c   8.07644100
_cell_angle_alpha   90.00000000
_cell_angle_beta   90.00000000
_cell_angle_gamma   119.99999337
_symmetry_Int_Tables_number   1
_chemical_formula_structural   Eu2Y6Si12PdRh3
_chemical_formula_sum   'Eu2 Y6 Si12 Pd1 Rh3'
_cell_volume   470.78276011
_cell_formula_units_Z   1
loop_
 _symmetry_equiv_pos_site_id
 _symmetry_equiv_pos_as_xyz
  1  'x, y, z'
loop_
 _atom_site_type_symbol
 _atom_site_label
 _atom_site_symmetry_multiplicity
 _atom_site_fract_x
 _atom_site_fract_y
 _atom_site_fract_z
 _atom_site_occupancy
  Eu  Eu0  1  0.000000  0.000000  0.250457  1
  Eu  Eu1  1  0.000000  0.000000  0.751595  1
  Y  Y2  1  0.508940  0.491060  0.247068  1
  Y  Y3  1  0.508940  0.017880  0.247068  1
  Y  Y4  1  0.982120  0.491060  0.247068  1
  Y  Y5  1  0.493354  0.506646  0.752336  1
  Y  Y6  1  0.493354  0.986709  0.752336  1
  Y  Y7  1  0.013291  0.506646  0.752336  1
  Si  Si8  1  0.165199  0.834801  0.503811  1
  Si  Si9  1  0.165199  0.330399  0.503811  1
  Si  Si10  1  0.669601  0.834801  0.503811  1
  Si  Si11  1  0.831548  0.168452  0.496461  1
  Si  Si12  1  0.831548  0.663097  0.496461  1
  Si  Si13  1  0.336903  0.168452  0.496461  1
  Si  Si14  1  0.832556  0.167444  0.001930  1
  Si  Si15  1  0.832556  0.665112  0.001930  1
  Si  Si16  1  0.334888  0.167444  0.001930  1
  Si  Si17  1  0.167738  0.832262  0.999191  1
  Si  Si18  1  0.167738  0.335477  0.999191  1
  Si  Si19  1  0.664523  0.832262  0.999191  1
  Pd  Pd20  1  0.333333  0.666667  0.469595  1
  Rh  Rh21  1  0.666667  0.333333  0.531660  1
  Rh  Rh22  1  0.666667  0.333333  0.970105  1
  Rh  Rh23  1  0.333333  0.666667  0.024200  1
