# generated using pymatgen
data_TbEr7(MoI4)2
_symmetry_space_group_name_H-M   'P 1'
_cell_length_a   11.35777816
_cell_length_b   11.37839865
_cell_length_c   5.93487895
_cell_angle_alpha   90.38382390
_cell_angle_beta   90.30947062
_cell_angle_gamma   89.92217773
_symmetry_Int_Tables_number   1
_chemical_formula_structural   TbEr7(MoI4)2
_chemical_formula_sum   'Tb1 Er7 Mo2 I8'
_cell_volume   766.95508855
_cell_formula_units_Z   1
loop_
 _symmetry_equiv_pos_site_id
 _symmetry_equiv_pos_as_xyz
  1  'x, y, z'
loop_
 _atom_site_type_symbol
 _atom_site_label
 _atom_site_symmetry_multiplicity
 _atom_site_fract_x
 _atom_site_fract_y
 _atom_site_fract_z
 _atom_site_occupancy
  Tb  Tb0  1  0.209242  0.914097  0.001678  1
  Er  Er1  1  0.795892  0.083928  0.997732  1
  Er  Er2  1  0.082935  0.795741  0.496983  1
  Er  Er3  1  0.915876  0.204106  0.502641  1
  Er  Er4  1  0.795682  0.916214  0.496870  1
  Er  Er5  1  0.203546  0.084793  0.502786  1
  Er  Er6  1  0.083433  0.203704  0.003255  1
  Er  Er7  1  0.916114  0.796559  0.996743  1
  Mo  Mo8  1  0.999945  0.000175  0.250191  1
  Mo  Mo9  1  0.000401  0.999698  0.749601  1
  I  I10  1  0.358715  0.849143  0.497215  1
  I  I11  1  0.641410  0.150618  0.503845  1
  I  I12  1  0.148848  0.639630  0.003996  1
  I  I13  1  0.849033  0.358414  0.996215  1
  I  I14  1  0.358449  0.153524  0.011706  1
  I  I15  1  0.641268  0.849388  0.988497  1
  I  I16  1  0.848775  0.641877  0.488433  1
  I  I17  1  0.150436  0.358393  0.511613  1
