# generated using pymatgen
data_Ca2Fe3Co9As7
_symmetry_space_group_name_H-M   'P 1'
_cell_length_a   3.75035300
_cell_length_b   9.38262249
_cell_length_c   9.38262300
_cell_angle_alpha   119.99999920
_cell_angle_beta   90.00000000
_cell_angle_gamma   90.00000000
_symmetry_Int_Tables_number   1
_chemical_formula_structural   Ca2Fe3Co9As7
_chemical_formula_sum   'Ca2 Fe3 Co9 As7'
_cell_volume   285.92444848
_cell_formula_units_Z   1
loop_
 _symmetry_equiv_pos_site_id
 _symmetry_equiv_pos_as_xyz
  1  'x, y, z'
loop_
 _atom_site_type_symbol
 _atom_site_label
 _atom_site_symmetry_multiplicity
 _atom_site_fract_x
 _atom_site_fract_y
 _atom_site_fract_z
 _atom_site_occupancy
  Ca  Ca0  1  0.000000  0.666667  0.333333  1
  Ca  Ca1  1  0.500000  0.333333  0.666667  1
  Fe  Fe2  1  0.500000  0.784016  0.904020  1
  Fe  Fe3  1  0.500000  0.120004  0.215984  1
  Fe  Fe4  1  0.500000  0.095980  0.879996  1
  Co  Co5  1  0.000000  0.569290  0.944832  1
  Co  Co6  1  0.000000  0.375543  0.430710  1
  Co  Co7  1  0.000000  0.055168  0.624457  1
  Co  Co8  1  0.000000  0.880643  0.156735  1
  Co  Co9  1  0.000000  0.276091  0.119357  1
  Co  Co10  1  0.000000  0.843265  0.723909  1
  Co  Co11  1  0.500000  0.951069  0.382035  1
  Co  Co12  1  0.500000  0.430966  0.048931  1
  Co  Co13  1  0.500000  0.617965  0.569034  1
  As  As14  1  0.000000  0.000000  0.000000  1
  As  As15  1  0.500000  0.708701  0.113296  1
  As  As16  1  0.500000  0.404594  0.291299  1
  As  As17  1  0.500000  0.886704  0.595406  1
  As  As18  1  0.000000  0.589566  0.706236  1
  As  As19  1  0.000000  0.116670  0.410434  1
  As  As20  1  0.000000  0.293764  0.883330  1
