# generated using pymatgen
data_Nd5DyCd23P
_symmetry_space_group_name_H-M   'P 1'
_cell_length_a   10.06205048
_cell_length_b   10.06205059
_cell_length_c   9.98073400
_cell_angle_alpha   60.26697614
_cell_angle_beta   60.26697579
_cell_angle_gamma   59.46605446
_symmetry_Int_Tables_number   1
_chemical_formula_structural   Nd5DyCd23P
_chemical_formula_sum   'Nd5 Dy1 Cd23 P1'
_cell_volume   714.43745662
_cell_formula_units_Z   1
loop_
 _symmetry_equiv_pos_site_id
 _symmetry_equiv_pos_as_xyz
  1  'x, y, z'
loop_
 _atom_site_type_symbol
 _atom_site_label
 _atom_site_symmetry_multiplicity
 _atom_site_fract_x
 _atom_site_fract_y
 _atom_site_fract_z
 _atom_site_occupancy
  Nd  Nd0  1  0.202891  0.796946  0.203054  1
  Nd  Nd1  1  0.796946  0.202891  0.203054  1
  Nd  Nd2  1  0.198298  0.198298  0.801702  1
  Nd  Nd3  1  0.796946  0.202891  0.797109  1
  Nd  Nd4  1  0.202891  0.796946  0.797109  1
  Dy  Dy5  1  0.804870  0.804870  0.195130  1
  Cd  Cd6  1  0.835215  0.835215  0.493498  1
  Cd  Cd7  1  0.831827  0.498404  0.834884  1
  Cd  Cd8  1  0.498404  0.831827  0.834884  1
  Cd  Cd9  1  0.835215  0.835215  0.836071  1
  Cd  Cd10  1  0.165116  0.165116  0.501596  1
  Cd  Cd11  1  0.163929  0.506502  0.164785  1
  Cd  Cd12  1  0.506502  0.163929  0.164785  1
  Cd  Cd13  1  0.165116  0.165116  0.168173  1
  Cd  Cd14  1  0.623487  0.623487  0.136904  1
  Cd  Cd15  1  0.620309  0.133809  0.622941  1
  Cd  Cd16  1  0.133809  0.620309  0.622941  1
  Cd  Cd17  1  0.623487  0.623487  0.616122  1
  Cd  Cd18  1  0.377059  0.377059  0.866191  1
  Cd  Cd19  1  0.383878  0.863096  0.376513  1
  Cd  Cd20  1  0.863096  0.383878  0.376513  1
  Cd  Cd21  1  0.377059  0.377059  0.379691  1
  Cd  Cd22  1  0.999222  0.999222  0.500778  1
  Cd  Cd23  1  0.500076  0.999683  0.499924  1
  Cd  Cd24  1  0.999683  0.500076  0.499924  1
  Cd  Cd25  1  0.499222  0.499222  0.000778  1
  Cd  Cd26  1  0.999683  0.500076  0.000317  1
  Cd  Cd27  1  0.500076  0.999683  0.000317  1
  Cd  Cd28  1  0.498260  0.498260  0.501740  1
  P  P29  1  0.997427  0.997427  0.002573  1
