# generated using pymatgen
data_DyCdCuNiPt2
_symmetry_space_group_name_H-M   'P 1'
_cell_length_a   5.06265192
_cell_length_b   5.22197172
_cell_length_c   5.22197184
_cell_angle_alpha   63.20236971
_cell_angle_beta   60.45718814
_cell_angle_gamma   60.45720914
_symmetry_Int_Tables_number   1
_chemical_formula_structural   DyCdCuNiPt2
_chemical_formula_sum   'Dy1 Cd1 Cu1 Ni1 Pt2'
_cell_volume   100.47762740
_cell_formula_units_Z   1
loop_
 _symmetry_equiv_pos_site_id
 _symmetry_equiv_pos_as_xyz
  1  'x, y, z'
loop_
 _atom_site_type_symbol
 _atom_site_label
 _atom_site_symmetry_multiplicity
 _atom_site_fract_x
 _atom_site_fract_y
 _atom_site_fract_z
 _atom_site_occupancy
  Dy  Dy0  1  0.250357  0.250865  0.250865  1
  Cd  Cd1  1  0.005931  0.993269  0.993269  1
  Cu  Cu2  1  0.122975  0.627267  0.627267  1
  Ni  Ni3  1  0.622680  0.627696  0.627696  1
  Pt  Pt4  1  0.624029  0.626416  0.124487  1
  Pt  Pt5  1  0.624029  0.124487  0.626416  1
