# generated using pymatgen
data_SrCe(Th2Ir9)2
_symmetry_space_group_name_H-M   'P 1'
_cell_length_a   5.37285800
_cell_length_b   5.37285668
_cell_length_c   17.75313000
_cell_angle_alpha   90.00000000
_cell_angle_beta   90.00000000
_cell_angle_gamma   120.00000810
_symmetry_Int_Tables_number   1
_chemical_formula_structural   SrCe(Th2Ir9)2
_chemical_formula_sum   'Sr1 Ce1 Th4 Ir18'
_cell_volume   443.82948313
_cell_formula_units_Z   1
loop_
 _symmetry_equiv_pos_site_id
 _symmetry_equiv_pos_as_xyz
  1  'x, y, z'
loop_
 _atom_site_type_symbol
 _atom_site_label
 _atom_site_symmetry_multiplicity
 _atom_site_fract_x
 _atom_site_fract_y
 _atom_site_fract_z
 _atom_site_occupancy
  Sr  Sr0  1  0.333333  0.666667  0.960896  1
  Ce  Ce1  1  0.333333  0.666667  0.544450  1
  Th  Th2  1  0.666667  0.333333  0.038410  1
  Th  Th3  1  0.666667  0.333333  0.460161  1
  Th  Th4  1  0.333333  0.666667  0.755615  1
  Th  Th5  1  0.666667  0.333333  0.249359  1
  Ir  Ir6  1  0.167568  0.832432  0.373651  1
  Ir  Ir7  1  0.167568  0.335136  0.373651  1
  Ir  Ir8  1  0.664864  0.832432  0.373651  1
  Ir  Ir9  1  0.832850  0.167150  0.625904  1
  Ir  Ir10  1  0.832850  0.665698  0.625904  1
  Ir  Ir11  1  0.334302  0.167150  0.625904  1
  Ir  Ir12  1  0.833523  0.166477  0.870648  1
  Ir  Ir13  1  0.833523  0.667043  0.870648  1
  Ir  Ir14  1  0.332957  0.166477  0.870648  1
  Ir  Ir15  1  0.166480  0.833520  0.127993  1
  Ir  Ir16  1  0.166480  0.332962  0.127993  1
  Ir  Ir17  1  0.667038  0.833520  0.127993  1
  Ir  Ir18  1  0.333333  0.666667  0.250514  1
  Ir  Ir19  1  0.666667  0.333333  0.748431  1
  Ir  Ir20  1  0.000000  0.000000  0.250843  1
  Ir  Ir21  1  0.000000  0.000000  0.748142  1
  Ir  Ir22  1  0.000000  0.000000  0.499849  1
  Ir  Ir23  1  0.000000  0.000000  0.998744  1
