# generated using pymatgen
data_Dy8Ti9Nb2Si16Ru
_symmetry_space_group_name_H-M   'P 1'
_cell_length_a   7.04343396
_cell_length_b   7.03070719
_cell_length_c   12.91274079
_cell_angle_alpha   89.83806549
_cell_angle_beta   90.08381186
_cell_angle_gamma   89.89752650
_symmetry_Int_Tables_number   1
_chemical_formula_structural   Dy8Ti9Nb2Si16Ru
_chemical_formula_sum   'Dy8 Ti9 Nb2 Si16 Ru1'
_cell_volume   639.43881420
_cell_formula_units_Z   1
loop_
 _symmetry_equiv_pos_site_id
 _symmetry_equiv_pos_as_xyz
  1  'x, y, z'
loop_
 _atom_site_type_symbol
 _atom_site_label
 _atom_site_symmetry_multiplicity
 _atom_site_fract_x
 _atom_site_fract_y
 _atom_site_fract_z
 _atom_site_occupancy
  Dy  Dy0  1  0.996807  0.659039  0.032295  1
  Dy  Dy1  1  0.001518  0.341304  0.531296  1
  Dy  Dy2  1  0.659345  0.996670  0.967668  1
  Dy  Dy3  1  0.158370  0.502914  0.782625  1
  Dy  Dy4  1  0.841335  0.499113  0.284960  1
  Dy  Dy5  1  0.502777  0.159229  0.217483  1
  Dy  Dy6  1  0.499821  0.840354  0.715124  1
  Dy  Dy7  1  0.341491  0.000992  0.468708  1
  Ti  Ti8  1  0.849087  0.996265  0.376056  1
  Ti  Ti9  1  0.006893  0.152756  0.124456  1
  Ti  Ti10  1  0.997197  0.849839  0.624105  1
  Ti  Ti11  1  0.507575  0.344418  0.624569  1
  Ti  Ti12  1  0.152639  0.007402  0.875876  1
  Ti  Ti13  1  0.825386  0.172257  0.748386  1
  Ti  Ti14  1  0.173222  0.823832  0.251762  1
  Ti  Ti15  1  0.492218  0.650794  0.126865  1
  Ti  Ti16  1  0.650922  0.492019  0.872663  1
  Nb  Nb17  1  0.343477  0.507763  0.374785  1
  Nb  Nb18  1  0.326736  0.326575  0.999835  1
  Si  Si19  1  0.044872  0.714384  0.436826  1
  Si  Si20  1  0.951172  0.290981  0.934188  1
  Si  Si21  1  0.711926  0.046015  0.564371  1
  Si  Si22  1  0.205558  0.453686  0.184771  1
  Si  Si23  1  0.789711  0.549880  0.681820  1
  Si  Si24  1  0.453856  0.206754  0.814398  1
  Si  Si25  1  0.551287  0.791750  0.317932  1
  Si  Si26  1  0.291035  0.950936  0.065568  1
  Si  Si27  1  0.798185  0.867995  0.185262  1
  Si  Si28  1  0.299209  0.628173  0.566145  1
  Si  Si29  1  0.703682  0.369658  0.065000  1
  Si  Si30  1  0.629698  0.298912  0.434291  1
  Si  Si31  1  0.369645  0.703934  0.934584  1
  Si  Si32  1  0.129961  0.202681  0.316082  1
  Si  Si33  1  0.203211  0.130812  0.684027  1
  Si  Si34  1  0.868201  0.798203  0.814390  1
  Ru  Ru35  1  0.671973  0.671713  0.500828  1
