# generated using pymatgen
data_CaPd2F12
_symmetry_space_group_name_H-M   'P 1'
_cell_length_a   11.06256489
_cell_length_b   5.81649429
_cell_length_c   5.82956141
_cell_angle_alpha   57.33677008
_cell_angle_beta   55.09419173
_cell_angle_gamma   55.82920649
_symmetry_Int_Tables_number   1
_chemical_formula_structural   CaPd2F12
_chemical_formula_sum   'Ca1 Pd2 F12'
_cell_volume   240.98342004
_cell_formula_units_Z   1
loop_
 _symmetry_equiv_pos_site_id
 _symmetry_equiv_pos_as_xyz
  1  'x, y, z'
loop_
 _atom_site_type_symbol
 _atom_site_label
 _atom_site_symmetry_multiplicity
 _atom_site_fract_x
 _atom_site_fract_y
 _atom_site_fract_z
 _atom_site_occupancy
  Ca  Ca0  1  0.750000  0.500000  0.500000  1
  Pd  Pd1  1  0.021202  0.988883  0.984270  1
  Pd  Pd2  1  0.478798  0.011117  0.015730  1
  F  F3  1  0.200543  0.096221  0.751204  1
  F  F4  1  0.668217  0.110445  0.781407  1
  F  F5  1  0.072446  0.778823  0.319945  1
  F  F6  1  0.542542  0.786298  0.350933  1
  F  F7  1  0.135878  0.649658  0.870417  1
  F  F8  1  0.604536  0.657758  0.900748  1
  F  F9  1  0.427554  0.221177  0.680055  1
  F  F10  1  0.957458  0.213702  0.649067  1
  F  F11  1  0.299457  0.903779  0.248796  1
  F  F12  1  0.831783  0.889555  0.218593  1
  F  F13  1  0.364122  0.350342  0.129583  1
  F  F14  1  0.895464  0.342242  0.099252  1
