# generated using pymatgen
data_Nd2Th3SiPb3
_symmetry_space_group_name_H-M   'P 1'
_cell_length_a   9.61422200
_cell_length_b   9.61422294
_cell_length_c   6.76974300
_cell_angle_alpha   90.00000000
_cell_angle_beta   90.00000000
_cell_angle_gamma   120.00000364
_symmetry_Int_Tables_number   1
_chemical_formula_structural   Nd2Th3SiPb3
_chemical_formula_sum   'Nd4 Th6 Si2 Pb6'
_cell_volume   541.91495024
_cell_formula_units_Z   2
loop_
 _symmetry_equiv_pos_site_id
 _symmetry_equiv_pos_as_xyz
  1  'x, y, z'
loop_
 _atom_site_type_symbol
 _atom_site_label
 _atom_site_symmetry_multiplicity
 _atom_site_fract_x
 _atom_site_fract_y
 _atom_site_fract_z
 _atom_site_occupancy
  Nd  Nd0  1  0.666667  0.333333  0.500000  1
  Nd  Nd1  1  0.333333  0.666667  0.500000  1
  Nd  Nd2  1  0.333333  0.666667  0.000000  1
  Nd  Nd3  1  0.666667  0.333333  0.000000  1
  Th  Th4  1  0.752190  0.752190  0.250000  1
  Th  Th5  1  0.247810  0.000000  0.250000  1
  Th  Th6  1  0.000000  0.247810  0.250000  1
  Th  Th7  1  0.247810  0.247810  0.750000  1
  Th  Th8  1  0.752190  0.000000  0.750000  1
  Th  Th9  1  0.000000  0.752190  0.750000  1
  Si  Si10  1  0.000000  0.000000  0.500000  1
  Si  Si11  1  0.000000  0.000000  0.000000  1
  Pb  Pb12  1  0.394342  0.394342  0.250000  1
  Pb  Pb13  1  0.605658  0.000000  0.250000  1
  Pb  Pb14  1  0.000000  0.605658  0.250000  1
  Pb  Pb15  1  0.605658  0.605658  0.750000  1
  Pb  Pb16  1  0.394342  0.000000  0.750000  1
  Pb  Pb17  1  0.000000  0.394342  0.750000  1
