# generated using pymatgen
data_Cs2Ho2(PO4)3
_symmetry_space_group_name_H-M   'P 1'
_cell_length_a   10.80361200
_cell_length_b   10.80361200
_cell_length_c   10.80361200
_cell_angle_alpha   90.00000000
_cell_angle_beta   90.00000000
_cell_angle_gamma   90.00000000
_symmetry_Int_Tables_number   1
_chemical_formula_structural   Cs2Ho2(PO4)3
_chemical_formula_sum   'Cs8 Ho8 P12 O48'
_cell_volume   1260.97633380
_cell_formula_units_Z   4
loop_
 _symmetry_equiv_pos_site_id
 _symmetry_equiv_pos_as_xyz
  1  'x, y, z'
loop_
 _atom_site_type_symbol
 _atom_site_label
 _atom_site_symmetry_multiplicity
 _atom_site_fract_x
 _atom_site_fract_y
 _atom_site_fract_z
 _atom_site_occupancy
  Cs  Cs0  1  0.043815  0.043815  0.043815  1
  Cs  Cs1  1  0.456185  0.956185  0.543815  1
  Cs  Cs2  1  0.956185  0.543815  0.456185  1
  Cs  Cs3  1  0.543815  0.456185  0.956185  1
  Cs  Cs4  1  0.820821  0.820821  0.820821  1
  Cs  Cs5  1  0.679179  0.179179  0.320821  1
  Cs  Cs6  1  0.179179  0.320821  0.679179  1
  Cs  Cs7  1  0.320821  0.679179  0.179179  1
  Ho  Ho8  1  0.604813  0.604813  0.604813  1
  Ho  Ho9  1  0.895187  0.395187  0.104813  1
  Ho  Ho10  1  0.395187  0.104813  0.895187  1
  Ho  Ho11  1  0.104813  0.895187  0.395187  1
  Ho  Ho12  1  0.336565  0.336565  0.336565  1
  Ho  Ho13  1  0.163435  0.663435  0.836565  1
  Ho  Ho14  1  0.663435  0.836565  0.163435  1
  Ho  Ho15  1  0.836565  0.163435  0.663435  1
  P  P16  1  0.019252  0.213938  0.374486  1
  P  P17  1  0.480748  0.786062  0.874486  1
  P  P18  1  0.980748  0.713938  0.125514  1
  P  P19  1  0.374486  0.019252  0.213938  1
  P  P20  1  0.519252  0.286062  0.625514  1
  P  P21  1  0.874486  0.480748  0.786062  1
  P  P22  1  0.125514  0.980748  0.713938  1
  P  P23  1  0.625514  0.519252  0.286062  1
  P  P24  1  0.213938  0.374486  0.019252  1
  P  P25  1  0.713938  0.125514  0.980748  1
  P  P26  1  0.286062  0.625514  0.519252  1
  P  P27  1  0.786062  0.874486  0.480748  1
  O  O28  1  0.152005  0.263307  0.395100  1
  O  O29  1  0.347995  0.736693  0.895100  1
  O  O30  1  0.847995  0.763307  0.104900  1
  O  O31  1  0.395100  0.152005  0.263307  1
  O  O32  1  0.652005  0.236693  0.604900  1
  O  O33  1  0.895100  0.347995  0.736693  1
  O  O34  1  0.104900  0.847995  0.763307  1
  O  O35  1  0.604900  0.652005  0.236693  1
  O  O36  1  0.263307  0.395100  0.152005  1
  O  O37  1  0.763307  0.104900  0.847995  1
  O  O38  1  0.236693  0.604900  0.652005  1
  O  O39  1  0.736693  0.895100  0.347995  1
  O  O40  1  0.046202  0.791775  0.226496  1
  O  O41  1  0.453798  0.208225  0.726496  1
  O  O42  1  0.953798  0.291775  0.273504  1
  O  O43  1  0.226496  0.046202  0.791775  1
  O  O44  1  0.546202  0.708225  0.773504  1
  O  O45  1  0.726496  0.453798  0.208225  1
  O  O46  1  0.273504  0.953798  0.291775  1
  O  O47  1  0.773504  0.546202  0.708225  1
  O  O48  1  0.791775  0.226496  0.046202  1
  O  O49  1  0.291775  0.273504  0.953798  1
  O  O50  1  0.708225  0.773504  0.546202  1
  O  O51  1  0.208225  0.726496  0.453798  1
  O  O52  1  0.023193  0.076510  0.334515  1
  O  O53  1  0.476807  0.923490  0.834515  1
  O  O54  1  0.976807  0.576510  0.165485  1
  O  O55  1  0.334515  0.023193  0.076510  1
  O  O56  1  0.523193  0.423490  0.665485  1
  O  O57  1  0.834515  0.476807  0.923490  1
  O  O58  1  0.165485  0.976807  0.576510  1
  O  O59  1  0.665485  0.523193  0.423490  1
  O  O60  1  0.076510  0.334515  0.023193  1
  O  O61  1  0.576510  0.165485  0.976807  1
  O  O62  1  0.423490  0.665485  0.523193  1
  O  O63  1  0.923490  0.834515  0.476807  1
  O  O64  1  0.273154  0.503953  0.443828  1
  O  O65  1  0.226846  0.496047  0.943828  1
  O  O66  1  0.726846  0.003953  0.056172  1
  O  O67  1  0.443828  0.273154  0.503953  1
  O  O68  1  0.773154  0.996047  0.556172  1
  O  O69  1  0.943828  0.226846  0.496047  1
  O  O70  1  0.056172  0.726846  0.003953  1
  O  O71  1  0.556172  0.773154  0.996047  1
  O  O72  1  0.503953  0.443828  0.273154  1
  O  O73  1  0.003953  0.056172  0.726846  1
  O  O74  1  0.996047  0.556172  0.773154  1
  O  O75  1  0.496047  0.943828  0.226846  1
