# generated using pymatgen
data_Th2(TcB2)3
_symmetry_space_group_name_H-M   'P 1'
_cell_length_a   6.33903708
_cell_length_b   6.33903647
_cell_length_c   7.65465314
_cell_angle_alpha   89.15295710
_cell_angle_beta   89.15296023
_cell_angle_gamma   115.06855002
_symmetry_Int_Tables_number   1
_chemical_formula_structural   Th2(TcB2)3
_chemical_formula_sum   'Th4 Tc6 B12'
_cell_volume   278.50971215
_cell_formula_units_Z   2
loop_
 _symmetry_equiv_pos_site_id
 _symmetry_equiv_pos_as_xyz
  1  'x, y, z'
loop_
 _atom_site_type_symbol
 _atom_site_label
 _atom_site_symmetry_multiplicity
 _atom_site_fract_x
 _atom_site_fract_y
 _atom_site_fract_z
 _atom_site_occupancy
  Th  Th0  1  0.438113  0.095563  0.174383  1
  Th  Th1  1  0.904437  0.561887  0.325617  1
  Th  Th2  1  0.561887  0.904437  0.825617  1
  Th  Th3  1  0.095563  0.438113  0.674383  1
  Tc  Tc4  1  0.804167  0.991477  0.412987  1
  Tc  Tc5  1  0.008523  0.195833  0.087013  1
  Tc  Tc6  1  0.195833  0.008523  0.587013  1
  Tc  Tc7  1  0.991477  0.804167  0.912987  1
  Tc  Tc8  1  0.411202  0.588798  0.250000  1
  Tc  Tc9  1  0.588798  0.411202  0.750000  1
  B  B10  1  0.153059  0.246510  0.366742  1
  B  B11  1  0.753490  0.846941  0.133258  1
  B  B12  1  0.846941  0.753490  0.633258  1
  B  B13  1  0.246510  0.153059  0.866742  1
  B  B14  1  0.161051  0.582628  0.017377  1
  B  B15  1  0.417372  0.838949  0.482623  1
  B  B16  1  0.838949  0.417372  0.982623  1
  B  B17  1  0.582628  0.161051  0.517377  1
  B  B18  1  0.349843  0.443982  0.966337  1
  B  B19  1  0.556018  0.650157  0.533663  1
  B  B20  1  0.650157  0.556018  0.033663  1
  B  B21  1  0.443982  0.349843  0.466337  1
