# generated using pymatgen
data_BaMnSb12OsRu2
_symmetry_space_group_name_H-M   'P 1'
_cell_length_a   8.20624112
_cell_length_b   8.18564941
_cell_length_c   8.20670418
_cell_angle_alpha   109.42697509
_cell_angle_beta   109.53190744
_cell_angle_gamma   109.39342681
_symmetry_Int_Tables_number   1
_chemical_formula_structural   BaMnSb12OsRu2
_chemical_formula_sum   'Ba1 Mn1 Sb12 Os1 Ru2'
_cell_volume   424.69014592
_cell_formula_units_Z   1
loop_
 _symmetry_equiv_pos_site_id
 _symmetry_equiv_pos_as_xyz
  1  'x, y, z'
loop_
 _atom_site_type_symbol
 _atom_site_label
 _atom_site_symmetry_multiplicity
 _atom_site_fract_x
 _atom_site_fract_y
 _atom_site_fract_z
 _atom_site_occupancy
  Ba  Ba0  1  0.000000  0.000000  0.000000  1
  Mn  Mn1  1  0.000000  0.500000  0.000000  1
  Sb  Sb2  1  0.340134  0.181830  0.840466  1
  Sb  Sb3  1  0.659866  0.818170  0.159534  1
  Sb  Sb4  1  0.652239  0.498945  0.839167  1
  Sb  Sb5  1  0.347761  0.501055  0.160833  1
  Sb  Sb6  1  0.187100  0.846762  0.347900  1
  Sb  Sb7  1  0.812900  0.153238  0.652100  1
  Sb  Sb8  1  0.500498  0.840507  0.658761  1
  Sb  Sb9  1  0.499502  0.159493  0.341239  1
  Sb  Sb10  1  0.840171  0.341147  0.187509  1
  Sb  Sb11  1  0.159829  0.658853  0.812491  1
  Sb  Sb12  1  0.840761  0.659527  0.500196  1
  Sb  Sb13  1  0.159239  0.340473  0.499804  1
  Os  Os14  1  0.500000  0.000000  0.000000  1
  Ru  Ru15  1  0.000000  0.000000  0.500000  1
  Ru  Ru16  1  0.500000  0.500000  0.500000  1
