# generated using pymatgen
data_Sc(S8Br)3
_symmetry_space_group_name_H-M   'P 1'
_cell_length_a   15.24477116
_cell_length_b   15.24477040
_cell_length_c   15.24477158
_cell_angle_alpha   118.72394279
_cell_angle_beta   118.72393795
_cell_angle_gamma   118.72393366
_symmetry_Int_Tables_number   1
_chemical_formula_structural   Sc(S8Br)3
_chemical_formula_sum   'Sc1 S24 Br3'
_cell_volume   1033.53716188
_cell_formula_units_Z   1
loop_
 _symmetry_equiv_pos_site_id
 _symmetry_equiv_pos_as_xyz
  1  'x, y, z'
loop_
 _atom_site_type_symbol
 _atom_site_label
 _atom_site_symmetry_multiplicity
 _atom_site_fract_x
 _atom_site_fract_y
 _atom_site_fract_z
 _atom_site_occupancy
  Sc  Sc0  1  0.142662  0.142662  0.142662  1
  S  S1  1  0.021445  0.616899  0.616899  1
  S  S2  1  0.616899  0.616899  0.021445  1
  S  S3  1  0.616899  0.021445  0.616899  1
  S  S4  1  0.234108  0.844150  0.716192  1
  S  S5  1  0.844150  0.716192  0.234108  1
  S  S6  1  0.716192  0.234108  0.844150  1
  S  S7  1  0.844150  0.234108  0.716192  1
  S  S8  1  0.234108  0.716192  0.844150  1
  S  S9  1  0.716192  0.844150  0.234108  1
  S  S10  1  0.102910  0.631429  0.450829  1
  S  S11  1  0.631429  0.450829  0.102910  1
  S  S12  1  0.450829  0.102910  0.631429  1
  S  S13  1  0.631429  0.102910  0.450829  1
  S  S14  1  0.102910  0.450829  0.631429  1
  S  S15  1  0.450829  0.631429  0.102910  1
  S  S16  1  0.353388  0.742265  0.613853  1
  S  S17  1  0.742265  0.613853  0.353388  1
  S  S18  1  0.613853  0.353388  0.742265  1
  S  S19  1  0.742265  0.353388  0.613853  1
  S  S20  1  0.353388  0.613853  0.742265  1
  S  S21  1  0.613853  0.742265  0.353388  1
  S  S22  1  0.190594  0.471696  0.471696  1
  S  S23  1  0.471696  0.471696  0.190594  1
  S  S24  1  0.471696  0.190594  0.471696  1
  Br  Br25  1  0.150478  0.993240  0.993240  1
  Br  Br26  1  0.993240  0.993240  0.150478  1
  Br  Br27  1  0.993240  0.150478  0.993240  1
