# generated using pymatgen
data_LaSmTc17C3
_symmetry_space_group_name_H-M   'P 1'
_cell_length_a   7.01306203
_cell_length_b   7.01306218
_cell_length_c   7.01306275
_cell_angle_alpha   83.02267524
_cell_angle_beta   83.02266419
_cell_angle_gamma   83.02267067
_symmetry_Int_Tables_number   1
_chemical_formula_structural   LaSmTc17C3
_chemical_formula_sum   'La1 Sm1 Tc17 C3'
_cell_volume   337.83435662
_cell_formula_units_Z   1
loop_
 _symmetry_equiv_pos_site_id
 _symmetry_equiv_pos_as_xyz
  1  'x, y, z'
loop_
 _atom_site_type_symbol
 _atom_site_label
 _atom_site_symmetry_multiplicity
 _atom_site_fract_x
 _atom_site_fract_y
 _atom_site_fract_z
 _atom_site_occupancy
  La  La0  1  0.648412  0.648412  0.648412  1
  Sm  Sm1  1  0.347988  0.347988  0.347988  1
  Tc  Tc2  1  0.999699  0.999699  0.500403  1
  Tc  Tc3  1  0.500403  0.999699  0.999699  1
  Tc  Tc4  1  0.999699  0.500403  0.999699  1
  Tc  Tc5  1  0.721834  0.278121  0.000770  1
  Tc  Tc6  1  0.000770  0.721834  0.278121  1
  Tc  Tc7  1  0.278121  0.000770  0.721834  1
  Tc  Tc8  1  0.000770  0.278121  0.721834  1
  Tc  Tc9  1  0.721834  0.000770  0.278121  1
  Tc  Tc10  1  0.278121  0.721834  0.000770  1
  Tc  Tc11  1  0.346841  0.346841  0.867599  1
  Tc  Tc12  1  0.867599  0.346841  0.346841  1
  Tc  Tc13  1  0.346841  0.867599  0.346841  1
  Tc  Tc14  1  0.652068  0.652068  0.135928  1
  Tc  Tc15  1  0.135928  0.652068  0.652068  1
  Tc  Tc16  1  0.652068  0.135928  0.652068  1
  Tc  Tc17  1  0.902772  0.902772  0.902772  1
  Tc  Tc18  1  0.097103  0.097103  0.097103  1
  C  C19  1  0.497696  0.497696  0.005735  1
  C  C20  1  0.005735  0.497696  0.497696  1
  C  C21  1  0.497696  0.005735  0.497696  1
