# generated using pymatgen
data_Re2TcPd4
_symmetry_space_group_name_H-M   'P 1'
_cell_length_a   7.44033300
_cell_length_b   7.42826173
_cell_length_c   4.41134300
_cell_angle_alpha   90.00000000
_cell_angle_beta   90.00000000
_cell_angle_gamma   59.96360017
_symmetry_Int_Tables_number   1
_chemical_formula_structural   Re2TcPd4
_chemical_formula_sum   'Re4 Tc2 Pd8'
_cell_volume   211.06762261
_cell_formula_units_Z   2
loop_
 _symmetry_equiv_pos_site_id
 _symmetry_equiv_pos_as_xyz
  1  'x, y, z'
loop_
 _atom_site_type_symbol
 _atom_site_label
 _atom_site_symmetry_multiplicity
 _atom_site_fract_x
 _atom_site_fract_y
 _atom_site_fract_z
 _atom_site_occupancy
  Re  Re0  1  0.702733  0.443507  0.000000  1
  Re  Re1  1  0.299857  0.568902  0.000000  1
  Re  Re2  1  0.425626  0.845609  0.000000  1
  Re  Re3  1  0.526969  0.390938  0.500000  1
  Tc  Tc4  1  0.652720  0.669385  0.500000  1
  Tc  Tc5  1  0.249455  0.795631  0.500000  1
  Pd  Pd6  1  0.570883  0.146351  0.000000  1
  Pd  Pd7  1  0.142251  0.285865  0.000000  1
  Pd  Pd8  1  0.852794  0.713812  0.000000  1
  Pd  Pd9  1  0.005343  0.995361  0.000000  1
  Pd  Pd10  1  0.381513  0.089365  0.500000  1
  Pd  Pd11  1  0.946628  0.243612  0.500000  1
  Pd  Pd12  1  0.100544  0.524528  0.500000  1
  Pd  Pd13  1  0.809244  0.953702  0.500000  1
