# generated using pymatgen
data_Ca4Co2NiH12
_symmetry_space_group_name_H-M   'P 1'
_cell_length_a   6.08715765
_cell_length_b   6.08715874
_cell_length_c   6.08715958
_cell_angle_alpha   109.11778913
_cell_angle_beta   109.11778755
_cell_angle_gamma   110.18041958
_symmetry_Int_Tables_number   1
_chemical_formula_structural   Ca4Co2NiH12
_chemical_formula_sum   'Ca4 Co2 Ni1 H12'
_cell_volume   173.60890786
_cell_formula_units_Z   1
loop_
 _symmetry_equiv_pos_site_id
 _symmetry_equiv_pos_as_xyz
  1  'x, y, z'
loop_
 _atom_site_type_symbol
 _atom_site_label
 _atom_site_symmetry_multiplicity
 _atom_site_fract_x
 _atom_site_fract_y
 _atom_site_fract_z
 _atom_site_occupancy
  Ca  Ca0  1  0.000000  0.000000  0.500000  1
  Ca  Ca1  1  0.000000  0.500000  0.000000  1
  Ca  Ca2  1  0.500000  0.000000  0.000000  1
  Ca  Ca3  1  0.500000  0.500000  0.500000  1
  Co  Co4  1  0.000000  0.500000  0.500000  1
  Co  Co5  1  0.500000  0.000000  0.500000  1
  Ni  Ni6  1  0.500000  0.500000  0.000000  1
  H  H7  1  0.729460  0.729460  0.000000  1
  H  H8  1  0.274735  0.000000  0.274735  1
  H  H9  1  0.000000  0.274735  0.274735  1
  H  H10  1  0.270540  0.270540  0.000000  1
  H  H11  1  0.725265  0.000000  0.725265  1
  H  H12  1  0.000000  0.725265  0.725265  1
  H  H13  1  0.750000  0.250000  0.500000  1
  H  H14  1  0.763429  0.500000  0.263429  1
  H  H15  1  0.500000  0.236571  0.736571  1
  H  H16  1  0.236571  0.500000  0.736571  1
  H  H17  1  0.250000  0.750000  0.500000  1
  H  H18  1  0.500000  0.763429  0.263429  1
