# generated using pymatgen
data_Y2Er3Si12Ir19
_symmetry_space_group_name_H-M   'P 1'
_cell_length_a   12.82857200
_cell_length_b   12.82857142
_cell_length_c   3.98041700
_cell_angle_alpha   90.00000000
_cell_angle_beta   90.00000000
_cell_angle_gamma   120.00000665
_symmetry_Int_Tables_number   1
_chemical_formula_structural   Y2Er3Si12Ir19
_chemical_formula_sum   'Y2 Er3 Si12 Ir19'
_cell_volume   567.30392376
_cell_formula_units_Z   1
loop_
 _symmetry_equiv_pos_site_id
 _symmetry_equiv_pos_as_xyz
  1  'x, y, z'
loop_
 _atom_site_type_symbol
 _atom_site_label
 _atom_site_symmetry_multiplicity
 _atom_site_fract_x
 _atom_site_fract_y
 _atom_site_fract_z
 _atom_site_occupancy
  Y  Y0  1  0.666667  0.333333  0.000000  1
  Y  Y1  1  0.333333  0.666667  0.000000  1
  Er  Er2  1  0.814944  0.814944  0.500000  1
  Er  Er3  1  0.185056  0.000000  0.500000  1
  Er  Er4  1  0.000000  0.185056  0.500000  1
  Si  Si5  1  0.688017  0.168887  0.500000  1
  Si  Si6  1  0.831113  0.519129  0.500000  1
  Si  Si7  1  0.480871  0.311983  0.500000  1
  Si  Si8  1  0.168887  0.688017  0.500000  1
  Si  Si9  1  0.519129  0.831113  0.500000  1
  Si  Si10  1  0.311983  0.480871  0.500000  1
  Si  Si11  1  0.632258  0.632258  0.000000  1
  Si  Si12  1  0.367742  0.000000  0.000000  1
  Si  Si13  1  0.000000  0.367742  0.000000  1
  Si  Si14  1  0.180954  0.180954  0.000000  1
  Si  Si15  1  0.819046  0.000000  0.000000  1
  Si  Si16  1  0.000000  0.819046  0.000000  1
  Ir  Ir17  1  0.806320  0.182526  0.000000  1
  Ir  Ir18  1  0.817474  0.623794  0.000000  1
  Ir  Ir19  1  0.376206  0.193680  0.000000  1
  Ir  Ir20  1  0.182526  0.806320  0.000000  1
  Ir  Ir21  1  0.623794  0.817474  0.000000  1
  Ir  Ir22  1  0.193680  0.376206  0.000000  1
  Ir  Ir23  1  0.447157  0.447157  0.000000  1
  Ir  Ir24  1  0.552843  0.000000  0.000000  1
  Ir  Ir25  1  0.000000  0.552843  0.000000  1
  Ir  Ir26  1  0.282449  0.282449  0.500000  1
  Ir  Ir27  1  0.717551  0.000000  0.500000  1
  Ir  Ir28  1  0.000000  0.717551  0.500000  1
  Ir  Ir29  1  0.873715  0.361558  0.500000  1
  Ir  Ir30  1  0.638442  0.512159  0.500000  1
  Ir  Ir31  1  0.487841  0.126285  0.500000  1
  Ir  Ir32  1  0.361558  0.873715  0.500000  1
  Ir  Ir33  1  0.512159  0.638442  0.500000  1
  Ir  Ir34  1  0.126285  0.487841  0.500000  1
  Ir  Ir35  1  0.000000  0.000000  0.000000  1
