# generated using pymatgen
data_Y3Sc3Sn6(PtRh2)2
_symmetry_space_group_name_H-M   'P 1'
_cell_length_a   7.57095100
_cell_length_b   7.57095184
_cell_length_c   7.43009800
_cell_angle_alpha   90.00000000
_cell_angle_beta   90.00000000
_cell_angle_gamma   120.00000944
_symmetry_Int_Tables_number   1
_chemical_formula_structural   Y3Sc3Sn6(PtRh2)2
_chemical_formula_sum   'Y3 Sc3 Sn6 Pt2 Rh4'
_cell_volume   368.82984093
_cell_formula_units_Z   1
loop_
 _symmetry_equiv_pos_site_id
 _symmetry_equiv_pos_as_xyz
  1  'x, y, z'
loop_
 _atom_site_type_symbol
 _atom_site_label
 _atom_site_symmetry_multiplicity
 _atom_site_fract_x
 _atom_site_fract_y
 _atom_site_fract_z
 _atom_site_occupancy
  Y  Y0  1  0.404838  0.998685  0.750221  1
  Y  Y1  1  0.593847  0.595162  0.750221  1
  Y  Y2  1  0.001315  0.406153  0.750221  1
  Sc  Sc3  1  0.397646  0.004817  0.249879  1
  Sc  Sc4  1  0.607171  0.602354  0.249879  1
  Sc  Sc5  1  0.995183  0.392829  0.249879  1
  Sn  Sn6  1  0.268386  0.265205  0.009400  1
  Sn  Sn7  1  0.996819  0.731614  0.009400  1
  Sn  Sn8  1  0.006781  0.736271  0.490287  1
  Sn  Sn9  1  0.729489  0.993219  0.490287  1
  Sn  Sn10  1  0.263729  0.270511  0.490287  1
  Sn  Sn11  1  0.734795  0.003181  0.009400  1
  Pt  Pt12  1  0.333333  0.666667  0.032493  1
  Pt  Pt13  1  0.666667  0.333333  0.479513  1
  Rh  Rh14  1  0.000000  0.000000  0.749341  1
  Rh  Rh15  1  0.000000  0.000000  0.250163  1
  Rh  Rh16  1  0.666667  0.333333  0.021617  1
  Rh  Rh17  1  0.333333  0.666667  0.467511  1
