# generated using pymatgen
data_K3Cr(MoO4)3
_symmetry_space_group_name_H-M   'P 1'
_cell_length_a   9.32047400
_cell_length_b   10.85046300
_cell_length_c   13.59559800
_cell_angle_alpha   90.00000000
_cell_angle_beta   90.00000000
_cell_angle_gamma   90.00000000
_symmetry_Int_Tables_number   1
_chemical_formula_structural   K3Cr(MoO4)3
_chemical_formula_sum   'K12 Cr4 Mo12 O48'
_cell_volume   1374.94265192
_cell_formula_units_Z   4
loop_
 _symmetry_equiv_pos_site_id
 _symmetry_equiv_pos_as_xyz
  1  'x, y, z'
loop_
 _atom_site_type_symbol
 _atom_site_label
 _atom_site_symmetry_multiplicity
 _atom_site_fract_x
 _atom_site_fract_y
 _atom_site_fract_z
 _atom_site_occupancy
  K  K0  1  0.817856  0.228575  0.747168  1
  K  K1  1  0.544437  0.762601  0.529469  1
  K  K2  1  0.182144  0.771425  0.247168  1
  K  K3  1  0.522818  0.982658  0.250302  1
  K  K4  1  0.522818  0.517342  0.750302  1
  K  K5  1  0.477182  0.017342  0.750302  1
  K  K6  1  0.455563  0.237399  0.029469  1
  K  K7  1  0.817856  0.271425  0.247168  1
  K  K8  1  0.544437  0.737399  0.029469  1
  K  K9  1  0.477182  0.482658  0.250302  1
  K  K10  1  0.182144  0.728575  0.747168  1
  K  K11  1  0.455563  0.262601  0.529469  1
  Cr  Cr12  1  0.068271  0.249371  0.494774  1
  Cr  Cr13  1  0.068271  0.250629  0.994774  1
  Cr  Cr14  1  0.931729  0.749371  0.494774  1
  Cr  Cr15  1  0.931729  0.750629  0.994774  1
  Mo  Mo16  1  0.754883  0.047135  0.002765  1
  Mo  Mo17  1  0.243935  0.953872  0.988095  1
  Mo  Mo18  1  0.819494  0.828709  0.744737  1
  Mo  Mo19  1  0.756065  0.453872  0.988095  1
  Mo  Mo20  1  0.243935  0.546128  0.488095  1
  Mo  Mo21  1  0.245117  0.952865  0.502765  1
  Mo  Mo22  1  0.180505  0.171291  0.244737  1
  Mo  Mo23  1  0.180505  0.328709  0.744737  1
  Mo  Mo24  1  0.756065  0.046128  0.488095  1
  Mo  Mo25  1  0.245117  0.547135  0.002765  1
  Mo  Mo26  1  0.819494  0.671291  0.244737  1
  Mo  Mo27  1  0.754883  0.452865  0.502765  1
  O  O28  1  0.616435  0.429578  0.075112  1
  O  O29  1  0.929963  0.789289  0.638677  1
  O  O30  1  0.306028  0.607384  0.116933  1
  O  O31  1  0.071362  0.213390  0.351040  1
  O  O32  1  0.083526  0.873997  0.027287  1
  O  O33  1  0.916474  0.126003  0.527287  1
  O  O34  1  0.383565  0.570422  0.575112  1
  O  O35  1  0.209831  0.488815  0.746476  1
  O  O36  1  0.778627  0.879747  0.012851  1
  O  O37  1  0.916013  0.373498  0.464996  1
  O  O38  1  0.916474  0.373997  0.027287  1
  O  O39  1  0.070037  0.289290  0.638677  1
  O  O40  1  0.695785  0.108417  0.375189  1
  O  O41  1  0.647643  0.757400  0.738951  1
  O  O42  1  0.383765  0.918623  0.417910  1
  O  O43  1  0.304215  0.891583  0.875189  1
  O  O44  1  0.218322  0.120270  0.974469  1
  O  O45  1  0.304215  0.608417  0.375189  1
  O  O46  1  0.647643  0.742600  0.238951  1
  O  O47  1  0.929963  0.710711  0.138677  1
  O  O48  1  0.781678  0.879730  0.474469  1
  O  O49  1  0.790169  0.511185  0.246476  1
  O  O50  1  0.928638  0.713390  0.351040  1
  O  O51  1  0.616235  0.418623  0.417910  1
  O  O52  1  0.383765  0.581377  0.917910  1
  O  O53  1  0.071362  0.286610  0.851040  1
  O  O54  1  0.221373  0.379747  0.012851  1
  O  O55  1  0.693972  0.392616  0.616933  1
  O  O56  1  0.070037  0.210710  0.138677  1
  O  O57  1  0.083987  0.626502  0.964996  1
  O  O58  1  0.616235  0.081377  0.917910  1
  O  O59  1  0.383565  0.929578  0.075112  1
  O  O60  1  0.778627  0.620253  0.512851  1
  O  O61  1  0.352357  0.242600  0.238951  1
  O  O62  1  0.928638  0.786610  0.851040  1
  O  O63  1  0.693972  0.107384  0.116933  1
  O  O64  1  0.695785  0.391583  0.875189  1
  O  O65  1  0.790169  0.988815  0.746476  1
  O  O66  1  0.218322  0.379730  0.474469  1
  O  O67  1  0.083526  0.626003  0.527287  1
  O  O68  1  0.209831  0.011185  0.246476  1
  O  O69  1  0.352357  0.257400  0.738951  1
  O  O70  1  0.616435  0.070422  0.575112  1
  O  O71  1  0.916013  0.126502  0.964996  1
  O  O72  1  0.781678  0.620270  0.974469  1
  O  O73  1  0.083987  0.873498  0.464996  1
  O  O74  1  0.306028  0.892616  0.616933  1
  O  O75  1  0.221373  0.120253  0.512851  1
