# generated using pymatgen
data_Tm13Th3(MgNi)4
_symmetry_space_group_name_H-M   'P 1'
_cell_length_a   9.54383457
_cell_length_b   9.57397764
_cell_length_c   9.57397700
_cell_angle_alpha   59.99999876
_cell_angle_beta   59.89546521
_cell_angle_gamma   59.89547046
_symmetry_Int_Tables_number   1
_chemical_formula_structural   Tm13Th3(MgNi)4
_chemical_formula_sum   'Tm13 Th3 Mg4 Ni4'
_cell_volume   617.59631051
_cell_formula_units_Z   1
loop_
 _symmetry_equiv_pos_site_id
 _symmetry_equiv_pos_as_xyz
  1  'x, y, z'
loop_
 _atom_site_type_symbol
 _atom_site_label
 _atom_site_symmetry_multiplicity
 _atom_site_fract_x
 _atom_site_fract_y
 _atom_site_fract_z
 _atom_site_occupancy
  Tm  Tm0  1  0.206725  0.597759  0.597759  1
  Tm  Tm1  1  0.064036  0.436838  0.436838  1
  Tm  Tm2  1  0.436128  0.064533  0.064533  1
  Tm  Tm3  1  0.436128  0.064533  0.434805  1
  Tm  Tm4  1  0.064036  0.436838  0.062288  1
  Tm  Tm5  1  0.436128  0.434805  0.064533  1
  Tm  Tm6  1  0.064036  0.062288  0.436838  1
  Tm  Tm7  1  0.185324  0.816171  0.816171  1
  Tm  Tm8  1  0.816125  0.183327  0.183327  1
  Tm  Tm9  1  0.816125  0.183327  0.817220  1
  Tm  Tm10  1  0.185324  0.816171  0.182334  1
  Tm  Tm11  1  0.816125  0.817220  0.183327  1
  Tm  Tm12  1  0.185324  0.182334  0.816171  1
  Th  Th13  1  0.593315  0.598548  0.598548  1
  Th  Th14  1  0.593315  0.598548  0.209589  1
  Th  Th15  1  0.593315  0.209589  0.598548  1
  Mg  Mg16  1  0.832297  0.829614  0.829614  1
  Mg  Mg17  1  0.832297  0.829614  0.508474  1
  Mg  Mg18  1  0.832297  0.508474  0.829614  1
  Mg  Mg19  1  0.507686  0.830771  0.830771  1
  Ni  Ni20  1  0.394161  0.391656  0.391656  1
  Ni  Ni21  1  0.394161  0.391656  0.822529  1
  Ni  Ni22  1  0.394161  0.822529  0.391656  1
  Ni  Ni23  1  0.821428  0.392858  0.392858  1
