# generated using pymatgen
data_LiCaP2Pd
_symmetry_space_group_name_H-M   'P 1'
_cell_length_a   5.82805962
_cell_length_b   5.82805996
_cell_length_c   5.82805953
_cell_angle_alpha   139.37063388
_cell_angle_beta   139.37064323
_cell_angle_gamma   58.81015786
_symmetry_Int_Tables_number   1
_chemical_formula_structural   LiCaP2Pd
_chemical_formula_sum   'Li1 Ca1 P2 Pd1'
_cell_volume   83.14464744
_cell_formula_units_Z   1
loop_
 _symmetry_equiv_pos_site_id
 _symmetry_equiv_pos_as_xyz
  1  'x, y, z'
loop_
 _atom_site_type_symbol
 _atom_site_label
 _atom_site_symmetry_multiplicity
 _atom_site_fract_x
 _atom_site_fract_y
 _atom_site_fract_z
 _atom_site_occupancy
  Li  Li0  1  0.750000  0.250000  0.500000  1
  Ca  Ca1  1  0.000000  0.000000  0.000000  1
  P  P2  1  0.609313  0.609313  0.000000  1
  P  P3  1  0.390687  0.390687  0.000000  1
  Pd  Pd4  1  0.250000  0.750000  0.500000  1
