# generated using pymatgen
data_Li4Ni9P7Os
_symmetry_space_group_name_H-M   'P 1'
_cell_length_a   9.03653132
_cell_length_b   8.99302334
_cell_length_c   3.60681300
_cell_angle_alpha   90.00000000
_cell_angle_beta   90.00000000
_cell_angle_gamma   119.31952883
_symmetry_Int_Tables_number   1
_chemical_formula_structural   Li4Ni9P7Os
_chemical_formula_sum   'Li4 Ni9 P7 Os1'
_cell_volume   255.56359457
_cell_formula_units_Z   1
loop_
 _symmetry_equiv_pos_site_id
 _symmetry_equiv_pos_as_xyz
  1  'x, y, z'
loop_
 _atom_site_type_symbol
 _atom_site_label
 _atom_site_symmetry_multiplicity
 _atom_site_fract_x
 _atom_site_fract_y
 _atom_site_fract_z
 _atom_site_occupancy
  Li  Li0  1  0.895503  0.120721  0.500000  1
  Li  Li1  1  0.223150  0.101376  0.500000  1
  Li  Li2  1  0.330988  0.662258  0.000000  1
  Li  Li3  1  0.663416  0.330760  0.500000  1
  Ni  Ni4  1  0.713565  0.883333  0.000000  1
  Ni  Ni5  1  0.159179  0.275394  0.000000  1
  Ni  Ni6  1  0.126386  0.836219  0.000000  1
  Ni  Ni7  1  0.629126  0.567381  0.000000  1
  Ni  Ni8  1  0.940566  0.373452  0.000000  1
  Ni  Ni9  1  0.429641  0.056714  0.000000  1
  Ni  Ni10  1  0.566070  0.955260  0.500000  1
  Ni  Ni11  1  0.388557  0.437449  0.500000  1
  Ni  Ni12  1  0.054149  0.612971  0.500000  1
  P  P13  1  0.586974  0.709990  0.500000  1
  P  P14  1  0.126084  0.413678  0.500000  1
  P  P15  1  0.292291  0.871196  0.500000  1
  P  P16  1  0.995104  0.989944  0.000000  1
  P  P17  1  0.879551  0.583318  0.000000  1
  P  P18  1  0.698596  0.127195  0.000000  1
  P  P19  1  0.421840  0.300751  0.000000  1
  Os  Os20  1  0.879266  0.790639  0.500000  1
