# generated using pymatgen
data_Zr6MnAl(Ir2N)2
_symmetry_space_group_name_H-M   'P 1'
_cell_length_a   8.54184769
_cell_length_b   8.57167942
_cell_length_c   8.57167964
_cell_angle_alpha   60.20830351
_cell_angle_beta   60.11505373
_cell_angle_gamma   60.11505770
_symmetry_Int_Tables_number   1
_chemical_formula_structural   Zr6MnAl(Ir2N)2
_chemical_formula_sum   'Zr12 Mn2 Al2 Ir8 N4'
_cell_volume   445.24921665
_cell_formula_units_Z   2
loop_
 _symmetry_equiv_pos_site_id
 _symmetry_equiv_pos_as_xyz
  1  'x, y, z'
loop_
 _atom_site_type_symbol
 _atom_site_label
 _atom_site_symmetry_multiplicity
 _atom_site_fract_x
 _atom_site_fract_y
 _atom_site_fract_z
 _atom_site_occupancy
  Zr  Zr0  1  0.807883  0.808286  0.191916  1
  Zr  Zr1  1  0.191915  0.191916  0.808286  1
  Zr  Zr2  1  0.807883  0.191916  0.808286  1
  Zr  Zr3  1  0.191915  0.808286  0.191916  1
  Zr  Zr4  1  0.190644  0.809356  0.809356  1
  Zr  Zr5  1  0.806852  0.193148  0.193148  1
  Zr  Zr6  1  0.442117  0.441714  0.058084  1
  Zr  Zr7  1  0.058085  0.058084  0.441714  1
  Zr  Zr8  1  0.442117  0.058084  0.441714  1
  Zr  Zr9  1  0.058085  0.441714  0.058084  1
  Zr  Zr10  1  0.059356  0.440644  0.440644  1
  Zr  Zr11  1  0.443148  0.056852  0.056852  1
  Mn  Mn12  1  0.625000  0.125000  0.625000  1
  Mn  Mn13  1  0.625000  0.625000  0.125000  1
  Al  Al14  1  0.125000  0.625000  0.625000  1
  Al  Al15  1  0.625000  0.625000  0.625000  1
  Ir  Ir16  1  0.750356  0.416123  0.416123  1
  Ir  Ir17  1  0.417538  0.750273  0.414654  1
  Ir  Ir18  1  0.417538  0.414654  0.750273  1
  Ir  Ir19  1  0.417401  0.416123  0.416123  1
  Ir  Ir20  1  0.499644  0.833877  0.833877  1
  Ir  Ir21  1  0.832462  0.499727  0.835346  1
  Ir  Ir22  1  0.832462  0.835346  0.499727  1
  Ir  Ir23  1  0.832599  0.833877  0.833877  1
  N  N24  1  0.625000  0.125000  0.125000  1
  N  N25  1  0.125000  0.625000  0.125000  1
  N  N26  1  0.125000  0.125000  0.625000  1
  N  N27  1  0.125000  0.125000  0.125000  1
