# generated using pymatgen
data_Dy16Cd3Co2Ni2Hg
_symmetry_space_group_name_H-M   'P 1'
_cell_length_a   9.52513039
_cell_length_b   9.51676179
_cell_length_c   9.51513421
_cell_angle_alpha   59.92269582
_cell_angle_beta   59.96523804
_cell_angle_gamma   59.97090230
_symmetry_Int_Tables_number   1
_chemical_formula_structural   Dy16Cd3Co2Ni2Hg
_chemical_formula_sum   'Dy16 Cd3 Co2 Ni2 Hg1'
_cell_volume   609.25086624
_cell_formula_units_Z   1
loop_
 _symmetry_equiv_pos_site_id
 _symmetry_equiv_pos_as_xyz
  1  'x, y, z'
loop_
 _atom_site_type_symbol
 _atom_site_label
 _atom_site_symmetry_multiplicity
 _atom_site_fract_x
 _atom_site_fract_y
 _atom_site_fract_z
 _atom_site_occupancy
  Dy  Dy0  1  0.152267  0.540504  0.154961  1
  Dy  Dy1  1  0.692073  0.311379  0.686305  1
  Dy  Dy2  1  0.689198  0.310387  0.311218  1
  Dy  Dy3  1  0.937357  0.561740  0.563547  1
  Dy  Dy4  1  0.543665  0.153176  0.152968  1
  Dy  Dy5  1  0.151668  0.154378  0.542285  1
  Dy  Dy6  1  0.935915  0.937660  0.562985  1
  Dy  Dy7  1  0.310681  0.685555  0.312356  1
  Dy  Dy8  1  0.563397  0.936312  0.936895  1
  Dy  Dy9  1  0.563439  0.937660  0.562985  1
  Dy  Dy10  1  0.691407  0.685555  0.312356  1
  Dy  Dy11  1  0.563752  0.561660  0.938560  1
  Dy  Dy12  1  0.936028  0.561660  0.938560  1
  Dy  Dy13  1  0.311623  0.688226  0.688528  1
  Dy  Dy14  1  0.150189  0.153176  0.152968  1
  Dy  Dy15  1  0.310243  0.311379  0.686305  1
  Cd  Cd16  1  0.919543  0.919927  0.919969  1
  Cd  Cd17  1  0.918969  0.918863  0.243199  1
  Cd  Cd18  1  0.240561  0.919927  0.919969  1
  Co  Co19  1  0.925916  0.356900  0.357692  1
  Co  Co20  1  0.359492  0.356900  0.357692  1
  Ni  Ni21  1  0.358850  0.357262  0.925039  1
  Ni  Ni22  1  0.358620  0.924989  0.357772  1
  Hg  Hg23  1  0.915146  0.254823  0.914886  1
