# generated using pymatgen
data_YHo5P13Rh20
_symmetry_space_group_name_H-M   'P 1'
_cell_length_a   13.32729312
_cell_length_b   13.32346903
_cell_length_c   3.92196900
_cell_angle_alpha   89.99725875
_cell_angle_beta   89.99838800
_cell_angle_gamma   119.99422363
_symmetry_Int_Tables_number   1
_chemical_formula_structural   YHo5P13Rh20
_chemical_formula_sum   'Y1 Ho5 P13 Rh20'
_cell_volume   603.14166358
_cell_formula_units_Z   1
loop_
 _symmetry_equiv_pos_site_id
 _symmetry_equiv_pos_as_xyz
  1  'x, y, z'
loop_
 _atom_site_type_symbol
 _atom_site_label
 _atom_site_symmetry_multiplicity
 _atom_site_fract_x
 _atom_site_fract_y
 _atom_site_fract_z
 _atom_site_occupancy
  Y  Y0  1  0.529239  0.717354  0.248473  1
  Ho  Ho1  1  0.282555  0.811886  0.248494  1
  Ho  Ho2  1  0.188087  0.470637  0.248481  1
  Ho  Ho3  1  0.470691  0.282555  0.751523  1
  Ho  Ho4  1  0.717473  0.188128  0.751506  1
  Ho  Ho5  1  0.811883  0.529313  0.751527  1
  P  P6  1  0.526329  0.139457  0.250243  1
  P  P7  1  0.860567  0.386893  0.250236  1
  P  P8  1  0.613085  0.473678  0.250240  1
  P  P9  1  0.944925  0.714487  0.254519  1
  P  P10  1  0.285506  0.230382  0.254510  1
  P  P11  1  0.769542  0.055044  0.254512  1
  P  P12  1  0.386517  0.525962  0.749777  1
  P  P13  1  0.473558  0.860755  0.749771  1
  P  P14  1  0.139348  0.613085  0.749755  1
  P  P15  1  0.714974  0.769794  0.745520  1
  P  P16  1  0.230408  0.944887  0.745482  1
  P  P17  1  0.055098  0.285515  0.745473  1
  P  P18  1  0.000020  0.000017  0.000031  1
  Rh  Rh19  1  0.332799  0.666525  0.751771  1
  Rh  Rh20  1  0.921051  0.250432  0.253767  1
  Rh  Rh21  1  0.749684  0.670590  0.253761  1
  Rh  Rh22  1  0.329376  0.078955  0.253757  1
  Rh  Rh23  1  0.438403  0.022342  0.751372  1
  Rh  Rh24  1  0.977685  0.416099  0.751364  1
  Rh  Rh25  1  0.583980  0.561308  0.751342  1
  Rh  Rh26  1  0.666673  0.333337  0.248141  1
  Rh  Rh27  1  0.094458  0.187058  0.247486  1
  Rh  Rh28  1  0.813079  0.907456  0.247498  1
  Rh  Rh29  1  0.092631  0.905555  0.247478  1
  Rh  Rh30  1  0.022298  0.583901  0.248636  1
  Rh  Rh31  1  0.416036  0.438222  0.248626  1
  Rh  Rh32  1  0.561628  0.977876  0.248637  1
  Rh  Rh33  1  0.670916  0.921567  0.746249  1
  Rh  Rh34  1  0.078942  0.749563  0.746239  1
  Rh  Rh35  1  0.250390  0.329311  0.746257  1
  Rh  Rh36  1  0.905651  0.812968  0.752507  1
  Rh  Rh37  1  0.187070  0.092621  0.752529  1
  Rh  Rh38  1  0.907444  0.094485  0.752512  1
