# generated using pymatgen
data_Dy8In3Pt
_symmetry_space_group_name_H-M   'P 1'
_cell_length_a   10.53019900
_cell_length_b   10.53019306
_cell_length_c   7.01879000
_cell_angle_alpha   90.00000000
_cell_angle_beta   90.00000000
_cell_angle_gamma   119.99997491
_symmetry_Int_Tables_number   1
_chemical_formula_structural   Dy8In3Pt
_chemical_formula_sum   'Dy16 In6 Pt2'
_cell_volume   674.00932051
_cell_formula_units_Z   2
loop_
 _symmetry_equiv_pos_site_id
 _symmetry_equiv_pos_as_xyz
  1  'x, y, z'
loop_
 _atom_site_type_symbol
 _atom_site_label
 _atom_site_symmetry_multiplicity
 _atom_site_fract_x
 _atom_site_fract_y
 _atom_site_fract_z
 _atom_site_occupancy
  Dy  Dy0  1  0.531431  0.062862  0.515793  1
  Dy  Dy1  1  0.937138  0.468568  0.515793  1
  Dy  Dy2  1  0.531432  0.468569  0.515793  1
  Dy  Dy3  1  0.468569  0.937138  0.015793  1
  Dy  Dy4  1  0.062862  0.531432  0.015793  1
  Dy  Dy5  1  0.468568  0.531431  0.015793  1
  Dy  Dy6  1  0.175034  0.350068  0.722732  1
  Dy  Dy7  1  0.649932  0.824966  0.722732  1
  Dy  Dy8  1  0.175034  0.824966  0.722732  1
  Dy  Dy9  1  0.824966  0.649932  0.222732  1
  Dy  Dy10  1  0.350068  0.175034  0.222732  1
  Dy  Dy11  1  0.824966  0.175034  0.222732  1
  Dy  Dy12  1  0.666667  0.333333  0.891173  1
  Dy  Dy13  1  0.333333  0.666667  0.391173  1
  Dy  Dy14  1  0.000000  0.000000  0.497810  1
  Dy  Dy15  1  0.000000  0.000000  0.997810  1
  In  In16  1  0.837051  0.674103  0.759613  1
  In  In17  1  0.325896  0.162948  0.759613  1
  In  In18  1  0.837051  0.162948  0.759613  1
  In  In19  1  0.162949  0.325897  0.259613  1
  In  In20  1  0.674104  0.837052  0.259613  1
  In  In21  1  0.162949  0.837052  0.259613  1
  Pt  Pt22  1  0.666667  0.333333  0.288703  1
  Pt  Pt23  1  0.333333  0.666667  0.788703  1
