# generated using pymatgen
data_PmZn3Cu2
_symmetry_space_group_name_H-M   'P 1'
_cell_length_a   5.21635400
_cell_length_b   5.21635260
_cell_length_c   4.24489000
_cell_angle_alpha   90.00000000
_cell_angle_beta   90.00000000
_cell_angle_gamma   59.99942089
_symmetry_Int_Tables_number   1
_chemical_formula_structural   PmZn3Cu2
_chemical_formula_sum   'Pm1 Zn3 Cu2'
_cell_volume   100.02960042
_cell_formula_units_Z   1
loop_
 _symmetry_equiv_pos_site_id
 _symmetry_equiv_pos_as_xyz
  1  'x, y, z'
loop_
 _atom_site_type_symbol
 _atom_site_label
 _atom_site_symmetry_multiplicity
 _atom_site_fract_x
 _atom_site_fract_y
 _atom_site_fract_z
 _atom_site_occupancy
  Pm  Pm0  1  0.999999  0.000001  0.000000  1
  Zn  Zn1  1  0.500409  0.000000  0.499999  1
  Zn  Zn2  1  0.000000  0.499590  0.499999  1
  Zn  Zn3  1  0.499590  0.500409  0.499999  1
  Cu  Cu4  1  0.333332  0.333335  0.000000  1
  Cu  Cu5  1  0.666665  0.666668  0.000000  1
