# generated using pymatgen
data_YbNi(Sb4Ru)3
_symmetry_space_group_name_H-M   'P 1'
_cell_length_a   8.07900532
_cell_length_b   8.07900457
_cell_length_c   8.07900511
_cell_angle_alpha   109.32238133
_cell_angle_beta   109.32238530
_cell_angle_gamma   109.32238255
_symmetry_Int_Tables_number   1
_chemical_formula_structural   YbNi(Sb4Ru)3
_chemical_formula_sum   'Yb1 Ni1 Sb12 Ru3'
_cell_volume   408.15213426
_cell_formula_units_Z   1
loop_
 _symmetry_equiv_pos_site_id
 _symmetry_equiv_pos_as_xyz
  1  'x, y, z'
loop_
 _atom_site_type_symbol
 _atom_site_label
 _atom_site_symmetry_multiplicity
 _atom_site_fract_x
 _atom_site_fract_y
 _atom_site_fract_z
 _atom_site_occupancy
  Yb  Yb0  1  0.000000  0.000000  0.000000  1
  Ni  Ni1  1  0.500000  0.500000  0.500000  1
  Sb  Sb2  1  0.841015  0.660085  0.503847  1
  Sb  Sb3  1  0.158985  0.339915  0.496153  1
  Sb  Sb4  1  0.158148  0.661480  0.818624  1
  Sb  Sb5  1  0.841852  0.338520  0.181376  1
  Sb  Sb6  1  0.660085  0.503847  0.841015  1
  Sb  Sb7  1  0.339915  0.496153  0.158985  1
  Sb  Sb8  1  0.661480  0.818624  0.158148  1
  Sb  Sb9  1  0.338520  0.181376  0.841852  1
  Sb  Sb10  1  0.503847  0.841015  0.660085  1
  Sb  Sb11  1  0.496153  0.158985  0.339915  1
  Sb  Sb12  1  0.181376  0.841852  0.338520  1
  Sb  Sb13  1  0.818624  0.158148  0.661480  1
  Ru  Ru14  1  0.500000  0.000000  0.000000  1
  Ru  Ru15  1  0.000000  0.500000  0.000000  1
  Ru  Ru16  1  0.000000  0.000000  0.500000  1
