# generated using pymatgen
data_Cs2Rb2UInBr12
_symmetry_space_group_name_H-M   'P 1'
_cell_length_a   7.89376186
_cell_length_b   7.80614989
_cell_length_c   11.93918500
_cell_angle_alpha   90.00000000
_cell_angle_beta   90.00000000
_cell_angle_gamma   90.05402251
_symmetry_Int_Tables_number   1
_chemical_formula_structural   Cs2Rb2UInBr12
_chemical_formula_sum   'Cs2 Rb2 U1 In1 Br12'
_cell_volume   735.69091828
_cell_formula_units_Z   1
loop_
 _symmetry_equiv_pos_site_id
 _symmetry_equiv_pos_as_xyz
  1  'x, y, z'
loop_
 _atom_site_type_symbol
 _atom_site_label
 _atom_site_symmetry_multiplicity
 _atom_site_fract_x
 _atom_site_fract_y
 _atom_site_fract_z
 _atom_site_occupancy
  Cs  Cs0  1  0.500000  0.000000  0.793461  1
  Cs  Cs1  1  0.500000  0.000000  0.206539  1
  Rb  Rb2  1  0.000000  0.500000  0.194375  1
  Rb  Rb3  1  0.000000  0.500000  0.805625  1
  U  U4  1  0.500000  0.500000  0.500000  1
  In  In5  1  0.000000  0.000000  0.000000  1
  Br  Br6  1  0.756242  0.247514  0.000000  1
  Br  Br7  1  0.243758  0.752486  0.000000  1
  Br  Br8  1  0.500000  0.500000  0.271696  1
  Br  Br9  1  0.311871  0.211760  0.500000  1
  Br  Br10  1  0.241642  0.249800  0.000000  1
  Br  Br11  1  0.785794  0.311823  0.500000  1
  Br  Br12  1  0.000000  0.000000  0.228206  1
  Br  Br13  1  0.688129  0.788240  0.500000  1
  Br  Br14  1  0.214206  0.688177  0.500000  1
  Br  Br15  1  0.500000  0.500000  0.728304  1
  Br  Br16  1  0.758358  0.750200  0.000000  1
  Br  Br17  1  0.000000  0.000000  0.771794  1
