# generated using pymatgen
data_Li7ErTm7ZnSn8
_symmetry_space_group_name_H-M   'P 1'
_cell_length_a   9.33058300
_cell_length_b   9.32891288
_cell_length_c   7.13415408
_cell_angle_alpha   89.93905341
_cell_angle_beta   90.00000000
_cell_angle_gamma   120.00591878
_symmetry_Int_Tables_number   1
_chemical_formula_structural   Li7ErTm7ZnSn8
_chemical_formula_sum   'Li7 Er1 Tm7 Zn1 Sn8'
_cell_volume   537.75777892
_cell_formula_units_Z   1
loop_
 _symmetry_equiv_pos_site_id
 _symmetry_equiv_pos_as_xyz
  1  'x, y, z'
loop_
 _atom_site_type_symbol
 _atom_site_label
 _atom_site_symmetry_multiplicity
 _atom_site_fract_x
 _atom_site_fract_y
 _atom_site_fract_z
 _atom_site_occupancy
  Li  Li0  1  0.834571  0.167407  0.712524  1
  Li  Li1  1  0.332493  0.664987  0.820506  1
  Li  Li2  1  0.666079  0.332156  0.319182  1
  Li  Li3  1  0.665916  0.833479  0.212897  1
  Li  Li4  1  0.166844  0.333687  0.212962  1
  Li  Li5  1  0.167563  0.833479  0.212897  1
  Li  Li6  1  0.332836  0.167407  0.712524  1
  Er  Er7  1  0.999301  0.998603  0.001753  1
  Tm  Tm8  1  0.000027  0.000053  0.501016  1
  Tm  Tm9  1  0.512248  0.489613  0.007113  1
  Tm  Tm10  1  0.021970  0.511191  0.506689  1
  Tm  Tm11  1  0.488800  0.977598  0.502365  1
  Tm  Tm12  1  0.511151  0.022302  0.010048  1
  Tm  Tm13  1  0.977365  0.489613  0.007113  1
  Tm  Tm14  1  0.489221  0.511191  0.506689  1
  Zn  Zn15  1  0.833477  0.666955  0.706768  1
  Sn  Sn16  1  0.169069  0.834314  0.771221  1
  Sn  Sn17  1  0.665392  0.330782  0.742789  1
  Sn  Sn18  1  0.333111  0.666222  0.241062  1
  Sn  Sn19  1  0.833623  0.167031  0.270396  1
  Sn  Sn20  1  0.166821  0.333645  0.768707  1
  Sn  Sn21  1  0.333409  0.167031  0.270396  1
  Sn  Sn22  1  0.833470  0.666940  0.269161  1
  Sn  Sn23  1  0.665243  0.834314  0.771221  1
