# generated using pymatgen
data_SmTm2VCo7NiP6
_symmetry_space_group_name_H-M   'P 1'
_cell_length_a   3.68340800
_cell_length_b   10.53531400
_cell_length_c   12.23095500
_cell_angle_alpha   90.00000000
_cell_angle_beta   90.00000000
_cell_angle_gamma   90.00000000
_symmetry_Int_Tables_number   1
_chemical_formula_structural   SmTm2VCo7NiP6
_chemical_formula_sum   'Sm2 Tm4 V2 Co14 Ni2 P12'
_cell_volume   474.63272581
_cell_formula_units_Z   2
loop_
 _symmetry_equiv_pos_site_id
 _symmetry_equiv_pos_as_xyz
  1  'x, y, z'
loop_
 _atom_site_type_symbol
 _atom_site_label
 _atom_site_symmetry_multiplicity
 _atom_site_fract_x
 _atom_site_fract_y
 _atom_site_fract_z
 _atom_site_occupancy
  Sm  Sm0  1  0.000000  0.500000  0.521518  1
  Sm  Sm1  1  0.500000  0.000000  0.478482  1
  Tm  Tm2  1  0.500000  0.817252  0.202710  1
  Tm  Tm3  1  0.500000  0.182748  0.202710  1
  Tm  Tm4  1  0.000000  0.682748  0.797290  1
  Tm  Tm5  1  0.000000  0.317252  0.797290  1
  V  V6  1  0.500000  0.500000  0.153306  1
  V  V7  1  0.000000  0.000000  0.846694  1
  Co  Co8  1  0.000000  0.500000  0.986835  1
  Co  Co9  1  0.500000  0.000000  0.013165  1
  Co  Co10  1  0.500000  0.332646  0.992247  1
  Co  Co11  1  0.500000  0.667354  0.992247  1
  Co  Co12  1  0.000000  0.167354  0.007753  1
  Co  Co13  1  0.000000  0.832646  0.007753  1
  Co  Co14  1  0.500000  0.295896  0.430666  1
  Co  Co15  1  0.500000  0.704104  0.430666  1
  Co  Co16  1  0.000000  0.204104  0.569334  1
  Co  Co17  1  0.000000  0.795896  0.569334  1
  Co  Co18  1  0.500000  0.878119  0.710283  1
  Co  Co19  1  0.500000  0.121881  0.710283  1
  Co  Co20  1  0.000000  0.621881  0.289717  1
  Co  Co21  1  0.000000  0.378119  0.289717  1
  Ni  Ni22  1  0.500000  0.500000  0.704390  1
  Ni  Ni23  1  0.000000  0.000000  0.295610  1
  P  P24  1  0.500000  0.500000  0.882831  1
  P  P25  1  0.000000  0.000000  0.117169  1
  P  P26  1  0.500000  0.500000  0.342884  1
  P  P27  1  0.000000  0.000000  0.657116  1
  P  P28  1  0.500000  0.309047  0.617481  1
  P  P29  1  0.500000  0.690953  0.617481  1
  P  P30  1  0.000000  0.190953  0.382519  1
  P  P31  1  0.000000  0.809047  0.382519  1
  P  P32  1  0.500000  0.845546  0.892214  1
  P  P33  1  0.500000  0.154454  0.892214  1
  P  P34  1  0.000000  0.654454  0.107786  1
  P  P35  1  0.000000  0.345546  0.107786  1
