# generated using pymatgen
data_Er5TlBi2
_symmetry_space_group_name_H-M   'P 1'
_cell_length_a   9.01283504
_cell_length_b   9.01283569
_cell_length_c   6.47909400
_cell_angle_alpha   90.00000000
_cell_angle_beta   90.00000000
_cell_angle_gamma   119.61068025
_symmetry_Int_Tables_number   1
_chemical_formula_structural   Er5TlBi2
_chemical_formula_sum   'Er10 Tl2 Bi4'
_cell_volume   457.57070497
_cell_formula_units_Z   2
loop_
 _symmetry_equiv_pos_site_id
 _symmetry_equiv_pos_as_xyz
  1  'x, y, z'
loop_
 _atom_site_type_symbol
 _atom_site_label
 _atom_site_symmetry_multiplicity
 _atom_site_fract_x
 _atom_site_fract_y
 _atom_site_fract_z
 _atom_site_occupancy
  Er  Er0  1  0.669082  0.328997  0.003341  1
  Er  Er1  1  0.328997  0.669082  0.003341  1
  Er  Er2  1  0.328997  0.669082  0.496659  1
  Er  Er3  1  0.669082  0.328997  0.496659  1
  Er  Er4  1  0.762843  0.762843  0.750000  1
  Er  Er5  1  0.232580  0.997504  0.750000  1
  Er  Er6  1  0.997504  0.232580  0.750000  1
  Er  Er7  1  0.234243  0.234243  0.250000  1
  Er  Er8  1  0.767408  0.008722  0.250000  1
  Er  Er9  1  0.008722  0.767408  0.250000  1
  Tl  Tl10  1  0.395810  0.002366  0.250000  1
  Tl  Tl11  1  0.002366  0.395810  0.250000  1
  Bi  Bi12  1  0.393655  0.393655  0.750000  1
  Bi  Bi13  1  0.602543  0.996790  0.750000  1
  Bi  Bi14  1  0.996790  0.602543  0.750000  1
  Bi  Bi15  1  0.609378  0.609378  0.250000  1
