# generated using pymatgen
data_Er10Al5PbC8
_symmetry_space_group_name_H-M   'P 1'
_cell_length_a   10.87783600
_cell_length_b   10.87783600
_cell_length_c   3.49300200
_cell_angle_alpha   90.00000000
_cell_angle_beta   90.00000000
_cell_angle_gamma   90.00000000
_symmetry_Int_Tables_number   1
_chemical_formula_structural   Er10Al5PbC8
_chemical_formula_sum   'Er10 Al5 Pb1 C8'
_cell_volume   413.31755159
_cell_formula_units_Z   1
loop_
 _symmetry_equiv_pos_site_id
 _symmetry_equiv_pos_as_xyz
  1  'x, y, z'
loop_
 _atom_site_type_symbol
 _atom_site_label
 _atom_site_symmetry_multiplicity
 _atom_site_fract_x
 _atom_site_fract_y
 _atom_site_fract_z
 _atom_site_occupancy
  Er  Er0  1  0.551149  0.738481  0.500000  1
  Er  Er1  1  0.448851  0.261519  0.500000  1
  Er  Er2  1  0.048631  0.770713  0.500000  1
  Er  Er3  1  0.951369  0.229287  0.500000  1
  Er  Er4  1  0.261519  0.551149  0.500000  1
  Er  Er5  1  0.738481  0.448851  0.500000  1
  Er  Er6  1  0.229287  0.048631  0.500000  1
  Er  Er7  1  0.770713  0.951369  0.500000  1
  Er  Er8  1  0.500000  0.000000  0.000000  1
  Er  Er9  1  0.000000  0.500000  0.000000  1
  Al  Al10  1  0.709875  0.197166  0.000000  1
  Al  Al11  1  0.290125  0.802834  0.000000  1
  Al  Al12  1  0.197166  0.290125  0.000000  1
  Al  Al13  1  0.802834  0.709875  0.000000  1
  Al  Al14  1  0.000000  0.000000  0.000000  1
  Pb  Pb15  1  0.500000  0.500000  0.000000  1
  C  C16  1  0.629631  0.131503  0.500000  1
  C  C17  1  0.370369  0.868497  0.500000  1
  C  C18  1  0.131503  0.370369  0.500000  1
  C  C19  1  0.868497  0.629631  0.500000  1
  C  C20  1  0.161121  0.662322  0.000000  1
  C  C21  1  0.838879  0.337678  0.000000  1
  C  C22  1  0.662322  0.838879  0.000000  1
  C  C23  1  0.337678  0.161121  0.000000  1
