# generated using pymatgen
data_Pu2TcB8Ru
_symmetry_space_group_name_H-M   'P 1'
_cell_length_a   3.55098300
_cell_length_b   5.98576726
_cell_length_c   11.58617349
_cell_angle_alpha   89.96655373
_cell_angle_beta   90.00000000
_cell_angle_gamma   90.00000000
_symmetry_Int_Tables_number   1
_chemical_formula_structural   Pu2TcB8Ru
_chemical_formula_sum   'Pu4 Tc2 B16 Ru2'
_cell_volume   246.26822077
_cell_formula_units_Z   2
loop_
 _symmetry_equiv_pos_site_id
 _symmetry_equiv_pos_as_xyz
  1  'x, y, z'
loop_
 _atom_site_type_symbol
 _atom_site_label
 _atom_site_symmetry_multiplicity
 _atom_site_fract_x
 _atom_site_fract_y
 _atom_site_fract_z
 _atom_site_occupancy
  Pu  Pu0  1  0.000000  0.626848  0.349785  1
  Pu  Pu1  1  0.000000  0.373152  0.650215  1
  Pu  Pu2  1  0.000000  0.127528  0.150073  1
  Pu  Pu3  1  0.000000  0.872472  0.849927  1
  Tc  Tc4  1  0.000000  0.135732  0.409367  1
  Tc  Tc5  1  0.000000  0.864268  0.590633  1
  B  B6  1  0.500000  0.786984  0.185890  1
  B  B7  1  0.500000  0.213016  0.814110  1
  B  B8  1  0.500000  0.287370  0.313060  1
  B  B9  1  0.500000  0.712630  0.686940  1
  B  B10  1  0.500000  0.864719  0.031502  1
  B  B11  1  0.500000  0.135281  0.968498  1
  B  B12  1  0.500000  0.365165  0.468366  1
  B  B13  1  0.500000  0.634835  0.531634  1
  B  B14  1  0.500000  0.886035  0.453234  1
  B  B15  1  0.500000  0.113965  0.546766  1
  B  B16  1  0.500000  0.386567  0.046907  1
  B  B17  1  0.500000  0.613433  0.953093  1
  B  B18  1  0.500000  0.973806  0.307805  1
  B  B19  1  0.500000  0.026194  0.692195  1
  B  B20  1  0.500000  0.474289  0.191709  1
  B  B21  1  0.500000  0.525711  0.808291  1
  Ru  Ru22  1  0.000000  0.637367  0.091455  1
  Ru  Ru23  1  0.000000  0.362633  0.908545  1
