# generated using pymatgen
data_K3Sm(VSe4)2
_symmetry_space_group_name_H-M   'P 1'
_cell_length_a   9.39299858
_cell_length_b   10.50516842
_cell_length_c   11.25066841
_cell_angle_alpha   107.18209130
_cell_angle_beta   103.02412834
_cell_angle_gamma   114.27233302
_symmetry_Int_Tables_number   1
_chemical_formula_structural   K3Sm(VSe4)2
_chemical_formula_sum   'K6 Sm2 V4 Se16'
_cell_volume   886.89901909
_cell_formula_units_Z   2
loop_
 _symmetry_equiv_pos_site_id
 _symmetry_equiv_pos_as_xyz
  1  'x, y, z'
loop_
 _atom_site_type_symbol
 _atom_site_label
 _atom_site_symmetry_multiplicity
 _atom_site_fract_x
 _atom_site_fract_y
 _atom_site_fract_z
 _atom_site_occupancy
  K  K0  1  0.000000  0.500000  0.000000  1
  K  K1  1  0.500000  0.500000  0.000000  1
  K  K2  1  0.255943  0.005916  0.011817  1
  K  K3  1  0.490989  0.740605  0.481503  1
  K  K4  1  0.509010  0.259393  0.518497  1
  K  K5  1  0.744057  0.994084  0.988182  1
  Sm  Sm6  1  0.991465  0.241593  0.483304  1
  Sm  Sm7  1  0.008536  0.758407  0.516696  1
  V  V8  1  0.745847  0.346315  0.252063  1
  V  V9  1  0.005963  0.905623  0.251874  1
  V  V10  1  0.994037  0.094378  0.748127  1
  V  V11  1  0.254152  0.653685  0.747937  1
  Se  Se12  1  0.643320  0.268852  0.025057  1
  Se  Se13  1  0.881247  0.755984  0.024724  1
  Se  Se14  1  0.138139  0.162801  0.289162  1
  Se  Se15  1  0.650583  0.126420  0.289534  1
  Se  Se16  1  0.036500  0.478683  0.343750  1
  Se  Se17  1  0.807271  0.864794  0.343974  1
  Se  Se18  1  0.205572  0.855619  0.352588  1
  Se  Se19  1  0.647153  0.497254  0.353052  1
  Se  Se20  1  0.352846  0.502745  0.646947  1
  Se  Se21  1  0.794427  0.144381  0.647411  1
  Se  Se22  1  0.192729  0.135205  0.656026  1
  Se  Se23  1  0.963499  0.521316  0.656250  1
  Se  Se24  1  0.349416  0.873579  0.710465  1
  Se  Se25  1  0.861861  0.837198  0.710837  1
  Se  Se26  1  0.118754  0.244016  0.975277  1
  Se  Se27  1  0.356679  0.731148  0.974944  1
