# generated using pymatgen
data_Dy15Th(InPt)4
_symmetry_space_group_name_H-M   'P 1'
_cell_length_a   9.74028754
_cell_length_b   9.74028627
_cell_length_c   9.74028660
_cell_angle_alpha   60.09469131
_cell_angle_beta   60.09469480
_cell_angle_gamma   60.09469082
_symmetry_Int_Tables_number   1
_chemical_formula_structural   Dy15Th(InPt)4
_chemical_formula_sum   'Dy15 Th1 In4 Pt4'
_cell_volume   654.83377597
_cell_formula_units_Z   1
loop_
 _symmetry_equiv_pos_site_id
 _symmetry_equiv_pos_as_xyz
  1  'x, y, z'
loop_
 _atom_site_type_symbol
 _atom_site_label
 _atom_site_symmetry_multiplicity
 _atom_site_fract_x
 _atom_site_fract_y
 _atom_site_fract_z
 _atom_site_occupancy
  Dy  Dy0  1  0.351420  0.351420  0.943149  1
  Dy  Dy1  1  0.351420  0.943149  0.351420  1
  Dy  Dy2  1  0.943149  0.351420  0.351420  1
  Dy  Dy3  1  0.811606  0.190128  0.190128  1
  Dy  Dy4  1  0.194269  0.808961  0.808961  1
  Dy  Dy5  1  0.190128  0.811606  0.190128  1
  Dy  Dy6  1  0.808961  0.194269  0.808961  1
  Dy  Dy7  1  0.190128  0.190128  0.811606  1
  Dy  Dy8  1  0.808961  0.808961  0.194269  1
  Dy  Dy9  1  0.935083  0.563952  0.563952  1
  Dy  Dy10  1  0.562528  0.938645  0.938645  1
  Dy  Dy11  1  0.563952  0.935083  0.563952  1
  Dy  Dy12  1  0.938645  0.562527  0.938645  1
  Dy  Dy13  1  0.563952  0.563952  0.935083  1
  Dy  Dy14  1  0.938645  0.938645  0.562527  1
  Th  Th15  1  0.348708  0.348708  0.348708  1
  In  In16  1  0.585080  0.585080  0.585080  1
  In  In17  1  0.584131  0.584131  0.249648  1
  In  In18  1  0.584131  0.249648  0.584131  1
  In  In19  1  0.249648  0.584131  0.584131  1
  Pt  Pt20  1  0.143558  0.143558  0.143558  1
  Pt  Pt21  1  0.140057  0.140057  0.571785  1
  Pt  Pt22  1  0.140057  0.571785  0.140057  1
  Pt  Pt23  1  0.571785  0.140057  0.140057  1
