# generated using pymatgen
data_Hf3Zr5Nb2(Sn3N)2
_symmetry_space_group_name_H-M   'P 1'
_cell_length_a   8.40082962
_cell_length_b   8.40082954
_cell_length_c   5.68608206
_cell_angle_alpha   90.00834911
_cell_angle_beta   90.00834737
_cell_angle_gamma   120.13233862
_symmetry_Int_Tables_number   1
_chemical_formula_structural   Hf3Zr5Nb2(Sn3N)2
_chemical_formula_sum   'Hf3 Zr5 Nb2 Sn6 N2'
_cell_volume   347.06226302
_cell_formula_units_Z   1
loop_
 _symmetry_equiv_pos_site_id
 _symmetry_equiv_pos_as_xyz
  1  'x, y, z'
loop_
 _atom_site_type_symbol
 _atom_site_label
 _atom_site_symmetry_multiplicity
 _atom_site_fract_x
 _atom_site_fract_y
 _atom_site_fract_z
 _atom_site_occupancy
  Hf  Hf0  1  0.333636  0.666726  0.500106  1
  Hf  Hf1  1  0.666726  0.333636  0.500106  1
  Hf  Hf2  1  0.782646  0.782646  0.749525  1
  Zr  Zr3  1  0.223837  0.000548  0.749273  1
  Zr  Zr4  1  0.000548  0.223837  0.749273  1
  Zr  Zr5  1  0.221094  0.221094  0.250493  1
  Zr  Zr6  1  0.776038  0.999268  0.250974  1
  Zr  Zr7  1  0.999268  0.776038  0.250974  1
  Nb  Nb8  1  0.666846  0.333863  0.999998  1
  Nb  Nb9  1  0.333863  0.666846  0.999998  1
  Sn  Sn10  1  0.409131  0.409131  0.755884  1
  Sn  Sn11  1  0.593144  0.999933  0.756068  1
  Sn  Sn12  1  0.999933  0.593144  0.756068  1
  Sn  Sn13  1  0.592244  0.592244  0.243711  1
  Sn  Sn14  1  0.407296  0.999988  0.243894  1
  Sn  Sn15  1  0.999988  0.407296  0.243894  1
  N  N16  1  0.996601  0.996601  0.997457  1
  N  N17  1  0.997160  0.997160  0.502304  1
