# generated using pymatgen
data_La4TbIrPt2
_symmetry_space_group_name_H-M   'P 1'
_cell_length_a   11.53985500
_cell_length_b   11.53985500
_cell_length_c   6.53287400
_cell_angle_alpha   90.00000000
_cell_angle_beta   90.00000000
_cell_angle_gamma   90.00000000
_symmetry_Int_Tables_number   1
_chemical_formula_structural   La4TbIrPt2
_chemical_formula_sum   'La16 Tb4 Ir4 Pt8'
_cell_volume   869.97142040
_cell_formula_units_Z   4
loop_
 _symmetry_equiv_pos_site_id
 _symmetry_equiv_pos_as_xyz
  1  'x, y, z'
loop_
 _atom_site_type_symbol
 _atom_site_label
 _atom_site_symmetry_multiplicity
 _atom_site_fract_x
 _atom_site_fract_y
 _atom_site_fract_z
 _atom_site_occupancy
  La  La0  1  0.292033  0.088090  0.378092  1
  La  La1  1  0.292033  0.911910  0.878092  1
  La  La2  1  0.707967  0.088090  0.878092  1
  La  La3  1  0.707967  0.911910  0.378092  1
  La  La4  1  0.588090  0.792033  0.878092  1
  La  La5  1  0.588090  0.207967  0.378092  1
  La  La6  1  0.411910  0.792033  0.378092  1
  La  La7  1  0.411910  0.207967  0.878092  1
  La  La8  1  0.207967  0.411910  0.621908  1
  La  La9  1  0.207967  0.588090  0.121908  1
  La  La10  1  0.792033  0.411910  0.121908  1
  La  La11  1  0.792033  0.588090  0.621908  1
  La  La12  1  0.911910  0.707967  0.121908  1
  La  La13  1  0.911910  0.292033  0.621908  1
  La  La14  1  0.088090  0.707967  0.621908  1
  La  La15  1  0.088090  0.292033  0.121908  1
  Tb  Tb16  1  0.000000  0.000000  0.500000  1
  Tb  Tb17  1  0.000000  0.000000  0.000000  1
  Tb  Tb18  1  0.500000  0.500000  0.000000  1
  Tb  Tb19  1  0.500000  0.500000  0.500000  1
  Ir  Ir20  1  0.500000  0.000000  0.117279  1
  Ir  Ir21  1  0.500000  0.000000  0.617279  1
  Ir  Ir22  1  0.000000  0.500000  0.882721  1
  Ir  Ir23  1  0.000000  0.500000  0.382721  1
  Pt  Pt24  1  0.851400  0.148600  0.250000  1
  Pt  Pt25  1  0.851400  0.851400  0.750000  1
  Pt  Pt26  1  0.148600  0.148600  0.750000  1
  Pt  Pt27  1  0.148600  0.851400  0.250000  1
  Pt  Pt28  1  0.648600  0.351400  0.750000  1
  Pt  Pt29  1  0.648600  0.648600  0.250000  1
  Pt  Pt30  1  0.351400  0.351400  0.250000  1
  Pt  Pt31  1  0.351400  0.648600  0.750000  1
