# generated using pymatgen
data_K5Li(ReH9)3
_symmetry_space_group_name_H-M   'P 1'
_cell_length_a   9.32416556
_cell_length_b   9.13511741
_cell_length_c   5.65259600
_cell_angle_alpha   90.00000000
_cell_angle_beta   90.00000000
_cell_angle_gamma   119.33155531
_symmetry_Int_Tables_number   1
_chemical_formula_structural   K5Li(ReH9)3
_chemical_formula_sum   'K5 Li1 Re3 H27'
_cell_volume   419.74809140
_cell_formula_units_Z   1
loop_
 _symmetry_equiv_pos_site_id
 _symmetry_equiv_pos_as_xyz
  1  'x, y, z'
loop_
 _atom_site_type_symbol
 _atom_site_label
 _atom_site_symmetry_multiplicity
 _atom_site_fract_x
 _atom_site_fract_y
 _atom_site_fract_z
 _atom_site_occupancy
  K  K0  1  0.742774  0.750883  0.500000  1
  K  K1  1  0.257226  0.008109  0.500000  1
  K  K2  1  0.000000  0.586982  0.000000  1
  K  K3  1  0.400277  0.402200  0.000000  1
  K  K4  1  0.599723  0.001923  0.000000  1
  Li  Li5  1  0.000000  0.327054  0.500000  1
  Re  Re6  1  0.685766  0.329049  0.500000  1
  Re  Re7  1  0.314234  0.643284  0.500000  1
  Re  Re8  1  0.000000  0.015923  0.000000  1
  H  H9  1  0.805368  0.300941  0.707857  1
  H  H10  1  0.707189  0.464361  0.722788  1
  H  H11  1  0.546937  0.218023  0.717227  1
  H  H12  1  0.194632  0.495573  0.292143  1
  H  H13  1  0.546937  0.218023  0.282773  1
  H  H14  1  0.805368  0.300941  0.292143  1
  H  H15  1  0.707189  0.464361  0.277212  1
  H  H16  1  0.292811  0.757173  0.722788  1
  H  H17  1  0.453063  0.671086  0.717227  1
  H  H18  1  0.185407  0.024216  0.000000  1
  H  H19  1  0.814593  0.838809  0.000000  1
  H  H20  1  0.000000  0.200015  0.000000  1
  H  H21  1  0.878129  0.025900  0.217112  1
  H  H22  1  0.121871  0.147771  0.782888  1
  H  H23  1  0.000000  0.878359  0.792617  1
  H  H24  1  0.000000  0.878359  0.207383  1
  H  H25  1  0.121871  0.147771  0.217112  1
  H  H26  1  0.878129  0.025900  0.782888  1
  H  H27  1  0.126165  0.625446  0.500000  1
  H  H28  1  0.470455  0.843121  0.500000  1
  H  H29  1  0.356556  0.484609  0.500000  1
  H  H30  1  0.529545  0.372666  0.500000  1
  H  H31  1  0.873835  0.499282  0.500000  1
  H  H32  1  0.643444  0.128053  0.500000  1
  H  H33  1  0.194632  0.495573  0.707857  1
  H  H34  1  0.292811  0.757173  0.277212  1
  H  H35  1  0.453063  0.671086  0.282773  1
