# generated using pymatgen
data_Tb2HoFe2Sb3O14
_symmetry_space_group_name_H-M   'P 1'
_cell_length_a   7.20410864
_cell_length_b   7.21668406
_cell_length_c   7.18651087
_cell_angle_alpha   117.56617816
_cell_angle_beta   62.40535031
_cell_angle_gamma   117.49119795
_symmetry_Int_Tables_number   1
_chemical_formula_structural   Tb2HoFe2Sb3O14
_chemical_formula_sum   'Tb2 Ho1 Fe2 Sb3 O14'
_cell_volume   278.61851605
_cell_formula_units_Z   1
loop_
 _symmetry_equiv_pos_site_id
 _symmetry_equiv_pos_as_xyz
  1  'x, y, z'
loop_
 _atom_site_type_symbol
 _atom_site_label
 _atom_site_symmetry_multiplicity
 _atom_site_fract_x
 _atom_site_fract_y
 _atom_site_fract_z
 _atom_site_occupancy
  Tb  Tb0  1  0.000001  0.500008  0.000007  1
  Tb  Tb1  1  0.499994  0.500002  0.500004  1
  Ho  Ho2  1  0.500000  0.999983  0.999973  1
  Fe  Fe3  1  0.499985  0.500011  0.999977  1
  Fe  Fe4  1  0.000009  0.000003  0.500004  1
  Sb  Sb5  1  0.500003  0.999998  0.500001  1
  Sb  Sb6  1  0.999997  0.500002  0.499998  1
  Sb  Sb7  1  0.000002  0.000002  0.000004  1
  O  O8  1  0.616117  0.378830  0.114029  1
  O  O9  1  0.383874  0.621168  0.885966  1
  O  O10  1  0.079987  0.322715  0.176301  1
  O  O11  1  0.677303  0.921786  0.176518  1
  O  O12  1  0.676043  0.323722  0.584302  1
  O  O13  1  0.920010  0.677284  0.823709  1
  O  O14  1  0.322701  0.078206  0.823481  1
  O  O15  1  0.323959  0.676279  0.415707  1
  O  O16  1  0.644997  0.903440  0.597209  1
  O  O17  1  0.097189  0.354643  0.595983  1
  O  O18  1  0.097100  0.904613  0.146419  1
  O  O19  1  0.355014  0.096565  0.402787  1
  O  O20  1  0.902814  0.645357  0.404028  1
  O  O21  1  0.902901  0.095386  0.853592  1
