# generated using pymatgen
data_YbGd3B16
_symmetry_space_group_name_H-M   'P 1'
_cell_length_a   7.13676513
_cell_length_b   7.13676513
_cell_length_c   4.04872700
_cell_angle_alpha   90.00000000
_cell_angle_beta   90.00000000
_cell_angle_gamma   90.06461141
_symmetry_Int_Tables_number   1
_chemical_formula_structural   YbGd3B16
_chemical_formula_sum   'Yb1 Gd3 B16'
_cell_volume   206.21536781
_cell_formula_units_Z   1
loop_
 _symmetry_equiv_pos_site_id
 _symmetry_equiv_pos_as_xyz
  1  'x, y, z'
loop_
 _atom_site_type_symbol
 _atom_site_label
 _atom_site_symmetry_multiplicity
 _atom_site_fract_x
 _atom_site_fract_y
 _atom_site_fract_z
 _atom_site_occupancy
  Yb  Yb0  1  0.817625  0.317625  0.000000  1
  Gd  Gd1  1  0.181751  0.681751  0.000000  1
  Gd  Gd2  1  0.316831  0.183226  0.000000  1
  Gd  Gd3  1  0.683226  0.816831  0.000000  1
  B  B4  1  0.502124  0.498820  0.796732  1
  B  B5  1  0.998820  0.002124  0.796732  1
  B  B6  1  0.502124  0.498820  0.203268  1
  B  B7  1  0.998820  0.002124  0.203268  1
  B  B8  1  0.676677  0.537681  0.500000  1
  B  B9  1  0.324187  0.461634  0.500000  1
  B  B10  1  0.174737  0.961671  0.500000  1
  B  B11  1  0.823810  0.038790  0.500000  1
  B  B12  1  0.461671  0.674737  0.500000  1
  B  B13  1  0.538790  0.323810  0.500000  1
  B  B14  1  0.037681  0.176677  0.500000  1
  B  B15  1  0.961634  0.824187  0.500000  1
  B  B16  1  0.913413  0.587174  0.500000  1
  B  B17  1  0.087174  0.413413  0.500000  1
  B  B18  1  0.412511  0.912511  0.500000  1
  B  B19  1  0.586394  0.086394  0.500000  1
