# generated using pymatgen
data_MgZnBi2(Pt2O7)2
_symmetry_space_group_name_H-M   'P 1'
_cell_length_a   7.19050063
_cell_length_b   7.35662094
_cell_length_c   7.23227814
_cell_angle_alpha   59.42961889
_cell_angle_beta   59.00335699
_cell_angle_gamma   59.23278391
_symmetry_Int_Tables_number   1
_chemical_formula_structural   MgZnBi2(Pt2O7)2
_chemical_formula_sum   'Mg1 Zn1 Bi2 Pt4 O14'
_cell_volume   265.71636816
_cell_formula_units_Z   1
loop_
 _symmetry_equiv_pos_site_id
 _symmetry_equiv_pos_as_xyz
  1  'x, y, z'
loop_
 _atom_site_type_symbol
 _atom_site_label
 _atom_site_symmetry_multiplicity
 _atom_site_fract_x
 _atom_site_fract_y
 _atom_site_fract_z
 _atom_site_occupancy
  Mg  Mg0  1  0.125000  0.125000  0.625000  1
  Zn  Zn1  1  0.625000  0.125000  0.125000  1
  Bi  Bi2  1  0.125000  0.625000  0.125000  1
  Bi  Bi3  1  0.125000  0.125000  0.125000  1
  Pt  Pt4  1  0.625000  0.625000  0.125000  1
  Pt  Pt5  1  0.625000  0.125000  0.625000  1
  Pt  Pt6  1  0.125000  0.625000  0.625000  1
  Pt  Pt7  1  0.625000  0.625000  0.625000  1
  O  O8  1  0.263879  0.238247  0.259626  1
  O  O9  1  0.986121  0.011753  0.990374  1
  O  O10  1  0.533708  0.963915  0.538463  1
  O  O11  1  0.286155  0.713122  0.287601  1
  O  O12  1  0.542941  0.534294  0.962520  1
  O  O13  1  0.965295  0.529888  0.543087  1
  O  O14  1  0.542941  0.960246  0.962520  1
  O  O15  1  0.965295  0.961730  0.543087  1
  O  O16  1  0.963845  0.536878  0.962399  1
  O  O17  1  0.707059  0.289754  0.287480  1
  O  O18  1  0.284705  0.720112  0.706913  1
  O  O19  1  0.716292  0.286085  0.711537  1
  O  O20  1  0.284705  0.288270  0.706913  1
  O  O21  1  0.707059  0.715706  0.287480  1
