# generated using pymatgen
data_HoErGa2IrPd
_symmetry_space_group_name_H-M   'P 1'
_cell_length_a   4.40690800
_cell_length_b   6.81723300
_cell_length_c   7.69912000
_cell_angle_alpha   90.00000000
_cell_angle_beta   90.00000000
_cell_angle_gamma   90.00000000
_symmetry_Int_Tables_number   1
_chemical_formula_structural   HoErGa2IrPd
_chemical_formula_sum   'Ho2 Er2 Ga4 Ir2 Pd2'
_cell_volume   231.30403580
_cell_formula_units_Z   2
loop_
 _symmetry_equiv_pos_site_id
 _symmetry_equiv_pos_as_xyz
  1  'x, y, z'
loop_
 _atom_site_type_symbol
 _atom_site_label
 _atom_site_symmetry_multiplicity
 _atom_site_fract_x
 _atom_site_fract_y
 _atom_site_fract_z
 _atom_site_occupancy
  Ho  Ho0  1  0.750000  0.026733  0.685840  1
  Ho  Ho1  1  0.750000  0.526733  0.814160  1
  Er  Er2  1  0.250000  0.983363  0.304636  1
  Er  Er3  1  0.250000  0.483363  0.195364  1
  Ga  Ga4  1  0.250000  0.334909  0.568330  1
  Ga  Ga5  1  0.250000  0.834909  0.931670  1
  Ga  Ga6  1  0.750000  0.658886  0.428737  1
  Ga  Ga7  1  0.750000  0.158886  0.071263  1
  Ir  Ir8  1  0.750000  0.770108  0.108104  1
  Ir  Ir9  1  0.750000  0.270108  0.391896  1
  Pd  Pd10  1  0.250000  0.226001  0.893140  1
  Pd  Pd11  1  0.250000  0.726001  0.606860  1
