# generated using pymatgen
data_Ho5LuC2I11
_symmetry_space_group_name_H-M   'P 1'
_cell_length_a   9.49799497
_cell_length_b   10.79334470
_cell_length_c   15.07089922
_cell_angle_alpha   90.45747571
_cell_angle_beta   104.29053776
_cell_angle_gamma   109.90652462
_symmetry_Int_Tables_number   1
_chemical_formula_structural   Ho5LuC2I11
_chemical_formula_sum   'Ho10 Lu2 C4 I22'
_cell_volume   1400.53075914
_cell_formula_units_Z   2
loop_
 _symmetry_equiv_pos_site_id
 _symmetry_equiv_pos_as_xyz
  1  'x, y, z'
loop_
 _atom_site_type_symbol
 _atom_site_label
 _atom_site_symmetry_multiplicity
 _atom_site_fract_x
 _atom_site_fract_y
 _atom_site_fract_z
 _atom_site_occupancy
  Ho  Ho0  1  0.384943  0.479016  0.120126  1
  Ho  Ho1  1  0.615057  0.520984  0.879874  1
  Ho  Ho2  1  0.428154  0.781724  0.267120  1
  Ho  Ho3  1  0.571846  0.218276  0.732880  1
  Ho  Ho4  1  0.626631  0.583735  0.359340  1
  Ho  Ho5  1  0.373369  0.416265  0.640660  1
  Ho  Ho6  1  0.832694  0.650122  0.201558  1
  Ho  Ho7  1  0.167306  0.349878  0.798442  1
  Ho  Ho8  1  0.630398  0.841894  0.106324  1
  Ho  Ho9  1  0.369602  0.158106  0.893676  1
  Lu  Lu10  1  0.858851  0.943111  0.347064  1
  Lu  Lu11  1  0.141149  0.056889  0.652936  1
  C  C12  1  0.431134  0.344492  0.797071  1
  C  C13  1  0.568866  0.655508  0.202929  1
  C  C14  1  0.314383  0.231517  0.739351  1
  C  C15  1  0.685617  0.768483  0.260649  1
  I  I16  1  0.387444  0.311449  0.273759  1
  I  I17  1  0.612556  0.688551  0.726241  1
  I  I18  1  0.123357  0.559329  0.151240  1
  I  I19  1  0.876643  0.440671  0.848760  1
  I  I20  1  0.627423  0.377363  0.062428  1
  I  I21  1  0.372577  0.622637  0.937572  1
  I  I22  1  0.118628  0.202737  0.481705  1
  I  I23  1  0.881372  0.797263  0.518295  1
  I  I24  1  0.621066  0.034508  0.391487  1
  I  I25  1  0.378934  0.965492  0.608513  1
  I  I26  1  0.127293  0.871958  0.307413  1
  I  I27  1  0.872707  0.128042  0.692587  1
  I  I28  1  0.130202  0.527313  0.652205  1
  I  I29  1  0.869798  0.472687  0.347795  1
  I  I30  1  0.615523  0.366709  0.565301  1
  I  I31  1  0.384477  0.633291  0.434699  1
  I  I32  1  0.139396  0.221158  0.978050  1
  I  I33  1  0.860604  0.778842  0.021950  1
  I  I34  1  0.624950  0.056331  0.896598  1
  I  I35  1  0.375050  0.943669  0.103402  1
  I  I36  1  0.127100  0.893052  0.812235  1
  I  I37  1  0.872900  0.106948  0.187765  1
