# generated using pymatgen
data_EuTh(Si7Ir3)2
_symmetry_space_group_name_H-M   'P 1'
_cell_length_a   8.11125791
_cell_length_b   8.11125926
_cell_length_c   8.11125739
_cell_angle_alpha   56.61365354
_cell_angle_beta   56.61364681
_cell_angle_gamma   56.61365235
_symmetry_Int_Tables_number   1
_chemical_formula_structural   EuTh(Si7Ir3)2
_chemical_formula_sum   'Eu1 Th1 Si14 Ir6'
_cell_volume   347.83481028
_cell_formula_units_Z   1
loop_
 _symmetry_equiv_pos_site_id
 _symmetry_equiv_pos_as_xyz
  1  'x, y, z'
loop_
 _atom_site_type_symbol
 _atom_site_label
 _atom_site_symmetry_multiplicity
 _atom_site_fract_x
 _atom_site_fract_y
 _atom_site_fract_z
 _atom_site_occupancy
  Eu  Eu0  1  0.000000  0.000000  0.000000  1
  Th  Th1  1  0.500000  0.500000  0.500000  1
  Si  Si2  1  0.062053  0.853522  0.674262  1
  Si  Si3  1  0.674262  0.062053  0.853522  1
  Si  Si4  1  0.853522  0.674262  0.062053  1
  Si  Si5  1  0.171414  0.347712  0.565048  1
  Si  Si6  1  0.565048  0.171414  0.347712  1
  Si  Si7  1  0.347712  0.565048  0.171414  1
  Si  Si8  1  0.937947  0.146478  0.325738  1
  Si  Si9  1  0.325738  0.937947  0.146478  1
  Si  Si10  1  0.146478  0.325738  0.937947  1
  Si  Si11  1  0.828586  0.652288  0.434952  1
  Si  Si12  1  0.434952  0.828586  0.652288  1
  Si  Si13  1  0.652288  0.434952  0.828586  1
  Si  Si14  1  0.749804  0.749804  0.749804  1
  Si  Si15  1  0.250196  0.250196  0.250196  1
  Ir  Ir16  1  0.070647  0.747594  0.434783  1
  Ir  Ir17  1  0.434783  0.070647  0.747594  1
  Ir  Ir18  1  0.747594  0.434783  0.070647  1
  Ir  Ir19  1  0.929353  0.252406  0.565217  1
  Ir  Ir20  1  0.565217  0.929353  0.252406  1
  Ir  Ir21  1  0.252406  0.565217  0.929353  1
