# generated using pymatgen
data_TbHo7Tc2(B12Rh)2
_symmetry_space_group_name_H-M   'P 1'
_cell_length_a   3.67451200
_cell_length_b   9.13599267
_cell_length_c   11.52505304
_cell_angle_alpha   90.37523297
_cell_angle_beta   90.00000000
_cell_angle_gamma   90.00000000
_symmetry_Int_Tables_number   1
_chemical_formula_structural   TbHo7Tc2(B12Rh)2
_chemical_formula_sum   'Tb1 Ho7 Tc2 B24 Rh2'
_cell_volume   386.89136043
_cell_formula_units_Z   1
loop_
 _symmetry_equiv_pos_site_id
 _symmetry_equiv_pos_as_xyz
  1  'x, y, z'
loop_
 _atom_site_type_symbol
 _atom_site_label
 _atom_site_symmetry_multiplicity
 _atom_site_fract_x
 _atom_site_fract_y
 _atom_site_fract_z
 _atom_site_occupancy
  Tb  Tb0  1  0.500000  0.319453  0.411166  1
  Ho  Ho1  1  0.500000  0.681193  0.589065  1
  Ho  Ho2  1  0.500000  0.173237  0.917078  1
  Ho  Ho3  1  0.500000  0.826709  0.082830  1
  Ho  Ho4  1  0.500000  0.441814  0.126611  1
  Ho  Ho5  1  0.500000  0.558243  0.873286  1
  Ho  Ho6  1  0.500000  0.053954  0.628706  1
  Ho  Ho7  1  0.500000  0.945745  0.371383  1
  Tc  Tc8  1  0.500000  0.138649  0.179363  1
  Tc  Tc9  1  0.500000  0.860989  0.820332  1
  B  B10  1  0.000000  0.107517  0.471110  1
  B  B11  1  0.000000  0.891722  0.529153  1
  B  B12  1  0.000000  0.392911  0.970164  1
  B  B13  1  0.000000  0.607155  0.029743  1
  B  B14  1  0.000000  0.132020  0.314502  1
  B  B15  1  0.000000  0.867521  0.685220  1
  B  B16  1  0.000000  0.367392  0.816556  1
  B  B17  1  0.000000  0.632706  0.183402  1
  B  B18  1  0.000000  0.052918  0.067263  1
  B  B19  1  0.000000  0.946950  0.932593  1
  B  B20  1  0.000000  0.445872  0.566375  1
  B  B21  1  0.000000  0.554848  0.434048  1
  B  B22  1  0.000000  0.484056  0.287388  1
  B  B23  1  0.000000  0.516612  0.712394  1
  B  B24  1  0.000000  0.016556  0.787108  1
  B  B25  1  0.000000  0.983192  0.212834  1
  B  B26  1  0.000000  0.247983  0.080995  1
  B  B27  1  0.000000  0.751983  0.918821  1
  B  B28  1  0.000000  0.250787  0.579262  1
  B  B29  1  0.000000  0.749108  0.421372  1
  B  B30  1  0.000000  0.292478  0.234236  1
  B  B31  1  0.000000  0.707234  0.765315  1
  B  B32  1  0.000000  0.208331  0.734951  1
  B  B33  1  0.000000  0.791647  0.265150  1
  Rh  Rh34  1  0.500000  0.362125  0.679027  1
  Rh  Rh35  1  0.500000  0.638387  0.321203  1
