# generated using pymatgen
data_CaAc3(CdPd)4
_symmetry_space_group_name_H-M   'P 1'
_cell_length_a   4.44635000
_cell_length_b   7.65268583
_cell_length_c   8.96718230
_cell_angle_alpha   90.09844453
_cell_angle_beta   90.00000000
_cell_angle_gamma   90.00000000
_symmetry_Int_Tables_number   1
_chemical_formula_structural   CaAc3(CdPd)4
_chemical_formula_sum   'Ca1 Ac3 Cd4 Pd4'
_cell_volume   305.12155433
_cell_formula_units_Z   1
loop_
 _symmetry_equiv_pos_site_id
 _symmetry_equiv_pos_as_xyz
  1  'x, y, z'
loop_
 _atom_site_type_symbol
 _atom_site_label
 _atom_site_symmetry_multiplicity
 _atom_site_fract_x
 _atom_site_fract_y
 _atom_site_fract_z
 _atom_site_occupancy
  Ca  Ca0  1  0.750000  0.461025  0.812794  1
  Ac  Ac1  1  0.250000  0.037717  0.315534  1
  Ac  Ac2  1  0.250000  0.533728  0.176299  1
  Ac  Ac3  1  0.750000  0.962881  0.687954  1
  Cd  Cd4  1  0.250000  0.150049  0.937147  1
  Cd  Cd5  1  0.250000  0.630606  0.566446  1
  Cd  Cd6  1  0.750000  0.858266  0.056839  1
  Cd  Cd7  1  0.750000  0.365892  0.445065  1
  Pd  Pd8  1  0.250000  0.254965  0.626811  1
  Pd  Pd9  1  0.250000  0.756077  0.872691  1
  Pd  Pd10  1  0.750000  0.745924  0.372539  1
  Pd  Pd11  1  0.750000  0.242869  0.129880  1
