# generated using pymatgen
data_Tb20Ir3(RuPt2)3
_symmetry_space_group_name_H-M   'P 1'
_cell_length_a   10.99931302
_cell_length_b   10.99865101
_cell_length_c   6.42872601
_cell_angle_alpha   90.00225178
_cell_angle_beta   89.99431458
_cell_angle_gamma   89.99565559
_symmetry_Int_Tables_number   1
_chemical_formula_structural   Tb20Ir3(RuPt2)3
_chemical_formula_sum   'Tb20 Ir3 Ru3 Pt6'
_cell_volume   777.73187088
_cell_formula_units_Z   1
loop_
 _symmetry_equiv_pos_site_id
 _symmetry_equiv_pos_as_xyz
  1  'x, y, z'
loop_
 _atom_site_type_symbol
 _atom_site_label
 _atom_site_symmetry_multiplicity
 _atom_site_fract_x
 _atom_site_fract_y
 _atom_site_fract_z
 _atom_site_occupancy
  Tb  Tb0  1  0.296982  0.089016  0.375113  1
  Tb  Tb1  1  0.297158  0.911184  0.875370  1
  Tb  Tb2  1  0.702695  0.086033  0.875378  1
  Tb  Tb3  1  0.702933  0.913764  0.375121  1
  Tb  Tb4  1  0.583622  0.795116  0.875521  1
  Tb  Tb5  1  0.583715  0.205040  0.375431  1
  Tb  Tb6  1  0.412089  0.794818  0.380112  1
  Tb  Tb7  1  0.412214  0.204981  0.880145  1
  Tb  Tb8  1  0.208116  0.413810  0.622226  1
  Tb  Tb9  1  0.207881  0.586256  0.120393  1
  Tb  Tb10  1  0.795733  0.412407  0.122138  1
  Tb  Tb11  1  0.795603  0.587442  0.624568  1
  Tb  Tb12  1  0.913142  0.703883  0.123222  1
  Tb  Tb13  1  0.913151  0.295704  0.625815  1
  Tb  Tb14  1  0.090873  0.704557  0.626864  1
  Tb  Tb15  1  0.090838  0.295901  0.124541  1
  Tb  Tb16  1  0.000074  0.999718  0.499260  1
  Tb  Tb17  1  0.000063  0.000338  0.999086  1
  Tb  Tb18  1  0.496956  0.499678  0.998950  1
  Tb  Tb19  1  0.496953  0.500350  0.499057  1
  Ir  Ir20  1  0.346681  0.346558  0.249579  1
  Ir  Ir21  1  0.346680  0.653645  0.749613  1
  Ir  Ir22  1  0.999120  0.499876  0.377735  1
  Ru  Ru23  1  0.500752  0.999910  0.125643  1
  Ru  Ru24  1  0.500739  0.000037  0.625104  1
  Ru  Ru25  1  0.998861  0.500227  0.875834  1
  Pt  Pt26  1  0.846586  0.153288  0.250110  1
  Pt  Pt27  1  0.846311  0.846794  0.749983  1
  Pt  Pt28  1  0.152697  0.153412  0.749325  1
  Pt  Pt29  1  0.152422  0.846563  0.249311  1
  Pt  Pt30  1  0.654146  0.346333  0.749764  1
  Pt  Pt31  1  0.654214  0.653357  0.249682  1
