# generated using pymatgen
data_TbY2Ni2Ir7
_symmetry_space_group_name_H-M   'P 1'
_cell_length_a   5.27542813
_cell_length_b   5.27542865
_cell_length_c   8.96741100
_cell_angle_alpha   72.89374734
_cell_angle_beta   72.89374562
_cell_angle_gamma   59.99999919
_symmetry_Int_Tables_number   1
_chemical_formula_structural   TbY2Ni2Ir7
_chemical_formula_sum   'Tb1 Y2 Ni2 Ir7'
_cell_volume   203.28067925
_cell_formula_units_Z   1
loop_
 _symmetry_equiv_pos_site_id
 _symmetry_equiv_pos_as_xyz
  1  'x, y, z'
loop_
 _atom_site_type_symbol
 _atom_site_label
 _atom_site_symmetry_multiplicity
 _atom_site_fract_x
 _atom_site_fract_y
 _atom_site_fract_z
 _atom_site_occupancy
  Tb  Tb0  1  0.000000  0.000000  0.000000  1
  Y  Y1  1  0.140386  0.140386  0.578844  1
  Y  Y2  1  0.859614  0.859614  0.421156  1
  Ni  Ni3  1  0.333441  0.333441  0.999675  1
  Ni  Ni4  1  0.666559  0.666559  0.000325  1
  Ir  Ir5  1  0.077994  0.581037  0.759933  1
  Ir  Ir6  1  0.581037  0.581037  0.759933  1
  Ir  Ir7  1  0.581037  0.077994  0.759933  1
  Ir  Ir8  1  0.922006  0.418963  0.240067  1
  Ir  Ir9  1  0.418963  0.418963  0.240067  1
  Ir  Ir10  1  0.418963  0.922006  0.240067  1
  Ir  Ir11  1  0.500000  0.500000  0.500000  1
