# generated using pymatgen
data_Y4Ho6Ir3Rh
_symmetry_space_group_name_H-M   'P 1'
_cell_length_a   6.45496510
_cell_length_b   7.21921660
_cell_length_c   8.56582416
_cell_angle_alpha   96.72463666
_cell_angle_beta   112.04814575
_cell_angle_gamma   90.06452556
_symmetry_Int_Tables_number   1
_chemical_formula_structural   Y4Ho6Ir3Rh
_chemical_formula_sum   'Y4 Ho6 Ir3 Rh1'
_cell_volume   366.98790706
_cell_formula_units_Z   1
loop_
 _symmetry_equiv_pos_site_id
 _symmetry_equiv_pos_as_xyz
  1  'x, y, z'
loop_
 _atom_site_type_symbol
 _atom_site_label
 _atom_site_symmetry_multiplicity
 _atom_site_fract_x
 _atom_site_fract_y
 _atom_site_fract_z
 _atom_site_occupancy
  Y  Y0  1  0.975218  0.918701  0.185646  1
  Y  Y1  1  0.789422  0.581835  0.813064  1
  Y  Y2  1  0.024996  0.081634  0.814107  1
  Y  Y3  1  0.211081  0.417476  0.185659  1
  Ho  Ho4  1  0.648954  0.816776  0.440479  1
  Ho  Ho5  1  0.212180  0.684466  0.561243  1
  Ho  Ho6  1  0.349696  0.184211  0.559928  1
  Ho  Ho7  1  0.790320  0.315442  0.440322  1
  Ho  Ho8  1  0.426331  0.750754  0.999495  1
  Ho  Ho9  1  0.572269  0.249081  0.999661  1
  Ir  Ir10  1  0.597785  0.926102  0.778376  1
  Ir  Ir11  1  0.179768  0.426453  0.777819  1
  Ir  Ir12  1  0.402373  0.073869  0.222359  1
  Rh  Rh13  1  0.819607  0.573200  0.221841  1
