# generated using pymatgen
data_YbHoPaIr3
_symmetry_space_group_name_H-M   'P 1'
_cell_length_a   5.35029284
_cell_length_b   5.35029212
_cell_length_c   5.35029262
_cell_angle_alpha   65.69072846
_cell_angle_beta   65.69073240
_cell_angle_gamma   65.69074141
_symmetry_Int_Tables_number   1
_chemical_formula_structural   YbHoPaIr3
_chemical_formula_sum   'Yb1 Ho1 Pa1 Ir3'
_cell_volume   121.67224834
_cell_formula_units_Z   1
loop_
 _symmetry_equiv_pos_site_id
 _symmetry_equiv_pos_as_xyz
  1  'x, y, z'
loop_
 _atom_site_type_symbol
 _atom_site_label
 _atom_site_symmetry_multiplicity
 _atom_site_fract_x
 _atom_site_fract_y
 _atom_site_fract_z
 _atom_site_occupancy
  Yb  Yb0  1  0.749053  0.749053  0.749053  1
  Ho  Ho1  1  0.502806  0.502806  0.502806  1
  Pa  Pa2  1  0.124282  0.124282  0.124282  1
  Ir  Ir3  1  0.624460  0.124700  0.124700  1
  Ir  Ir4  1  0.124700  0.124700  0.624460  1
  Ir  Ir5  1  0.124700  0.624460  0.124700  1
