# generated using pymatgen
data_Zr8In4Pd5Pt3
_symmetry_space_group_name_H-M   'P 1'
_cell_length_a   7.57603742
_cell_length_b   7.57211241
_cell_length_c   6.87248624
_cell_angle_alpha   90.12342030
_cell_angle_beta   89.93015279
_cell_angle_gamma   89.99521903
_symmetry_Int_Tables_number   1
_chemical_formula_structural   Zr8In4Pd5Pt3
_chemical_formula_sum   'Zr8 In4 Pd5 Pt3'
_cell_volume   394.25000835
_cell_formula_units_Z   1
loop_
 _symmetry_equiv_pos_site_id
 _symmetry_equiv_pos_as_xyz
  1  'x, y, z'
loop_
 _atom_site_type_symbol
 _atom_site_label
 _atom_site_symmetry_multiplicity
 _atom_site_fract_x
 _atom_site_fract_y
 _atom_site_fract_z
 _atom_site_occupancy
  Zr  Zr0  1  0.654801  0.655104  0.502665  1
  Zr  Zr1  1  0.813490  0.184217  0.499743  1
  Zr  Zr2  1  0.685019  0.685385  0.999143  1
  Zr  Zr3  1  0.843432  0.151435  0.002186  1
  Zr  Zr4  1  0.184004  0.813294  0.501904  1
  Zr  Zr5  1  0.317149  0.317113  0.000049  1
  Zr  Zr6  1  0.151259  0.843122  0.995227  1
  Zr  Zr7  1  0.348565  0.348521  0.499016  1
  In  In8  1  0.001560  0.500453  0.249992  1
  In  In9  1  0.498116  0.002729  0.749546  1
  In  In10  1  0.497762  0.997485  0.249775  1
  In  In11  1  0.998855  0.495512  0.749085  1
  Pd  Pd12  1  0.632243  0.368673  0.785222  1
  Pd  Pd13  1  0.368623  0.632468  0.214279  1
  Pd  Pd14  1  0.129384  0.129116  0.280257  1
  Pd  Pd15  1  0.870922  0.870662  0.283651  1
  Pd  Pd16  1  0.131551  0.131653  0.717356  1
  Pt  Pt17  1  0.627867  0.372863  0.222699  1
  Pt  Pt18  1  0.372942  0.627424  0.776777  1
  Pt  Pt19  1  0.872457  0.872773  0.721427  1
