# generated using pymatgen
data_Hf6TiNb3Al12Co7
_symmetry_space_group_name_H-M   'P 1'
_cell_length_a   8.59094211
_cell_length_b   8.59094065
_cell_length_c   8.59094046
_cell_angle_alpha   60.02314493
_cell_angle_beta   60.02314923
_cell_angle_gamma   60.02314967
_symmetry_Int_Tables_number   1
_chemical_formula_structural   Hf6TiNb3Al12Co7
_chemical_formula_sum   'Hf6 Ti1 Nb3 Al12 Co7'
_cell_volume   448.57499098
_cell_formula_units_Z   1
loop_
 _symmetry_equiv_pos_site_id
 _symmetry_equiv_pos_as_xyz
  1  'x, y, z'
loop_
 _atom_site_type_symbol
 _atom_site_label
 _atom_site_symmetry_multiplicity
 _atom_site_fract_x
 _atom_site_fract_y
 _atom_site_fract_z
 _atom_site_occupancy
  Hf  Hf0  1  0.689095  0.311042  0.311042  1
  Hf  Hf1  1  0.688729  0.311494  0.688729  1
  Hf  Hf2  1  0.688729  0.688729  0.311494  1
  Hf  Hf3  1  0.311494  0.688729  0.688729  1
  Hf  Hf4  1  0.311042  0.689095  0.311042  1
  Hf  Hf5  1  0.311042  0.311042  0.689095  1
  Ti  Ti6  1  0.118127  0.118127  0.118127  1
  Nb  Nb7  1  0.644164  0.118459  0.118459  1
  Nb  Nb8  1  0.118459  0.644164  0.118459  1
  Nb  Nb9  1  0.118459  0.118459  0.644164  1
  Al  Al10  1  0.362022  0.880880  0.880880  1
  Al  Al11  1  0.880880  0.362022  0.880880  1
  Al  Al12  1  0.880880  0.880880  0.362022  1
  Al  Al13  1  0.879070  0.879070  0.879070  1
  Al  Al14  1  0.991833  0.334457  0.334457  1
  Al  Al15  1  0.334457  0.991833  0.334457  1
  Al  Al16  1  0.334457  0.334457  0.991833  1
  Al  Al17  1  0.336690  0.336690  0.336690  1
  Al  Al18  1  0.005848  0.664602  0.664602  1
  Al  Al19  1  0.664602  0.005848  0.664602  1
  Al  Al20  1  0.664602  0.664602  0.005848  1
  Al  Al21  1  0.665034  0.665034  0.665034  1
  Co  Co22  1  0.000544  0.000544  0.000544  1
  Co  Co23  1  0.498478  0.003033  0.003033  1
  Co  Co24  1  0.496016  0.003166  0.496016  1
  Co  Co25  1  0.496016  0.496016  0.003166  1
  Co  Co26  1  0.003166  0.496016  0.496016  1
  Co  Co27  1  0.003033  0.498478  0.003033  1
  Co  Co28  1  0.003033  0.003033  0.498478  1
