# generated using pymatgen
data_Pa2CoTc2
_symmetry_space_group_name_H-M   'P 1'
_cell_length_a   5.79589100
_cell_length_b   7.53613600
_cell_length_c   8.62180500
_cell_angle_alpha   90.00000000
_cell_angle_beta   90.00000000
_cell_angle_gamma   90.00000000
_symmetry_Int_Tables_number   1
_chemical_formula_structural   Pa2CoTc2
_chemical_formula_sum   'Pa8 Co4 Tc8'
_cell_volume   376.58856860
_cell_formula_units_Z   4
loop_
 _symmetry_equiv_pos_site_id
 _symmetry_equiv_pos_as_xyz
  1  'x, y, z'
loop_
 _atom_site_type_symbol
 _atom_site_label
 _atom_site_symmetry_multiplicity
 _atom_site_fract_x
 _atom_site_fract_y
 _atom_site_fract_z
 _atom_site_occupancy
  Pa  Pa0  1  0.750000  0.905491  0.860439  1
  Pa  Pa1  1  0.750000  0.405491  0.639561  1
  Pa  Pa2  1  0.250000  0.094509  0.139561  1
  Pa  Pa3  1  0.250000  0.594509  0.360439  1
  Pa  Pa4  1  0.750000  0.931651  0.394224  1
  Pa  Pa5  1  0.750000  0.431651  0.105776  1
  Pa  Pa6  1  0.250000  0.068349  0.605776  1
  Pa  Pa7  1  0.250000  0.568349  0.894224  1
  Co  Co8  1  0.750000  0.590522  0.374766  1
  Co  Co9  1  0.750000  0.090522  0.125234  1
  Co  Co10  1  0.250000  0.409478  0.625234  1
  Co  Co11  1  0.250000  0.909478  0.874766  1
  Tc  Tc12  1  0.998473  0.249677  0.379743  1
  Tc  Tc13  1  0.501527  0.749677  0.120257  1
  Tc  Tc14  1  0.498473  0.750323  0.620257  1
  Tc  Tc15  1  0.001527  0.250323  0.879743  1
  Tc  Tc16  1  0.001527  0.750323  0.620257  1
  Tc  Tc17  1  0.498473  0.250323  0.879743  1
  Tc  Tc18  1  0.501527  0.249677  0.379743  1
  Tc  Tc19  1  0.998473  0.749677  0.120257  1
