# generated using pymatgen
data_Mn6Ir5Rh13
_symmetry_space_group_name_H-M   'P 1'
_cell_length_a   5.41124716
_cell_length_b   5.41305522
_cell_length_c   13.17804109
_cell_angle_alpha   90.00000115
_cell_angle_beta   89.99222748
_cell_angle_gamma   120.01106193
_symmetry_Int_Tables_number   1
_chemical_formula_structural   Mn6Ir5Rh13
_chemical_formula_sum   'Mn6 Ir5 Rh13'
_cell_volume   334.25113568
_cell_formula_units_Z   1
loop_
 _symmetry_equiv_pos_site_id
 _symmetry_equiv_pos_as_xyz
  1  'x, y, z'
loop_
 _atom_site_type_symbol
 _atom_site_label
 _atom_site_symmetry_multiplicity
 _atom_site_fract_x
 _atom_site_fract_y
 _atom_site_fract_z
 _atom_site_occupancy
  Mn  Mn0  1  0.999126  0.999564  0.250731  1
  Mn  Mn1  1  0.000711  0.000355  0.751477  1
  Mn  Mn2  1  0.334667  0.667334  0.413046  1
  Mn  Mn3  1  0.666898  0.333449  0.585411  1
  Mn  Mn4  1  0.666824  0.333412  0.913998  1
  Mn  Mn5  1  0.335026  0.667513  0.085273  1
  Ir  Ir6  1  0.498823  0.501322  0.249883  1
  Ir  Ir7  1  0.498823  0.997501  0.249883  1
  Ir  Ir8  1  0.166650  0.333112  0.916814  1
  Ir  Ir9  1  0.666950  0.833474  0.917271  1
  Ir  Ir10  1  0.166650  0.833537  0.916814  1
  Rh  Rh11  1  0.002059  0.501029  0.249837  1
  Rh  Rh12  1  0.502107  0.499203  0.749699  1
  Rh  Rh13  1  0.502107  0.002904  0.749699  1
  Rh  Rh14  1  0.998032  0.499016  0.749723  1
  Rh  Rh15  1  0.832292  0.666516  0.082950  1
  Rh  Rh16  1  0.332195  0.166098  0.083981  1
  Rh  Rh17  1  0.832292  0.165777  0.082950  1
  Rh  Rh18  1  0.832556  0.666682  0.417492  1
  Rh  Rh19  1  0.331843  0.165923  0.416420  1
  Rh  Rh20  1  0.832556  0.165874  0.417492  1
  Rh  Rh21  1  0.166844  0.333395  0.583122  1
  Rh  Rh22  1  0.667128  0.833563  0.582916  1
  Rh  Rh23  1  0.166844  0.833448  0.583122  1
