# generated using pymatgen
data_Yb4Al4Cu3Pt
_symmetry_space_group_name_H-M   'P 1'
_cell_length_a   4.28651800
_cell_length_b   6.92516106
_cell_length_c   7.81252164
_cell_angle_alpha   90.52206066
_cell_angle_beta   90.00000000
_cell_angle_gamma   90.00000000
_symmetry_Int_Tables_number   1
_chemical_formula_structural   Yb4Al4Cu3Pt
_chemical_formula_sum   'Yb4 Al4 Cu3 Pt1'
_cell_volume   231.90373058
_cell_formula_units_Z   1
loop_
 _symmetry_equiv_pos_site_id
 _symmetry_equiv_pos_as_xyz
  1  'x, y, z'
loop_
 _atom_site_type_symbol
 _atom_site_label
 _atom_site_symmetry_multiplicity
 _atom_site_fract_x
 _atom_site_fract_y
 _atom_site_fract_z
 _atom_site_occupancy
  Yb  Yb0  1  0.250000  0.035231  0.332025  1
  Yb  Yb1  1  0.250000  0.535858  0.169284  1
  Yb  Yb2  1  0.750000  0.964021  0.672963  1
  Yb  Yb3  1  0.750000  0.465625  0.825885  1
  Al  Al4  1  0.250000  0.133126  0.943646  1
  Al  Al5  1  0.250000  0.629835  0.555205  1
  Al  Al6  1  0.750000  0.866568  0.056925  1
  Al  Al7  1  0.750000  0.366851  0.444013  1
  Cu  Cu8  1  0.250000  0.277843  0.635930  1
  Cu  Cu9  1  0.250000  0.778376  0.864118  1
  Cu  Cu10  1  0.750000  0.719406  0.367632  1
  Pt  Pt11  1  0.750000  0.227262  0.132374  1
