# generated using pymatgen
data_Yb8Cu3Si12Ge
_symmetry_space_group_name_H-M   'P 1'
_cell_length_a   8.10281900
_cell_length_b   8.10281953
_cell_length_c   8.42325300
_cell_angle_alpha   90.00000000
_cell_angle_beta   90.00000000
_cell_angle_gamma   119.99999374
_symmetry_Int_Tables_number   1
_chemical_formula_structural   Yb8Cu3Si12Ge
_chemical_formula_sum   'Yb8 Cu3 Si12 Ge1'
_cell_volume   478.94187328
_cell_formula_units_Z   1
loop_
 _symmetry_equiv_pos_site_id
 _symmetry_equiv_pos_as_xyz
  1  'x, y, z'
loop_
 _atom_site_type_symbol
 _atom_site_label
 _atom_site_symmetry_multiplicity
 _atom_site_fract_x
 _atom_site_fract_y
 _atom_site_fract_z
 _atom_site_occupancy
  Yb  Yb0  1  0.000000  0.000000  0.255508  1
  Yb  Yb1  1  0.000000  0.000000  0.744580  1
  Yb  Yb2  1  0.499418  0.500582  0.252654  1
  Yb  Yb3  1  0.499418  0.998838  0.252654  1
  Yb  Yb4  1  0.001162  0.500582  0.252654  1
  Yb  Yb5  1  0.498969  0.501031  0.747339  1
  Yb  Yb6  1  0.498969  0.997939  0.747339  1
  Yb  Yb7  1  0.002061  0.501031  0.747339  1
  Cu  Cu8  1  0.333333  0.666667  0.499346  1
  Cu  Cu9  1  0.666667  0.333333  0.502188  1
  Cu  Cu10  1  0.666667  0.333333  0.998215  1
  Si  Si11  1  0.167958  0.832042  0.499856  1
  Si  Si12  1  0.167958  0.335916  0.499856  1
  Si  Si13  1  0.664084  0.832042  0.499856  1
  Si  Si14  1  0.832040  0.167960  0.500222  1
  Si  Si15  1  0.832040  0.664080  0.500222  1
  Si  Si16  1  0.335920  0.167960  0.500222  1
  Si  Si17  1  0.829626  0.170374  0.999713  1
  Si  Si18  1  0.829626  0.659250  0.999713  1
  Si  Si19  1  0.340750  0.170374  0.999713  1
  Si  Si20  1  0.160035  0.839965  0.000185  1
  Si  Si21  1  0.160035  0.320071  0.000185  1
  Si  Si22  1  0.679929  0.839965  0.000185  1
  Ge  Ge23  1  0.333333  0.666667  0.000254  1
