# generated using pymatgen
data_Y13HoEr6(CoSb2)4
_symmetry_space_group_name_H-M   'P 1'
_cell_length_a   7.88747613
_cell_length_b   8.74864277
_cell_length_c   12.23369607
_cell_angle_alpha   89.97877462
_cell_angle_beta   90.00623171
_cell_angle_gamma   90.01411470
_symmetry_Int_Tables_number   1
_chemical_formula_structural   Y13HoEr6(CoSb2)4
_chemical_formula_sum   'Y13 Ho1 Er6 Co4 Sb8'
_cell_volume   844.18257317
_cell_formula_units_Z   1
loop_
 _symmetry_equiv_pos_site_id
 _symmetry_equiv_pos_as_xyz
  1  'x, y, z'
loop_
 _atom_site_type_symbol
 _atom_site_label
 _atom_site_symmetry_multiplicity
 _atom_site_fract_x
 _atom_site_fract_y
 _atom_site_fract_z
 _atom_site_occupancy
  Y  Y0  1  0.155429  0.749394  0.203961  1
  Y  Y1  1  0.655116  0.250010  0.296482  1
  Y  Y2  1  0.844898  0.250227  0.796372  1
  Y  Y3  1  0.344971  0.750030  0.703784  1
  Y  Y4  1  0.454265  0.749074  0.997993  1
  Y  Y5  1  0.956012  0.250010  0.501884  1
  Y  Y6  1  0.541360  0.251229  0.001518  1
  Y  Y7  1  0.043684  0.749851  0.498243  1
  Y  Y8  1  0.626135  0.750025  0.307195  1
  Y  Y9  1  0.126449  0.250662  0.193180  1
  Y  Y10  1  0.374304  0.249844  0.693081  1
  Y  Y11  1  0.874842  0.749391  0.806632  1
  Y  Y12  1  0.821341  0.966556  0.065715  1
  Ho  Ho13  1  0.323994  0.033831  0.434789  1
  Er  Er14  1  0.175569  0.465464  0.934070  1
  Er  Er15  1  0.675646  0.533984  0.565396  1
  Er  Er16  1  0.175447  0.034370  0.934450  1
  Er  Er17  1  0.675817  0.965867  0.565483  1
  Er  Er18  1  0.824575  0.533875  0.065162  1
  Er  Er19  1  0.324479  0.466029  0.434818  1
  Co  Co20  1  0.439053  0.749830  0.491691  1
  Co  Co21  1  0.939961  0.251537  0.008270  1
  Co  Co22  1  0.561317  0.250079  0.508549  1
  Co  Co23  1  0.063717  0.748885  0.990900  1
  Sb  Sb24  1  0.931760  0.992715  0.326791  1
  Sb  Sb25  1  0.430561  0.007469  0.173290  1
  Sb  Sb26  1  0.069110  0.492364  0.672988  1
  Sb  Sb27  1  0.568978  0.507453  0.826419  1
  Sb  Sb28  1  0.068797  0.007420  0.673234  1
  Sb  Sb29  1  0.569361  0.992501  0.827163  1
  Sb  Sb30  1  0.931298  0.507251  0.326760  1
  Sb  Sb31  1  0.431754  0.492773  0.173734  1
