# generated using pymatgen
data_CdTcCl6
_symmetry_space_group_name_H-M   'P 1'
_cell_length_a   6.56387600
_cell_length_b   6.56387569
_cell_length_c   13.08859800
_cell_angle_alpha   90.00000000
_cell_angle_beta   90.00000000
_cell_angle_gamma   120.00000159
_symmetry_Int_Tables_number   1
_chemical_formula_structural   CdTcCl6
_chemical_formula_sum   'Cd2 Tc2 Cl12'
_cell_volume   488.36492995
_cell_formula_units_Z   2
loop_
 _symmetry_equiv_pos_site_id
 _symmetry_equiv_pos_as_xyz
  1  'x, y, z'
loop_
 _atom_site_type_symbol
 _atom_site_label
 _atom_site_symmetry_multiplicity
 _atom_site_fract_x
 _atom_site_fract_y
 _atom_site_fract_z
 _atom_site_occupancy
  Cd  Cd0  1  0.000000  0.000000  0.250000  1
  Cd  Cd1  1  0.000000  0.000000  0.750000  1
  Tc  Tc2  1  0.333333  0.666667  0.250000  1
  Tc  Tc3  1  0.666667  0.333333  0.750000  1
  Cl  Cl4  1  0.633239  0.956000  0.144005  1
  Cl  Cl5  1  0.044000  0.677240  0.144005  1
  Cl  Cl6  1  0.322760  0.366761  0.144005  1
  Cl  Cl7  1  0.044000  0.366761  0.355995  1
  Cl  Cl8  1  0.366761  0.322760  0.644005  1
  Cl  Cl9  1  0.677240  0.044000  0.644005  1
  Cl  Cl10  1  0.956000  0.633239  0.644005  1
  Cl  Cl11  1  0.677240  0.633239  0.855995  1
  Cl  Cl12  1  0.956000  0.322760  0.855995  1
  Cl  Cl13  1  0.366761  0.044000  0.855995  1
  Cl  Cl14  1  0.633239  0.677240  0.355995  1
  Cl  Cl15  1  0.322760  0.956000  0.355995  1
