# generated using pymatgen
data_Tb2Lu3Si3Pt
_symmetry_space_group_name_H-M   'P 1'
_cell_length_a   7.10344600
_cell_length_b   7.83775300
_cell_length_c   14.40610600
_cell_angle_alpha   90.00000000
_cell_angle_beta   90.00000000
_cell_angle_gamma   90.00000000
_symmetry_Int_Tables_number   1
_chemical_formula_structural   Tb2Lu3Si3Pt
_chemical_formula_sum   'Tb8 Lu12 Si12 Pt4'
_cell_volume   802.06074672
_cell_formula_units_Z   4
loop_
 _symmetry_equiv_pos_site_id
 _symmetry_equiv_pos_as_xyz
  1  'x, y, z'
loop_
 _atom_site_type_symbol
 _atom_site_label
 _atom_site_symmetry_multiplicity
 _atom_site_fract_x
 _atom_site_fract_y
 _atom_site_fract_z
 _atom_site_occupancy
  Tb  Tb0  1  0.510249  0.682547  0.591334  1
  Tb  Tb1  1  0.010249  0.817453  0.908666  1
  Tb  Tb2  1  0.489751  0.317453  0.091334  1
  Tb  Tb3  1  0.989751  0.182547  0.408666  1
  Tb  Tb4  1  0.489751  0.317453  0.408666  1
  Tb  Tb5  1  0.989751  0.182547  0.091334  1
  Tb  Tb6  1  0.510249  0.682547  0.908666  1
  Tb  Tb7  1  0.010249  0.817453  0.591334  1
  Lu  Lu8  1  0.682193  0.173164  0.626725  1
  Lu  Lu9  1  0.182193  0.326836  0.873275  1
  Lu  Lu10  1  0.317807  0.826836  0.126725  1
  Lu  Lu11  1  0.817807  0.673164  0.373275  1
  Lu  Lu12  1  0.317807  0.826836  0.373275  1
  Lu  Lu13  1  0.817807  0.673164  0.126725  1
  Lu  Lu14  1  0.682193  0.173164  0.873275  1
  Lu  Lu15  1  0.182193  0.326836  0.626725  1
  Lu  Lu16  1  0.833848  0.513212  0.750000  1
  Lu  Lu17  1  0.333848  0.986788  0.750000  1
  Lu  Lu18  1  0.166152  0.486788  0.250000  1
  Lu  Lu19  1  0.666152  0.013212  0.250000  1
  Si  Si20  1  0.655678  0.970160  0.461439  1
  Si  Si21  1  0.155678  0.529840  0.038561  1
  Si  Si22  1  0.344322  0.029840  0.961439  1
  Si  Si23  1  0.844322  0.470160  0.538561  1
  Si  Si24  1  0.344322  0.029840  0.538561  1
  Si  Si25  1  0.844322  0.470160  0.961439  1
  Si  Si26  1  0.655678  0.970160  0.038561  1
  Si  Si27  1  0.155678  0.529840  0.461439  1
  Si  Si28  1  0.725636  0.867384  0.750000  1
  Si  Si29  1  0.225636  0.632616  0.750000  1
  Si  Si30  1  0.274364  0.132616  0.250000  1
  Si  Si31  1  0.774364  0.367384  0.250000  1
  Pt  Pt32  1  0.476273  0.397236  0.750000  1
  Pt  Pt33  1  0.976273  0.102764  0.750000  1
  Pt  Pt34  1  0.523727  0.602764  0.250000  1
  Pt  Pt35  1  0.023727  0.897236  0.250000  1
