# generated using pymatgen
data_Dy18Er2(Bi3Sb)3
_symmetry_space_group_name_H-M   'P 1'
_cell_length_a   8.19904107
_cell_length_b   9.47021801
_cell_length_c   12.00666636
_cell_angle_alpha   89.99479143
_cell_angle_beta   90.04289932
_cell_angle_gamma   90.00198586
_symmetry_Int_Tables_number   1
_chemical_formula_structural   Dy18Er2(Bi3Sb)3
_chemical_formula_sum   'Dy18 Er2 Bi9 Sb3'
_cell_volume   932.27783131
_cell_formula_units_Z   1
loop_
 _symmetry_equiv_pos_site_id
 _symmetry_equiv_pos_as_xyz
  1  'x, y, z'
loop_
 _atom_site_type_symbol
 _atom_site_label
 _atom_site_symmetry_multiplicity
 _atom_site_fract_x
 _atom_site_fract_y
 _atom_site_fract_z
 _atom_site_occupancy
  Dy  Dy0  1  0.352967  0.749985  0.212923  1
  Dy  Dy1  1  0.853276  0.750013  0.286599  1
  Dy  Dy2  1  0.646854  0.249928  0.786791  1
  Dy  Dy3  1  0.147762  0.250073  0.716337  1
  Dy  Dy4  1  0.311430  0.062442  0.942721  1
  Dy  Dy5  1  0.808680  0.439853  0.559059  1
  Dy  Dy6  1  0.311173  0.437627  0.942651  1
  Dy  Dy7  1  0.808463  0.060119  0.559141  1
  Dy  Dy8  1  0.688996  0.936919  0.057405  1
  Dy  Dy9  1  0.190326  0.566335  0.442492  1
  Dy  Dy10  1  0.475160  0.249876  0.487806  1
  Dy  Dy11  1  0.972478  0.250139  0.011950  1
  Dy  Dy12  1  0.528460  0.750131  0.512633  1
  Dy  Dy13  1  0.027552  0.749858  0.988023  1
  Dy  Dy14  1  0.318154  0.250035  0.216257  1
  Dy  Dy15  1  0.811488  0.249995  0.279021  1
  Dy  Dy16  1  0.683195  0.749819  0.782291  1
  Dy  Dy17  1  0.183665  0.750148  0.717809  1
  Er  Er18  1  0.688805  0.563559  0.057357  1
  Er  Er19  1  0.190205  0.933024  0.442515  1
  Bi  Bi20  1  0.092511  0.249103  0.456372  1
  Bi  Bi21  1  0.565136  0.995068  0.325466  1
  Bi  Bi22  1  0.065467  0.504074  0.174529  1
  Bi  Bi23  1  0.434126  0.495577  0.674859  1
  Bi  Bi24  1  0.934337  0.003940  0.825578  1
  Bi  Bi25  1  0.434135  0.004462  0.674706  1
  Bi  Bi26  1  0.934313  0.496040  0.825738  1
  Bi  Bi27  1  0.565385  0.504919  0.325313  1
  Bi  Bi28  1  0.065696  0.995952  0.174677  1
  Sb  Sb29  1  0.407608  0.749645  0.958121  1
  Sb  Sb30  1  0.908479  0.750370  0.541444  1
  Sb  Sb31  1  0.593721  0.250972  0.041414  1
