# generated using pymatgen
data_Er4Tm4B24MoOs3
_symmetry_space_group_name_H-M   'P 1'
_cell_length_a   3.62581500
_cell_length_b   9.11503553
_cell_length_c   11.49901304
_cell_angle_alpha   89.90604903
_cell_angle_beta   90.00000000
_cell_angle_gamma   90.00000000
_symmetry_Int_Tables_number   1
_chemical_formula_structural   Er4Tm4B24MoOs3
_chemical_formula_sum   'Er4 Tm4 B24 Mo1 Os3'
_cell_volume   380.03534492
_cell_formula_units_Z   1
loop_
 _symmetry_equiv_pos_site_id
 _symmetry_equiv_pos_as_xyz
  1  'x, y, z'
loop_
 _atom_site_type_symbol
 _atom_site_label
 _atom_site_symmetry_multiplicity
 _atom_site_fract_x
 _atom_site_fract_y
 _atom_site_fract_z
 _atom_site_occupancy
  Er  Er0  1  0.000000  0.321551  0.413297  1
  Er  Er1  1  0.000000  0.677850  0.584643  1
  Er  Er2  1  0.000000  0.819932  0.087318  1
  Er  Er3  1  0.000000  0.178058  0.914705  1
  Tm  Tm4  1  0.000000  0.944703  0.372751  1
  Tm  Tm5  1  0.000000  0.057715  0.628308  1
  Tm  Tm6  1  0.000000  0.443121  0.126851  1
  Tm  Tm7  1  0.000000  0.556877  0.871394  1
  B  B8  1  0.500000  0.551052  0.435608  1
  B  B9  1  0.500000  0.446316  0.567823  1
  B  B10  1  0.500000  0.053318  0.066819  1
  B  B11  1  0.500000  0.946391  0.933367  1
  B  B12  1  0.500000  0.751141  0.421589  1
  B  B13  1  0.500000  0.251727  0.581099  1
  B  B14  1  0.500000  0.248708  0.080315  1
  B  B15  1  0.500000  0.751022  0.919000  1
  B  B16  1  0.500000  0.794355  0.264393  1
  B  B17  1  0.500000  0.208616  0.734722  1
  B  B18  1  0.500000  0.290785  0.233244  1
  B  B19  1  0.500000  0.709253  0.765503  1
  B  B20  1  0.500000  0.631143  0.182845  1
  B  B21  1  0.500000  0.368783  0.815310  1
  B  B22  1  0.500000  0.130775  0.314199  1
  B  B23  1  0.500000  0.869966  0.685281  1
  B  B24  1  0.500000  0.982458  0.212742  1
  B  B25  1  0.500000  0.018078  0.787960  1
  B  B26  1  0.500000  0.477847  0.286540  1
  B  B27  1  0.500000  0.517317  0.713026  1
  B  B28  1  0.500000  0.604343  0.027484  1
  B  B29  1  0.500000  0.395104  0.970296  1
  B  B30  1  0.500000  0.105357  0.471406  1
  B  B31  1  0.500000  0.897472  0.529913  1
  Mo  Mo32  1  0.000000  0.637429  0.321161  1
  Os  Os33  1  0.000000  0.361310  0.680472  1
  Os  Os34  1  0.000000  0.137364  0.177611  1
  Os  Os35  1  0.000000  0.862762  0.821007  1
