# generated using pymatgen
data_Ho4PdRh3O14
_symmetry_space_group_name_H-M   'P 1'
_cell_length_a   7.21706447
_cell_length_b   7.21706362
_cell_length_c   7.19212898
_cell_angle_alpha   59.88524998
_cell_angle_beta   59.88525024
_cell_angle_gamma   59.99999665
_symmetry_Int_Tables_number   1
_chemical_formula_structural   Ho4PdRh3O14
_chemical_formula_sum   'Ho4 Pd1 Rh3 O14'
_cell_volume   264.42842364
_cell_formula_units_Z   1
loop_
 _symmetry_equiv_pos_site_id
 _symmetry_equiv_pos_as_xyz
  1  'x, y, z'
loop_
 _atom_site_type_symbol
 _atom_site_label
 _atom_site_symmetry_multiplicity
 _atom_site_fract_x
 _atom_site_fract_y
 _atom_site_fract_z
 _atom_site_occupancy
  Ho  Ho0  1  0.625000  0.625000  0.125000  1
  Ho  Ho1  1  0.625000  0.625000  0.625000  1
  Ho  Ho2  1  0.625000  0.125000  0.625000  1
  Ho  Ho3  1  0.125000  0.625000  0.625000  1
  Pd  Pd4  1  0.125000  0.125000  0.625000  1
  Rh  Rh5  1  0.125000  0.125000  0.125000  1
  Rh  Rh6  1  0.625000  0.125000  0.125000  1
  Rh  Rh7  1  0.125000  0.625000  0.125000  1
  O  O8  1  0.034556  0.466607  0.464281  1
  O  O9  1  0.788006  0.788006  0.210519  1
  O  O10  1  0.788006  0.213468  0.210519  1
  O  O11  1  0.466607  0.034556  0.464281  1
  O  O12  1  0.749977  0.749977  0.750070  1
  O  O13  1  0.034556  0.034556  0.464281  1
  O  O14  1  0.036532  0.461994  0.039481  1
  O  O15  1  0.783393  0.215444  0.785719  1
  O  O16  1  0.213468  0.788006  0.210519  1
  O  O17  1  0.215444  0.215444  0.785719  1
  O  O18  1  0.500023  0.500023  0.499930  1
  O  O19  1  0.461994  0.036532  0.039481  1
  O  O20  1  0.461994  0.461994  0.039481  1
  O  O21  1  0.215444  0.783393  0.785719  1
