# generated using pymatgen
data_Er8Si16(MoW3)3
_symmetry_space_group_name_H-M   'P 1'
_cell_length_a   6.74497969
_cell_length_b   6.92282084
_cell_length_c   12.86903401
_cell_angle_alpha   89.97380667
_cell_angle_beta   90.02329320
_cell_angle_gamma   90.05153661
_symmetry_Int_Tables_number   1
_chemical_formula_structural   Er8Si16(MoW3)3
_chemical_formula_sum   'Er8 Si16 Mo3 W9'
_cell_volume   600.90999840
_cell_formula_units_Z   1
loop_
 _symmetry_equiv_pos_site_id
 _symmetry_equiv_pos_as_xyz
  1  'x, y, z'
loop_
 _atom_site_type_symbol
 _atom_site_label
 _atom_site_symmetry_multiplicity
 _atom_site_fract_x
 _atom_site_fract_y
 _atom_site_fract_z
 _atom_site_occupancy
  Er  Er0  1  0.496394  0.332004  0.093588  1
  Er  Er1  1  0.995983  0.168118  0.406532  1
  Er  Er2  1  0.503731  0.668153  0.593305  1
  Er  Er3  1  0.003754  0.831968  0.906341  1
  Er  Er4  1  0.503194  0.668095  0.906425  1
  Er  Er5  1  0.003243  0.831690  0.593135  1
  Er  Er6  1  0.496108  0.331974  0.406641  1
  Er  Er7  1  0.996889  0.168423  0.093495  1
  Si  Si8  1  0.661070  0.040995  0.546779  1
  Si  Si9  1  0.160698  0.459000  0.953133  1
  Si  Si10  1  0.339222  0.959206  0.047035  1
  Si  Si11  1  0.838388  0.540938  0.453660  1
  Si  Si12  1  0.337815  0.959100  0.453312  1
  Si  Si13  1  0.838958  0.541401  0.047133  1
  Si  Si14  1  0.661403  0.041227  0.952812  1
  Si  Si15  1  0.162176  0.458291  0.546839  1
  Si  Si16  1  0.534404  0.370396  0.749355  1
  Si  Si17  1  0.034574  0.129669  0.750731  1
  Si  Si18  1  0.466077  0.629249  0.249303  1
  Si  Si19  1  0.964942  0.870968  0.250007  1
  Si  Si20  1  0.801762  0.633474  0.750339  1
  Si  Si21  1  0.301635  0.866556  0.749549  1
  Si  Si22  1  0.198625  0.365986  0.250265  1
  Si  Si23  1  0.698183  0.133547  0.249873  1
  Mo  Mo24  1  0.670229  0.835775  0.124883  1
  Mo  Mo25  1  0.829468  0.336529  0.875620  1
  Mo  Mo26  1  0.330006  0.163463  0.624662  1
  W  W27  1  0.831468  0.335327  0.626338  1
  W  W28  1  0.331444  0.164988  0.873889  1
  W  W29  1  0.169433  0.664008  0.125469  1
  W  W30  1  0.668416  0.835356  0.374025  1
  W  W31  1  0.169900  0.663620  0.374755  1
  W  W32  1  0.665291  0.998712  0.749869  1
  W  W33  1  0.165205  0.501271  0.749682  1
  W  W34  1  0.334378  0.001194  0.250386  1
  W  W35  1  0.835533  0.499326  0.250836  1
