# generated using pymatgen
data_Dy14Ho2Cd4NiOs3
_symmetry_space_group_name_H-M   'P 1'
_cell_length_a   9.53843069
_cell_length_b   9.66631446
_cell_length_c   9.68531300
_cell_angle_alpha   59.93496592
_cell_angle_beta   59.48928771
_cell_angle_gamma   59.41361658
_symmetry_Int_Tables_number   1
_chemical_formula_structural   Dy14Ho2Cd4NiOs3
_chemical_formula_sum   'Dy14 Ho2 Cd4 Ni1 Os3'
_cell_volume   625.85649815
_cell_formula_units_Z   1
loop_
 _symmetry_equiv_pos_site_id
 _symmetry_equiv_pos_as_xyz
  1  'x, y, z'
loop_
 _atom_site_type_symbol
 _atom_site_label
 _atom_site_symmetry_multiplicity
 _atom_site_fract_x
 _atom_site_fract_y
 _atom_site_fract_z
 _atom_site_occupancy
  Dy  Dy0  1  0.602390  0.207251  0.595179  1
  Dy  Dy1  1  0.215352  0.595143  0.594753  1
  Dy  Dy2  1  0.059753  0.439097  0.439802  1
  Dy  Dy3  1  0.435472  0.060418  0.060970  1
  Dy  Dy4  1  0.435472  0.060418  0.443139  1
  Dy  Dy5  1  0.059753  0.439097  0.061348  1
  Dy  Dy6  1  0.436505  0.442010  0.060742  1
  Dy  Dy7  1  0.060141  0.060247  0.439806  1
  Dy  Dy8  1  0.188296  0.810192  0.810429  1
  Dy  Dy9  1  0.803764  0.189366  0.189005  1
  Dy  Dy10  1  0.803764  0.189366  0.817866  1
  Dy  Dy11  1  0.188296  0.810192  0.191084  1
  Dy  Dy12  1  0.803354  0.818173  0.189237  1
  Dy  Dy13  1  0.188394  0.190947  0.810330  1
  Ho  Ho14  1  0.601806  0.595978  0.594969  1
  Ho  Ho15  1  0.601806  0.595978  0.207246  1
  Cd  Cd16  1  0.829297  0.830052  0.831048  1
  Cd  Cd17  1  0.829297  0.830052  0.509603  1
  Cd  Cd18  1  0.829211  0.509061  0.830864  1
  Cd  Cd19  1  0.505323  0.831198  0.831740  1
  Ni  Ni20  1  0.828949  0.391422  0.389814  1
  Os  Os21  1  0.397621  0.387892  0.386081  1
  Os  Os22  1  0.397621  0.387892  0.828406  1
  Os  Os23  1  0.398363  0.828558  0.386539  1
