# generated using pymatgen
data_SmYTh7Se17
_symmetry_space_group_name_H-M   'P 1'
_cell_length_a   8.47235899
_cell_length_b   8.44584922
_cell_length_c   11.21039300
_cell_angle_alpha   80.61244885
_cell_angle_beta   80.59389366
_cell_angle_gamma   64.84094812
_symmetry_Int_Tables_number   1
_chemical_formula_structural   SmYTh7Se17
_chemical_formula_sum   'Sm1 Y1 Th7 Se17'
_cell_volume   712.36163603
_cell_formula_units_Z   1
loop_
 _symmetry_equiv_pos_site_id
 _symmetry_equiv_pos_as_xyz
  1  'x, y, z'
loop_
 _atom_site_type_symbol
 _atom_site_label
 _atom_site_symmetry_multiplicity
 _atom_site_fract_x
 _atom_site_fract_y
 _atom_site_fract_z
 _atom_site_occupancy
  Sm  Sm0  1  0.812085  0.305345  0.300842  1
  Y  Y1  1  0.996771  0.003685  0.002176  1
  Th  Th2  1  0.303559  0.812051  0.298957  1
  Th  Th3  1  0.186337  0.697263  0.699275  1
  Th  Th4  1  0.697481  0.188044  0.697878  1
  Th  Th5  1  0.206418  0.204736  0.537479  1
  Th  Th6  1  0.793673  0.793957  0.460159  1
  Th  Th7  1  0.681949  0.680329  0.981124  1
  Th  Th8  1  0.316853  0.319524  0.022217  1
  Se  Se9  1  0.823995  0.430771  0.534197  1
  Se  Se10  1  0.432689  0.819520  0.533539  1
  Se  Se11  1  0.178559  0.566384  0.466275  1
  Se  Se12  1  0.569209  0.176956  0.467638  1
  Se  Se13  1  0.943758  0.336773  0.038377  1
  Se  Se14  1  0.334354  0.943737  0.036672  1
  Se  Se15  1  0.057113  0.667028  0.960304  1
  Se  Se16  1  0.664021  0.058452  0.960376  1
  Se  Se17  1  0.211379  0.205820  0.277754  1
  Se  Se18  1  0.790386  0.790417  0.723035  1
  Se  Se19  1  0.065360  0.064536  0.762113  1
  Se  Se20  1  0.938664  0.933590  0.240497  1
  Se  Se21  1  0.304198  0.303280  0.752478  1
  Se  Se22  1  0.693064  0.699889  0.246616  1
  Se  Se23  1  0.520234  0.521914  0.831380  1
  Se  Se24  1  0.475985  0.481744  0.165060  1
  Se  Se25  1  0.001909  0.994255  0.503583  1
