# generated using pymatgen
data_Tb4Mn(NiSb4)2
_symmetry_space_group_name_H-M   'P 1'
_cell_length_a   10.45849850
_cell_length_b   10.45849916
_cell_length_c   10.45849886
_cell_angle_alpha   145.81235006
_cell_angle_beta   145.81234480
_cell_angle_gamma   49.12557229
_symmetry_Int_Tables_number   1
_chemical_formula_structural   Tb4Mn(NiSb4)2
_chemical_formula_sum   'Tb4 Mn1 Ni2 Sb8'
_cell_volume   359.56984502
_cell_formula_units_Z   1
loop_
 _symmetry_equiv_pos_site_id
 _symmetry_equiv_pos_as_xyz
  1  'x, y, z'
loop_
 _atom_site_type_symbol
 _atom_site_label
 _atom_site_symmetry_multiplicity
 _atom_site_fract_x
 _atom_site_fract_y
 _atom_site_fract_z
 _atom_site_occupancy
  Tb  Tb0  1  0.632673  0.129050  0.000000  1
  Tb  Tb1  1  0.129050  0.632673  0.000000  1
  Tb  Tb2  1  0.870950  0.870950  0.503623  1
  Tb  Tb3  1  0.367327  0.367327  0.496377  1
  Mn  Mn4  1  0.000000  0.000000  0.000000  1
  Ni  Ni5  1  0.500000  0.000000  0.500000  1
  Ni  Ni6  1  0.000000  0.500000  0.500000  1
  Sb  Sb7  1  0.249881  0.249881  0.000000  1
  Sb  Sb8  1  0.750119  0.750119  0.000000  1
  Sb  Sb9  1  0.250000  0.750000  0.500000  1
  Sb  Sb10  1  0.750000  0.250000  0.500000  1
  Sb  Sb11  1  0.330233  0.805396  0.000000  1
  Sb  Sb12  1  0.805396  0.330233  0.000000  1
  Sb  Sb13  1  0.194604  0.194604  0.524837  1
  Sb  Sb14  1  0.669767  0.669767  0.475163  1
