# generated using pymatgen
data_Tb16Cd3HgPd3Rh
_symmetry_space_group_name_H-M   'P 1'
_cell_length_a   9.72705822
_cell_length_b   9.72621269
_cell_length_c   9.72621400
_cell_angle_alpha   59.99999554
_cell_angle_beta   60.00287099
_cell_angle_gamma   60.00287374
_symmetry_Int_Tables_number   1
_chemical_formula_structural   Tb16Cd3HgPd3Rh
_chemical_formula_sum   'Tb16 Cd3 Hg1 Pd3 Rh1'
_cell_volume   650.68821329
_cell_formula_units_Z   1
loop_
 _symmetry_equiv_pos_site_id
 _symmetry_equiv_pos_as_xyz
  1  'x, y, z'
loop_
 _atom_site_type_symbol
 _atom_site_label
 _atom_site_symmetry_multiplicity
 _atom_site_fract_x
 _atom_site_fract_y
 _atom_site_fract_z
 _atom_site_occupancy
  Tb  Tb0  1  0.310044  0.896652  0.896652  1
  Tb  Tb1  1  0.682392  0.316050  0.685510  1
  Tb  Tb2  1  0.313760  0.684317  0.317606  1
  Tb  Tb3  1  0.059766  0.439846  0.439846  1
  Tb  Tb4  1  0.682392  0.316050  0.316050  1
  Tb  Tb5  1  0.442390  0.061619  0.434372  1
  Tb  Tb6  1  0.442390  0.061619  0.061619  1
  Tb  Tb7  1  0.895111  0.899875  0.899875  1
  Tb  Tb8  1  0.059766  0.439846  0.060542  1
  Tb  Tb9  1  0.895111  0.305140  0.899875  1
  Tb  Tb10  1  0.313760  0.684317  0.684317  1
  Tb  Tb11  1  0.895111  0.899875  0.305140  1
  Tb  Tb12  1  0.442390  0.434372  0.061619  1
  Tb  Tb13  1  0.313760  0.317606  0.684317  1
  Tb  Tb14  1  0.682392  0.685510  0.316050  1
  Tb  Tb15  1  0.059766  0.060542  0.439846  1
  Cd  Cd16  1  0.668129  0.995256  0.668308  1
  Cd  Cd17  1  0.668129  0.668308  0.995256  1
  Cd  Cd18  1  0.668129  0.668308  0.668308  1
  Hg  Hg19  1  0.003529  0.665491  0.665491  1
  Pd  Pd20  1  0.107312  0.105719  0.681251  1
  Pd  Pd21  1  0.107312  0.681251  0.105719  1
  Pd  Pd22  1  0.107312  0.105719  0.105719  1
  Rh  Rh23  1  0.679852  0.106716  0.106716  1
