# generated using pymatgen
data_Hf4Zr6Al12Ir5Pd2
_symmetry_space_group_name_H-M   'P 1'
_cell_length_a   8.94255232
_cell_length_b   8.94255445
_cell_length_c   8.95533500
_cell_angle_alpha   59.95270802
_cell_angle_beta   59.95270012
_cell_angle_gamma   60.09458981
_symmetry_Int_Tables_number   1
_chemical_formula_structural   Hf4Zr6Al12Ir5Pd2
_chemical_formula_sum   'Hf4 Zr6 Al12 Ir5 Pd2'
_cell_volume   506.39351755
_cell_formula_units_Z   1
loop_
 _symmetry_equiv_pos_site_id
 _symmetry_equiv_pos_as_xyz
  1  'x, y, z'
loop_
 _atom_site_type_symbol
 _atom_site_label
 _atom_site_symmetry_multiplicity
 _atom_site_fract_x
 _atom_site_fract_y
 _atom_site_fract_z
 _atom_site_occupancy
  Hf  Hf0  1  0.877382  0.877382  0.361003  1
  Hf  Hf1  1  0.884234  0.361003  0.877382  1
  Hf  Hf2  1  0.361003  0.884234  0.877382  1
  Hf  Hf3  1  0.877382  0.877382  0.884234  1
  Zr  Zr4  1  0.680119  0.680119  0.319881  1
  Zr  Zr5  1  0.309233  0.690767  0.309233  1
  Zr  Zr6  1  0.690767  0.309233  0.309233  1
  Zr  Zr7  1  0.319881  0.319881  0.680119  1
  Zr  Zr8  1  0.690767  0.309233  0.690767  1
  Zr  Zr9  1  0.309233  0.690767  0.690767  1
  Al  Al10  1  0.123136  0.123136  0.635092  1
  Al  Al11  1  0.118634  0.635092  0.123136  1
  Al  Al12  1  0.635092  0.118634  0.123136  1
  Al  Al13  1  0.123136  0.123136  0.118634  1
  Al  Al14  1  0.658793  0.658793  0.021622  1
  Al  Al15  1  0.660791  0.021622  0.658793  1
  Al  Al16  1  0.021622  0.660791  0.658793  1
  Al  Al17  1  0.658793  0.658793  0.660791  1
  Al  Al18  1  0.336253  0.336253  0.988234  1
  Al  Al19  1  0.339258  0.988234  0.336253  1
  Al  Al20  1  0.988234  0.339258  0.336253  1
  Al  Al21  1  0.336253  0.336253  0.339258  1
  Ir  Ir22  1  0.000000  0.000000  0.000000  1
  Ir  Ir23  1  0.501504  0.998496  0.501504  1
  Ir  Ir24  1  0.998496  0.501504  0.501504  1
  Ir  Ir25  1  0.998496  0.501504  0.998496  1
  Ir  Ir26  1  0.501504  0.998496  0.998496  1
  Pd  Pd27  1  0.000186  0.000186  0.499814  1
  Pd  Pd28  1  0.499814  0.499814  0.000186  1
