# generated using pymatgen
data_Hf9Cu(ReW)2
_symmetry_space_group_name_H-M   'P 1'
_cell_length_a   8.69397334
_cell_length_b   8.70681574
_cell_length_c   8.51063700
_cell_angle_alpha   90.00000000
_cell_angle_beta   90.00000000
_cell_angle_gamma   120.04966213
_symmetry_Int_Tables_number   1
_chemical_formula_structural   Hf9Cu(ReW)2
_chemical_formula_sum   'Hf18 Cu2 Re4 W4'
_cell_volume   557.63857095
_cell_formula_units_Z   2
loop_
 _symmetry_equiv_pos_site_id
 _symmetry_equiv_pos_as_xyz
  1  'x, y, z'
loop_
 _atom_site_type_symbol
 _atom_site_label
 _atom_site_symmetry_multiplicity
 _atom_site_fract_x
 _atom_site_fract_y
 _atom_site_fract_z
 _atom_site_occupancy
  Hf  Hf0  1  0.196919  0.803023  0.447768  1
  Hf  Hf1  1  0.196913  0.393888  0.447769  1
  Hf  Hf2  1  0.606087  0.803043  0.448335  1
  Hf  Hf3  1  0.803041  0.196765  0.554765  1
  Hf  Hf4  1  0.803048  0.606273  0.554760  1
  Hf  Hf5  1  0.392829  0.196417  0.554129  1
  Hf  Hf6  1  0.803041  0.196765  0.945235  1
  Hf  Hf7  1  0.803048  0.606273  0.945240  1
  Hf  Hf8  1  0.392829  0.196417  0.945871  1
  Hf  Hf9  1  0.196919  0.803023  0.052232  1
  Hf  Hf10  1  0.196913  0.393888  0.052231  1
  Hf  Hf11  1  0.606087  0.803043  0.051665  1
  Hf  Hf12  1  0.539902  0.458681  0.250000  1
  Hf  Hf13  1  0.539904  0.081228  0.250000  1
  Hf  Hf14  1  0.919428  0.459714  0.250000  1
  Hf  Hf15  1  0.458532  0.540537  0.750000  1
  Hf  Hf16  1  0.458527  0.918003  0.750000  1
  Hf  Hf17  1  0.082369  0.541181  0.750000  1
  Cu  Cu18  1  0.333057  0.666525  0.250000  1
  Cu  Cu19  1  0.665889  0.332950  0.750000  1
  Re  Re20  1  0.223830  0.111916  0.250000  1
  Re  Re21  1  0.111673  0.889174  0.750000  1
  Re  Re22  1  0.111668  0.222498  0.750000  1
  Re  Re23  1  0.777356  0.888684  0.750000  1
  W  W24  1  0.889541  0.111950  0.250000  1
  W  W25  1  0.889532  0.777583  0.250000  1
  W  W26  1  0.000559  0.000279  0.499888  1
  W  W27  1  0.000559  0.000279  0.000112  1
