# generated using pymatgen
data_Dy2Y2ReOs7
_symmetry_space_group_name_H-M   'P 1'
_cell_length_a   5.31069670
_cell_length_b   5.31069742
_cell_length_c   8.85205700
_cell_angle_alpha   90.00028287
_cell_angle_beta   89.99971512
_cell_angle_gamma   118.33132919
_symmetry_Int_Tables_number   1
_chemical_formula_structural   Dy2Y2ReOs7
_chemical_formula_sum   'Dy2 Y2 Re1 Os7'
_cell_volume   219.75435976
_cell_formula_units_Z   1
loop_
 _symmetry_equiv_pos_site_id
 _symmetry_equiv_pos_as_xyz
  1  'x, y, z'
loop_
 _atom_site_type_symbol
 _atom_site_label
 _atom_site_symmetry_multiplicity
 _atom_site_fract_x
 _atom_site_fract_y
 _atom_site_fract_z
 _atom_site_occupancy
  Dy  Dy0  1  0.665669  0.334331  0.934213  1
  Dy  Dy1  1  0.330521  0.669479  0.063798  1
  Y  Y2  1  0.330648  0.669352  0.435591  1
  Y  Y3  1  0.665808  0.334192  0.566284  1
  Re  Re4  1  0.834041  0.165959  0.249870  1
  Os  Os5  1  0.992669  0.007331  0.499872  1
  Os  Os6  1  0.992234  0.007766  0.000109  1
  Os  Os7  1  0.828028  0.649744  0.249697  1
  Os  Os8  1  0.350256  0.171972  0.249697  1
  Os  Os9  1  0.177194  0.822806  0.750318  1
  Os  Os10  1  0.171433  0.338500  0.750275  1
  Os  Os11  1  0.661500  0.828567  0.750275  1
