# generated using pymatgen
data_Y3Ho5In8
_symmetry_space_group_name_H-M   'P 1'
_cell_length_a   6.48259500
_cell_length_b   6.48259636
_cell_length_c   10.77126000
_cell_angle_alpha   90.00000000
_cell_angle_beta   90.00000000
_cell_angle_gamma   110.72174469
_symmetry_Int_Tables_number   1
_chemical_formula_structural   Y3Ho5In8
_chemical_formula_sum   'Y3 Ho5 In8'
_cell_volume   423.36979631
_cell_formula_units_Z   1
loop_
 _symmetry_equiv_pos_site_id
 _symmetry_equiv_pos_as_xyz
  1  'x, y, z'
loop_
 _atom_site_type_symbol
 _atom_site_label
 _atom_site_symmetry_multiplicity
 _atom_site_fract_x
 _atom_site_fract_y
 _atom_site_fract_z
 _atom_site_occupancy
  Y  Y0  1  0.498494  0.498494  0.750000  1
  Y  Y1  1  0.996734  0.996734  0.250000  1
  Y  Y2  1  0.003302  0.003302  0.750000  1
  Ho  Ho3  1  0.501288  0.501288  0.250000  1
  Ho  Ho4  1  0.251133  0.748908  0.499872  1
  Ho  Ho5  1  0.251133  0.748908  0.000128  1
  Ho  Ho6  1  0.748908  0.251133  0.499872  1
  Ho  Ho7  1  0.748908  0.251133  0.000128  1
  In  In8  1  0.249050  0.249050  0.001302  1
  In  In9  1  0.750987  0.750987  0.999255  1
  In  In10  1  0.249050  0.249050  0.498698  1
  In  In11  1  0.750987  0.750987  0.500745  1
  In  In12  1  0.498379  0.000999  0.250000  1
  In  In13  1  0.999001  0.501648  0.750000  1
  In  In14  1  0.501648  0.999001  0.750000  1
  In  In15  1  0.000999  0.498379  0.250000  1
