# generated using pymatgen
data_Ce2ErIn3Rh2Au
_symmetry_space_group_name_H-M   'P 1'
_cell_length_a   7.63530627
_cell_length_b   7.71125369
_cell_length_c   3.95979900
_cell_angle_alpha   90.00000000
_cell_angle_beta   90.00000000
_cell_angle_gamma   119.27669351
_symmetry_Int_Tables_number   1
_chemical_formula_structural   Ce2ErIn3Rh2Au
_chemical_formula_sum   'Ce2 Er1 In3 Rh2 Au1'
_cell_volume   203.36427781
_cell_formula_units_Z   1
loop_
 _symmetry_equiv_pos_site_id
 _symmetry_equiv_pos_as_xyz
  1  'x, y, z'
loop_
 _atom_site_type_symbol
 _atom_site_label
 _atom_site_symmetry_multiplicity
 _atom_site_fract_x
 _atom_site_fract_y
 _atom_site_fract_z
 _atom_site_occupancy
  Ce  Ce0  1  0.419098  0.396830  0.000000  1
  Ce  Ce1  1  0.606085  0.018412  0.000000  1
  Er  Er2  1  0.988105  0.589731  0.000000  1
  In  In3  1  0.753856  0.743439  0.500000  1
  In  In4  1  0.002404  0.259853  0.500000  1
  In  In5  1  0.246153  0.996065  0.500000  1
  Rh  Rh6  1  0.657115  0.326027  0.500000  1
  Rh  Rh7  1  0.993379  0.002120  0.000000  1
  Au  Au8  1  0.333807  0.667523  0.500000  1
