# generated using pymatgen
data_Dy5Si8P4Ir19
_symmetry_space_group_name_H-M   'P 1'
_cell_length_a   12.82600300
_cell_length_b   12.78703766
_cell_length_c   3.95017500
_cell_angle_alpha   90.00000000
_cell_angle_beta   90.00000000
_cell_angle_gamma   119.96531312
_symmetry_Int_Tables_number   1
_chemical_formula_structural   Dy5Si8P4Ir19
_chemical_formula_sum   'Dy5 Si8 P4 Ir19'
_cell_volume   561.25463611
_cell_formula_units_Z   1
loop_
 _symmetry_equiv_pos_site_id
 _symmetry_equiv_pos_as_xyz
  1  'x, y, z'
loop_
 _atom_site_type_symbol
 _atom_site_label
 _atom_site_symmetry_multiplicity
 _atom_site_fract_x
 _atom_site_fract_y
 _atom_site_fract_z
 _atom_site_occupancy
  Dy  Dy0  1  0.666876  0.333359  0.000000  1
  Dy  Dy1  1  0.332616  0.667434  0.000000  1
  Dy  Dy2  1  0.813887  0.813735  0.500000  1
  Dy  Dy3  1  0.185857  0.001088  0.500000  1
  Dy  Dy4  1  0.999310  0.183708  0.500000  1
  Si  Si5  1  0.685294  0.165593  0.500000  1
  Si  Si6  1  0.834239  0.519269  0.500000  1
  Si  Si7  1  0.481431  0.315190  0.500000  1
  Si  Si8  1  0.167908  0.687925  0.500000  1
  Si  Si9  1  0.518009  0.829933  0.500000  1
  Si  Si10  1  0.634844  0.634143  0.000000  1
  Si  Si11  1  0.365890  0.999674  0.000000  1
  Si  Si12  1  0.999382  0.365087  0.000000  1
  P  P13  1  0.307843  0.484095  0.500000  1
  P  P14  1  0.179022  0.180098  0.000000  1
  P  P15  1  0.820161  0.997230  0.000000  1
  P  P16  1  0.000345  0.822647  0.000000  1
  Ir  Ir17  1  0.807621  0.177887  0.000000  1
  Ir  Ir18  1  0.821610  0.628761  0.000000  1
  Ir  Ir19  1  0.370087  0.191717  0.000000  1
  Ir  Ir20  1  0.179398  0.806664  0.000000  1
  Ir  Ir21  1  0.624402  0.817539  0.000000  1
  Ir  Ir22  1  0.199386  0.379463  0.000000  1
  Ir  Ir23  1  0.455956  0.443821  0.000000  1
  Ir  Ir24  1  0.553143  0.002282  0.000000  1
  Ir  Ir25  1  0.998940  0.551251  0.000000  1
  Ir  Ir26  1  0.280154  0.284282  0.500000  1
  Ir  Ir27  1  0.720568  0.997763  0.500000  1
  Ir  Ir28  1  0.000393  0.722405  0.500000  1
  Ir  Ir29  1  0.871874  0.358060  0.500000  1
  Ir  Ir30  1  0.643291  0.514267  0.500000  1
  Ir  Ir31  1  0.486664  0.128646  0.500000  1
  Ir  Ir32  1  0.360819  0.873140  0.500000  1
  Ir  Ir33  1  0.505856  0.632818  0.500000  1
  Ir  Ir34  1  0.125954  0.487183  0.500000  1
  Ir  Ir35  1  0.000968  0.001841  0.000000  1
