# generated using pymatgen
data_CeZn2CuAu3
_symmetry_space_group_name_H-M   'P 1'
_cell_length_a   5.50920750
_cell_length_b   5.50920597
_cell_length_c   5.63118691
_cell_angle_alpha   103.02666293
_cell_angle_beta   103.02665593
_cell_angle_gamma   122.62985372
_symmetry_Int_Tables_number   1
_chemical_formula_structural   CeZn2CuAu3
_chemical_formula_sum   'Ce1 Zn2 Cu1 Au3'
_cell_volume   127.08100962
_cell_formula_units_Z   1
loop_
 _symmetry_equiv_pos_site_id
 _symmetry_equiv_pos_as_xyz
  1  'x, y, z'
loop_
 _atom_site_type_symbol
 _atom_site_label
 _atom_site_symmetry_multiplicity
 _atom_site_fract_x
 _atom_site_fract_y
 _atom_site_fract_z
 _atom_site_occupancy
  Ce  Ce0  1  0.006568  0.006568  0.013135  1
  Zn  Zn1  1  0.249824  0.749824  0.499648  1
  Zn  Zn2  1  0.749824  0.249824  0.499648  1
  Cu  Cu3  1  0.299230  0.299230  0.598460  1
  Au  Au4  1  0.710411  0.710411  0.420823  1
  Au  Au5  1  0.678661  0.305482  0.984143  1
  Au  Au6  1  0.305482  0.678661  0.984143  1
