# generated using pymatgen
data_CeTh3(P2O9)2
_symmetry_space_group_name_H-M   'P 1'
_cell_length_a   5.86781439
_cell_length_b   5.86781368
_cell_length_c   12.94421096
_cell_angle_alpha   90.17709890
_cell_angle_beta   89.82290202
_cell_angle_gamma   103.80455072
_symmetry_Int_Tables_number   1
_chemical_formula_structural   CeTh3(P2O9)2
_chemical_formula_sum   'Ce1 Th3 P4 O18'
_cell_volume   432.80844431
_cell_formula_units_Z   1
loop_
 _symmetry_equiv_pos_site_id
 _symmetry_equiv_pos_as_xyz
  1  'x, y, z'
loop_
 _atom_site_type_symbol
 _atom_site_label
 _atom_site_symmetry_multiplicity
 _atom_site_fract_x
 _atom_site_fract_y
 _atom_site_fract_z
 _atom_site_occupancy
  Ce  Ce0  1  0.293070  0.706930  0.572652  1
  Th  Th1  1  0.707950  0.292050  0.429852  1
  Th  Th2  1  0.207559  0.792441  0.072601  1
  Th  Th3  1  0.792278  0.207722  0.926521  1
  P  P4  1  0.388048  0.611952  0.856638  1
  P  P5  1  0.110900  0.889100  0.360355  1
  P  P6  1  0.611533  0.388467  0.142454  1
  P  P7  1  0.892033  0.107967  0.639629  1
  O  O8  1  0.056707  0.943293  0.621804  1
  O  O9  1  0.985673  0.349238  0.583235  1
  O  O10  1  0.146210  0.853790  0.244821  1
  O  O11  1  0.483269  0.852008  0.914084  1
  O  O12  1  0.650762  0.014327  0.583235  1
  O  O13  1  0.447524  0.552476  0.125532  1
  O  O14  1  0.851785  0.483624  0.085397  1
  O  O15  1  0.646840  0.353160  0.258007  1
  O  O16  1  0.946039  0.053961  0.377019  1
  O  O17  1  0.351134  0.986338  0.416464  1
  O  O18  1  0.352581  0.647419  0.741301  1
  O  O19  1  0.516376  0.148215  0.085397  1
  O  O20  1  0.552161  0.447839  0.873955  1
  O  O21  1  0.490725  0.509275  0.503039  1
  O  O22  1  0.857645  0.142355  0.755284  1
  O  O23  1  0.147992  0.516731  0.914084  1
  O  O24  1  0.013662  0.648866  0.416464  1
  O  O25  1  0.999544  0.000456  0.000176  1
