# generated using pymatgen
data_Cs12K3Rb3(AlSb4)2
_symmetry_space_group_name_H-M   'P 1'
_cell_length_a   11.18393455
_cell_length_b   11.24366035
_cell_length_c   11.82281400
_cell_angle_alpha   90.00000000
_cell_angle_beta   90.00000000
_cell_angle_gamma   119.42470931
_symmetry_Int_Tables_number   1
_chemical_formula_structural   Cs12K3Rb3(AlSb4)2
_chemical_formula_sum   'Cs12 K3 Rb3 Al2 Sb8'
_cell_volume   1294.91826301
_cell_formula_units_Z   1
loop_
 _symmetry_equiv_pos_site_id
 _symmetry_equiv_pos_as_xyz
  1  'x, y, z'
loop_
 _atom_site_type_symbol
 _atom_site_label
 _atom_site_symmetry_multiplicity
 _atom_site_fract_x
 _atom_site_fract_y
 _atom_site_fract_z
 _atom_site_occupancy
  Cs  Cs0  1  0.208729  0.417377  0.545683  1
  Cs  Cs1  1  0.791344  0.581941  0.044994  1
  Cs  Cs2  1  0.582040  0.791369  0.545103  1
  Cs  Cs3  1  0.208896  0.791851  0.543910  1
  Cs  Cs4  1  0.791197  0.208842  0.043246  1
  Cs  Cs5  1  0.417108  0.208184  0.043878  1
  Cs  Cs6  1  0.791344  0.581941  0.455007  1
  Cs  Cs7  1  0.791197  0.208842  0.456753  1
  Cs  Cs8  1  0.417108  0.208184  0.456123  1
  Cs  Cs9  1  0.582040  0.791369  0.954897  1
  Cs  Cs10  1  0.208896  0.791851  0.956091  1
  Cs  Cs11  1  0.208729  0.417377  0.954317  1
  K  K12  1  0.120623  0.879726  0.250001  1
  K  K13  1  0.880702  0.120491  0.750000  1
  K  K14  1  0.240378  0.120485  0.750000  1
  Rb  Rb15  1  0.119648  0.238812  0.250001  1
  Rb  Rb16  1  0.881001  0.761785  0.750000  1
  Rb  Rb17  1  0.762079  0.880840  0.250001  1
  Al  Al18  1  0.333122  0.667231  0.250001  1
  Al  Al19  1  0.666509  0.332587  0.750000  1
  Sb  Sb20  1  0.002557  0.001381  0.997560  1
  Sb  Sb21  1  0.002557  0.001381  0.502439  1
  Sb  Sb22  1  0.472586  0.528681  0.250001  1
  Sb  Sb23  1  0.523864  0.467702  0.750000  1
  Sb  Sb24  1  0.466992  0.942418  0.250001  1
  Sb  Sb25  1  0.056553  0.533092  0.250001  1
  Sb  Sb26  1  0.942772  0.466585  0.750000  1
  Sb  Sb27  1  0.529427  0.057676  0.750000  1
