# generated using pymatgen
data_Ce4AlB4Rh9
_symmetry_space_group_name_H-M   'P 1'
_cell_length_a   5.59071600
_cell_length_b   5.59071797
_cell_length_c   20.76187900
_cell_angle_alpha   90.00000000
_cell_angle_beta   90.00000000
_cell_angle_gamma   119.99667495
_symmetry_Int_Tables_number   1
_chemical_formula_structural   Ce4AlB4Rh9
_chemical_formula_sum   'Ce8 Al2 B8 Rh18'
_cell_volume   562.01363617
_cell_formula_units_Z   2
loop_
 _symmetry_equiv_pos_site_id
 _symmetry_equiv_pos_as_xyz
  1  'x, y, z'
loop_
 _atom_site_type_symbol
 _atom_site_label
 _atom_site_symmetry_multiplicity
 _atom_site_fract_x
 _atom_site_fract_y
 _atom_site_fract_z
 _atom_site_occupancy
  Ce  Ce0  1  0.666669  0.333331  0.526162  1
  Ce  Ce1  1  0.333331  0.666669  0.473838  1
  Ce  Ce2  1  0.333331  0.666669  0.026162  1
  Ce  Ce3  1  0.666669  0.333331  0.973838  1
  Ce  Ce4  1  0.666742  0.333258  0.673537  1
  Ce  Ce5  1  0.333258  0.666742  0.326463  1
  Ce  Ce6  1  0.333258  0.666742  0.173537  1
  Ce  Ce7  1  0.666742  0.333258  0.826463  1
  Al  Al8  1  0.000000  0.000000  0.500000  1
  Al  Al9  1  0.000000  0.000000  0.000000  1
  B  B10  1  0.000064  0.999936  0.674266  1
  B  B11  1  0.999936  0.000064  0.325734  1
  B  B12  1  0.999936  0.000064  0.174266  1
  B  B13  1  0.000064  0.999936  0.825734  1
  B  B14  1  0.666596  0.333404  0.326595  1
  B  B15  1  0.333404  0.666596  0.673405  1
  B  B16  1  0.333404  0.666596  0.826595  1
  B  B17  1  0.666596  0.333404  0.173405  1
  Rh  Rh18  1  0.167111  0.333990  0.750000  1
  Rh  Rh19  1  0.167107  0.832893  0.750000  1
  Rh  Rh20  1  0.666010  0.832889  0.750000  1
  Rh  Rh21  1  0.832889  0.666010  0.250000  1
  Rh  Rh22  1  0.832893  0.167107  0.250000  1
  Rh  Rh23  1  0.333990  0.167111  0.250000  1
  Rh  Rh24  1  0.166202  0.332217  0.604409  1
  Rh  Rh25  1  0.166202  0.833798  0.604403  1
  Rh  Rh26  1  0.667783  0.833798  0.604409  1
  Rh  Rh27  1  0.833798  0.667783  0.395591  1
  Rh  Rh28  1  0.833798  0.166202  0.395597  1
  Rh  Rh29  1  0.332217  0.166202  0.395591  1
  Rh  Rh30  1  0.833798  0.667783  0.104409  1
  Rh  Rh31  1  0.833798  0.166202  0.104403  1
  Rh  Rh32  1  0.332217  0.166202  0.104409  1
  Rh  Rh33  1  0.166202  0.332217  0.895591  1
  Rh  Rh34  1  0.166202  0.833798  0.895597  1
  Rh  Rh35  1  0.667783  0.833798  0.895591  1
