# generated using pymatgen
data_LuCo3Bi5O18
_symmetry_space_group_name_H-M   'P 1'
_cell_length_a   8.87934240
_cell_length_b   8.87223037
_cell_length_c   4.95071355
_cell_angle_alpha   89.99999856
_cell_angle_beta   89.85148925
_cell_angle_gamma   119.97350831
_symmetry_Int_Tables_number   1
_chemical_formula_structural   LuCo3Bi5O18
_chemical_formula_sum   'Lu1 Co3 Bi5 O18'
_cell_volume   337.85159307
_cell_formula_units_Z   1
loop_
 _symmetry_equiv_pos_site_id
 _symmetry_equiv_pos_as_xyz
  1  'x, y, z'
loop_
 _atom_site_type_symbol
 _atom_site_label
 _atom_site_symmetry_multiplicity
 _atom_site_fract_x
 _atom_site_fract_y
 _atom_site_fract_z
 _atom_site_occupancy
  Lu  Lu0  1  0.000000  0.376216  0.500000  1
  Co  Co1  1  0.000000  0.997393  0.500000  1
  Co  Co2  1  0.336019  0.669105  0.995716  1
  Co  Co3  1  0.663981  0.333085  0.004284  1
  Bi  Bi4  1  0.284122  0.292321  0.998879  1
  Bi  Bi5  1  0.000000  0.697475  0.000000  1
  Bi  Bi6  1  0.627624  0.628006  0.495865  1
  Bi  Bi7  1  0.372376  0.000382  0.504135  1
  Bi  Bi8  1  0.715878  0.008200  0.001121  1
  O  O9  1  0.080504  0.201520  0.712996  1
  O  O10  1  0.228237  0.465396  0.216366  1
  O  O11  1  0.135476  0.592212  0.778319  1
  O  O12  1  0.404924  0.539509  0.768003  1
  O  O13  1  0.235800  0.769521  0.226826  1
  O  O14  1  0.118198  0.916667  0.722511  1
  O  O15  1  0.540753  0.769044  0.217191  1
  O  O16  1  0.201044  0.079725  0.281634  1
  O  O17  1  0.465884  0.870724  0.776019  1
  O  O18  1  0.798956  0.878682  0.718366  1
  O  O19  1  0.459247  0.228291  0.782809  1
  O  O20  1  0.595076  0.134585  0.231997  1
  O  O21  1  0.534116  0.404840  0.223981  1
  O  O22  1  0.771763  0.237159  0.783634  1
  O  O23  1  0.919496  0.121015  0.287004  1
  O  O24  1  0.764200  0.533721  0.773174  1
  O  O25  1  0.864524  0.456736  0.221681  1
  O  O26  1  0.881802  0.798469  0.277489  1
