# generated using pymatgen
data_Ta3Nb9Ga8(CuC)4
_symmetry_space_group_name_H-M   'P 1'
_cell_length_a   8.30143515
_cell_length_b   8.30430736
_cell_length_c   8.30981418
_cell_angle_alpha   59.96994668
_cell_angle_beta   59.98488472
_cell_angle_gamma   59.94531454
_symmetry_Int_Tables_number   1
_chemical_formula_structural   Ta3Nb9Ga8(CuC)4
_chemical_formula_sum   'Ta3 Nb9 Ga8 Cu4 C4'
_cell_volume   404.76678956
_cell_formula_units_Z   1
loop_
 _symmetry_equiv_pos_site_id
 _symmetry_equiv_pos_as_xyz
  1  'x, y, z'
loop_
 _atom_site_type_symbol
 _atom_site_label
 _atom_site_symmetry_multiplicity
 _atom_site_fract_x
 _atom_site_fract_y
 _atom_site_fract_z
 _atom_site_occupancy
  Ta  Ta0  1  0.933302  0.933195  0.567070  1
  Ta  Ta1  1  0.682889  0.317343  0.682886  1
  Ta  Ta2  1  0.932225  0.567933  0.932420  1
  Nb  Nb3  1  0.567406  0.933265  0.566258  1
  Nb  Nb4  1  0.315581  0.684517  0.685135  1
  Nb  Nb5  1  0.685418  0.315081  0.314844  1
  Nb  Nb6  1  0.316622  0.683910  0.316059  1
  Nb  Nb7  1  0.684246  0.683818  0.316065  1
  Nb  Nb8  1  0.317093  0.316741  0.683715  1
  Nb  Nb9  1  0.565397  0.564395  0.935341  1
  Nb  Nb10  1  0.933990  0.565957  0.566112  1
  Nb  Nb11  1  0.566282  0.934264  0.934684  1
  Ga  Ga12  1  0.915064  0.914960  0.915702  1
  Ga  Ga13  1  0.995496  0.335352  0.334491  1
  Ga  Ga14  1  0.335377  0.995251  0.335065  1
  Ga  Ga15  1  0.334626  0.334588  0.995597  1
  Ga  Ga16  1  0.915978  0.254519  0.914871  1
  Ga  Ga17  1  0.915574  0.914754  0.254444  1
  Ga  Ga18  1  0.255129  0.915460  0.914868  1
  Ga  Ga19  1  0.334882  0.334450  0.335671  1
  Cu  Cu20  1  0.122318  0.126009  0.127300  1
  Cu  Cu21  1  0.626266  0.126237  0.121731  1
  Cu  Cu22  1  0.124591  0.624116  0.123475  1
  Cu  Cu23  1  0.121008  0.124753  0.624966  1
  C  C24  1  0.625451  0.623423  0.625762  1
  C  C25  1  0.123640  0.626339  0.626180  1
  C  C26  1  0.627427  0.124903  0.625042  1
  C  C27  1  0.626722  0.624471  0.124244  1
