# generated using pymatgen
data_Th4Ga24PdRh
_symmetry_space_group_name_H-M   'P 1'
_cell_length_a   6.15589400
_cell_length_b   6.15589400
_cell_length_c   15.51112900
_cell_angle_alpha   90.00000000
_cell_angle_beta   90.00000000
_cell_angle_gamma   90.00000000
_symmetry_Int_Tables_number   1
_chemical_formula_structural   Th4Ga24PdRh
_chemical_formula_sum   'Th4 Ga24 Pd1 Rh1'
_cell_volume   587.79471336
_cell_formula_units_Z   1
loop_
 _symmetry_equiv_pos_site_id
 _symmetry_equiv_pos_as_xyz
  1  'x, y, z'
loop_
 _atom_site_type_symbol
 _atom_site_label
 _atom_site_symmetry_multiplicity
 _atom_site_fract_x
 _atom_site_fract_y
 _atom_site_fract_z
 _atom_site_occupancy
  Th  Th0  1  0.750000  0.250000  0.244757  1
  Th  Th1  1  0.250000  0.750000  0.242581  1
  Th  Th2  1  0.250000  0.750000  0.757419  1
  Th  Th3  1  0.750000  0.250000  0.755243  1
  Ga  Ga4  1  0.250000  0.250000  0.187945  1
  Ga  Ga5  1  0.750000  0.750000  0.187945  1
  Ga  Ga6  1  0.750000  0.750000  0.812055  1
  Ga  Ga7  1  0.250000  0.250000  0.812055  1
  Ga  Ga8  1  0.250000  0.250000  0.345841  1
  Ga  Ga9  1  0.750000  0.750000  0.345841  1
  Ga  Ga10  1  0.750000  0.750000  0.654159  1
  Ga  Ga11  1  0.250000  0.250000  0.654159  1
  Ga  Ga12  1  0.502983  0.002983  0.911585  1
  Ga  Ga13  1  0.997691  0.002309  0.911724  1
  Ga  Ga14  1  0.502309  0.497691  0.911724  1
  Ga  Ga15  1  0.997017  0.497017  0.911585  1
  Ga  Ga16  1  0.502309  0.002309  0.088276  1
  Ga  Ga17  1  0.997017  0.002983  0.088415  1
  Ga  Ga18  1  0.502983  0.497017  0.088415  1
  Ga  Ga19  1  0.997691  0.497691  0.088276  1
  Ga  Ga20  1  0.582477  0.082477  0.430992  1
  Ga  Ga21  1  0.083439  0.916561  0.430455  1
  Ga  Ga22  1  0.416561  0.583439  0.430455  1
  Ga  Ga23  1  0.917523  0.417523  0.430992  1
  Ga  Ga24  1  0.416561  0.916561  0.569545  1
  Ga  Ga25  1  0.917523  0.082477  0.569008  1
  Ga  Ga26  1  0.582477  0.417523  0.569008  1
  Ga  Ga27  1  0.083439  0.583439  0.569545  1
  Pd  Pd28  1  0.250000  0.750000  0.000000  1
  Rh  Rh29  1  0.750000  0.250000  0.000000  1
