# generated using pymatgen
data_Tm3Sc5S12
_symmetry_space_group_name_H-M   'P 1'
_cell_length_a   12.33600549
_cell_length_b   11.75945252
_cell_length_c   6.57772900
_cell_angle_alpha   79.05435696
_cell_angle_beta   69.37740452
_cell_angle_gamma   31.50853795
_symmetry_Int_Tables_number   1
_chemical_formula_structural   Tm3Sc5S12
_chemical_formula_sum   'Tm3 Sc5 S12'
_cell_volume   454.68732263
_cell_formula_units_Z   1
loop_
 _symmetry_equiv_pos_site_id
 _symmetry_equiv_pos_as_xyz
  1  'x, y, z'
loop_
 _atom_site_type_symbol
 _atom_site_label
 _atom_site_symmetry_multiplicity
 _atom_site_fract_x
 _atom_site_fract_y
 _atom_site_fract_z
 _atom_site_occupancy
  Tm  Tm0  1  0.503795  0.503795  0.996205  1
  Tm  Tm1  1  0.254201  0.254201  0.745799  1
  Tm  Tm2  1  0.745961  0.745961  0.254039  1
  Sc  Sc3  1  0.996689  0.996689  0.503311  1
  Sc  Sc4  1  0.335103  0.335103  0.164897  1
  Sc  Sc5  1  0.165550  0.165550  0.334450  1
  Sc  Sc6  1  0.917219  0.917219  0.082781  1
  Sc  Sc7  1  0.083023  0.083023  0.916977  1
  S  S8  1  0.017094  0.483100  0.482789  1
  S  S9  1  0.483100  0.017094  0.017016  1
  S  S10  1  0.231495  0.768527  0.760756  1
  S  S11  1  0.768527  0.231495  0.239222  1
  S  S12  1  0.672089  0.164402  0.844877  1
  S  S13  1  0.855499  0.306256  0.660456  1
  S  S14  1  0.306256  0.855499  0.177789  1
  S  S15  1  0.164402  0.672089  0.318632  1
  S  S16  1  0.584316  0.083656  0.395762  1
  S  S17  1  0.397163  0.934861  0.585844  1
  S  S18  1  0.934861  0.397163  0.082131  1
  S  S19  1  0.083656  0.584316  0.936268  1
