# generated using pymatgen
data_Tb8BeCdPd23
_symmetry_space_group_name_H-M   'P 1'
_cell_length_a   8.32329800
_cell_length_b   8.42366900
_cell_length_c   8.42508300
_cell_angle_alpha   90.00000000
_cell_angle_beta   90.00000000
_cell_angle_gamma   90.00000000
_symmetry_Int_Tables_number   1
_chemical_formula_structural   Tb8BeCdPd23
_chemical_formula_sum   'Tb8 Be1 Cd1 Pd23'
_cell_volume   590.70537870
_cell_formula_units_Z   1
loop_
 _symmetry_equiv_pos_site_id
 _symmetry_equiv_pos_as_xyz
  1  'x, y, z'
loop_
 _atom_site_type_symbol
 _atom_site_label
 _atom_site_symmetry_multiplicity
 _atom_site_fract_x
 _atom_site_fract_y
 _atom_site_fract_z
 _atom_site_occupancy
  Tb  Tb0  1  0.251056  0.241739  0.261727  1
  Tb  Tb1  1  0.748387  0.747345  0.749554  1
  Tb  Tb2  1  0.748387  0.747345  0.250446  1
  Tb  Tb3  1  0.748387  0.252655  0.749554  1
  Tb  Tb4  1  0.251056  0.241739  0.738273  1
  Tb  Tb5  1  0.251056  0.758261  0.261727  1
  Tb  Tb6  1  0.251056  0.758261  0.738273  1
  Tb  Tb7  1  0.748387  0.252655  0.250446  1
  Be  Be8  1  0.998686  0.000000  0.000000  1
  Cd  Cd9  1  0.258676  0.500000  0.000000  1
  Pd  Pd10  1  0.745866  0.500000  0.000000  1
  Pd  Pd11  1  0.997333  0.255120  0.500000  1
  Pd  Pd12  1  0.496656  0.253527  0.000000  1
  Pd  Pd13  1  0.997333  0.744880  0.500000  1
  Pd  Pd14  1  0.496656  0.746473  0.000000  1
  Pd  Pd15  1  0.501875  0.000000  0.254734  1
  Pd  Pd16  1  0.254253  0.000000  0.500000  1
  Pd  Pd17  1  0.501875  0.000000  0.745266  1
  Pd  Pd18  1  0.744750  0.000000  0.500000  1
  Pd  Pd19  1  0.003907  0.500000  0.255313  1
  Pd  Pd20  1  0.003907  0.500000  0.744687  1
  Pd  Pd21  1  0.251360  0.500000  0.500000  1
  Pd  Pd22  1  0.749028  0.500000  0.500000  1
  Pd  Pd23  1  0.502194  0.252956  0.500000  1
  Pd  Pd24  1  0.502194  0.747044  0.500000  1
  Pd  Pd25  1  0.496679  0.500000  0.254459  1
  Pd  Pd26  1  0.496679  0.500000  0.745541  1
  Pd  Pd27  1  0.268546  0.000000  0.000000  1
  Pd  Pd28  1  0.730256  0.000000  0.000000  1
  Pd  Pd29  1  0.004927  0.268054  0.000000  1
  Pd  Pd30  1  0.004927  0.731946  0.000000  1
  Pd  Pd31  1  0.996832  0.000000  0.268839  1
  Pd  Pd32  1  0.996832  0.000000  0.731161  1
