# generated using pymatgen
data_Tb5Y7Co5Hg
_symmetry_space_group_name_H-M   'P 1'
_cell_length_a   8.30243991
_cell_length_b   8.30057302
_cell_length_c   8.30244076
_cell_angle_alpha   110.57496377
_cell_angle_beta   109.96933382
_cell_angle_gamma   107.89047808
_symmetry_Int_Tables_number   1
_chemical_formula_structural   Tb5Y7Co5Hg
_chemical_formula_sum   'Tb5 Y7 Co5 Hg1'
_cell_volume   440.13793979
_cell_formula_units_Z   1
loop_
 _symmetry_equiv_pos_site_id
 _symmetry_equiv_pos_as_xyz
  1  'x, y, z'
loop_
 _atom_site_type_symbol
 _atom_site_label
 _atom_site_symmetry_multiplicity
 _atom_site_fract_x
 _atom_site_fract_y
 _atom_site_fract_z
 _atom_site_occupancy
  Tb  Tb0  1  0.316860  0.012893  0.696032  1
  Tb  Tb1  1  0.598926  0.791552  0.807257  1
  Tb  Tb2  1  0.400908  0.208024  0.192577  1
  Tb  Tb3  1  0.984295  0.791552  0.192624  1
  Tb  Tb4  1  0.015447  0.208024  0.807118  1
  Y  Y5  1  0.815783  0.707915  0.523724  1
  Y  Y6  1  0.184275  0.292084  0.476266  1
  Y  Y7  1  0.184192  0.707915  0.892135  1
  Y  Y8  1  0.815817  0.292084  0.107806  1
  Y  Y9  1  0.683355  0.380126  0.696771  1
  Y  Y10  1  0.317065  0.619715  0.302650  1
  Y  Y11  1  0.683002  0.986254  0.303252  1
  Co  Co12  1  0.621807  0.000073  0.622650  1
  Co  Co13  1  0.377423  0.000073  0.378266  1
  Co  Co14  1  0.113355  0.613941  0.500586  1
  Co  Co15  1  0.887401  0.387258  0.499856  1
  Co  Co16  1  0.999988  0.000084  0.000096  1
  Hg  Hg17  1  0.500101  0.500433  0.000332  1
