# generated using pymatgen
data_Nb12Zn7AuN4
_symmetry_space_group_name_H-M   'P 1'
_cell_length_a   7.05350267
_cell_length_b   7.05350305
_cell_length_c   7.05350330
_cell_angle_alpha   89.91738354
_cell_angle_beta   89.91738645
_cell_angle_gamma   89.91738031
_symmetry_Int_Tables_number   1
_chemical_formula_structural   Nb12Zn7AuN4
_chemical_formula_sum   'Nb12 Zn7 Au1 N4'
_cell_volume   350.92411577
_cell_formula_units_Z   1
loop_
 _symmetry_equiv_pos_site_id
 _symmetry_equiv_pos_as_xyz
  1  'x, y, z'
loop_
 _atom_site_type_symbol
 _atom_site_label
 _atom_site_symmetry_multiplicity
 _atom_site_fract_x
 _atom_site_fract_y
 _atom_site_fract_z
 _atom_site_occupancy
  Nb  Nb0  1  0.792545  0.959067  0.374907  1
  Nb  Nb1  1  0.706898  0.039712  0.873013  1
  Nb  Nb2  1  0.209683  0.460497  0.124612  1
  Nb  Nb3  1  0.290996  0.541585  0.624869  1
  Nb  Nb4  1  0.959067  0.374907  0.792545  1
  Nb  Nb5  1  0.039712  0.873013  0.706898  1
  Nb  Nb6  1  0.460497  0.124612  0.209683  1
  Nb  Nb7  1  0.541585  0.624869  0.290996  1
  Nb  Nb8  1  0.374907  0.792545  0.959067  1
  Nb  Nb9  1  0.873013  0.706898  0.039712  1
  Nb  Nb10  1  0.124612  0.209683  0.460497  1
  Nb  Nb11  1  0.624869  0.290996  0.541585  1
  Zn  Zn12  1  0.180023  0.817667  0.326026  1
  Zn  Zn13  1  0.326026  0.180023  0.817667  1
  Zn  Zn14  1  0.817667  0.326026  0.180023  1
  Zn  Zn15  1  0.678386  0.678386  0.678386  1
  Zn  Zn16  1  0.571682  0.428675  0.927839  1
  Zn  Zn17  1  0.428675  0.927839  0.571682  1
  Zn  Zn18  1  0.927839  0.571682  0.428675  1
  Au  Au19  1  0.070973  0.070973  0.070973  1
  N  N20  1  0.875442  0.124716  0.625597  1
  N  N21  1  0.625597  0.875442  0.124716  1
  N  N22  1  0.124716  0.625597  0.875442  1
  N  N23  1  0.374587  0.374587  0.374587  1
