# generated using pymatgen
data_Dy9Th3Tc4
_symmetry_space_group_name_H-M   'P 1'
_cell_length_a   6.38468398
_cell_length_b   7.37851855
_cell_length_c   9.41922100
_cell_angle_alpha   90.00000000
_cell_angle_beta   90.00000000
_cell_angle_gamma   90.33778594
_symmetry_Int_Tables_number   1
_chemical_formula_structural   Dy9Th3Tc4
_chemical_formula_sum   'Dy9 Th3 Tc4'
_cell_volume   443.72716663
_cell_formula_units_Z   1
loop_
 _symmetry_equiv_pos_site_id
 _symmetry_equiv_pos_as_xyz
  1  'x, y, z'
loop_
 _atom_site_type_symbol
 _atom_site_label
 _atom_site_symmetry_multiplicity
 _atom_site_fract_x
 _atom_site_fract_y
 _atom_site_fract_z
 _atom_site_occupancy
  Dy  Dy0  1  0.334271  0.676376  0.065065  1
  Dy  Dy1  1  0.166649  0.173088  0.435092  1
  Dy  Dy2  1  0.666150  0.324998  0.568622  1
  Dy  Dy3  1  0.832647  0.825783  0.931443  1
  Dy  Dy4  1  0.666150  0.324998  0.931378  1
  Dy  Dy5  1  0.832647  0.825783  0.568557  1
  Dy  Dy6  1  0.334271  0.676376  0.434935  1
  Dy  Dy7  1  0.166649  0.173088  0.064908  1
  Dy  Dy8  1  0.368004  0.956426  0.750000  1
  Th  Th9  1  0.857381  0.550734  0.250000  1
  Th  Th10  1  0.641756  0.050988  0.250000  1
  Th  Th11  1  0.142123  0.451139  0.750000  1
  Tc  Tc12  1  0.013341  0.873505  0.250000  1
  Tc  Tc13  1  0.485520  0.372891  0.250000  1
  Tc  Tc14  1  0.979811  0.129866  0.750000  1
  Tc  Tc15  1  0.512629  0.613962  0.750000  1
