# generated using pymatgen
data_Th10Sn5BiSe2
_symmetry_space_group_name_H-M   'P 1'
_cell_length_a   9.54558679
_cell_length_b   9.54558626
_cell_length_c   6.65800100
_cell_angle_alpha   90.00000000
_cell_angle_beta   90.00000000
_cell_angle_gamma   120.22121963
_symmetry_Int_Tables_number   1
_chemical_formula_structural   Th10Sn5BiSe2
_chemical_formula_sum   'Th10 Sn5 Bi1 Se2'
_cell_volume   524.21240332
_cell_formula_units_Z   1
loop_
 _symmetry_equiv_pos_site_id
 _symmetry_equiv_pos_as_xyz
  1  'x, y, z'
loop_
 _atom_site_type_symbol
 _atom_site_label
 _atom_site_symmetry_multiplicity
 _atom_site_fract_x
 _atom_site_fract_y
 _atom_site_fract_z
 _atom_site_occupancy
  Th  Th0  1  0.004331  0.735862  0.750000  1
  Th  Th1  1  0.261633  0.261633  0.750000  1
  Th  Th2  1  0.331219  0.667446  0.497551  1
  Th  Th3  1  0.667446  0.331219  0.497551  1
  Th  Th4  1  0.736817  0.736817  0.250000  1
  Th  Th5  1  0.735862  0.004331  0.750000  1
  Th  Th6  1  0.999783  0.265076  0.250000  1
  Th  Th7  1  0.265076  0.999783  0.250000  1
  Th  Th8  1  0.331219  0.667446  0.002449  1
  Th  Th9  1  0.667446  0.331219  0.002449  1
  Sn  Sn10  1  0.000216  0.388483  0.750000  1
  Sn  Sn11  1  0.388483  0.000216  0.750000  1
  Sn  Sn12  1  0.612293  0.000387  0.250000  1
  Sn  Sn13  1  0.387133  0.387133  0.250000  1
  Sn  Sn14  1  0.000387  0.612293  0.250000  1
  Bi  Bi15  1  0.611617  0.611617  0.750000  1
  Se  Se16  1  0.999519  0.999519  0.999837  1
  Se  Se17  1  0.999519  0.999519  0.500163  1
