# generated using pymatgen
data_LaDy2TaO7
_symmetry_space_group_name_H-M   'P 1'
_cell_length_a   6.54232748
_cell_length_b   6.54232780
_cell_length_c   7.61774800
_cell_angle_alpha   90.00000000
_cell_angle_beta   90.00000000
_cell_angle_gamma   109.82787791
_symmetry_Int_Tables_number   1
_chemical_formula_structural   LaDy2TaO7
_chemical_formula_sum   'La2 Dy4 Ta2 O14'
_cell_volume   306.72532768
_cell_formula_units_Z   2
loop_
 _symmetry_equiv_pos_site_id
 _symmetry_equiv_pos_as_xyz
  1  'x, y, z'
loop_
 _atom_site_type_symbol
 _atom_site_label
 _atom_site_symmetry_multiplicity
 _atom_site_fract_x
 _atom_site_fract_y
 _atom_site_fract_z
 _atom_site_occupancy
  La  La0  1  0.000000  0.000000  0.000000  1
  La  La1  1  0.000000  0.000000  0.500000  1
  Dy  Dy2  1  0.515520  0.053486  0.250000  1
  Dy  Dy3  1  0.946514  0.484480  0.750000  1
  Dy  Dy4  1  0.053486  0.515520  0.250000  1
  Dy  Dy5  1  0.484480  0.946514  0.750000  1
  Ta  Ta6  1  0.500000  0.500000  0.000000  1
  Ta  Ta7  1  0.500000  0.500000  0.500000  1
  O  O8  1  0.879782  0.160480  0.250000  1
  O  O9  1  0.839520  0.120218  0.750000  1
  O  O10  1  0.818776  0.558404  0.034178  1
  O  O11  1  0.818776  0.558404  0.465822  1
  O  O12  1  0.441596  0.181224  0.965822  1
  O  O13  1  0.441596  0.181224  0.534178  1
  O  O14  1  0.574464  0.574464  0.750000  1
  O  O15  1  0.425536  0.425536  0.250000  1
  O  O16  1  0.558404  0.818776  0.034178  1
  O  O17  1  0.181224  0.441596  0.534178  1
  O  O18  1  0.558404  0.818776  0.465822  1
  O  O19  1  0.181224  0.441596  0.965822  1
  O  O20  1  0.120218  0.839520  0.750000  1
  O  O21  1  0.160480  0.879782  0.250000  1
