# generated using pymatgen
data_Th14ReTcIr4
_symmetry_space_group_name_H-M   'P 1'
_cell_length_a   10.04305929
_cell_length_b   10.10472509
_cell_length_c   6.33949834
_cell_angle_alpha   89.81218767
_cell_angle_beta   89.90063021
_cell_angle_gamma   120.00971862
_symmetry_Int_Tables_number   1
_chemical_formula_structural   Th14ReTcIr4
_chemical_formula_sum   'Th14 Re1 Tc1 Ir4'
_cell_volume   557.09323459
_cell_formula_units_Z   1
loop_
 _symmetry_equiv_pos_site_id
 _symmetry_equiv_pos_as_xyz
  1  'x, y, z'
loop_
 _atom_site_type_symbol
 _atom_site_label
 _atom_site_symmetry_multiplicity
 _atom_site_fract_x
 _atom_site_fract_y
 _atom_site_fract_z
 _atom_site_occupancy
  Th  Th0  1  0.463370  0.543070  0.295388  1
  Th  Th1  1  0.078620  0.540756  0.297089  1
  Th  Th2  1  0.914788  0.456531  0.799234  1
  Th  Th3  1  0.256055  0.127756  0.499116  1
  Th  Th4  1  0.543915  0.083658  0.797263  1
  Th  Th5  1  0.751681  0.877076  0.999783  1
  Th  Th6  1  0.667242  0.333357  0.289503  1
  Th  Th7  1  0.124133  0.870807  0.001065  1
  Th  Th8  1  0.461126  0.919340  0.295946  1
  Th  Th9  1  0.541613  0.458832  0.798159  1
  Th  Th10  1  0.873976  0.127512  0.499086  1
  Th  Th11  1  0.122425  0.252809  0.998450  1
  Th  Th12  1  0.873206  0.745073  0.501176  1
  Th  Th13  1  0.334001  0.667183  0.799173  1
  Re  Re14  1  0.811100  0.626631  0.051708  1
  Tc  Tc15  1  0.810387  0.182263  0.048405  1
  Ir  Ir16  1  0.622676  0.812810  0.555025  1
  Ir  Ir17  1  0.370424  0.184658  0.051522  1
  Ir  Ir18  1  0.189094  0.377048  0.552538  1
  Ir  Ir19  1  0.190169  0.812828  0.554368  1
