# generated using pymatgen
data_ErLu2PaSb10
_symmetry_space_group_name_H-M   'P 1'
_cell_length_a   4.20376100
_cell_length_b   13.13695025
_cell_length_c   14.51389500
_cell_angle_alpha   78.53084054
_cell_angle_beta   90.00000000
_cell_angle_gamma   90.00000000
_symmetry_Int_Tables_number   1
_chemical_formula_structural   ErLu2PaSb10
_chemical_formula_sum   'Er2 Lu4 Pa2 Sb20'
_cell_volume   785.51910186
_cell_formula_units_Z   2
loop_
 _symmetry_equiv_pos_site_id
 _symmetry_equiv_pos_as_xyz
  1  'x, y, z'
loop_
 _atom_site_type_symbol
 _atom_site_label
 _atom_site_symmetry_multiplicity
 _atom_site_fract_x
 _atom_site_fract_y
 _atom_site_fract_z
 _atom_site_occupancy
  Er  Er0  1  0.250000  0.665412  0.575786  1
  Er  Er1  1  0.750000  0.334588  0.424214  1
  Lu  Lu2  1  0.250000  0.392571  0.772271  1
  Lu  Lu3  1  0.750000  0.607429  0.227729  1
  Lu  Lu4  1  0.250000  0.657922  0.857658  1
  Lu  Lu5  1  0.750000  0.342078  0.142342  1
  Pa  Pa6  1  0.250000  0.954228  0.355641  1
  Pa  Pa7  1  0.750000  0.045772  0.644359  1
  Sb  Sb8  1  0.250000  0.142583  0.775640  1
  Sb  Sb9  1  0.750000  0.857417  0.224360  1
  Sb  Sb10  1  0.250000  0.140357  0.487875  1
  Sb  Sb11  1  0.750000  0.859643  0.512125  1
  Sb  Sb12  1  0.250000  0.152205  0.168723  1
  Sb  Sb13  1  0.750000  0.847795  0.831277  1
  Sb  Sb14  1  0.250000  0.422210  0.976365  1
  Sb  Sb15  1  0.750000  0.577790  0.023635  1
  Sb  Sb16  1  0.750000  0.031851  0.911950  1
  Sb  Sb17  1  0.250000  0.968149  0.088050  1
  Sb  Sb18  1  0.750000  0.143872  0.317887  1
  Sb  Sb19  1  0.250000  0.856128  0.682113  1
  Sb  Sb20  1  0.750000  0.274640  0.938786  1
  Sb  Sb21  1  0.250000  0.725360  0.061214  1
  Sb  Sb22  1  0.750000  0.282918  0.656756  1
  Sb  Sb23  1  0.250000  0.717082  0.343244  1
  Sb  Sb24  1  0.750000  0.574291  0.734884  1
  Sb  Sb25  1  0.250000  0.425709  0.265116  1
  Sb  Sb26  1  0.750000  0.572166  0.447556  1
  Sb  Sb27  1  0.250000  0.427834  0.552444  1
