# generated using pymatgen
data_La7Y(Er3Si4)4
_symmetry_space_group_name_H-M   'P 1'
_cell_length_a   7.78932683
_cell_length_b   7.78742815
_cell_length_c   14.37654700
_cell_angle_alpha   90.04135635
_cell_angle_beta   89.97361518
_cell_angle_gamma   90.01002520
_symmetry_Int_Tables_number   1
_chemical_formula_structural   La7Y(Er3Si4)4
_chemical_formula_sum   'La7 Y1 Er12 Si16'
_cell_volume   872.06408650
_cell_formula_units_Z   1
loop_
 _symmetry_equiv_pos_site_id
 _symmetry_equiv_pos_as_xyz
  1  'x, y, z'
loop_
 _atom_site_type_symbol
 _atom_site_label
 _atom_site_symmetry_multiplicity
 _atom_site_fract_x
 _atom_site_fract_y
 _atom_site_fract_z
 _atom_site_occupancy
  La  La0  1  0.008172  0.356352  0.541234  1
  La  La1  1  0.644057  0.992396  0.960461  1
  La  La2  1  0.141953  0.509679  0.791928  1
  La  La3  1  0.857170  0.490790  0.290012  1
  La  La4  1  0.508544  0.142325  0.207105  1
  La  La5  1  0.490114  0.857374  0.709672  1
  La  La6  1  0.356371  0.008240  0.458239  1
  Y  Y7  1  0.995786  0.638561  0.042570  1
  Er  Er8  1  0.359970  0.492662  0.374585  1
  Er  Er9  1  0.859794  0.005467  0.373354  1
  Er  Er10  1  0.993882  0.138082  0.124262  1
  Er  Er11  1  0.007527  0.859915  0.625591  1
  Er  Er12  1  0.640285  0.509714  0.876733  1
  Er  Er13  1  0.492884  0.360068  0.625015  1
  Er  Er14  1  0.509374  0.640759  0.123924  1
  Er  Er15  1  0.137686  0.993166  0.876254  1
  Er  Er16  1  0.680990  0.682510  0.500088  1
  Er  Er17  1  0.817404  0.183182  0.750816  1
  Er  Er18  1  0.181233  0.815641  0.249309  1
  Er  Er19  1  0.316111  0.320111  0.999860  1
  Si  Si20  1  0.063481  0.710515  0.437716  1
  Si  Si21  1  0.938955  0.293853  0.939161  1
  Si  Si22  1  0.711680  0.063755  0.562020  1
  Si  Si23  1  0.210122  0.438967  0.186249  1
  Si  Si24  1  0.787897  0.563790  0.687877  1
  Si  Si25  1  0.436598  0.212127  0.812862  1
  Si  Si26  1  0.564841  0.787488  0.311479  1
  Si  Si27  1  0.285802  0.932362  0.062428  1
  Si  Si28  1  0.847124  0.797468  0.810122  1
  Si  Si29  1  0.150887  0.203742  0.308860  1
  Si  Si30  1  0.801112  0.845144  0.186092  1
  Si  Si31  1  0.295790  0.651317  0.559165  1
  Si  Si32  1  0.708434  0.353479  0.060609  1
  Si  Si33  1  0.651598  0.295179  0.440409  1
  Si  Si34  1  0.342991  0.702138  0.942412  1
  Si  Si35  1  0.203379  0.151684  0.691527  1
