# generated using pymatgen
data_TbTm3(Si5Os3)2
_symmetry_space_group_name_H-M   'P 1'
_cell_length_a   8.10871458
_cell_length_b   8.12699955
_cell_length_c   5.77195258
_cell_angle_alpha   70.62366050
_cell_angle_beta   70.50785641
_cell_angle_gamma   94.08897241
_symmetry_Int_Tables_number   1
_chemical_formula_structural   TbTm3(Si5Os3)2
_chemical_formula_sum   'Tb1 Tm3 Si10 Os6'
_cell_volume   331.09899091
_cell_formula_units_Z   1
loop_
 _symmetry_equiv_pos_site_id
 _symmetry_equiv_pos_as_xyz
  1  'x, y, z'
loop_
 _atom_site_type_symbol
 _atom_site_label
 _atom_site_symmetry_multiplicity
 _atom_site_fract_x
 _atom_site_fract_y
 _atom_site_fract_z
 _atom_site_occupancy
  Tb  Tb0  1  0.599451  0.869253  0.255003  1
  Tm  Tm1  1  0.869417  0.602161  0.751639  1
  Tm  Tm2  1  0.399972  0.131628  0.744840  1
  Tm  Tm3  1  0.131523  0.397451  0.247570  1
  Si  Si4  1  0.068345  0.259566  0.834632  1
  Si  Si5  1  0.736442  0.931339  0.668329  1
  Si  Si6  1  0.931978  0.739561  0.164815  1
  Si  Si7  1  0.263745  0.068748  0.331356  1
  Si  Si8  1  0.208049  0.795604  0.743256  1
  Si  Si9  1  0.793487  0.205723  0.254558  1
  Si  Si10  1  0.513190  0.487843  0.748813  1
  Si  Si11  1  0.486089  0.511075  0.252772  1
  Si  Si12  1  0.774766  0.225427  0.747211  1
  Si  Si13  1  0.224182  0.775187  0.252892  1
  Os  Os14  1  0.253233  0.541458  0.634171  1
  Os  Os15  1  0.452875  0.743193  0.873018  1
  Os  Os16  1  0.746209  0.457744  0.366511  1
  Os  Os17  1  0.546277  0.257481  0.128781  1
  Os  Os18  1  0.002866  0.997397  0.749464  1
  Os  Os19  1  0.997906  0.002162  0.250368  1
