# generated using pymatgen
data_Tb5Sc(Si3Pt2)4
_symmetry_space_group_name_H-M   'P 1'
_cell_length_a   4.28857000
_cell_length_b   8.53286186
_cell_length_c   12.84767900
_cell_angle_alpha   79.59261957
_cell_angle_beta   90.00000000
_cell_angle_gamma   90.00000000
_symmetry_Int_Tables_number   1
_chemical_formula_structural   Tb5Sc(Si3Pt2)4
_chemical_formula_sum   'Tb5 Sc1 Si12 Pt8'
_cell_volume   462.41035098
_cell_formula_units_Z   1
loop_
 _symmetry_equiv_pos_site_id
 _symmetry_equiv_pos_as_xyz
  1  'x, y, z'
loop_
 _atom_site_type_symbol
 _atom_site_label
 _atom_site_symmetry_multiplicity
 _atom_site_fract_x
 _atom_site_fract_y
 _atom_site_fract_z
 _atom_site_occupancy
  Tb  Tb0  1  0.250000  0.586577  0.187289  1
  Tb  Tb1  1  0.750000  0.233012  0.560827  1
  Tb  Tb2  1  0.750000  0.414990  0.812482  1
  Tb  Tb3  1  0.750000  0.927810  0.814702  1
  Tb  Tb4  1  0.250000  0.070244  0.185444  1
  Sc  Sc5  1  0.250000  0.766907  0.438000  1
  Si  Si6  1  0.750000  0.590427  0.567343  1
  Si  Si7  1  0.750000  0.127759  0.005462  1
  Si  Si8  1  0.750000  0.870157  0.571250  1
  Si  Si9  1  0.250000  0.694963  0.712403  1
  Si  Si10  1  0.750000  0.304207  0.288959  1
  Si  Si11  1  0.750000  0.806492  0.279809  1
  Si  Si12  1  0.250000  0.872253  0.996086  1
  Si  Si13  1  0.250000  0.193256  0.722950  1
  Si  Si14  1  0.250000  0.378437  0.003716  1
  Si  Si15  1  0.250000  0.126133  0.425682  1
  Si  Si16  1  0.750000  0.621543  0.997392  1
  Si  Si17  1  0.250000  0.414918  0.429258  1
  Pt  Pt18  1  0.750000  0.351674  0.100883  1
  Pt  Pt19  1  0.250000  0.968567  0.620759  1
  Pt  Pt20  1  0.750000  0.848143  0.088888  1
  Pt  Pt21  1  0.750000  0.026549  0.378389  1
  Pt  Pt22  1  0.250000  0.648424  0.900589  1
  Pt  Pt23  1  0.250000  0.151643  0.913027  1
  Pt  Pt24  1  0.750000  0.535168  0.377852  1
  Pt  Pt25  1  0.250000  0.469747  0.620556  1
