# generated using pymatgen
data_KCe(SmB12)2
_symmetry_space_group_name_H-M   'P 1'
_cell_length_a   7.13979094
_cell_length_b   7.13979423
_cell_length_c   5.88584000
_cell_angle_alpha   90.00000000
_cell_angle_beta   90.00000000
_cell_angle_gamma   109.13291573
_symmetry_Int_Tables_number   1
_chemical_formula_structural   KCe(SmB12)2
_chemical_formula_sum   'K1 Ce1 Sm2 B24'
_cell_volume   283.46633964
_cell_formula_units_Z   1
loop_
 _symmetry_equiv_pos_site_id
 _symmetry_equiv_pos_as_xyz
  1  'x, y, z'
loop_
 _atom_site_type_symbol
 _atom_site_label
 _atom_site_symmetry_multiplicity
 _atom_site_fract_x
 _atom_site_fract_y
 _atom_site_fract_z
 _atom_site_occupancy
  K  K0  1  0.000000  0.000000  0.000000  1
  Ce  Ce1  1  0.500000  0.500000  0.000000  1
  Sm  Sm2  1  0.751580  0.248420  0.500000  1
  Sm  Sm3  1  0.248420  0.751580  0.500000  1
  B  B4  1  0.176052  0.326029  0.649662  1
  B  B5  1  0.923471  0.574566  0.148339  1
  B  B6  1  0.673971  0.823948  0.649662  1
  B  B7  1  0.425434  0.076529  0.148339  1
  B  B8  1  0.176052  0.326029  0.350338  1
  B  B9  1  0.923471  0.574566  0.851661  1
  B  B10  1  0.673971  0.823948  0.350338  1
  B  B11  1  0.425434  0.076529  0.851661  1
  B  B12  1  0.400418  0.400418  0.500000  1
  B  B13  1  0.148689  0.650911  0.000000  1
  B  B14  1  0.899050  0.899050  0.500000  1
  B  B15  1  0.650911  0.148689  0.000000  1
  B  B16  1  0.326029  0.176052  0.649662  1
  B  B17  1  0.076529  0.425434  0.148339  1
  B  B18  1  0.823948  0.673971  0.649662  1
  B  B19  1  0.574566  0.923471  0.148339  1
  B  B20  1  0.100950  0.100950  0.500000  1
  B  B21  1  0.851311  0.349089  0.000000  1
  B  B22  1  0.599582  0.599582  0.500000  1
  B  B23  1  0.349089  0.851311  0.000000  1
  B  B24  1  0.326029  0.176052  0.350338  1
  B  B25  1  0.076529  0.425434  0.851661  1
  B  B26  1  0.823948  0.673971  0.350338  1
  B  B27  1  0.574566  0.923471  0.851661  1
