# generated using pymatgen
data_KBa3NpO6
_symmetry_space_group_name_H-M   'P 1'
_cell_length_a   7.45487398
_cell_length_b   7.45487362
_cell_length_c   7.45487300
_cell_angle_alpha   89.79443065
_cell_angle_beta   89.79443066
_cell_angle_gamma   89.79443225
_symmetry_Int_Tables_number   1
_chemical_formula_structural   KBa3NpO6
_chemical_formula_sum   'K2 Ba6 Np2 O12'
_cell_volume   414.29765525
_cell_formula_units_Z   2
loop_
 _symmetry_equiv_pos_site_id
 _symmetry_equiv_pos_as_xyz
  1  'x, y, z'
loop_
 _atom_site_type_symbol
 _atom_site_label
 _atom_site_symmetry_multiplicity
 _atom_site_fract_x
 _atom_site_fract_y
 _atom_site_fract_z
 _atom_site_occupancy
  K  K0  1  0.250000  0.250000  0.250000  1
  K  K1  1  0.750000  0.750000  0.750000  1
  Ba  Ba2  1  0.250000  0.600517  0.899483  1
  Ba  Ba3  1  0.899483  0.250000  0.600517  1
  Ba  Ba4  1  0.600517  0.899483  0.250000  1
  Ba  Ba5  1  0.399483  0.100517  0.750000  1
  Ba  Ba6  1  0.750000  0.399483  0.100517  1
  Ba  Ba7  1  0.100517  0.750000  0.399483  1
  Np  Np8  1  0.000000  0.000000  0.000000  1
  Np  Np9  1  0.500000  0.500000  0.500000  1
  O  O10  1  0.938148  0.071858  0.274306  1
  O  O11  1  0.274306  0.938148  0.071858  1
  O  O12  1  0.071858  0.274306  0.938148  1
  O  O13  1  0.774306  0.571858  0.438148  1
  O  O14  1  0.438148  0.774306  0.571858  1
  O  O15  1  0.571858  0.438148  0.774306  1
  O  O16  1  0.061852  0.928142  0.725694  1
  O  O17  1  0.725694  0.061852  0.928142  1
  O  O18  1  0.928142  0.725694  0.061852  1
  O  O19  1  0.225694  0.428142  0.561852  1
  O  O20  1  0.561852  0.225694  0.428142  1
  O  O21  1  0.428142  0.561852  0.225694  1
