# generated using pymatgen
data_Fe2(SiTc)3
_symmetry_space_group_name_H-M   'P 1'
_cell_length_a   6.93976800
_cell_length_b   6.93976817
_cell_length_c   4.79804100
_cell_angle_alpha   90.00000000
_cell_angle_beta   90.00000000
_cell_angle_gamma   120.00000874
_symmetry_Int_Tables_number   1
_chemical_formula_structural   Fe2(SiTc)3
_chemical_formula_sum   'Fe4 Si6 Tc6'
_cell_volume   200.11722074
_cell_formula_units_Z   2
loop_
 _symmetry_equiv_pos_site_id
 _symmetry_equiv_pos_as_xyz
  1  'x, y, z'
loop_
 _atom_site_type_symbol
 _atom_site_label
 _atom_site_symmetry_multiplicity
 _atom_site_fract_x
 _atom_site_fract_y
 _atom_site_fract_z
 _atom_site_occupancy
  Fe  Fe0  1  0.333333  0.666667  0.500000  1
  Fe  Fe1  1  0.666667  0.333333  0.000000  1
  Fe  Fe2  1  0.666667  0.333333  0.500000  1
  Fe  Fe3  1  0.333333  0.666667  0.000000  1
  Si  Si4  1  0.404428  0.000000  0.750000  1
  Si  Si5  1  0.404428  0.404428  0.250000  1
  Si  Si6  1  0.000000  0.595572  0.250000  1
  Si  Si7  1  0.000000  0.404428  0.750000  1
  Si  Si8  1  0.595572  0.595572  0.750000  1
  Si  Si9  1  0.595572  0.000000  0.250000  1
  Tc  Tc10  1  0.000000  0.758812  0.750000  1
  Tc  Tc11  1  0.000000  0.241188  0.250000  1
  Tc  Tc12  1  0.758812  0.758812  0.250000  1
  Tc  Tc13  1  0.758812  0.000000  0.750000  1
  Tc  Tc14  1  0.241188  0.241188  0.750000  1
  Tc  Tc15  1  0.241188  0.000000  0.250000  1
