# generated using pymatgen
data_Cs8Nd2O7
_symmetry_space_group_name_H-M   'P 1'
_cell_length_a   20.11224500
_cell_length_b   7.54107227
_cell_length_c   7.73907745
_cell_angle_alpha   61.05779618
_cell_angle_beta   90.00000000
_cell_angle_gamma   90.00000000
_symmetry_Int_Tables_number   1
_chemical_formula_structural   Cs8Nd2O7
_chemical_formula_sum   'Cs16 Nd4 O14'
_cell_volume   1027.17550085
_cell_formula_units_Z   2
loop_
 _symmetry_equiv_pos_site_id
 _symmetry_equiv_pos_as_xyz
  1  'x, y, z'
loop_
 _atom_site_type_symbol
 _atom_site_label
 _atom_site_symmetry_multiplicity
 _atom_site_fract_x
 _atom_site_fract_y
 _atom_site_fract_z
 _atom_site_occupancy
  Cs  Cs0  1  0.504052  0.020134  0.242825  1
  Cs  Cs1  1  0.004052  0.479866  0.757175  1
  Cs  Cs2  1  0.495948  0.979866  0.757175  1
  Cs  Cs3  1  0.995948  0.520134  0.242825  1
  Cs  Cs4  1  0.703613  0.039025  0.229288  1
  Cs  Cs5  1  0.203613  0.460975  0.770712  1
  Cs  Cs6  1  0.296387  0.960975  0.770712  1
  Cs  Cs7  1  0.796387  0.539025  0.229288  1
  Cs  Cs8  1  0.090602  0.996448  0.353544  1
  Cs  Cs9  1  0.590602  0.503552  0.646456  1
  Cs  Cs10  1  0.909398  0.003552  0.646456  1
  Cs  Cs11  1  0.409398  0.496448  0.353544  1
  Cs  Cs12  1  0.807235  0.454808  0.778861  1
  Cs  Cs13  1  0.307235  0.045192  0.221139  1
  Cs  Cs14  1  0.192765  0.545192  0.221139  1
  Cs  Cs15  1  0.692765  0.954808  0.778861  1
  Nd  Nd16  1  0.597939  0.500018  0.152420  1
  Nd  Nd17  1  0.097939  0.999982  0.847580  1
  Nd  Nd18  1  0.402061  0.499982  0.847580  1
  Nd  Nd19  1  0.902061  0.000018  0.152420  1
  O  O20  1  0.500000  0.500000  0.000000  1
  O  O21  1  0.000000  0.000000  0.000000  1
  O  O22  1  0.179633  0.013008  0.042711  1
  O  O23  1  0.679633  0.486992  0.957289  1
  O  O24  1  0.820367  0.986992  0.957289  1
  O  O25  1  0.320367  0.513008  0.042711  1
  O  O26  1  0.891002  0.288231  0.170206  1
  O  O27  1  0.391002  0.211769  0.829794  1
  O  O28  1  0.108998  0.711769  0.829794  1
  O  O29  1  0.608998  0.788231  0.170206  1
  O  O30  1  0.600072  0.224134  0.452029  1
  O  O31  1  0.100072  0.275866  0.547971  1
  O  O32  1  0.399928  0.775866  0.547971  1
  O  O33  1  0.899928  0.724134  0.452029  1
