# generated using pymatgen
data_HoTm3(Si5Os3)2
_symmetry_space_group_name_H-M   'P 1'
_cell_length_a   8.10403071
_cell_length_b   8.12148290
_cell_length_c   5.75987704
_cell_angle_alpha   70.66911017
_cell_angle_beta   70.52828472
_cell_angle_gamma   94.16047426
_symmetry_Int_Tables_number   1
_chemical_formula_structural   HoTm3(Si5Os3)2
_chemical_formula_sum   'Ho1 Tm3 Si10 Os6'
_cell_volume   330.06052611
_cell_formula_units_Z   1
loop_
 _symmetry_equiv_pos_site_id
 _symmetry_equiv_pos_as_xyz
  1  'x, y, z'
loop_
 _atom_site_type_symbol
 _atom_site_label
 _atom_site_symmetry_multiplicity
 _atom_site_fract_x
 _atom_site_fract_y
 _atom_site_fract_z
 _atom_site_occupancy
  Ho  Ho0  1  0.599225  0.869122  0.255199  1
  Tm  Tm1  1  0.869100  0.602030  0.752036  1
  Tm  Tm2  1  0.400125  0.131570  0.744952  1
  Tm  Tm3  1  0.131702  0.397460  0.247369  1
  Si  Si4  1  0.068469  0.260112  0.834204  1
  Si  Si5  1  0.736418  0.931365  0.668389  1
  Si  Si6  1  0.931348  0.739541  0.165179  1
  Si  Si7  1  0.263802  0.068430  0.331301  1
  Si  Si8  1  0.207944  0.795817  0.743687  1
  Si  Si9  1  0.793137  0.205085  0.254711  1
  Si  Si10  1  0.512928  0.488140  0.748760  1
  Si  Si11  1  0.486860  0.511471  0.252372  1
  Si  Si12  1  0.775144  0.224603  0.747756  1
  Si  Si13  1  0.224216  0.775676  0.252537  1
  Os  Os14  1  0.253538  0.541889  0.633630  1
  Os  Os15  1  0.453382  0.743620  0.872367  1
  Os  Os16  1  0.746310  0.457602  0.366950  1
  Os  Os17  1  0.546218  0.256891  0.128773  1
  Os  Os18  1  0.002428  0.997437  0.749505  1
  Os  Os19  1  0.997708  0.002140  0.250323  1
