# generated using pymatgen
data_La2Tc2Ge2C
_symmetry_space_group_name_H-M   'P 1'
_cell_length_a   6.12769963
_cell_length_b   6.12770026
_cell_length_c   7.37490014
_cell_angle_alpha   125.24555992
_cell_angle_beta   125.24556270
_cell_angle_gamma   40.45025523
_symmetry_Int_Tables_number   1
_chemical_formula_structural   La2Tc2Ge2C
_chemical_formula_sum   'La2 Tc2 Ge2 C1'
_cell_volume   141.66723997
_cell_formula_units_Z   1
loop_
 _symmetry_equiv_pos_site_id
 _symmetry_equiv_pos_as_xyz
  1  'x, y, z'
loop_
 _atom_site_type_symbol
 _atom_site_label
 _atom_site_symmetry_multiplicity
 _atom_site_fract_x
 _atom_site_fract_y
 _atom_site_fract_z
 _atom_site_occupancy
  La  La0  1  0.560198  0.560198  0.294216  1
  La  La1  1  0.439803  0.439803  0.705783  1
  Tc  Tc2  1  0.195709  0.195709  0.084654  1
  Tc  Tc3  1  0.804291  0.804291  0.915345  1
  Ge  Ge4  1  0.831643  0.831643  0.282526  1
  Ge  Ge5  1  0.168357  0.168357  0.717475  1
  C  C6  1  0.000000  0.000000  0.000000  1
