# generated using pymatgen
data_Tm2HfGa5Rh
_symmetry_space_group_name_H-M   'P 1'
_cell_length_a   6.84709600
_cell_length_b   6.76320931
_cell_length_c   4.19508500
_cell_angle_alpha   90.00000000
_cell_angle_beta   90.00000000
_cell_angle_gamma   120.41115592
_symmetry_Int_Tables_number   1
_chemical_formula_structural   Tm2HfGa5Rh
_chemical_formula_sum   'Tm2 Hf1 Ga5 Rh1'
_cell_volume   167.53917575
_cell_formula_units_Z   1
loop_
 _symmetry_equiv_pos_site_id
 _symmetry_equiv_pos_as_xyz
  1  'x, y, z'
loop_
 _atom_site_type_symbol
 _atom_site_label
 _atom_site_symmetry_multiplicity
 _atom_site_fract_x
 _atom_site_fract_y
 _atom_site_fract_z
 _atom_site_occupancy
  Tm  Tm0  1  0.005228  0.589064  0.000000  1
  Tm  Tm1  1  0.416164  0.410936  0.000000  1
  Hf  Hf2  1  0.593327  0.000000  0.000000  1
  Ga  Ga3  1  0.240982  0.000000  0.500000  1
  Ga  Ga4  1  0.999046  0.241769  0.500000  1
  Ga  Ga5  1  0.757277  0.758231  0.500000  1
  Ga  Ga6  1  0.341920  0.678356  0.500000  1
  Ga  Ga7  1  0.663565  0.321644  0.500000  1
  Rh  Rh8  1  0.982490  0.000000  0.000000  1
