# generated using pymatgen
data_Hf4As2RuRh9
_symmetry_space_group_name_H-M   'P 1'
_cell_length_a   4.06077900
_cell_length_b   5.60653169
_cell_length_c   10.91617049
_cell_angle_alpha   89.73794007
_cell_angle_beta   90.00000000
_cell_angle_gamma   90.00000000
_symmetry_Int_Tables_number   1
_chemical_formula_structural   Hf4As2RuRh9
_chemical_formula_sum   'Hf4 As2 Ru1 Rh9'
_cell_volume   248.52461115
_cell_formula_units_Z   1
loop_
 _symmetry_equiv_pos_site_id
 _symmetry_equiv_pos_as_xyz
  1  'x, y, z'
loop_
 _atom_site_type_symbol
 _atom_site_label
 _atom_site_symmetry_multiplicity
 _atom_site_fract_x
 _atom_site_fract_y
 _atom_site_fract_z
 _atom_site_occupancy
  Hf  Hf0  1  0.500000  0.327479  0.355302  1
  Hf  Hf1  1  0.500000  0.672744  0.642766  1
  Hf  Hf2  1  0.500000  0.173975  0.858950  1
  Hf  Hf3  1  0.500000  0.828249  0.141843  1
  As  As4  1  0.000000  0.000938  0.499470  1
  As  As5  1  0.000000  0.495087  0.002334  1
  Ru  Ru6  1  0.500000  0.317222  0.104764  1
  Rh  Rh7  1  0.500000  0.685449  0.893993  1
  Rh  Rh8  1  0.500000  0.814310  0.394371  1
  Rh  Rh9  1  0.500000  0.185157  0.605580  1
  Rh  Rh10  1  0.000000  0.929917  0.743036  1
  Rh  Rh11  1  0.000000  0.069782  0.256472  1
  Rh  Rh12  1  0.000000  0.429822  0.756178  1
  Rh  Rh13  1  0.000000  0.571217  0.245168  1
  Rh  Rh14  1  0.000000  0.500714  0.500712  1
  Rh  Rh15  1  0.000000  0.997938  0.999059  1
