# generated using pymatgen
data_Ca2Nd8Ga5Bi
_symmetry_space_group_name_H-M   'P 1'
_cell_length_a   9.14720257
_cell_length_b   9.14720249
_cell_length_c   9.14720200
_cell_angle_alpha   127.79880200
_cell_angle_beta   127.79880622
_cell_angle_gamma   76.95118897
_symmetry_Int_Tables_number   1
_chemical_formula_structural   Ca2Nd8Ga5Bi
_chemical_formula_sum   'Ca2 Nd8 Ga5 Bi1'
_cell_volume   463.89540485
_cell_formula_units_Z   1
loop_
 _symmetry_equiv_pos_site_id
 _symmetry_equiv_pos_as_xyz
  1  'x, y, z'
loop_
 _atom_site_type_symbol
 _atom_site_label
 _atom_site_symmetry_multiplicity
 _atom_site_fract_x
 _atom_site_fract_y
 _atom_site_fract_z
 _atom_site_occupancy
  Ca  Ca0  1  0.499257  0.499257  0.000000  1
  Ca  Ca1  1  0.000743  0.000743  0.000000  1
  Nd  Nd2  1  0.529864  0.016772  0.838336  1
  Nd  Nd3  1  0.178436  0.691528  0.161664  1
  Nd  Nd4  1  0.016772  0.178436  0.486908  1
  Nd  Nd5  1  0.691528  0.529864  0.513092  1
  Nd  Nd6  1  0.483228  0.970136  0.161664  1
  Nd  Nd7  1  0.808472  0.321564  0.838336  1
  Nd  Nd8  1  0.970136  0.808472  0.486908  1
  Nd  Nd9  1  0.321564  0.483228  0.513092  1
  Ga  Ga10  1  0.750000  0.750000  0.000000  1
  Ga  Ga11  1  0.880038  0.380038  0.260076  1
  Ga  Ga12  1  0.119962  0.619962  0.739924  1
  Ga  Ga13  1  0.380038  0.119962  0.500000  1
  Ga  Ga14  1  0.619962  0.880038  0.500000  1
  Bi  Bi15  1  0.250000  0.250000  0.000000  1
