# generated using pymatgen
data_Y5Zr3Cu3As12Pd13
_symmetry_space_group_name_H-M   'P 1'
_cell_length_a   13.56070500
_cell_length_b   13.56070436
_cell_length_c   4.02795700
_cell_angle_alpha   90.00000000
_cell_angle_beta   90.00000000
_cell_angle_gamma   120.00000399
_symmetry_Int_Tables_number   1
_chemical_formula_structural   Y5Zr3Cu3As12Pd13
_chemical_formula_sum   'Y5 Zr3 Cu3 As12 Pd13'
_cell_volume   641.47532629
_cell_formula_units_Z   1
loop_
 _symmetry_equiv_pos_site_id
 _symmetry_equiv_pos_as_xyz
  1  'x, y, z'
loop_
 _atom_site_type_symbol
 _atom_site_label
 _atom_site_symmetry_multiplicity
 _atom_site_fract_x
 _atom_site_fract_y
 _atom_site_fract_z
 _atom_site_occupancy
  Y  Y0  1  0.187589  0.187589  0.500000  1
  Y  Y1  1  0.812411  0.000000  0.500000  1
  Y  Y2  1  0.000000  0.812411  0.500000  1
  Y  Y3  1  0.333333  0.666667  0.000000  1
  Y  Y4  1  0.666667  0.333333  0.000000  1
  Zr  Zr5  1  0.559091  0.559091  0.000000  1
  Zr  Zr6  1  0.440909  0.000000  0.000000  1
  Zr  Zr7  1  0.000000  0.440909  0.000000  1
  Cu  Cu8  1  0.721131  0.721131  0.500000  1
  Cu  Cu9  1  0.278869  0.000000  0.500000  1
  Cu  Cu10  1  0.000000  0.278869  0.500000  1
  As  As11  1  0.823396  0.823396  0.000000  1
  As  As12  1  0.176604  0.000000  0.000000  1
  As  As13  1  0.000000  0.176604  0.000000  1
  As  As14  1  0.165592  0.483755  0.500000  1
  As  As15  1  0.516245  0.681837  0.500000  1
  As  As16  1  0.318163  0.834408  0.500000  1
  As  As17  1  0.681837  0.516245  0.500000  1
  As  As18  1  0.834408  0.318163  0.500000  1
  As  As19  1  0.483755  0.165592  0.500000  1
  As  As20  1  0.359148  0.359148  0.000000  1
  As  As21  1  0.640852  0.000000  0.000000  1
  As  As22  1  0.000000  0.640852  0.000000  1
  Pd  Pd23  1  0.177920  0.367470  0.000000  1
  Pd  Pd24  1  0.632530  0.810451  0.000000  1
  Pd  Pd25  1  0.189549  0.822080  0.000000  1
  Pd  Pd26  1  0.810451  0.632530  0.000000  1
  Pd  Pd27  1  0.822080  0.189549  0.000000  1
  Pd  Pd28  1  0.367470  0.177920  0.000000  1
  Pd  Pd29  1  0.355533  0.485182  0.500000  1
  Pd  Pd30  1  0.514818  0.870351  0.500000  1
  Pd  Pd31  1  0.129649  0.644467  0.500000  1
  Pd  Pd32  1  0.870351  0.514818  0.500000  1
  Pd  Pd33  1  0.644467  0.129649  0.500000  1
  Pd  Pd34  1  0.485182  0.355533  0.500000  1
  Pd  Pd35  1  0.000000  0.000000  0.000000  1
