# generated using pymatgen
data_Pr3Nd7Sn20Pd5Rh3
_symmetry_space_group_name_H-M   'P 1'
_cell_length_a   14.32098432
_cell_length_b   14.32347487
_cell_length_c   4.65128900
_cell_angle_alpha   90.00000000
_cell_angle_beta   90.00000000
_cell_angle_gamma   89.99540358
_symmetry_Int_Tables_number   1
_chemical_formula_structural   Pr3Nd7Sn20Pd5Rh3
_chemical_formula_sum   'Pr3 Nd7 Sn20 Pd5 Rh3'
_cell_volume   954.10150892
_cell_formula_units_Z   1
loop_
 _symmetry_equiv_pos_site_id
 _symmetry_equiv_pos_as_xyz
  1  'x, y, z'
loop_
 _atom_site_type_symbol
 _atom_site_label
 _atom_site_symmetry_multiplicity
 _atom_site_fract_x
 _atom_site_fract_y
 _atom_site_fract_z
 _atom_site_occupancy
  Pr  Pr0  1  0.106987  0.609820  0.500000  1
  Pr  Pr1  1  0.391892  0.110080  0.500000  1
  Pr  Pr2  1  0.608979  0.890815  0.500000  1
  Nd  Nd3  1  0.500799  0.497300  0.000000  1
  Nd  Nd4  1  0.000899  0.999839  0.000000  1
  Nd  Nd5  1  0.678326  0.180247  0.500000  1
  Nd  Nd6  1  0.320088  0.821362  0.500000  1
  Nd  Nd7  1  0.177349  0.320007  0.500000  1
  Nd  Nd8  1  0.822094  0.679336  0.500000  1
  Nd  Nd9  1  0.892488  0.390436  0.500000  1
  Sn  Sn10  1  0.567804  0.071972  0.000000  1
  Sn  Sn11  1  0.432067  0.932092  0.000000  1
  Sn  Sn12  1  0.067297  0.428657  0.000000  1
  Sn  Sn13  1  0.932632  0.571155  0.000000  1
  Sn  Sn14  1  0.653847  0.700320  0.000000  1
  Sn  Sn15  1  0.347472  0.297966  0.000000  1
  Sn  Sn16  1  0.151388  0.798561  0.000000  1
  Sn  Sn17  1  0.848067  0.201549  0.000000  1
  Sn  Sn18  1  0.299493  0.653736  0.000000  1
  Sn  Sn19  1  0.698381  0.346086  0.000000  1
  Sn  Sn20  1  0.197712  0.153849  0.000000  1
  Sn  Sn21  1  0.802596  0.846931  0.000000  1
  Sn  Sn22  1  0.662484  0.501150  0.500000  1
  Sn  Sn23  1  0.338159  0.495949  0.500000  1
  Sn  Sn24  1  0.161842  0.997555  0.500000  1
  Sn  Sn25  1  0.838419  0.003345  0.500000  1
  Sn  Sn26  1  0.497393  0.661391  0.500000  1
  Sn  Sn27  1  0.504028  0.336120  0.500000  1
  Sn  Sn28  1  0.004386  0.163323  0.500000  1
  Sn  Sn29  1  0.995317  0.836417  0.500000  1
  Pd  Pd30  1  0.746095  0.529950  0.000000  1
  Pd  Pd31  1  0.254034  0.469848  0.000000  1
  Pd  Pd32  1  0.245575  0.969655  0.000000  1
  Pd  Pd33  1  0.753829  0.030091  0.000000  1
  Pd  Pd34  1  0.469552  0.746155  0.000000  1
  Rh  Rh35  1  0.530772  0.256798  0.000000  1
  Rh  Rh36  1  0.030547  0.244065  0.000000  1
  Rh  Rh37  1  0.968904  0.756075  0.000000  1
