# generated using pymatgen
data_Ho3CoSn3IrPt
_symmetry_space_group_name_H-M   'P 1'
_cell_length_a   7.53470100
_cell_length_b   7.53470034
_cell_length_c   3.79633400
_cell_angle_alpha   90.00000000
_cell_angle_beta   90.00000000
_cell_angle_gamma   119.99999852
_symmetry_Int_Tables_number   1
_chemical_formula_structural   Ho3CoSn3IrPt
_chemical_formula_sum   'Ho3 Co1 Sn3 Ir1 Pt1'
_cell_volume   186.64959858
_cell_formula_units_Z   1
loop_
 _symmetry_equiv_pos_site_id
 _symmetry_equiv_pos_as_xyz
  1  'x, y, z'
loop_
 _atom_site_type_symbol
 _atom_site_label
 _atom_site_symmetry_multiplicity
 _atom_site_fract_x
 _atom_site_fract_y
 _atom_site_fract_z
 _atom_site_occupancy
  Ho  Ho0  1  0.402853  0.409462  0.500000  1
  Ho  Ho1  1  0.590538  0.993391  0.500000  1
  Ho  Ho2  1  0.006609  0.597147  0.500000  1
  Co  Co3  1  0.000000  0.000000  0.500000  1
  Sn  Sn4  1  0.747642  0.750368  0.000000  1
  Sn  Sn5  1  0.249632  0.997273  0.000000  1
  Sn  Sn6  1  0.002727  0.252358  0.000000  1
  Ir  Ir7  1  0.333333  0.666667  0.000000  1
  Pt  Pt8  1  0.666667  0.333333  0.000000  1
