# generated using pymatgen
data_YbLuCuSe3
_symmetry_space_group_name_H-M   'P 1'
_cell_length_a   6.80865729
_cell_length_b   6.80865753
_cell_length_c   10.41115100
_cell_angle_alpha   90.00000000
_cell_angle_beta   90.00000000
_cell_angle_gamma   146.23501863
_symmetry_Int_Tables_number   1
_chemical_formula_structural   YbLuCuSe3
_chemical_formula_sum   'Yb2 Lu2 Cu2 Se6'
_cell_volume   268.24434820
_cell_formula_units_Z   2
loop_
 _symmetry_equiv_pos_site_id
 _symmetry_equiv_pos_as_xyz
  1  'x, y, z'
loop_
 _atom_site_type_symbol
 _atom_site_label
 _atom_site_symmetry_multiplicity
 _atom_site_fract_x
 _atom_site_fract_y
 _atom_site_fract_z
 _atom_site_occupancy
  Yb  Yb0  1  0.739923  0.260075  0.250000  1
  Yb  Yb1  1  0.260075  0.739923  0.750000  1
  Lu  Lu2  1  0.499999  0.499999  0.000000  1
  Lu  Lu3  1  0.499999  0.499999  0.500000  1
  Cu  Cu4  1  0.028303  0.971696  0.250000  1
  Cu  Cu5  1  0.971696  0.028303  0.750000  1
  Se  Se6  1  0.143821  0.856177  0.066023  1
  Se  Se7  1  0.411735  0.588263  0.250000  1
  Se  Se8  1  0.143821  0.856177  0.433977  1
  Se  Se9  1  0.856177  0.143821  0.566023  1
  Se  Se10  1  0.588263  0.411735  0.750000  1
  Se  Se11  1  0.856177  0.143821  0.933977  1
