# generated using pymatgen
data_LaCoSb12IrOs2
_symmetry_space_group_name_H-M   'P 1'
_cell_length_a   8.12532495
_cell_length_b   8.11354766
_cell_length_c   8.11037255
_cell_angle_alpha   109.31000023
_cell_angle_beta   109.50178072
_cell_angle_gamma   109.39302191
_symmetry_Int_Tables_number   1
_chemical_formula_structural   LaCoSb12IrOs2
_chemical_formula_sum   'La1 Co1 Sb12 Ir1 Os2'
_cell_volume   412.65197978
_cell_formula_units_Z   1
loop_
 _symmetry_equiv_pos_site_id
 _symmetry_equiv_pos_as_xyz
  1  'x, y, z'
loop_
 _atom_site_type_symbol
 _atom_site_label
 _atom_site_symmetry_multiplicity
 _atom_site_fract_x
 _atom_site_fract_y
 _atom_site_fract_z
 _atom_site_occupancy
  La  La0  1  0.000000  0.000000  0.000000  1
  Co  Co1  1  0.500000  0.500000  0.500000  1
  Sb  Sb2  1  0.339879  0.185974  0.843706  1
  Sb  Sb3  1  0.660121  0.814026  0.156294  1
  Sb  Sb4  1  0.660020  0.505451  0.835578  1
  Sb  Sb5  1  0.339980  0.494549  0.164422  1
  Sb  Sb6  1  0.183368  0.843259  0.340181  1
  Sb  Sb7  1  0.816632  0.156741  0.659819  1
  Sb  Sb8  1  0.505039  0.834955  0.657250  1
  Sb  Sb9  1  0.494961  0.165045  0.342750  1
  Sb  Sb10  1  0.845385  0.342043  0.185648  1
  Sb  Sb11  1  0.154615  0.657957  0.814352  1
  Sb  Sb12  1  0.835047  0.659547  0.504988  1
  Sb  Sb13  1  0.164953  0.340453  0.495012  1
  Ir  Ir14  1  0.500000  0.000000  0.000000  1
  Os  Os15  1  0.000000  0.000000  0.500000  1
  Os  Os16  1  0.000000  0.500000  0.000000  1
