# generated using pymatgen
data_Tb7Er3Tl4(InPd)4
_symmetry_space_group_name_H-M   'P 1'
_cell_length_a   3.64165200
_cell_length_b   8.21215906
_cell_length_c   18.35546480
_cell_angle_alpha   89.95400474
_cell_angle_beta   90.00000000
_cell_angle_gamma   90.00000000
_symmetry_Int_Tables_number   1
_chemical_formula_structural   Tb7Er3Tl4(InPd)4
_chemical_formula_sum   'Tb7 Er3 Tl4 In4 Pd4'
_cell_volume   548.93514955
_cell_formula_units_Z   1
loop_
 _symmetry_equiv_pos_site_id
 _symmetry_equiv_pos_as_xyz
  1  'x, y, z'
loop_
 _atom_site_type_symbol
 _atom_site_label
 _atom_site_symmetry_multiplicity
 _atom_site_fract_x
 _atom_site_fract_y
 _atom_site_fract_z
 _atom_site_occupancy
  Tb  Tb0  1  0.000000  0.500198  0.500268  1
  Tb  Tb1  1  0.000000  0.999629  0.999520  1
  Tb  Tb2  1  0.000000  0.738294  0.282497  1
  Tb  Tb3  1  0.000000  0.261898  0.717413  1
  Tb  Tb4  1  0.000000  0.761832  0.781968  1
  Tb  Tb5  1  0.000000  0.238730  0.218555  1
  Tb  Tb6  1  0.000000  0.617312  0.084560  1
  Er  Er7  1  0.000000  0.382743  0.914262  1
  Er  Er8  1  0.000000  0.883189  0.585494  1
  Er  Er9  1  0.000000  0.116836  0.414708  1
  Tl  Tl10  1  0.500000  0.705906  0.933390  1
  Tl  Tl11  1  0.500000  0.291837  0.065719  1
  Tl  Tl12  1  0.500000  0.794360  0.434765  1
  Tl  Tl13  1  0.500000  0.205525  0.565177  1
  In  In14  1  0.500000  0.586194  0.651014  1
  In  In15  1  0.500000  0.414245  0.349637  1
  In  In16  1  0.500000  0.916767  0.151469  1
  In  In17  1  0.500000  0.085859  0.848512  1
  Pd  Pd18  1  0.500000  0.525483  0.197569  1
  Pd  Pd19  1  0.500000  0.473064  0.803361  1
  Pd  Pd20  1  0.500000  0.973632  0.696053  1
  Pd  Pd21  1  0.500000  0.026467  0.304087  1
