# generated using pymatgen
data_Pr16YHo3Pb16
_symmetry_space_group_name_H-M   'P 1'
_cell_length_a   8.41763113
_cell_length_b   16.27442100
_cell_length_c   8.53712503
_cell_angle_alpha   90.00000000
_cell_angle_beta   89.98527701
_cell_angle_gamma   90.00000000
_symmetry_Int_Tables_number   1
_chemical_formula_structural   Pr16YHo3Pb16
_chemical_formula_sum   'Pr16 Y1 Ho3 Pb16'
_cell_volume   1169.51841479
_cell_formula_units_Z   1
loop_
 _symmetry_equiv_pos_site_id
 _symmetry_equiv_pos_as_xyz
  1  'x, y, z'
loop_
 _atom_site_type_symbol
 _atom_site_label
 _atom_site_symmetry_multiplicity
 _atom_site_fract_x
 _atom_site_fract_y
 _atom_site_fract_z
 _atom_site_occupancy
  Pr  Pr0  1  0.622959  0.618478  0.158230  1
  Pr  Pr1  1  0.123167  0.881284  0.342068  1
  Pr  Pr2  1  0.376423  0.119166  0.842105  1
  Pr  Pr3  1  0.876774  0.380247  0.658045  1
  Pr  Pr4  1  0.376423  0.380834  0.842105  1
  Pr  Pr5  1  0.876774  0.119753  0.658045  1
  Pr  Pr6  1  0.622959  0.881522  0.158230  1
  Pr  Pr7  1  0.123167  0.618716  0.342068  1
  Pr  Pr8  1  0.468117  0.600221  0.678600  1
  Pr  Pr9  1  0.967289  0.899569  0.822058  1
  Pr  Pr10  1  0.532992  0.101279  0.321761  1
  Pr  Pr11  1  0.032778  0.399397  0.177984  1
  Pr  Pr12  1  0.532992  0.398721  0.321761  1
  Pr  Pr13  1  0.032778  0.100603  0.177984  1
  Pr  Pr14  1  0.468117  0.899779  0.678600  1
  Pr  Pr15  1  0.967289  0.600431  0.822058  1
  Y  Y16  1  0.791064  0.750000  0.497229  1
  Ho  Ho17  1  0.291418  0.750000  0.003841  1
  Ho  Ho18  1  0.208762  0.250000  0.503050  1
  Ho  Ho19  1  0.708610  0.250000  0.996304  1
  Pb  Pb20  1  0.718557  0.453601  0.968848  1
  Pb  Pb21  1  0.218639  0.046489  0.530529  1
  Pb  Pb22  1  0.281080  0.953881  0.030423  1
  Pb  Pb23  1  0.781613  0.545059  0.468849  1
  Pb  Pb24  1  0.281080  0.546119  0.030423  1
  Pb  Pb25  1  0.781613  0.954941  0.468849  1
  Pb  Pb26  1  0.718557  0.046399  0.968848  1
  Pb  Pb27  1  0.218639  0.453511  0.530529  1
  Pb  Pb28  1  0.428192  0.750000  0.373971  1
  Pb  Pb29  1  0.928916  0.750000  0.125438  1
  Pb  Pb30  1  0.570615  0.250000  0.625142  1
  Pb  Pb31  1  0.071262  0.250000  0.875003  1
  Pb  Pb32  1  0.657093  0.750000  0.848860  1
  Pb  Pb33  1  0.158944  0.750000  0.653087  1
  Pb  Pb34  1  0.341764  0.250000  0.152279  1
  Pb  Pb35  1  0.842592  0.250000  0.346798  1
