# generated using pymatgen
data_Sc10Bi3Pb3Se2
_symmetry_space_group_name_H-M   'P 1'
_cell_length_a   8.78172400
_cell_length_b   8.78172307
_cell_length_c   6.32805800
_cell_angle_alpha   90.00000000
_cell_angle_beta   90.00000000
_cell_angle_gamma   120.00000350
_symmetry_Int_Tables_number   1
_chemical_formula_structural   Sc10Bi3Pb3Se2
_chemical_formula_sum   'Sc10 Bi3 Pb3 Se2'
_cell_volume   422.63025966
_cell_formula_units_Z   1
loop_
 _symmetry_equiv_pos_site_id
 _symmetry_equiv_pos_as_xyz
  1  'x, y, z'
loop_
 _atom_site_type_symbol
 _atom_site_label
 _atom_site_symmetry_multiplicity
 _atom_site_fract_x
 _atom_site_fract_y
 _atom_site_fract_z
 _atom_site_occupancy
  Sc  Sc0  1  0.750222  0.750222  0.750000  1
  Sc  Sc1  1  0.249778  0.000000  0.750000  1
  Sc  Sc2  1  0.000000  0.249778  0.750000  1
  Sc  Sc3  1  0.250642  0.250642  0.250000  1
  Sc  Sc4  1  0.749358  0.000000  0.250000  1
  Sc  Sc5  1  0.000000  0.749358  0.250000  1
  Sc  Sc6  1  0.666667  0.333333  0.002424  1
  Sc  Sc7  1  0.333333  0.666667  0.002424  1
  Sc  Sc8  1  0.333333  0.666667  0.497576  1
  Sc  Sc9  1  0.666667  0.333333  0.497576  1
  Bi  Bi10  1  0.398472  0.398472  0.750000  1
  Bi  Bi11  1  0.601528  0.000000  0.750000  1
  Bi  Bi12  1  0.000000  0.601528  0.750000  1
  Pb  Pb13  1  0.603535  0.603535  0.250000  1
  Pb  Pb14  1  0.396465  0.000000  0.250000  1
  Pb  Pb15  1  0.000000  0.396465  0.250000  1
  Se  Se16  1  0.000000  0.000000  0.999953  1
  Se  Se17  1  0.000000  0.000000  0.500047  1
