# generated using pymatgen
data_TmZrMn12P7
_symmetry_space_group_name_H-M   'P 1'
_cell_length_a   9.23235800
_cell_length_b   9.23235838
_cell_length_c   3.56346100
_cell_angle_alpha   90.00000000
_cell_angle_beta   90.00000000
_cell_angle_gamma   119.99999865
_symmetry_Int_Tables_number   1
_chemical_formula_structural   TmZrMn12P7
_chemical_formula_sum   'Tm1 Zr1 Mn12 P7'
_cell_volume   263.04372054
_cell_formula_units_Z   1
loop_
 _symmetry_equiv_pos_site_id
 _symmetry_equiv_pos_as_xyz
  1  'x, y, z'
loop_
 _atom_site_type_symbol
 _atom_site_label
 _atom_site_symmetry_multiplicity
 _atom_site_fract_x
 _atom_site_fract_y
 _atom_site_fract_z
 _atom_site_occupancy
  Tm  Tm0  1  0.666667  0.333333  0.500000  1
  Zr  Zr1  1  0.000000  0.000000  0.000000  1
  Mn  Mn2  1  0.711264  0.618836  0.000000  1
  Mn  Mn3  1  0.381164  0.092428  0.000000  1
  Mn  Mn4  1  0.907572  0.288736  0.000000  1
  Mn  Mn5  1  0.213111  0.387687  0.000000  1
  Mn  Mn6  1  0.612313  0.825424  0.000000  1
  Mn  Mn7  1  0.174576  0.786889  0.000000  1
  Mn  Mn8  1  0.286482  0.227142  0.500000  1
  Mn  Mn9  1  0.772858  0.059339  0.500000  1
  Mn  Mn10  1  0.940661  0.713518  0.500000  1
  Mn  Mn11  1  0.458575  0.563089  0.500000  1
  Mn  Mn12  1  0.436911  0.895487  0.500000  1
  Mn  Mn13  1  0.104513  0.541425  0.500000  1
  P  P14  1  0.455301  0.376267  0.000000  1
  P  P15  1  0.623733  0.079034  0.000000  1
  P  P16  1  0.920966  0.544699  0.000000  1
  P  P17  1  0.052028  0.254789  0.500000  1
  P  P18  1  0.745211  0.797240  0.500000  1
  P  P19  1  0.202760  0.947972  0.500000  1
  P  P20  1  0.333333  0.666667  0.000000  1
