# generated using pymatgen
data_Sr3LaSc2(RuO6)2
_symmetry_space_group_name_H-M   'P 1'
_cell_length_a   5.70530300
_cell_length_b   5.70944163
_cell_length_c   16.05391484
_cell_angle_alpha   89.66948418
_cell_angle_beta   90.00000000
_cell_angle_gamma   90.00000000
_symmetry_Int_Tables_number   1
_chemical_formula_structural   Sr3LaSc2(RuO6)2
_chemical_formula_sum   'Sr6 La2 Sc4 Ru4 O24'
_cell_volume   522.93303788
_cell_formula_units_Z   2
loop_
 _symmetry_equiv_pos_site_id
 _symmetry_equiv_pos_as_xyz
  1  'x, y, z'
loop_
 _atom_site_type_symbol
 _atom_site_label
 _atom_site_symmetry_multiplicity
 _atom_site_fract_x
 _atom_site_fract_y
 _atom_site_fract_z
 _atom_site_occupancy
  Sr  Sr0  1  0.025488  0.242053  0.999154  1
  Sr  Sr1  1  0.021322  0.240971  0.500026  1
  Sr  Sr2  1  0.476103  0.742238  0.749356  1
  Sr  Sr3  1  0.525488  0.757947  0.000846  1
  Sr  Sr4  1  0.521322  0.759029  0.499974  1
  Sr  Sr5  1  0.976103  0.257762  0.250644  1
  La  La6  1  0.469834  0.744699  0.249890  1
  La  La7  1  0.969834  0.255301  0.750110  1
  Sc  Sc8  1  0.001453  0.748906  0.876493  1
  Sc  Sc9  1  0.997553  0.752188  0.376642  1
  Sc  Sc10  1  0.501453  0.251094  0.123507  1
  Sc  Sc11  1  0.497553  0.247812  0.623358  1
  Ru  Ru12  1  0.000790  0.753463  0.125593  1
  Ru  Ru13  1  0.999119  0.749332  0.625415  1
  Ru  Ru14  1  0.500790  0.246537  0.874407  1
  Ru  Ru15  1  0.499119  0.250668  0.374585  1
  O  O16  1  0.989209  0.680775  0.503955  1
  O  O17  1  0.989976  0.683658  0.004335  1
  O  O18  1  0.779441  0.017825  0.108712  1
  O  O19  1  0.777701  0.014858  0.609187  1
  O  O20  1  0.770633  0.030628  0.891020  1
  O  O21  1  0.763774  0.029347  0.392233  1
  O  O22  1  0.726535  0.538264  0.146923  1
  O  O23  1  0.739229  0.519991  0.646615  1
  O  O24  1  0.728831  0.508786  0.854145  1
  O  O25  1  0.716309  0.522583  0.353039  1
  O  O26  1  0.518372  0.181811  0.752389  1
  O  O27  1  0.508330  0.170818  0.252418  1
  O  O28  1  0.489209  0.319225  0.496045  1
  O  O29  1  0.489976  0.316342  0.995665  1
  O  O30  1  0.277701  0.985142  0.390813  1
  O  O31  1  0.279441  0.982175  0.891288  1
  O  O32  1  0.270633  0.969372  0.108980  1
  O  O33  1  0.263774  0.970653  0.607767  1
  O  O34  1  0.239229  0.480009  0.353385  1
  O  O35  1  0.226535  0.461736  0.853077  1
  O  O36  1  0.228831  0.491214  0.145855  1
  O  O37  1  0.216309  0.477417  0.646961  1
  O  O38  1  0.018372  0.818189  0.247611  1
  O  O39  1  0.008330  0.829182  0.747582  1
