# generated using pymatgen
data_CaPr(RuO3)4
_symmetry_space_group_name_H-M   'P 1'
_cell_length_a   5.35049500
_cell_length_b   7.40966800
_cell_length_c   11.04681400
_cell_angle_alpha   90.00000000
_cell_angle_beta   90.00000000
_cell_angle_gamma   90.00000000
_symmetry_Int_Tables_number   1
_chemical_formula_structural   CaPr(RuO3)4
_chemical_formula_sum   'Ca2 Pr2 Ru8 O24'
_cell_volume   437.95526680
_cell_formula_units_Z   2
loop_
 _symmetry_equiv_pos_site_id
 _symmetry_equiv_pos_as_xyz
  1  'x, y, z'
loop_
 _atom_site_type_symbol
 _atom_site_label
 _atom_site_symmetry_multiplicity
 _atom_site_fract_x
 _atom_site_fract_y
 _atom_site_fract_z
 _atom_site_occupancy
  Ca  Ca0  1  0.543627  0.250000  0.954034  1
  Ca  Ca1  1  0.043627  0.750000  0.545966  1
  Pr  Pr2  1  0.459430  0.750000  0.044850  1
  Pr  Pr3  1  0.959430  0.250000  0.455150  1
  Ru  Ru4  1  0.557119  0.501541  0.642407  1
  Ru  Ru5  1  0.057119  0.498459  0.857593  1
  Ru  Ru6  1  0.442797  0.996435  0.360176  1
  Ru  Ru7  1  0.942797  0.003565  0.139824  1
  Ru  Ru8  1  0.057119  0.001541  0.857593  1
  Ru  Ru9  1  0.557119  0.998459  0.642407  1
  Ru  Ru10  1  0.942797  0.496435  0.139824  1
  Ru  Ru11  1  0.442797  0.503565  0.360176  1
  O  O12  1  0.675263  0.250000  0.627286  1
  O  O13  1  0.175263  0.750000  0.872714  1
  O  O14  1  0.326632  0.750000  0.374057  1
  O  O15  1  0.826632  0.250000  0.125943  1
  O  O16  1  0.442653  0.750000  0.646841  1
  O  O17  1  0.942653  0.250000  0.853159  1
  O  O18  1  0.555342  0.250000  0.354239  1
  O  O19  1  0.055342  0.750000  0.145761  1
  O  O20  1  0.132052  0.436019  0.282905  1
  O  O21  1  0.632052  0.563981  0.217095  1
  O  O22  1  0.866206  0.934636  0.718183  1
  O  O23  1  0.366206  0.065364  0.781817  1
  O  O24  1  0.773338  0.961267  0.976065  1
  O  O25  1  0.273338  0.038733  0.523935  1
  O  O26  1  0.227015  0.458629  0.021554  1
  O  O27  1  0.727015  0.541371  0.478446  1
  O  O28  1  0.227015  0.041371  0.021554  1
  O  O29  1  0.727015  0.958629  0.478446  1
  O  O30  1  0.773338  0.538733  0.976065  1
  O  O31  1  0.273338  0.461267  0.523935  1
  O  O32  1  0.632052  0.936019  0.217095  1
  O  O33  1  0.132052  0.063981  0.282905  1
  O  O34  1  0.366206  0.434636  0.781817  1
  O  O35  1  0.866206  0.565364  0.718183  1
