# generated using pymatgen
data_Er3Pa3(Ni3Bi4)2
_symmetry_space_group_name_H-M   'P 1'
_cell_length_a   8.31044160
_cell_length_b   8.34119949
_cell_length_c   8.31044062
_cell_angle_alpha   109.38829826
_cell_angle_beta   109.32578077
_cell_angle_gamma   109.54974860
_symmetry_Int_Tables_number   1
_chemical_formula_structural   Er3Pa3(Ni3Bi4)2
_chemical_formula_sum   'Er3 Pa3 Ni6 Bi8'
_cell_volume   444.27710212
_cell_formula_units_Z   1
loop_
 _symmetry_equiv_pos_site_id
 _symmetry_equiv_pos_as_xyz
  1  'x, y, z'
loop_
 _atom_site_type_symbol
 _atom_site_label
 _atom_site_symmetry_multiplicity
 _atom_site_fract_x
 _atom_site_fract_y
 _atom_site_fract_z
 _atom_site_occupancy
  Er  Er0  1  0.626390  0.750000  0.376390  1
  Er  Er1  1  0.251437  0.124999  0.876245  1
  Er  Er2  1  0.751247  0.375001  0.626438  1
  Pa  Pa3  1  0.125244  0.877626  0.249544  1
  Pa  Pa4  1  0.371918  0.622374  0.747616  1
  Pa  Pa5  1  0.872642  0.250000  0.122642  1
  Ni  Ni6  1  0.636279  0.366011  0.243742  1
  Ni  Ni7  1  0.877731  0.133989  0.770269  1
  Ni  Ni8  1  0.369710  0.250000  0.619710  1
  Ni  Ni9  1  0.128717  0.750000  0.878717  1
  Ni  Ni10  1  0.237221  0.616967  0.371657  1
  Ni  Ni11  1  0.754689  0.883033  0.120254  1
  Bi  Bi12  1  0.340047  0.337103  0.332670  1
  Bi  Bi13  1  0.168756  0.500858  0.999985  1
  Bi  Bi14  1  0.995568  0.162897  0.502945  1
  Bi  Bi15  1  0.833797  0.830927  0.829170  1
  Bi  Bi16  1  0.499127  0.999142  0.167899  1
  Bi  Bi17  1  0.662587  0.500301  0.998950  1
  Bi  Bi18  1  0.498650  0.999699  0.662287  1
  Bi  Bi19  1  0.998243  0.669073  0.502870  1
