# generated using pymatgen
data_Sc5SiBi2Pt
_symmetry_space_group_name_H-M   'P 1'
_cell_length_a   8.15884800
_cell_length_b   8.15884822
_cell_length_c   7.45552100
_cell_angle_alpha   90.00000000
_cell_angle_beta   90.00000000
_cell_angle_gamma   125.71841127
_symmetry_Int_Tables_number   1
_chemical_formula_structural   Sc5SiBi2Pt
_chemical_formula_sum   'Sc10 Si2 Bi4 Pt2'
_cell_volume   402.93600893
_cell_formula_units_Z   2
loop_
 _symmetry_equiv_pos_site_id
 _symmetry_equiv_pos_as_xyz
  1  'x, y, z'
loop_
 _atom_site_type_symbol
 _atom_site_label
 _atom_site_symmetry_multiplicity
 _atom_site_fract_x
 _atom_site_fract_y
 _atom_site_fract_z
 _atom_site_occupancy
  Sc  Sc0  1  0.545471  0.787184  0.163275  1
  Sc  Sc1  1  0.287184  0.045471  0.336725  1
  Sc  Sc2  1  0.214956  0.449649  0.825985  1
  Sc  Sc3  1  0.949649  0.714956  0.674015  1
  Sc  Sc4  1  0.714956  0.949649  0.674015  1
  Sc  Sc5  1  0.449649  0.214956  0.825985  1
  Sc  Sc6  1  0.787184  0.545471  0.163275  1
  Sc  Sc7  1  0.045471  0.287184  0.336725  1
  Sc  Sc8  1  0.501875  0.501875  0.502094  1
  Sc  Sc9  1  0.001875  0.001875  0.997906  1
  Si  Si10  1  0.871588  0.871588  0.369573  1
  Si  Si11  1  0.371588  0.371588  0.130427  1
  Bi  Bi12  1  0.291896  0.711790  0.499198  1
  Bi  Bi13  1  0.211790  0.791896  0.000802  1
  Bi  Bi14  1  0.711790  0.291896  0.499198  1
  Bi  Bi15  1  0.791896  0.211790  0.000802  1
  Pt  Pt16  1  0.625589  0.625589  0.876363  1
  Pt  Pt17  1  0.125589  0.125589  0.623637  1
