# generated using pymatgen
data_Tb2Tm4TcRu
_symmetry_space_group_name_H-M   'P 1'
_cell_length_a   6.27607300
_cell_length_b   7.33112300
_cell_length_c   9.03777800
_cell_angle_alpha   90.00000000
_cell_angle_beta   90.00000000
_cell_angle_gamma   90.00000000
_symmetry_Int_Tables_number   1
_chemical_formula_structural   Tb2Tm4TcRu
_chemical_formula_sum   'Tb4 Tm8 Tc2 Ru2'
_cell_volume   415.83415891
_cell_formula_units_Z   2
loop_
 _symmetry_equiv_pos_site_id
 _symmetry_equiv_pos_as_xyz
  1  'x, y, z'
loop_
 _atom_site_type_symbol
 _atom_site_label
 _atom_site_symmetry_multiplicity
 _atom_site_fract_x
 _atom_site_fract_y
 _atom_site_fract_z
 _atom_site_occupancy
  Tb  Tb0  1  0.874439  0.539966  0.250000  1
  Tb  Tb1  1  0.625561  0.039966  0.250000  1
  Tb  Tb2  1  0.131801  0.456478  0.750000  1
  Tb  Tb3  1  0.368199  0.956478  0.750000  1
  Tm  Tm4  1  0.334752  0.676133  0.063817  1
  Tm  Tm5  1  0.165248  0.176133  0.436183  1
  Tm  Tm6  1  0.663900  0.324700  0.563393  1
  Tm  Tm7  1  0.836100  0.824700  0.936607  1
  Tm  Tm8  1  0.663900  0.324700  0.936607  1
  Tm  Tm9  1  0.836100  0.824700  0.563393  1
  Tm  Tm10  1  0.334752  0.676133  0.436183  1
  Tm  Tm11  1  0.165248  0.176133  0.063817  1
  Tc  Tc12  1  0.039388  0.885755  0.250000  1
  Tc  Tc13  1  0.460612  0.385755  0.250000  1
  Ru  Ru14  1  0.957039  0.116134  0.750000  1
  Ru  Ru15  1  0.542961  0.616134  0.750000  1
