# generated using pymatgen
data_EuTm3(B6Os)2
_symmetry_space_group_name_H-M   'P 1'
_cell_length_a   3.64273400
_cell_length_b   9.14794359
_cell_length_c   11.55611316
_cell_angle_alpha   89.93123130
_cell_angle_beta   90.00000000
_cell_angle_gamma   90.00000000
_symmetry_Int_Tables_number   1
_chemical_formula_structural   EuTm3(B6Os)2
_chemical_formula_sum   'Eu2 Tm6 B24 Os4'
_cell_volume   385.09014992
_cell_formula_units_Z   2
loop_
 _symmetry_equiv_pos_site_id
 _symmetry_equiv_pos_as_xyz
  1  'x, y, z'
loop_
 _atom_site_type_symbol
 _atom_site_label
 _atom_site_symmetry_multiplicity
 _atom_site_fract_x
 _atom_site_fract_y
 _atom_site_fract_z
 _atom_site_occupancy
  Eu  Eu0  1  0.000000  0.322508  0.413802  1
  Eu  Eu1  1  0.000000  0.677492  0.586198  1
  Tm  Tm2  1  0.000000  0.821468  0.085566  1
  Tm  Tm3  1  0.000000  0.178532  0.914434  1
  Tm  Tm4  1  0.000000  0.943460  0.370576  1
  Tm  Tm5  1  0.000000  0.056540  0.629425  1
  Tm  Tm6  1  0.000000  0.443333  0.127322  1
  Tm  Tm7  1  0.000000  0.556667  0.872677  1
  B  B8  1  0.500000  0.555369  0.430301  1
  B  B9  1  0.500000  0.444631  0.569699  1
  B  B10  1  0.500000  0.053312  0.065978  1
  B  B11  1  0.500000  0.946688  0.934022  1
  B  B12  1  0.500000  0.749723  0.416387  1
  B  B13  1  0.500000  0.250277  0.583613  1
  B  B14  1  0.500000  0.248169  0.079666  1
  B  B15  1  0.500000  0.751831  0.920334  1
  B  B16  1  0.500000  0.792338  0.263266  1
  B  B17  1  0.500000  0.207662  0.736734  1
  B  B18  1  0.500000  0.289867  0.231766  1
  B  B19  1  0.500000  0.710132  0.768234  1
  B  B20  1  0.500000  0.631929  0.183249  1
  B  B21  1  0.500000  0.368071  0.816751  1
  B  B22  1  0.500000  0.129671  0.312888  1
  B  B23  1  0.500000  0.870329  0.687112  1
  B  B24  1  0.500000  0.981997  0.211070  1
  B  B25  1  0.500000  0.018003  0.788930  1
  B  B26  1  0.500000  0.484595  0.285059  1
  B  B27  1  0.500000  0.515405  0.714941  1
  B  B28  1  0.500000  0.606168  0.028957  1
  B  B29  1  0.500000  0.393832  0.971043  1
  B  B30  1  0.500000  0.099497  0.472638  1
  B  B31  1  0.500000  0.900503  0.527362  1
  Os  Os32  1  0.000000  0.641279  0.316730  1
  Os  Os33  1  0.000000  0.358721  0.683270  1
  Os  Os34  1  0.000000  0.135994  0.176743  1
  Os  Os35  1  0.000000  0.864006  0.823257  1
