# generated using pymatgen
data_Tb6EuNiCl12
_symmetry_space_group_name_H-M   'P 1'
_cell_length_a   8.84911427
_cell_length_b   8.84911493
_cell_length_c   8.84911400
_cell_angle_alpha   106.36412375
_cell_angle_beta   106.36411825
_cell_angle_gamma   106.36411272
_symmetry_Int_Tables_number   1
_chemical_formula_structural   Tb6EuNiCl12
_chemical_formula_sum   'Tb6 Eu1 Ni1 Cl12'
_cell_volume   586.81476015
_cell_formula_units_Z   1
loop_
 _symmetry_equiv_pos_site_id
 _symmetry_equiv_pos_as_xyz
  1  'x, y, z'
loop_
 _atom_site_type_symbol
 _atom_site_label
 _atom_site_symmetry_multiplicity
 _atom_site_fract_x
 _atom_site_fract_y
 _atom_site_fract_z
 _atom_site_occupancy
  Tb  Tb0  1  0.896734  0.684361  0.977861  1
  Tb  Tb1  1  0.977861  0.896734  0.684361  1
  Tb  Tb2  1  0.684361  0.977861  0.896734  1
  Tb  Tb3  1  0.103266  0.315639  0.022139  1
  Tb  Tb4  1  0.022139  0.103266  0.315639  1
  Tb  Tb5  1  0.315639  0.022139  0.103266  1
  Eu  Eu6  1  0.500000  0.500000  0.500000  1
  Ni  Ni7  1  0.000000  0.000000  0.000000  1
  Cl  Cl8  1  0.631559  0.853777  0.552768  1
  Cl  Cl9  1  0.552768  0.631559  0.853777  1
  Cl  Cl10  1  0.853777  0.552768  0.631559  1
  Cl  Cl11  1  0.368441  0.146223  0.447232  1
  Cl  Cl12  1  0.447232  0.368441  0.146223  1
  Cl  Cl13  1  0.146223  0.447232  0.368441  1
  Cl  Cl14  1  0.679216  0.072419  0.218442  1
  Cl  Cl15  1  0.218442  0.679216  0.072419  1
  Cl  Cl16  1  0.072419  0.218442  0.679216  1
  Cl  Cl17  1  0.320784  0.927581  0.781558  1
  Cl  Cl18  1  0.781558  0.320784  0.927581  1
  Cl  Cl19  1  0.927581  0.781558  0.320784  1
