# generated using pymatgen
data_Mn4SnPd8Au3
_symmetry_space_group_name_H-M   'P 1'
_cell_length_a   6.95498975
_cell_length_b   6.95499015
_cell_length_c   6.95499035
_cell_angle_alpha   107.23638988
_cell_angle_beta   107.23638681
_cell_angle_gamma   114.03977017
_symmetry_Int_Tables_number   1
_chemical_formula_structural   Mn4SnPd8Au3
_chemical_formula_sum   'Mn4 Sn1 Pd8 Au3'
_cell_volume   257.73571715
_cell_formula_units_Z   1
loop_
 _symmetry_equiv_pos_site_id
 _symmetry_equiv_pos_as_xyz
  1  'x, y, z'
loop_
 _atom_site_type_symbol
 _atom_site_label
 _atom_site_symmetry_multiplicity
 _atom_site_fract_x
 _atom_site_fract_y
 _atom_site_fract_z
 _atom_site_occupancy
  Mn  Mn0  1  0.258834  0.258834  0.517669  1
  Mn  Mn1  1  0.741166  0.741166  0.482331  1
  Mn  Mn2  1  0.258834  0.741166  0.000000  1
  Mn  Mn3  1  0.741166  0.258834  0.000000  1
  Sn  Sn4  1  0.000000  0.000000  0.000000  1
  Pd  Pd5  1  0.493249  0.243939  0.249309  1
  Pd  Pd6  1  0.506751  0.756061  0.750691  1
  Pd  Pd7  1  0.994630  0.243939  0.750691  1
  Pd  Pd8  1  0.243939  0.994630  0.750691  1
  Pd  Pd9  1  0.005370  0.756061  0.249309  1
  Pd  Pd10  1  0.756061  0.005370  0.249309  1
  Pd  Pd11  1  0.243939  0.493249  0.249309  1
  Pd  Pd12  1  0.756061  0.506751  0.750691  1
  Au  Au13  1  0.500000  0.000000  0.500000  1
  Au  Au14  1  0.000000  0.500000  0.500000  1
  Au  Au15  1  0.500000  0.500000  0.000000  1
