# generated using pymatgen
data_Tb5Dy5Y6(CdNi)4
_symmetry_space_group_name_H-M   'P 1'
_cell_length_a   9.54479753
_cell_length_b   9.55578640
_cell_length_c   9.55578616
_cell_angle_alpha   60.07605202
_cell_angle_beta   60.03803417
_cell_angle_gamma   60.03803035
_symmetry_Int_Tables_number   1
_chemical_formula_structural   Tb5Dy5Y6(CdNi)4
_chemical_formula_sum   'Tb5 Dy5 Y6 Cd4 Ni4'
_cell_volume   616.99732129
_cell_formula_units_Z   1
loop_
 _symmetry_equiv_pos_site_id
 _symmetry_equiv_pos_as_xyz
  1  'x, y, z'
loop_
 _atom_site_type_symbol
 _atom_site_label
 _atom_site_symmetry_multiplicity
 _atom_site_fract_x
 _atom_site_fract_y
 _atom_site_fract_z
 _atom_site_occupancy
  Tb  Tb0  1  0.597919  0.598688  0.598688  1
  Tb  Tb1  1  0.599228  0.599738  0.201808  1
  Tb  Tb2  1  0.599228  0.201808  0.599738  1
  Tb  Tb3  1  0.204705  0.598688  0.598688  1
  Tb  Tb4  1  0.060745  0.439255  0.439255  1
  Dy  Dy5  1  0.438088  0.061912  0.061912  1
  Dy  Dy6  1  0.439031  0.061711  0.438580  1
  Dy  Dy7  1  0.060679  0.438580  0.061711  1
  Dy  Dy8  1  0.439031  0.438580  0.061711  1
  Dy  Dy9  1  0.060679  0.061711  0.438580  1
  Y  Y10  1  0.186207  0.813793  0.813793  1
  Y  Y11  1  0.813058  0.186942  0.186942  1
  Y  Y12  1  0.813662  0.186899  0.813146  1
  Y  Y13  1  0.186293  0.813146  0.186899  1
  Y  Y14  1  0.813662  0.813146  0.186899  1
  Y  Y15  1  0.186293  0.186899  0.813146  1
  Cd  Cd16  1  0.831217  0.830796  0.830796  1
  Cd  Cd17  1  0.831318  0.831059  0.506303  1
  Cd  Cd18  1  0.831318  0.506303  0.831059  1
  Cd  Cd19  1  0.507189  0.830796  0.830796  1
  Ni  Ni20  1  0.393389  0.392354  0.392354  1
  Ni  Ni21  1  0.392579  0.391903  0.822940  1
  Ni  Ni22  1  0.392579  0.822940  0.391903  1
  Ni  Ni23  1  0.821903  0.392354  0.392354  1
