# generated using pymatgen
data_Er4Tl3Au
_symmetry_space_group_name_H-M   'P 1'
_cell_length_a   3.62372300
_cell_length_b   3.62372300
_cell_length_c   15.86729600
_cell_angle_alpha   90.00000000
_cell_angle_beta   90.00000000
_cell_angle_gamma   90.00000000
_symmetry_Int_Tables_number   1
_chemical_formula_structural   Er4Tl3Au
_chemical_formula_sum   'Er4 Tl3 Au1'
_cell_volume   208.35930898
_cell_formula_units_Z   1
loop_
 _symmetry_equiv_pos_site_id
 _symmetry_equiv_pos_as_xyz
  1  'x, y, z'
loop_
 _atom_site_type_symbol
 _atom_site_label
 _atom_site_symmetry_multiplicity
 _atom_site_fract_x
 _atom_site_fract_y
 _atom_site_fract_z
 _atom_site_occupancy
  Er  Er0  1  0.500000  0.500000  0.107532  1
  Er  Er1  1  0.500000  0.500000  0.369627  1
  Er  Er2  1  0.500000  0.500000  0.630373  1
  Er  Er3  1  0.500000  0.500000  0.892468  1
  Tl  Tl4  1  0.000000  0.000000  0.240872  1
  Tl  Tl5  1  0.000000  0.000000  0.500000  1
  Tl  Tl6  1  0.000000  0.000000  0.759128  1
  Au  Au7  1  0.000000  0.000000  0.000000  1
