# generated using pymatgen
data_Dy3Ho5Sc12Si15Ru
_symmetry_space_group_name_H-M   'P 1'
_cell_length_a   7.07415711
_cell_length_b   7.44470277
_cell_length_c   13.93909425
_cell_angle_alpha   90.01719825
_cell_angle_beta   89.98691706
_cell_angle_gamma   90.19536226
_symmetry_Int_Tables_number   1
_chemical_formula_structural   Dy3Ho5Sc12Si15Ru
_chemical_formula_sum   'Dy3 Ho5 Sc12 Si15 Ru1'
_cell_volume   734.09803774
_cell_formula_units_Z   1
loop_
 _symmetry_equiv_pos_site_id
 _symmetry_equiv_pos_as_xyz
  1  'x, y, z'
loop_
 _atom_site_type_symbol
 _atom_site_label
 _atom_site_symmetry_multiplicity
 _atom_site_fract_x
 _atom_site_fract_y
 _atom_site_fract_z
 _atom_site_occupancy
  Dy  Dy0  1  0.011133  0.178779  0.404025  1
  Dy  Dy1  1  0.511034  0.323030  0.404025  1
  Dy  Dy2  1  0.489343  0.676574  0.595659  1
  Ho  Ho3  1  0.011333  0.179126  0.096004  1
  Ho  Ho4  1  0.990933  0.826629  0.904751  1
  Ho  Ho5  1  0.489227  0.676946  0.904312  1
  Ho  Ho6  1  0.990961  0.826687  0.595573  1
  Ho  Ho7  1  0.511038  0.322664  0.095942  1
  Sc  Sc8  1  0.157912  0.502491  0.750093  1
  Sc  Sc9  1  0.838152  0.495397  0.249830  1
  Sc  Sc10  1  0.339162  0.005617  0.249852  1
  Sc  Sc11  1  0.669418  0.998044  0.750112  1
  Sc  Sc12  1  0.316099  0.171358  0.628163  1
  Sc  Sc13  1  0.672075  0.825979  0.373825  1
  Sc  Sc14  1  0.171442  0.677980  0.373933  1
  Sc  Sc15  1  0.671964  0.825792  0.125941  1
  Sc  Sc16  1  0.837377  0.319914  0.627760  1
  Sc  Sc17  1  0.316031  0.171517  0.872059  1
  Sc  Sc18  1  0.837583  0.319663  0.872424  1
  Sc  Sc19  1  0.171462  0.677893  0.125861  1
  Si  Si20  1  0.969005  0.885543  0.249748  1
  Si  Si21  1  0.469731  0.614048  0.249752  1
  Si  Si22  1  0.529295  0.387914  0.750277  1
  Si  Si23  1  0.286300  0.866104  0.750283  1
  Si  Si24  1  0.713333  0.130505  0.249553  1
  Si  Si25  1  0.213992  0.370800  0.249551  1
  Si  Si26  1  0.780147  0.627331  0.750332  1
  Si  Si27  1  0.159704  0.468563  0.537518  1
  Si  Si28  1  0.844120  0.536381  0.461666  1
  Si  Si29  1  0.344251  0.965679  0.460299  1
  Si  Si30  1  0.843612  0.535655  0.038445  1
  Si  Si31  1  0.656185  0.034750  0.538865  1
  Si  Si32  1  0.160345  0.468373  0.962563  1
  Si  Si33  1  0.656003  0.034730  0.961202  1
  Si  Si34  1  0.343908  0.965998  0.039776  1
  Ru  Ru35  1  0.026390  0.105547  0.750026  1
