# generated using pymatgen
data_KNdB2Pd2(Pt2Au)2
_symmetry_space_group_name_H-M   'P 1'
_cell_length_a   5.61523900
_cell_length_b   5.61523908
_cell_length_c   7.70018400
_cell_angle_alpha   90.00000000
_cell_angle_beta   90.00000000
_cell_angle_gamma   119.99999365
_symmetry_Int_Tables_number   1
_chemical_formula_structural   KNdB2Pd2(Pt2Au)2
_chemical_formula_sum   'K1 Nd1 B2 Pd2 Pt4 Au2'
_cell_volume   210.26561605
_cell_formula_units_Z   1
loop_
 _symmetry_equiv_pos_site_id
 _symmetry_equiv_pos_as_xyz
  1  'x, y, z'
loop_
 _atom_site_type_symbol
 _atom_site_label
 _atom_site_symmetry_multiplicity
 _atom_site_fract_x
 _atom_site_fract_y
 _atom_site_fract_z
 _atom_site_occupancy
  K  K0  1  0.000000  0.000000  0.500000  1
  Nd  Nd1  1  0.000000  0.000000  0.000000  1
  B  B2  1  0.329253  0.670747  0.000000  1
  B  B3  1  0.670747  0.329253  0.000000  1
  Pd  Pd4  1  0.500000  0.500000  0.191697  1
  Pd  Pd5  1  0.500000  0.500000  0.808303  1
  Pt  Pt6  1  0.500000  0.000000  0.192767  1
  Pt  Pt7  1  0.500000  0.000000  0.807233  1
  Pt  Pt8  1  0.000000  0.500000  0.192767  1
  Pt  Pt9  1  0.000000  0.500000  0.807233  1
  Au  Au10  1  0.332390  0.667610  0.500000  1
  Au  Au11  1  0.667610  0.332390  0.500000  1
