# generated using pymatgen
data_Yb6CoSi24Ru7
_symmetry_space_group_name_H-M   'P 1'
_cell_length_a   10.09990001
_cell_length_b   10.09990070
_cell_length_c   8.11028573
_cell_angle_alpha   89.85810930
_cell_angle_beta   89.85810966
_cell_angle_gamma   132.64072338
_symmetry_Int_Tables_number   1
_chemical_formula_structural   Yb6CoSi24Ru7
_chemical_formula_sum   'Yb6 Co1 Si24 Ru7'
_cell_volume   608.57362942
_cell_formula_units_Z   1
loop_
 _symmetry_equiv_pos_site_id
 _symmetry_equiv_pos_as_xyz
  1  'x, y, z'
loop_
 _atom_site_type_symbol
 _atom_site_label
 _atom_site_symmetry_multiplicity
 _atom_site_fract_x
 _atom_site_fract_y
 _atom_site_fract_z
 _atom_site_occupancy
  Yb  Yb0  1  0.497407  0.996559  0.250947  1
  Yb  Yb1  1  0.001697  0.501953  0.750091  1
  Yb  Yb2  1  0.501953  0.001697  0.750091  1
  Yb  Yb3  1  0.996559  0.497407  0.250947  1
  Yb  Yb4  1  0.499804  0.499804  0.496404  1
  Yb  Yb5  1  0.003165  0.003165  0.000210  1
  Co  Co6  1  0.626616  0.626616  0.875308  1
  Si  Si7  1  0.387132  0.153341  0.008883  1
  Si  Si8  1  0.653625  0.885673  0.495899  1
  Si  Si9  1  0.112678  0.345828  0.505393  1
  Si  Si10  1  0.843501  0.614207  0.991439  1
  Si  Si11  1  0.614207  0.843501  0.991439  1
  Si  Si12  1  0.345828  0.112678  0.505393  1
  Si  Si13  1  0.885673  0.653625  0.495899  1
  Si  Si14  1  0.153341  0.387132  0.008883  1
  Si  Si15  1  0.607240  0.374009  0.229551  1
  Si  Si16  1  0.877436  0.110466  0.270427  1
  Si  Si17  1  0.889216  0.121343  0.730574  1
  Si  Si18  1  0.625065  0.396888  0.770965  1
  Si  Si19  1  0.396888  0.625065  0.770965  1
  Si  Si20  1  0.121343  0.889216  0.730574  1
  Si  Si21  1  0.704632  0.294091  0.999799  1
  Si  Si22  1  0.793561  0.205051  0.500682  1
  Si  Si23  1  0.294091  0.704632  0.999799  1
  Si  Si24  1  0.205051  0.793561  0.500682  1
  Si  Si25  1  0.166976  0.166976  0.331183  1
  Si  Si26  1  0.669176  0.669176  0.160885  1
  Si  Si27  1  0.340178  0.340178  0.829473  1
  Si  Si28  1  0.828738  0.828738  0.672178  1
  Si  Si29  1  0.374009  0.607240  0.229551  1
  Si  Si30  1  0.110466  0.877436  0.270427  1
  Ru  Ru31  1  0.125686  0.125686  0.625885  1
  Ru  Ru32  1  0.872843  0.872843  0.375316  1
  Ru  Ru33  1  0.376301  0.376301  0.122027  1
  Ru  Ru34  1  0.331332  0.668638  0.501101  1
  Ru  Ru35  1  0.168213  0.829728  0.999814  1
  Ru  Ru36  1  0.668638  0.331332  0.501101  1
  Ru  Ru37  1  0.829728  0.168213  0.999814  1
