# generated using pymatgen
data_Lu12Si12Tc3Ir
_symmetry_space_group_name_H-M   'P 1'
_cell_length_a   4.11724100
_cell_length_b   10.65563561
_cell_length_c   12.17123334
_cell_angle_alpha   90.14160647
_cell_angle_beta   90.00000000
_cell_angle_gamma   90.00000000
_symmetry_Int_Tables_number   1
_chemical_formula_structural   Lu12Si12Tc3Ir
_chemical_formula_sum   'Lu12 Si12 Tc3 Ir1'
_cell_volume   533.97252524
_cell_formula_units_Z   1
loop_
 _symmetry_equiv_pos_site_id
 _symmetry_equiv_pos_as_xyz
  1  'x, y, z'
loop_
 _atom_site_type_symbol
 _atom_site_label
 _atom_site_symmetry_multiplicity
 _atom_site_fract_x
 _atom_site_fract_y
 _atom_site_fract_z
 _atom_site_occupancy
  Lu  Lu0  1  0.250000  0.878352  0.020037  1
  Lu  Lu1  1  0.250000  0.623599  0.520256  1
  Lu  Lu2  1  0.750000  0.121549  0.981105  1
  Lu  Lu3  1  0.750000  0.378721  0.481182  1
  Lu  Lu4  1  0.250000  0.922840  0.605611  1
  Lu  Lu5  1  0.250000  0.577052  0.104659  1
  Lu  Lu6  1  0.750000  0.077277  0.394724  1
  Lu  Lu7  1  0.750000  0.422205  0.893192  1
  Lu  Lu8  1  0.250000  0.664528  0.798626  1
  Lu  Lu9  1  0.250000  0.834614  0.298615  1
  Lu  Lu10  1  0.750000  0.336079  0.200942  1
  Lu  Lu11  1  0.750000  0.158985  0.700492  1
  Si  Si12  1  0.250000  0.013557  0.823140  1
  Si  Si13  1  0.250000  0.486110  0.322222  1
  Si  Si14  1  0.750000  0.985267  0.178076  1
  Si  Si15  1  0.750000  0.516271  0.678415  1
  Si  Si16  1  0.250000  0.248541  0.842768  1
  Si  Si17  1  0.250000  0.248543  0.344486  1
  Si  Si18  1  0.750000  0.748962  0.154696  1
  Si  Si19  1  0.750000  0.752256  0.657665  1
  Si  Si20  1  0.250000  0.196856  0.543274  1
  Si  Si21  1  0.250000  0.302981  0.042273  1
  Si  Si22  1  0.750000  0.805212  0.457691  1
  Si  Si23  1  0.750000  0.697648  0.955362  1
  Tc  Tc24  1  0.250000  0.391699  0.680281  1
  Tc  Tc25  1  0.250000  0.109525  0.178565  1
  Tc  Tc26  1  0.750000  0.611025  0.320070  1
  Ir  Ir27  1  0.750000  0.889745  0.821575  1
