# generated using pymatgen
data_Li2Sc(SnRh2)3
_symmetry_space_group_name_H-M   'P 1'
_cell_length_a   4.47643000
_cell_length_b   6.26678500
_cell_length_c   13.40293500
_cell_angle_alpha   90.00000000
_cell_angle_beta   89.99868261
_cell_angle_gamma   90.00000000
_symmetry_Int_Tables_number   1
_chemical_formula_structural   Li2Sc(SnRh2)3
_chemical_formula_sum   'Li4 Sc2 Sn6 Rh12'
_cell_volume   375.99018180
_cell_formula_units_Z   2
loop_
 _symmetry_equiv_pos_site_id
 _symmetry_equiv_pos_as_xyz
  1  'x, y, z'
loop_
 _atom_site_type_symbol
 _atom_site_label
 _atom_site_symmetry_multiplicity
 _atom_site_fract_x
 _atom_site_fract_y
 _atom_site_fract_z
 _atom_site_occupancy
  Li  Li0  1  0.999781  0.499999  0.335718  1
  Li  Li1  1  0.500001  0.000000  0.500657  1
  Li  Li2  1  0.000197  0.499999  0.665989  1
  Li  Li3  1  0.500202  0.000000  0.830918  1
  Sc  Sc4  1  0.999984  0.499999  0.996736  1
  Sc  Sc5  1  0.499874  0.000000  0.169905  1
  Sn  Sn6  1  0.999974  0.000000  0.994888  1
  Sn  Sn7  1  0.499876  0.499999  0.171785  1
  Sn  Sn8  1  0.999806  0.000000  0.342581  1
  Sn  Sn9  1  0.500006  0.499999  0.504621  1
  Sn  Sn10  1  0.000206  0.000000  0.662152  1
  Sn  Sn11  1  0.500162  0.499999  0.824090  1
  Rh  Rh12  1  0.499981  0.250231  0.997971  1
  Rh  Rh13  1  0.499981  0.749769  0.997971  1
  Rh  Rh14  1  0.999850  0.249768  0.168650  1
  Rh  Rh15  1  0.999850  0.750232  0.168650  1
  Rh  Rh16  1  0.499843  0.251826  0.335817  1
  Rh  Rh17  1  0.499843  0.748174  0.335817  1
  Rh  Rh18  1  0.999998  0.254808  0.500653  1
  Rh  Rh19  1  0.999998  0.745192  0.500653  1
  Rh  Rh20  1  0.500125  0.245220  0.666031  1
  Rh  Rh21  1  0.500125  0.754780  0.666031  1
  Rh  Rh22  1  0.000167  0.248122  0.830858  1
  Rh  Rh23  1  0.000167  0.751878  0.830858  1
