# generated using pymatgen
data_RbGd2YS5
_symmetry_space_group_name_H-M   'P 1'
_cell_length_a   4.01163000
_cell_length_b   12.19036400
_cell_length_c   21.34797400
_cell_angle_alpha   90.00000000
_cell_angle_beta   90.00000000
_cell_angle_gamma   90.00000000
_symmetry_Int_Tables_number   1
_chemical_formula_structural   RbGd2YS5
_chemical_formula_sum   'Rb4 Gd8 Y4 S20'
_cell_volume   1043.98488113
_cell_formula_units_Z   4
loop_
 _symmetry_equiv_pos_site_id
 _symmetry_equiv_pos_as_xyz
  1  'x, y, z'
loop_
 _atom_site_type_symbol
 _atom_site_label
 _atom_site_symmetry_multiplicity
 _atom_site_fract_x
 _atom_site_fract_y
 _atom_site_fract_z
 _atom_site_occupancy
  Rb  Rb0  1  0.250000  0.839117  0.105058  1
  Rb  Rb1  1  0.750000  0.160883  0.894942  1
  Rb  Rb2  1  0.750000  0.339117  0.394942  1
  Rb  Rb3  1  0.250000  0.660883  0.605058  1
  Gd  Gd4  1  0.750000  0.804255  0.830472  1
  Gd  Gd5  1  0.250000  0.195745  0.169528  1
  Gd  Gd6  1  0.250000  0.304255  0.669528  1
  Gd  Gd7  1  0.750000  0.695745  0.330472  1
  Gd  Gd8  1  0.250000  0.966915  0.699125  1
  Gd  Gd9  1  0.750000  0.033085  0.300875  1
  Gd  Gd10  1  0.750000  0.466915  0.800875  1
  Gd  Gd11  1  0.250000  0.533085  0.199125  1
  Y  Y12  1  0.750000  0.388606  0.050412  1
  Y  Y13  1  0.250000  0.611394  0.949588  1
  Y  Y14  1  0.250000  0.888606  0.449588  1
  Y  Y15  1  0.750000  0.111394  0.550412  1
  S  S16  1  0.250000  0.955778  0.569757  1
  S  S17  1  0.750000  0.044222  0.430243  1
  S  S18  1  0.750000  0.455778  0.930243  1
  S  S19  1  0.250000  0.544222  0.069757  1
  S  S20  1  0.750000  0.761570  0.957357  1
  S  S21  1  0.250000  0.238430  0.042643  1
  S  S22  1  0.250000  0.261570  0.542643  1
  S  S23  1  0.750000  0.738430  0.457357  1
  S  S24  1  0.250000  0.954779  0.828324  1
  S  S25  1  0.750000  0.045221  0.171676  1
  S  S26  1  0.750000  0.454779  0.671676  1
  S  S27  1  0.250000  0.545221  0.328324  1
  S  S28  1  0.750000  0.133569  0.680738  1
  S  S29  1  0.250000  0.866431  0.319262  1
  S  S30  1  0.250000  0.633569  0.819262  1
  S  S31  1  0.750000  0.366431  0.180738  1
  S  S32  1  0.750000  0.682423  0.201519  1
  S  S33  1  0.250000  0.317577  0.798481  1
  S  S34  1  0.250000  0.182423  0.298481  1
  S  S35  1  0.750000  0.817577  0.701519  1
