# generated using pymatgen
data_La3Ho(CuP2)4
_symmetry_space_group_name_H-M   'P 1'
_cell_length_a   3.78154500
_cell_length_b   3.89585224
_cell_length_c   20.17591535
_cell_angle_alpha   89.86446274
_cell_angle_beta   90.00000000
_cell_angle_gamma   90.00000000
_symmetry_Int_Tables_number   1
_chemical_formula_structural   La3Ho(CuP2)4
_chemical_formula_sum   'La3 Ho1 Cu4 P8'
_cell_volume   297.23762411
_cell_formula_units_Z   1
loop_
 _symmetry_equiv_pos_site_id
 _symmetry_equiv_pos_as_xyz
  1  'x, y, z'
loop_
 _atom_site_type_symbol
 _atom_site_label
 _atom_site_symmetry_multiplicity
 _atom_site_fract_x
 _atom_site_fract_y
 _atom_site_fract_z
 _atom_site_occupancy
  La  La0  1  0.250000  0.713171  0.377582  1
  La  La1  1  0.250000  0.784767  0.885769  1
  La  La2  1  0.750000  0.287563  0.619635  1
  Ho  Ho3  1  0.750000  0.212605  0.119737  1
  Cu  Cu4  1  0.250000  0.216129  0.244354  1
  Cu  Cu5  1  0.750000  0.784301  0.752465  1
  Cu  Cu6  1  0.250000  0.284125  0.752103  1
  Cu  Cu7  1  0.750000  0.716469  0.244570  1
  P  P8  1  0.750000  0.822473  0.501399  1
  P  P9  1  0.750000  0.680018  0.010141  1
  P  P10  1  0.250000  0.178640  0.495962  1
  P  P11  1  0.250000  0.319180  0.004729  1
  P  P12  1  0.250000  0.715178  0.170761  1
  P  P13  1  0.750000  0.214762  0.315883  1
  P  P14  1  0.750000  0.284666  0.823583  1
  P  P15  1  0.250000  0.785955  0.681328  1
