# generated using pymatgen
data_Ho12Tc3Os
_symmetry_space_group_name_H-M   'P 1'
_cell_length_a   6.27048570
_cell_length_b   7.38432983
_cell_length_c   9.08133900
_cell_angle_alpha   90.00000000
_cell_angle_beta   90.00000000
_cell_angle_gamma   89.94566271
_symmetry_Int_Tables_number   1
_chemical_formula_structural   Ho12Tc3Os
_chemical_formula_sum   'Ho12 Tc3 Os1'
_cell_volume   420.49608961
_cell_formula_units_Z   1
loop_
 _symmetry_equiv_pos_site_id
 _symmetry_equiv_pos_as_xyz
  1  'x, y, z'
loop_
 _atom_site_type_symbol
 _atom_site_label
 _atom_site_symmetry_multiplicity
 _atom_site_fract_x
 _atom_site_fract_y
 _atom_site_fract_z
 _atom_site_occupancy
  Ho  Ho0  1  0.337106  0.675486  0.061838  1
  Ho  Ho1  1  0.161308  0.175089  0.436997  1
  Ho  Ho2  1  0.662564  0.325304  0.562923  1
  Ho  Ho3  1  0.835937  0.823940  0.936604  1
  Ho  Ho4  1  0.662564  0.325304  0.937077  1
  Ho  Ho5  1  0.835937  0.823940  0.563396  1
  Ho  Ho6  1  0.337106  0.675486  0.438162  1
  Ho  Ho7  1  0.161308  0.175089  0.063003  1
  Ho  Ho8  1  0.874207  0.540820  0.250000  1
  Ho  Ho9  1  0.626231  0.039001  0.250000  1
  Ho  Ho10  1  0.129006  0.458586  0.750000  1
  Ho  Ho11  1  0.373704  0.959881  0.750000  1
  Tc  Tc12  1  0.040750  0.884603  0.250000  1
  Tc  Tc13  1  0.461712  0.386680  0.250000  1
  Tc  Tc14  1  0.959972  0.114920  0.750000  1
  Os  Os15  1  0.540589  0.615870  0.750000  1
