# generated using pymatgen
data_Ca5Tm(Si3Ru)8
_symmetry_space_group_name_H-M   'P 1'
_cell_length_a   10.17017731
_cell_length_b   10.17017880
_cell_length_c   8.17140321
_cell_angle_alpha   90.01722502
_cell_angle_beta   90.01722133
_cell_angle_gamma   132.61945738
_symmetry_Int_Tables_number   1
_chemical_formula_structural   Ca5Tm(Si3Ru)8
_chemical_formula_sum   'Ca5 Tm1 Si24 Ru8'
_cell_volume   621.94655474
_cell_formula_units_Z   1
loop_
 _symmetry_equiv_pos_site_id
 _symmetry_equiv_pos_as_xyz
  1  'x, y, z'
loop_
 _atom_site_type_symbol
 _atom_site_label
 _atom_site_symmetry_multiplicity
 _atom_site_fract_x
 _atom_site_fract_y
 _atom_site_fract_z
 _atom_site_occupancy
  Ca  Ca0  1  0.000000  0.000000  0.000000  1
  Ca  Ca1  1  0.501795  0.001864  0.750008  1
  Ca  Ca2  1  0.998136  0.498205  0.249992  1
  Ca  Ca3  1  0.498205  0.998136  0.249992  1
  Ca  Ca4  1  0.001864  0.501795  0.750008  1
  Tm  Tm5  1  0.500000  0.500000  0.500000  1
  Si  Si6  1  0.793849  0.206151  0.500000  1
  Si  Si7  1  0.294065  0.705935  0.000000  1
  Si  Si8  1  0.206151  0.793849  0.500000  1
  Si  Si9  1  0.705935  0.294065  0.000000  1
  Si  Si10  1  0.332561  0.332561  0.833791  1
  Si  Si11  1  0.667439  0.667439  0.166209  1
  Si  Si12  1  0.165738  0.165738  0.331896  1
  Si  Si13  1  0.834262  0.834262  0.668104  1
  Si  Si14  1  0.123243  0.890480  0.729393  1
  Si  Si15  1  0.109520  0.876757  0.270607  1
  Si  Si16  1  0.609006  0.376098  0.228713  1
  Si  Si17  1  0.623902  0.390994  0.771287  1
  Si  Si18  1  0.876757  0.109520  0.270607  1
  Si  Si19  1  0.890480  0.123243  0.729393  1
  Si  Si20  1  0.390994  0.623902  0.771287  1
  Si  Si21  1  0.376098  0.609006  0.228713  1
  Si  Si22  1  0.344778  0.111447  0.506383  1
  Si  Si23  1  0.888553  0.655222  0.493617  1
  Si  Si24  1  0.386503  0.153800  0.006822  1
  Si  Si25  1  0.846200  0.613497  0.993178  1
  Si  Si26  1  0.655222  0.888553  0.493617  1
  Si  Si27  1  0.111447  0.344778  0.506383  1
  Si  Si28  1  0.613497  0.846200  0.993178  1
  Si  Si29  1  0.153800  0.386503  0.006822  1
  Ru  Ru30  1  0.667571  0.332429  0.500000  1
  Ru  Ru31  1  0.168874  0.831126  0.000000  1
  Ru  Ru32  1  0.332429  0.667571  0.500000  1
  Ru  Ru33  1  0.831126  0.168874  0.000000  1
  Ru  Ru34  1  0.128695  0.128695  0.623929  1
  Ru  Ru35  1  0.871305  0.871305  0.376071  1
  Ru  Ru36  1  0.375165  0.375165  0.127793  1
  Ru  Ru37  1  0.624835  0.624835  0.872207  1
