# generated using pymatgen
data_Ca2VBrO4
_symmetry_space_group_name_H-M   'P 1'
_cell_length_a   6.44911500
_cell_length_b   7.24288800
_cell_length_c   11.40379000
_cell_angle_alpha   90.00000000
_cell_angle_beta   90.00000000
_cell_angle_gamma   90.00000000
_symmetry_Int_Tables_number   1
_chemical_formula_structural   Ca2VBrO4
_chemical_formula_sum   'Ca8 V4 Br4 O16'
_cell_volume   532.67351287
_cell_formula_units_Z   4
loop_
 _symmetry_equiv_pos_site_id
 _symmetry_equiv_pos_as_xyz
  1  'x, y, z'
loop_
 _atom_site_type_symbol
 _atom_site_label
 _atom_site_symmetry_multiplicity
 _atom_site_fract_x
 _atom_site_fract_y
 _atom_site_fract_z
 _atom_site_occupancy
  Ca  Ca0  1  0.880634  0.975321  0.250000  1
  Ca  Ca1  1  0.119366  0.024679  0.750000  1
  Ca  Ca2  1  0.119366  0.475321  0.250000  1
  Ca  Ca3  1  0.880634  0.524679  0.750000  1
  Ca  Ca4  1  0.623989  0.250000  0.500000  1
  Ca  Ca5  1  0.623989  0.250000  0.000000  1
  Ca  Ca6  1  0.376011  0.750000  0.500000  1
  Ca  Ca7  1  0.376011  0.750000  0.000000  1
  V  V8  1  0.129347  0.250000  0.000000  1
  V  V9  1  0.870653  0.750000  0.500000  1
  V  V10  1  0.129347  0.250000  0.500000  1
  V  V11  1  0.870653  0.750000  0.000000  1
  Br  Br12  1  0.512878  0.695564  0.250000  1
  Br  Br13  1  0.487122  0.195564  0.250000  1
  Br  Br14  1  0.512878  0.804436  0.750000  1
  Br  Br15  1  0.487122  0.304436  0.750000  1
  O  O16  1  0.968181  0.267443  0.623495  1
  O  O17  1  0.291019  0.063871  0.525482  1
  O  O18  1  0.291019  0.436129  0.025482  1
  O  O19  1  0.291019  0.436129  0.474518  1
  O  O20  1  0.708981  0.563871  0.525482  1
  O  O21  1  0.031819  0.732557  0.376505  1
  O  O22  1  0.968181  0.232557  0.123495  1
  O  O23  1  0.031819  0.767443  0.623495  1
  O  O24  1  0.031819  0.732557  0.123495  1
  O  O25  1  0.031819  0.767443  0.876505  1
  O  O26  1  0.968181  0.232557  0.376505  1
  O  O27  1  0.291019  0.063871  0.974518  1
  O  O28  1  0.708981  0.936129  0.474518  1
  O  O29  1  0.708981  0.563871  0.974518  1
  O  O30  1  0.708981  0.936129  0.025482  1
  O  O31  1  0.968181  0.267443  0.876505  1
