# generated using pymatgen
data_Sr2ScGaF10
_symmetry_space_group_name_H-M   'P 1'
_cell_length_a   5.83416610
_cell_length_b   5.88450709
_cell_length_c   7.97789356
_cell_angle_alpha   69.67010635
_cell_angle_beta   70.29221651
_cell_angle_gamma   71.79200717
_symmetry_Int_Tables_number   1
_chemical_formula_structural   Sr2ScGaF10
_chemical_formula_sum   'Sr2 Sc1 Ga1 F10'
_cell_volume   235.79383602
_cell_formula_units_Z   1
loop_
 _symmetry_equiv_pos_site_id
 _symmetry_equiv_pos_as_xyz
  1  'x, y, z'
loop_
 _atom_site_type_symbol
 _atom_site_label
 _atom_site_symmetry_multiplicity
 _atom_site_fract_x
 _atom_site_fract_y
 _atom_site_fract_z
 _atom_site_occupancy
  Sr  Sr0  1  0.537708  0.448931  0.755700  1
  Sr  Sr1  1  0.462292  0.551069  0.244300  1
  Sc  Sc2  1  0.000000  0.000000  0.500000  1
  Ga  Ga3  1  0.000000  0.000000  0.000000  1
  F  F4  1  0.069804  0.931625  0.243937  1
  F  F5  1  0.930196  0.068375  0.756063  1
  F  F6  1  0.212973  0.248146  0.380448  1
  F  F7  1  0.767895  0.800583  0.110611  1
  F  F8  1  0.730698  0.288388  0.031591  1
  F  F9  1  0.695531  0.283394  0.474041  1
  F  F10  1  0.269302  0.711612  0.968409  1
  F  F11  1  0.304469  0.716606  0.525959  1
  F  F12  1  0.232105  0.199417  0.889389  1
  F  F13  1  0.787027  0.751854  0.619552  1
