# generated using pymatgen
data_Ca10ZnNi3Hg2
_symmetry_space_group_name_H-M   'P 1'
_cell_length_a   9.17942586
_cell_length_b   9.17942622
_cell_length_c   9.22903882
_cell_angle_alpha   130.23131708
_cell_angle_beta   130.23132435
_cell_angle_gamma   72.61855642
_symmetry_Int_Tables_number   1
_chemical_formula_structural   Ca10ZnNi3Hg2
_chemical_formula_sum   'Ca10 Zn1 Ni3 Hg2'
_cell_volume   443.79887284
_cell_formula_units_Z   1
loop_
 _symmetry_equiv_pos_site_id
 _symmetry_equiv_pos_as_xyz
  1  'x, y, z'
loop_
 _atom_site_type_symbol
 _atom_site_label
 _atom_site_symmetry_multiplicity
 _atom_site_fract_x
 _atom_site_fract_y
 _atom_site_fract_z
 _atom_site_occupancy
  Ca  Ca0  1  0.997582  0.007139  0.004721  1
  Ca  Ca1  1  0.507139  0.497582  0.004721  1
  Ca  Ca2  1  0.804967  0.304967  0.837947  1
  Ca  Ca3  1  0.309430  0.457915  0.492538  1
  Ca  Ca4  1  0.957915  0.809430  0.492538  1
  Ca  Ca5  1  0.683108  0.534623  0.492538  1
  Ca  Ca6  1  0.034623  0.183108  0.492538  1
  Ca  Ca7  1  0.532979  0.032979  0.837947  1
  Ca  Ca8  1  0.199984  0.699984  0.174997  1
  Ca  Ca9  1  0.475015  0.975015  0.174997  1
  Zn  Zn10  1  0.110197  0.610197  0.720392  1
  Ni  Ni11  1  0.889008  0.389008  0.278018  1
  Ni  Ni12  1  0.390824  0.110461  0.501285  1
  Ni  Ni13  1  0.610461  0.890824  0.501285  1
  Hg  Hg14  1  0.248384  0.248384  0.996768  1
  Hg  Hg15  1  0.748384  0.748384  0.996768  1
