# generated using pymatgen
data_Ba2SrU3Se10
_symmetry_space_group_name_H-M   'P 1'
_cell_length_a   8.05221600
_cell_length_b   8.80380553
_cell_length_c   12.61890039
_cell_angle_alpha   89.64564758
_cell_angle_beta   90.00000000
_cell_angle_gamma   90.00000000
_symmetry_Int_Tables_number   1
_chemical_formula_structural   Ba2SrU3Se10
_chemical_formula_sum   'Ba4 Sr2 U6 Se20'
_cell_volume   894.53855399
_cell_formula_units_Z   2
loop_
 _symmetry_equiv_pos_site_id
 _symmetry_equiv_pos_as_xyz
  1  'x, y, z'
loop_
 _atom_site_type_symbol
 _atom_site_label
 _atom_site_symmetry_multiplicity
 _atom_site_fract_x
 _atom_site_fract_y
 _atom_site_fract_z
 _atom_site_occupancy
  Ba  Ba0  1  0.056055  0.494416  0.332684  1
  Ba  Ba1  1  0.556055  0.505584  0.167316  1
  Ba  Ba2  1  0.936964  0.507828  0.671246  1
  Ba  Ba3  1  0.436964  0.492172  0.828754  1
  Sr  Sr4  1  0.050503  0.002673  0.320090  1
  Sr  Sr5  1  0.550503  0.997327  0.179910  1
  U  U6  1  0.961030  0.001266  0.672064  1
  U  U7  1  0.461030  0.998734  0.827936  1
  U  U8  1  0.053430  0.752159  0.001375  1
  U  U9  1  0.553430  0.247841  0.498625  1
  U  U10  1  0.938431  0.242698  0.991650  1
  U  U11  1  0.438431  0.757302  0.508350  1
  Se  Se12  1  0.666618  0.961685  0.429830  1
  Se  Se13  1  0.166618  0.038315  0.070170  1
  Se  Se14  1  0.328394  0.042627  0.598960  1
  Se  Se15  1  0.828394  0.957373  0.901040  1
  Se  Se16  1  0.440056  0.778553  0.992293  1
  Se  Se17  1  0.940056  0.221447  0.507707  1
  Se  Se18  1  0.555372  0.216338  0.983063  1
  Se  Se19  1  0.055372  0.783662  0.516937  1
  Se  Se20  1  0.861178  0.758624  0.182201  1
  Se  Se21  1  0.361178  0.241376  0.317799  1
  Se  Se22  1  0.143277  0.217799  0.804541  1
  Se  Se23  1  0.643277  0.782201  0.695459  1
  Se  Se24  1  0.336540  0.755714  0.299351  1
  Se  Se25  1  0.836540  0.244286  0.200649  1
  Se  Se26  1  0.671936  0.216998  0.711521  1
  Se  Se27  1  0.171936  0.783002  0.788479  1
  Se  Se28  1  0.177370  0.461160  0.060893  1
  Se  Se29  1  0.677370  0.538840  0.439107  1
  Se  Se30  1  0.822847  0.535237  0.923949  1
  Se  Se31  1  0.322847  0.464763  0.576051  1
