# generated using pymatgen
data_Pr4Zr3RuF28
_symmetry_space_group_name_H-M   'P 1'
_cell_length_a   5.83003201
_cell_length_b   9.38625501
_cell_length_c   12.56292230
_cell_angle_alpha   62.33024729
_cell_angle_beta   89.98942809
_cell_angle_gamma   90.00841746
_symmetry_Int_Tables_number   1
_chemical_formula_structural   Pr4Zr3RuF28
_chemical_formula_sum   'Pr4 Zr3 Ru1 F28'
_cell_volume   608.85043908
_cell_formula_units_Z   1
loop_
 _symmetry_equiv_pos_site_id
 _symmetry_equiv_pos_as_xyz
  1  'x, y, z'
loop_
 _atom_site_type_symbol
 _atom_site_label
 _atom_site_symmetry_multiplicity
 _atom_site_fract_x
 _atom_site_fract_y
 _atom_site_fract_z
 _atom_site_occupancy
  Pr  Pr0  1  0.757894  0.812909  0.765713  1
  Pr  Pr1  1  0.256658  0.188646  0.729348  1
  Pr  Pr2  1  0.241655  0.189167  0.239664  1
  Pr  Pr3  1  0.742717  0.813597  0.265685  1
  Zr  Zr4  1  0.754252  0.273837  0.957006  1
  Zr  Zr5  1  0.254447  0.725335  0.542878  1
  Zr  Zr6  1  0.245659  0.726428  0.043320  1
  Ru  Ru7  1  0.743256  0.274289  0.456120  1
  F  F8  1  0.454360  0.710073  0.919492  1
  F  F9  1  0.937374  0.288324  0.579839  1
  F  F10  1  0.542616  0.287746  0.080956  1
  F  F11  1  0.047063  0.711036  0.418052  1
  F  F12  1  0.461830  0.280689  0.542374  1
  F  F13  1  0.953726  0.720031  0.954064  1
  F  F14  1  0.546382  0.716345  0.454814  1
  F  F15  1  0.042134  0.278903  0.049219  1
  F  F16  1  0.771707  0.518866  0.861576  1
  F  F17  1  0.267031  0.480980  0.637741  1
  F  F18  1  0.226316  0.482111  0.139521  1
  F  F19  1  0.735722  0.504254  0.365248  1
  F  F20  1  0.759612  0.029141  0.056715  1
  F  F21  1  0.263049  0.969325  0.446272  1
  F  F22  1  0.238884  0.969732  0.941612  1
  F  F23  1  0.741514  0.044665  0.546138  1
  F  F24  1  0.975043  0.733930  0.637706  1
  F  F25  1  0.480535  0.267975  0.857603  1
  F  F26  1  0.018674  0.269690  0.366675  1
  F  F27  1  0.523005  0.729577  0.141594  1
  F  F28  1  0.047011  0.746306  0.170408  1
  F  F29  1  0.552539  0.258616  0.331421  1
  F  F30  1  0.958323  0.254305  0.831148  1
  F  F31  1  0.455518  0.745839  0.669276  1
  F  F32  1  0.415099  0.969460  0.234742  1
  F  F33  1  0.916086  0.030269  0.269784  1
  F  F34  1  0.584845  0.031126  0.767137  1
  F  F35  1  0.087465  0.966477  0.729137  1
