# generated using pymatgen
data_Ca2YbHo(ReB4)4
_symmetry_space_group_name_H-M   'P 1'
_cell_length_a   3.57851700
_cell_length_b   5.99677661
_cell_length_c   11.59283700
_cell_angle_alpha   90.06289682
_cell_angle_beta   90.00000000
_cell_angle_gamma   90.00000000
_symmetry_Int_Tables_number   1
_chemical_formula_structural   Ca2YbHo(ReB4)4
_chemical_formula_sum   'Ca2 Yb1 Ho1 Re4 B16'
_cell_volume   248.77711307
_cell_formula_units_Z   1
loop_
 _symmetry_equiv_pos_site_id
 _symmetry_equiv_pos_as_xyz
  1  'x, y, z'
loop_
 _atom_site_type_symbol
 _atom_site_label
 _atom_site_symmetry_multiplicity
 _atom_site_fract_x
 _atom_site_fract_y
 _atom_site_fract_z
 _atom_site_occupancy
  Ca  Ca0  1  0.500000  0.627092  0.848709  1
  Ca  Ca1  1  0.500000  0.127546  0.650458  1
  Yb  Yb2  1  0.500000  0.872443  0.350842  1
  Ho  Ho3  1  0.500000  0.372003  0.150801  1
  Re  Re4  1  0.500000  0.370383  0.414849  1
  Re  Re5  1  0.500000  0.630986  0.582632  1
  Re  Re6  1  0.500000  0.131985  0.917464  1
  Re  Re7  1  0.500000  0.870365  0.085765  1
  B  B8  1  0.000000  0.112998  0.048080  1
  B  B9  1  0.000000  0.885519  0.952841  1
  B  B10  1  0.000000  0.385386  0.546589  1
  B  B11  1  0.000000  0.614424  0.451558  1
  B  B12  1  0.000000  0.134626  0.466971  1
  B  B13  1  0.000000  0.864809  0.531096  1
  B  B14  1  0.000000  0.364166  0.968923  1
  B  B15  1  0.000000  0.635683  0.032433  1
  B  B16  1  0.000000  0.023890  0.192973  1
  B  B17  1  0.000000  0.976794  0.808126  1
  B  B18  1  0.000000  0.476523  0.691953  1
  B  B19  1  0.000000  0.524478  0.307110  1
  B  B20  1  0.000000  0.214259  0.314867  1
  B  B21  1  0.000000  0.784513  0.684361  1
  B  B22  1  0.000000  0.283605  0.815278  1
  B  B23  1  0.000000  0.715522  0.185320  1
