# generated using pymatgen
data_Tb2DyTm(Mo2O7)2
_symmetry_space_group_name_H-M   'P 1'
_cell_length_a   7.37217723
_cell_length_b   7.37217800
_cell_length_c   7.33633436
_cell_angle_alpha   60.27419938
_cell_angle_beta   60.27419742
_cell_angle_gamma   59.74919361
_symmetry_Int_Tables_number   1
_chemical_formula_structural   Tb2DyTm(Mo2O7)2
_chemical_formula_sum   'Tb2 Dy1 Tm1 Mo4 O14'
_cell_volume   282.55733389
_cell_formula_units_Z   1
loop_
 _symmetry_equiv_pos_site_id
 _symmetry_equiv_pos_as_xyz
  1  'x, y, z'
loop_
 _atom_site_type_symbol
 _atom_site_label
 _atom_site_symmetry_multiplicity
 _atom_site_fract_x
 _atom_site_fract_y
 _atom_site_fract_z
 _atom_site_occupancy
  Tb  Tb0  1  0.625000  0.125000  0.125000  1
  Tb  Tb1  1  0.125000  0.625000  0.125000  1
  Dy  Dy2  1  0.125000  0.125000  0.625000  1
  Tm  Tm3  1  0.125000  0.125000  0.125000  1
  Mo  Mo4  1  0.625000  0.625000  0.625000  1
  Mo  Mo5  1  0.125000  0.625000  0.625000  1
  Mo  Mo6  1  0.625000  0.625000  0.125000  1
  Mo  Mo7  1  0.625000  0.125000  0.625000  1
  O  O8  1  0.002381  0.002381  0.000712  1
  O  O9  1  0.247619  0.247619  0.249288  1
  O  O10  1  0.279088  0.279088  0.723681  1
  O  O11  1  0.529220  0.529220  0.970262  1
  O  O12  1  0.711931  0.288161  0.711357  1
  O  O13  1  0.713891  0.287985  0.287873  1
  O  O14  1  0.288161  0.711931  0.711357  1
  O  O15  1  0.287985  0.713891  0.287873  1
  O  O16  1  0.720780  0.720780  0.279738  1
  O  O17  1  0.961839  0.538069  0.538643  1
  O  O18  1  0.536109  0.962015  0.962127  1
  O  O19  1  0.970912  0.970912  0.526319  1
  O  O20  1  0.962015  0.536109  0.962127  1
  O  O21  1  0.538069  0.961839  0.538643  1
