# generated using pymatgen
data_Dy4Ho12MgIn3Ni4
_symmetry_space_group_name_H-M   'P 1'
_cell_length_a   9.57858670
_cell_length_b   9.53911458
_cell_length_c   9.53911500
_cell_angle_alpha   60.00000203
_cell_angle_beta   60.13622593
_cell_angle_gamma   60.13622572
_symmetry_Int_Tables_number   1
_chemical_formula_structural   Dy4Ho12MgIn3Ni4
_chemical_formula_sum   'Dy4 Ho12 Mg1 In3 Ni4'
_cell_volume   617.58077264
_cell_formula_units_Z   1
loop_
 _symmetry_equiv_pos_site_id
 _symmetry_equiv_pos_as_xyz
  1  'x, y, z'
loop_
 _atom_site_type_symbol
 _atom_site_label
 _atom_site_symmetry_multiplicity
 _atom_site_fract_x
 _atom_site_fract_y
 _atom_site_fract_z
 _atom_site_occupancy
  Dy  Dy0  1  0.348326  0.346978  0.346978  1
  Dy  Dy1  1  0.348326  0.346978  0.957716  1
  Dy  Dy2  1  0.348326  0.957716  0.346978  1
  Dy  Dy3  1  0.953987  0.348671  0.348671  1
  Ho  Ho4  1  0.810694  0.188833  0.188833  1
  Ho  Ho5  1  0.185877  0.813509  0.813509  1
  Ho  Ho6  1  0.185877  0.813509  0.187103  1
  Ho  Ho7  1  0.810694  0.188833  0.811639  1
  Ho  Ho8  1  0.185877  0.187103  0.813509  1
  Ho  Ho9  1  0.810694  0.811639  0.188833  1
  Ho  Ho10  1  0.935782  0.564588  0.564587  1
  Ho  Ho11  1  0.564243  0.936232  0.936231  1
  Ho  Ho12  1  0.564244  0.936232  0.563292  1
  Ho  Ho13  1  0.935782  0.564588  0.935043  1
  Ho  Ho14  1  0.564243  0.563293  0.936231  1
  Ho  Ho15  1  0.935782  0.935044  0.564587  1
  Mg  Mg16  1  0.267478  0.577507  0.577507  1
  In  In17  1  0.581787  0.582873  0.582873  1
  In  In18  1  0.581787  0.582873  0.252468  1
  In  In19  1  0.581787  0.252468  0.582873  1
  Ni  Ni20  1  0.141276  0.141972  0.141972  1
  Ni  Ni21  1  0.141276  0.141972  0.574780  1
  Ni  Ni22  1  0.141276  0.574780  0.141972  1
  Ni  Ni23  1  0.574569  0.141810  0.141810  1
