# generated using pymatgen
data_Ba2Hf6BCl17
_symmetry_space_group_name_H-M   'P 1'
_cell_length_a   9.64979392
_cell_length_b   9.64979420
_cell_length_c   9.64979395
_cell_angle_alpha   105.31989064
_cell_angle_beta   105.31989096
_cell_angle_gamma   118.13717890
_symmetry_Int_Tables_number   1
_chemical_formula_structural   Ba2Hf6BCl17
_chemical_formula_sum   'Ba2 Hf6 B1 Cl17'
_cell_volume   679.69199739
_cell_formula_units_Z   1
loop_
 _symmetry_equiv_pos_site_id
 _symmetry_equiv_pos_as_xyz
  1  'x, y, z'
loop_
 _atom_site_type_symbol
 _atom_site_label
 _atom_site_symmetry_multiplicity
 _atom_site_fract_x
 _atom_site_fract_y
 _atom_site_fract_z
 _atom_site_occupancy
  Ba  Ba0  1  0.250000  0.750000  0.500000  1
  Ba  Ba1  1  0.750000  0.250000  0.500000  1
  Hf  Hf2  1  0.230648  0.230648  0.000000  1
  Hf  Hf3  1  0.769352  0.769352  0.000000  1
  Hf  Hf4  1  0.182148  0.065630  0.247779  1
  Hf  Hf5  1  0.934370  0.182148  0.116519  1
  Hf  Hf6  1  0.817852  0.934370  0.752221  1
  Hf  Hf7  1  0.065630  0.817852  0.883481  1
  B  B8  1  0.000000  0.000000  0.000000  1
  Cl  Cl9  1  0.870262  0.723257  0.593518  1
  Cl  Cl10  1  0.276743  0.870262  0.147005  1
  Cl  Cl11  1  0.132673  0.598192  0.730866  1
  Cl  Cl12  1  0.542531  0.672200  0.721592  1
  Cl  Cl13  1  0.867327  0.401808  0.269134  1
  Cl  Cl14  1  0.457469  0.327800  0.278408  1
  Cl  Cl15  1  0.820940  0.542531  0.870332  1
  Cl  Cl16  1  0.401808  0.132673  0.534481  1
  Cl  Cl17  1  0.598192  0.867327  0.465519  1
  Cl  Cl18  1  0.129738  0.276743  0.406482  1
  Cl  Cl19  1  0.327800  0.049393  0.870332  1
  Cl  Cl20  1  0.950607  0.820940  0.278408  1
  Cl  Cl21  1  0.723257  0.129738  0.852995  1
  Cl  Cl22  1  0.500000  0.500000  0.000000  1
  Cl  Cl23  1  0.179060  0.457469  0.129668  1
  Cl  Cl24  1  0.049393  0.179060  0.721592  1
  Cl  Cl25  1  0.672200  0.950607  0.129668  1
