# generated using pymatgen
data_Yb2DyGa9Pd2
_symmetry_space_group_name_H-M   'P 1'
_cell_length_a   4.31261445
_cell_length_b   8.20213105
_cell_length_c   8.20213070
_cell_angle_alpha   71.62854820
_cell_angle_beta   74.75804295
_cell_angle_gamma   74.75804005
_symmetry_Int_Tables_number   1
_chemical_formula_structural   Yb2DyGa9Pd2
_chemical_formula_sum   'Yb2 Dy1 Ga9 Pd2'
_cell_volume   260.47259920
_cell_formula_units_Z   1
loop_
 _symmetry_equiv_pos_site_id
 _symmetry_equiv_pos_as_xyz
  1  'x, y, z'
loop_
 _atom_site_type_symbol
 _atom_site_label
 _atom_site_symmetry_multiplicity
 _atom_site_fract_x
 _atom_site_fract_y
 _atom_site_fract_z
 _atom_site_occupancy
  Yb  Yb0  1  0.499734  0.500266  0.500266  1
  Yb  Yb1  1  0.200323  0.799677  0.799677  1
  Dy  Dy2  1  0.798284  0.201716  0.201716  1
  Ga  Ga3  1  0.362043  0.357734  0.918181  1
  Ga  Ga4  1  0.640019  0.640808  0.079154  1
  Ga  Ga5  1  0.362043  0.918181  0.357734  1
  Ga  Ga6  1  0.640019  0.079154  0.640808  1
  Ga  Ga7  1  0.155143  0.478785  0.210928  1
  Ga  Ga8  1  0.843191  0.521914  0.791706  1
  Ga  Ga9  1  0.155143  0.210928  0.478785  1
  Ga  Ga10  1  0.843191  0.791706  0.521914  1
  Ga  Ga11  1  0.500023  0.999977  0.999977  1
  Pd  Pd12  1  0.000423  0.818658  0.180495  1
  Pd  Pd13  1  0.000423  0.180495  0.818658  1
