# generated using pymatgen
data_Tm8Lu12Si15Rh
_symmetry_space_group_name_H-M   'P 1'
_cell_length_a   7.25120310
_cell_length_b   7.53367701
_cell_length_c   14.28740603
_cell_angle_alpha   89.75533163
_cell_angle_beta   89.74072129
_cell_angle_gamma   90.19348235
_symmetry_Int_Tables_number   1
_chemical_formula_structural   Tm8Lu12Si15Rh
_chemical_formula_sum   'Tm8 Lu12 Si15 Rh1'
_cell_volume   780.47598052
_cell_formula_units_Z   1
loop_
 _symmetry_equiv_pos_site_id
 _symmetry_equiv_pos_as_xyz
  1  'x, y, z'
loop_
 _atom_site_type_symbol
 _atom_site_label
 _atom_site_symmetry_multiplicity
 _atom_site_fract_x
 _atom_site_fract_y
 _atom_site_fract_z
 _atom_site_occupancy
  Tm  Tm0  1  0.018763  0.179805  0.097798  1
  Tm  Tm1  1  0.982530  0.819245  0.902899  1
  Tm  Tm2  1  0.482419  0.678938  0.903421  1
  Tm  Tm3  1  0.983316  0.818257  0.596760  1
  Tm  Tm4  1  0.517513  0.321353  0.096535  1
  Tm  Tm5  1  0.016076  0.181494  0.402824  1
  Tm  Tm6  1  0.513431  0.321744  0.402223  1
  Tm  Tm7  1  0.480752  0.673480  0.597359  1
  Lu  Lu8  1  0.161852  0.511939  0.743461  1
  Lu  Lu9  1  0.841458  0.491166  0.252444  1
  Lu  Lu10  1  0.340952  0.006004  0.250707  1
  Lu  Lu11  1  0.658751  0.990329  0.748465  1
  Lu  Lu12  1  0.324947  0.190187  0.618570  1
  Lu  Lu13  1  0.669637  0.820711  0.375436  1
  Lu  Lu14  1  0.176186  0.664865  0.380272  1
  Lu  Lu15  1  0.675378  0.822527  0.125414  1
  Lu  Lu16  1  0.832770  0.324783  0.622470  1
  Lu  Lu17  1  0.325738  0.180386  0.876716  1
  Lu  Lu18  1  0.829272  0.319565  0.877601  1
  Lu  Lu19  1  0.172967  0.679028  0.123251  1
  Si  Si20  1  0.031354  0.104401  0.750885  1
  Si  Si21  1  0.972637  0.890748  0.251624  1
  Si  Si22  1  0.469159  0.605223  0.248282  1
  Si  Si23  1  0.536102  0.392812  0.752640  1
  Si  Si24  1  0.280450  0.875101  0.751295  1
  Si  Si25  1  0.719966  0.130761  0.249195  1
  Si  Si26  1  0.221861  0.367381  0.247088  1
  Si  Si27  1  0.777618  0.629837  0.754163  1
  Si  Si28  1  0.837050  0.530138  0.459963  1
  Si  Si29  1  0.342919  0.968468  0.460001  1
  Si  Si30  1  0.842573  0.532352  0.038927  1
  Si  Si31  1  0.655288  0.032004  0.537863  1
  Si  Si32  1  0.155548  0.468708  0.961660  1
  Si  Si33  1  0.655622  0.030281  0.961941  1
  Si  Si34  1  0.347435  0.968699  0.038938  1
  Rh  Rh35  1  0.149713  0.477279  0.540908  1
