# generated using pymatgen
data_Dy10ZnSn6As
_symmetry_space_group_name_H-M   'P 1'
_cell_length_a   9.16707203
_cell_length_b   9.16707546
_cell_length_c   6.59534101
_cell_angle_alpha   90.00028014
_cell_angle_beta   89.99989558
_cell_angle_gamma   119.99883976
_symmetry_Int_Tables_number   1
_chemical_formula_structural   Dy10ZnSn6As
_chemical_formula_sum   'Dy10 Zn1 Sn6 As1'
_cell_volume   479.99245900
_cell_formula_units_Z   1
loop_
 _symmetry_equiv_pos_site_id
 _symmetry_equiv_pos_as_xyz
  1  'x, y, z'
loop_
 _atom_site_type_symbol
 _atom_site_label
 _atom_site_symmetry_multiplicity
 _atom_site_fract_x
 _atom_site_fract_y
 _atom_site_fract_z
 _atom_site_occupancy
  Dy  Dy0  1  0.257504  0.000003  0.239398  1
  Dy  Dy1  1  0.742496  0.999997  0.760602  1
  Dy  Dy2  1  0.000003  0.257504  0.239399  1
  Dy  Dy3  1  0.999997  0.742496  0.760601  1
  Dy  Dy4  1  0.742497  0.742497  0.239397  1
  Dy  Dy5  1  0.257503  0.257503  0.760603  1
  Dy  Dy6  1  0.333330  0.666668  0.000000  1
  Dy  Dy7  1  0.666670  0.333332  0.000000  1
  Dy  Dy8  1  0.666668  0.333332  0.500000  1
  Dy  Dy9  1  0.333332  0.666668  0.500000  1
  Zn  Zn10  1  0.000000  0.000000  0.500000  1
  Sn  Sn11  1  0.608128  0.999983  0.248985  1
  Sn  Sn12  1  0.391872  0.000017  0.751015  1
  Sn  Sn13  1  0.999983  0.608128  0.248985  1
  Sn  Sn14  1  0.000017  0.391872  0.751015  1
  Sn  Sn15  1  0.391858  0.391856  0.249001  1
  Sn  Sn16  1  0.608142  0.608144  0.750999  1
  As  As17  1  0.000000  0.000000  0.000000  1
