# generated using pymatgen
data_Pr4PtRhAu2
_symmetry_space_group_name_H-M   'P 1'
_cell_length_a   4.76163000
_cell_length_b   5.79895886
_cell_length_c   7.47909723
_cell_angle_alpha   88.41849269
_cell_angle_beta   90.00000000
_cell_angle_gamma   90.00000000
_symmetry_Int_Tables_number   1
_chemical_formula_structural   Pr4PtRhAu2
_chemical_formula_sum   'Pr4 Pt1 Rh1 Au2'
_cell_volume   206.43787873
_cell_formula_units_Z   1
loop_
 _symmetry_equiv_pos_site_id
 _symmetry_equiv_pos_as_xyz
  1  'x, y, z'
loop_
 _atom_site_type_symbol
 _atom_site_label
 _atom_site_symmetry_multiplicity
 _atom_site_fract_x
 _atom_site_fract_y
 _atom_site_fract_z
 _atom_site_occupancy
  Pr  Pr0  1  0.250000  0.360546  0.669801  1
  Pr  Pr1  1  0.250000  0.137705  0.201808  1
  Pr  Pr2  1  0.750000  0.645272  0.330242  1
  Pr  Pr3  1  0.750000  0.862795  0.799752  1
  Pt  Pt4  1  0.750000  0.156987  0.455910  1
  Rh  Rh5  1  0.250000  0.833943  0.542447  1
  Au  Au6  1  0.250000  0.650432  0.039389  1
  Au  Au7  1  0.750000  0.352320  0.960651  1
