# generated using pymatgen
data_Pr16CdAg(HgPt2)2
_symmetry_space_group_name_H-M   'P 1'
_cell_length_a   10.05003992
_cell_length_b   10.07030339
_cell_length_c   10.07030361
_cell_angle_alpha   60.17301569
_cell_angle_beta   60.11768637
_cell_angle_gamma   60.11768683
_symmetry_Int_Tables_number   1
_chemical_formula_structural   Pr16CdAg(HgPt2)2
_chemical_formula_sum   'Pr16 Cd1 Ag1 Hg2 Pt4'
_cell_volume   722.89434919
_cell_formula_units_Z   1
loop_
 _symmetry_equiv_pos_site_id
 _symmetry_equiv_pos_as_xyz
  1  'x, y, z'
loop_
 _atom_site_type_symbol
 _atom_site_label
 _atom_site_symmetry_multiplicity
 _atom_site_fract_x
 _atom_site_fract_y
 _atom_site_fract_z
 _atom_site_occupancy
  Pr  Pr0  1  0.350470  0.350035  0.350035  1
  Pr  Pr1  1  0.352846  0.352493  0.943408  1
  Pr  Pr2  1  0.352846  0.943408  0.352493  1
  Pr  Pr3  1  0.940846  0.353470  0.353470  1
  Pr  Pr4  1  0.809797  0.192023  0.192023  1
  Pr  Pr5  1  0.188753  0.809408  0.809408  1
  Pr  Pr6  1  0.190581  0.810562  0.191824  1
  Pr  Pr7  1  0.808531  0.190034  0.808916  1
  Pr  Pr8  1  0.190581  0.191824  0.810562  1
  Pr  Pr9  1  0.808531  0.808916  0.190034  1
  Pr  Pr10  1  0.936692  0.563615  0.563615  1
  Pr  Pr11  1  0.559909  0.936896  0.936896  1
  Pr  Pr12  1  0.562765  0.937252  0.563635  1
  Pr  Pr13  1  0.936531  0.560653  0.936676  1
  Pr  Pr14  1  0.562765  0.563635  0.937252  1
  Pr  Pr15  1  0.936531  0.936676  0.560653  1
  Cd  Cd16  1  0.261765  0.580397  0.580397  1
  Ag  Ag17  1  0.581440  0.584412  0.584412  1
  Hg  Hg18  1  0.584158  0.586864  0.246508  1
  Hg  Hg19  1  0.584158  0.246508  0.586864  1
  Pt  Pt20  1  0.144151  0.144894  0.144894  1
  Pt  Pt21  1  0.142625  0.143009  0.570061  1
  Pt  Pt22  1  0.142625  0.570061  0.143009  1
  Pt  Pt23  1  0.570097  0.142951  0.142951  1
