# generated using pymatgen
data_Sc2MnBeB8
_symmetry_space_group_name_H-M   'P 1'
_cell_length_a   5.77577900
_cell_length_b   11.15834100
_cell_length_c   3.21718300
_cell_angle_alpha   90.00000000
_cell_angle_beta   90.00000000
_cell_angle_gamma   90.00000000
_symmetry_Int_Tables_number   1
_chemical_formula_structural   Sc2MnBeB8
_chemical_formula_sum   'Sc4 Mn2 Be2 B16'
_cell_volume   207.34136909
_cell_formula_units_Z   2
loop_
 _symmetry_equiv_pos_site_id
 _symmetry_equiv_pos_as_xyz
  1  'x, y, z'
loop_
 _atom_site_type_symbol
 _atom_site_label
 _atom_site_symmetry_multiplicity
 _atom_site_fract_x
 _atom_site_fract_y
 _atom_site_fract_z
 _atom_site_occupancy
  Sc  Sc0  1  0.873519  0.151376  0.000000  1
  Sc  Sc1  1  0.373519  0.348623  0.000000  1
  Sc  Sc2  1  0.626401  0.649598  0.000000  1
  Sc  Sc3  1  0.126402  0.850402  0.000000  1
  Mn  Mn4  1  0.372573  0.084200  0.000000  1
  Mn  Mn5  1  0.872572  0.415800  0.000000  1
  Be  Be6  1  0.135004  0.586615  0.000000  1
  Be  Be7  1  0.635004  0.913385  0.000000  1
  B  B8  1  0.132451  0.030823  0.500001  1
  B  B9  1  0.615099  0.047669  0.500001  1
  B  B10  1  0.210899  0.185706  0.500001  1
  B  B11  1  0.523017  0.193196  0.500001  1
  B  B12  1  0.023016  0.306805  0.500001  1
  B  B13  1  0.710899  0.314294  0.500001  1
  B  B14  1  0.115098  0.452331  0.500001  1
  B  B15  1  0.632451  0.469177  0.500001  1
  B  B16  1  0.364367  0.534225  0.500001  1
  B  B17  1  0.883208  0.549183  0.500001  1
  B  B18  1  0.286131  0.685976  0.500001  1
  B  B19  1  0.977337  0.694779  0.500001  1
  B  B20  1  0.477337  0.805221  0.500001  1
  B  B21  1  0.786132  0.814023  0.500001  1
  B  B22  1  0.383208  0.950817  0.500001  1
  B  B23  1  0.864366  0.965775  0.500001  1
