# generated using pymatgen
data_Y12Co2PdRh
_symmetry_space_group_name_H-M   'P 1'
_cell_length_a   6.38534339
_cell_length_b   7.08724177
_cell_length_c   9.48764700
_cell_angle_alpha   90.00000000
_cell_angle_beta   90.00000000
_cell_angle_gamma   90.37207024
_symmetry_Int_Tables_number   1
_chemical_formula_structural   Y12Co2PdRh
_chemical_formula_sum   'Y12 Co2 Pd1 Rh1'
_cell_volume   429.34940627
_cell_formula_units_Z   1
loop_
 _symmetry_equiv_pos_site_id
 _symmetry_equiv_pos_as_xyz
  1  'x, y, z'
loop_
 _atom_site_type_symbol
 _atom_site_label
 _atom_site_symmetry_multiplicity
 _atom_site_fract_x
 _atom_site_fract_y
 _atom_site_fract_z
 _atom_site_occupancy
  Y  Y0  1  0.620891  0.046951  0.250000  1
  Y  Y1  1  0.373476  0.954384  0.750000  1
  Y  Y2  1  0.141744  0.468806  0.750000  1
  Y  Y3  1  0.854628  0.523445  0.250000  1
  Y  Y4  1  0.178757  0.186693  0.061814  1
  Y  Y5  1  0.821111  0.818565  0.933621  1
  Y  Y6  1  0.674773  0.327070  0.933262  1
  Y  Y7  1  0.821111  0.818565  0.566379  1
  Y  Y8  1  0.331094  0.669754  0.064675  1
  Y  Y9  1  0.178757  0.186693  0.438186  1
  Y  Y10  1  0.331094  0.669754  0.435325  1
  Y  Y11  1  0.674773  0.327070  0.566738  1
  Co  Co12  1  0.446828  0.385383  0.250000  1
  Co  Co13  1  0.547677  0.614237  0.750000  1
  Pd  Pd14  1  0.049016  0.889649  0.250000  1
  Rh  Rh15  1  0.954271  0.112982  0.750000  1
