# generated using pymatgen
data_Ho2Lu18Ir11Ru
_symmetry_space_group_name_H-M   'P 1'
_cell_length_a   10.64728712
_cell_length_b   10.64363201
_cell_length_c   6.29332527
_cell_angle_alpha   90.00566324
_cell_angle_beta   89.92758163
_cell_angle_gamma   90.00101902
_symmetry_Int_Tables_number   1
_chemical_formula_structural   Ho2Lu18Ir11Ru
_chemical_formula_sum   'Ho2 Lu18 Ir11 Ru1'
_cell_volume   713.19558547
_cell_formula_units_Z   1
loop_
 _symmetry_equiv_pos_site_id
 _symmetry_equiv_pos_as_xyz
  1  'x, y, z'
loop_
 _atom_site_type_symbol
 _atom_site_label
 _atom_site_symmetry_multiplicity
 _atom_site_fract_x
 _atom_site_fract_y
 _atom_site_fract_z
 _atom_site_occupancy
  Ho  Ho0  1  0.089078  0.711250  0.624086  1
  Ho  Ho1  1  0.088326  0.288832  0.123325  1
  Lu  Lu2  1  0.293426  0.084756  0.378131  1
  Lu  Lu3  1  0.294262  0.914959  0.882000  1
  Lu  Lu4  1  0.706623  0.086742  0.879044  1
  Lu  Lu5  1  0.707282  0.913769  0.376035  1
  Lu  Lu6  1  0.586517  0.793219  0.881256  1
  Lu  Lu7  1  0.585942  0.207616  0.377951  1
  Lu  Lu8  1  0.414046  0.792128  0.376161  1
  Lu  Lu9  1  0.413682  0.207238  0.879862  1
  Lu  Lu10  1  0.209101  0.411901  0.622044  1
  Lu  Lu11  1  0.209048  0.587399  0.121300  1
  Lu  Lu12  1  0.790307  0.412350  0.122120  1
  Lu  Lu13  1  0.790286  0.588219  0.622477  1
  Lu  Lu14  1  0.911743  0.708656  0.121151  1
  Lu  Lu15  1  0.911180  0.291185  0.621371  1
  Lu  Lu16  1  0.999050  0.000790  0.495604  1
  Lu  Lu17  1  0.999021  0.999033  0.995671  1
  Lu  Lu18  1  0.500312  0.500117  0.998969  1
  Lu  Lu19  1  0.500234  0.500007  0.498921  1
  Ir  Ir20  1  0.845072  0.152574  0.249829  1
  Ir  Ir21  1  0.845212  0.847855  0.749673  1
  Ir  Ir22  1  0.153171  0.152112  0.745745  1
  Ir  Ir23  1  0.152673  0.846649  0.245472  1
  Ir  Ir24  1  0.653311  0.347319  0.749721  1
  Ir  Ir25  1  0.654063  0.652569  0.249951  1
  Ir  Ir26  1  0.348239  0.346768  0.251443  1
  Ir  Ir27  1  0.349359  0.653979  0.751882  1
  Ir  Ir28  1  0.500453  0.999759  0.626883  1
  Ir  Ir29  1  0.999151  0.499884  0.876201  1
  Ir  Ir30  1  0.999156  0.500020  0.377031  1
  Ru  Ru31  1  0.500675  0.000343  0.128698  1
