# generated using pymatgen
data_CsCdGeAs2
_symmetry_space_group_name_H-M   'P 1'
_cell_length_a   8.81207887
_cell_length_b   8.79950778
_cell_length_c   8.93860015
_cell_angle_alpha   70.78720054
_cell_angle_beta   75.83585418
_cell_angle_gamma   73.37245206
_symmetry_Int_Tables_number   1
_chemical_formula_structural   CsCdGeAs2
_chemical_formula_sum   'Cs4 Cd4 Ge4 As8'
_cell_volume   618.40322866
_cell_formula_units_Z   4
loop_
 _symmetry_equiv_pos_site_id
 _symmetry_equiv_pos_as_xyz
  1  'x, y, z'
loop_
 _atom_site_type_symbol
 _atom_site_label
 _atom_site_symmetry_multiplicity
 _atom_site_fract_x
 _atom_site_fract_y
 _atom_site_fract_z
 _atom_site_occupancy
  Cs  Cs0  1  0.451383  0.766479  0.320491  1
  Cs  Cs1  1  0.548617  0.233521  0.679509  1
  Cs  Cs2  1  0.438483  0.801701  0.813654  1
  Cs  Cs3  1  0.561517  0.198299  0.186346  1
  Cd  Cd4  1  0.994886  0.896389  0.688520  1
  Cd  Cd5  1  0.005114  0.103611  0.311480  1
  Cd  Cd6  1  0.966608  0.815581  0.171488  1
  Cd  Cd7  1  0.033392  0.184419  0.828512  1
  Ge  Ge8  1  0.960495  0.586664  0.597620  1
  Ge  Ge9  1  0.039505  0.413336  0.402380  1
  Ge  Ge10  1  0.146641  0.449521  0.976802  1
  Ge  Ge11  1  0.853359  0.550479  0.023198  1
  As  As12  1  0.816375  0.870506  0.461261  1
  As  As13  1  0.183625  0.129494  0.538739  1
  As  As14  1  0.792138  0.405452  0.313498  1
  As  As15  1  0.207862  0.594548  0.686502  1
  As  As16  1  0.777772  0.859065  0.960485  1
  As  As17  1  0.222228  0.140935  0.039515  1
  As  As18  1  0.776205  0.447475  0.828049  1
  As  As19  1  0.223795  0.552525  0.171951  1
