# generated using pymatgen
data_CePu3(AlSi2)2
_symmetry_space_group_name_H-M   'P 1'
_cell_length_a   6.78796800
_cell_length_b   6.78796679
_cell_length_c   4.44010000
_cell_angle_alpha   90.00000000
_cell_angle_beta   90.00000000
_cell_angle_gamma   89.07298615
_symmetry_Int_Tables_number   1
_chemical_formula_structural   CePu3(AlSi2)2
_chemical_formula_sum   'Ce1 Pu3 Al2 Si4'
_cell_volume   204.55749702
_cell_formula_units_Z   1
loop_
 _symmetry_equiv_pos_site_id
 _symmetry_equiv_pos_as_xyz
  1  'x, y, z'
loop_
 _atom_site_type_symbol
 _atom_site_label
 _atom_site_symmetry_multiplicity
 _atom_site_fract_x
 _atom_site_fract_y
 _atom_site_fract_z
 _atom_site_occupancy
  Ce  Ce0  1  0.675256  0.175256  0.500000  1
  Pu  Pu1  1  0.321713  0.821713  0.500000  1
  Pu  Pu2  1  0.829253  0.674790  0.500000  1
  Pu  Pu3  1  0.174790  0.329253  0.500000  1
  Al  Al4  1  0.500235  0.500612  0.000000  1
  Al  Al5  1  0.000612  0.000235  0.000000  1
  Si  Si6  1  0.623418  0.872794  0.000000  1
  Si  Si7  1  0.876478  0.376478  0.000000  1
  Si  Si8  1  0.372794  0.123418  0.000000  1
  Si  Si9  1  0.125452  0.625452  0.000000  1
