# generated using pymatgen
data_Nd7SiI12
_symmetry_space_group_name_H-M   'P 1'
_cell_length_a   10.00539614
_cell_length_b   10.00539649
_cell_length_c   10.00539687
_cell_angle_alpha   107.97795875
_cell_angle_beta   107.97796269
_cell_angle_gamma   107.97794946
_symmetry_Int_Tables_number   1
_chemical_formula_structural   Nd7SiI12
_chemical_formula_sum   'Nd7 Si1 I12'
_cell_volume   810.87663471
_cell_formula_units_Z   1
loop_
 _symmetry_equiv_pos_site_id
 _symmetry_equiv_pos_as_xyz
  1  'x, y, z'
loop_
 _atom_site_type_symbol
 _atom_site_label
 _atom_site_symmetry_multiplicity
 _atom_site_fract_x
 _atom_site_fract_y
 _atom_site_fract_z
 _atom_site_occupancy
  Nd  Nd0  1  0.687150  0.965144  0.894614  1
  Nd  Nd1  1  0.965144  0.894614  0.687150  1
  Nd  Nd2  1  0.500000  0.500000  0.500000  1
  Nd  Nd3  1  0.105386  0.312850  0.034856  1
  Nd  Nd4  1  0.312850  0.034856  0.105386  1
  Nd  Nd5  1  0.894614  0.687150  0.965144  1
  Nd  Nd6  1  0.034856  0.105386  0.312850  1
  Si  Si7  1  0.000000  0.000000  0.000000  1
  I  I8  1  0.076487  0.228502  0.686612  1
  I  I9  1  0.390016  0.154392  0.470118  1
  I  I10  1  0.609984  0.845608  0.529882  1
  I  I11  1  0.228502  0.686612  0.076487  1
  I  I12  1  0.771498  0.313388  0.923513  1
  I  I13  1  0.686612  0.076487  0.228502  1
  I  I14  1  0.529882  0.609984  0.845608  1
  I  I15  1  0.845608  0.529882  0.609984  1
  I  I16  1  0.923513  0.771498  0.313388  1
  I  I17  1  0.313388  0.923513  0.771498  1
  I  I18  1  0.470118  0.390016  0.154392  1
  I  I19  1  0.154392  0.470118  0.390016  1
