# generated using pymatgen
data_Mn2I(BrO4)3
_symmetry_space_group_name_H-M   'P 1'
_cell_length_a   5.51112333
_cell_length_b   5.54423415
_cell_length_c   9.56197435
_cell_angle_alpha   90.28398913
_cell_angle_beta   89.83716375
_cell_angle_gamma   90.27835316
_symmetry_Int_Tables_number   1
_chemical_formula_structural   Mn2I(BrO4)3
_chemical_formula_sum   'Mn2 I1 Br3 O12'
_cell_volume   292.15752991
_cell_formula_units_Z   1
loop_
 _symmetry_equiv_pos_site_id
 _symmetry_equiv_pos_as_xyz
  1  'x, y, z'
loop_
 _atom_site_type_symbol
 _atom_site_label
 _atom_site_symmetry_multiplicity
 _atom_site_fract_x
 _atom_site_fract_y
 _atom_site_fract_z
 _atom_site_occupancy
  Mn  Mn0  1  0.831240  0.731963  0.245089  1
  Mn  Mn1  1  0.323101  0.270571  0.751240  1
  I  I2  1  0.218455  0.228471  0.103295  1
  Br  Br3  1  0.707459  0.237787  0.431279  1
  Br  Br4  1  0.207593  0.767961  0.567016  1
  Br  Br5  1  0.689601  0.770755  0.901472  1
  O  O6  1  0.603149  0.654418  0.058433  1
  O  O7  1  0.116414  0.344551  0.934390  1
  O  O8  1  0.042826  0.849893  0.426809  1
  O  O9  1  0.547830  0.160561  0.575363  1
  O  O10  1  0.588536  0.505102  0.380331  1
  O  O11  1  0.094442  0.495047  0.614244  1
  O  O12  1  0.542800  0.040240  0.896983  1
  O  O13  1  0.050624  0.943181  0.106606  1
  O  O14  1  0.550771  0.596301  0.780415  1
  O  O15  1  0.033270  0.407548  0.223815  1
  O  O16  1  0.599392  0.040093  0.308918  1
  O  O17  1  0.102994  0.955556  0.694301  1
