# generated using pymatgen
data_GaSn4B2(IrRh2)2
_symmetry_space_group_name_H-M   'P 1'
_cell_length_a   6.63297233
_cell_length_b   6.54548143
_cell_length_c   5.62403008
_cell_angle_alpha   90.00000152
_cell_angle_beta   90.20653106
_cell_angle_gamma   119.56462418
_symmetry_Int_Tables_number   1
_chemical_formula_structural   GaSn4B2(IrRh2)2
_chemical_formula_sum   'Ga1 Sn4 B2 Ir2 Rh4'
_cell_volume   212.37967763
_cell_formula_units_Z   1
loop_
 _symmetry_equiv_pos_site_id
 _symmetry_equiv_pos_as_xyz
  1  'x, y, z'
loop_
 _atom_site_type_symbol
 _atom_site_label
 _atom_site_symmetry_multiplicity
 _atom_site_fract_x
 _atom_site_fract_y
 _atom_site_fract_z
 _atom_site_occupancy
  Ga  Ga0  1  0.000000  0.597833  0.000000  1
  Sn  Sn1  1  0.669731  0.333918  0.500101  1
  Sn  Sn2  1  0.401080  0.405227  0.999898  1
  Sn  Sn3  1  0.598920  0.004148  0.000102  1
  Sn  Sn4  1  0.330269  0.664186  0.499899  1
  B  B5  1  0.000000  0.001206  0.500000  1
  B  B6  1  0.000000  0.993330  0.000000  1
  Ir  Ir7  1  0.248420  0.995095  0.253651  1
  Ir  Ir8  1  0.751580  0.746675  0.746349  1
  Rh  Rh9  1  0.001038  0.259409  0.747702  1
  Rh  Rh10  1  0.998962  0.258372  0.252298  1
  Rh  Rh11  1  0.747325  0.743963  0.254565  1
  Rh  Rh12  1  0.252675  0.996638  0.745435  1
