# generated using pymatgen
data_ScTa(SiPd)2
_symmetry_space_group_name_H-M   'P 1'
_cell_length_a   3.88116500
_cell_length_b   6.45074200
_cell_length_c   7.57921300
_cell_angle_alpha   90.00000000
_cell_angle_beta   90.00000000
_cell_angle_gamma   90.00000000
_symmetry_Int_Tables_number   1
_chemical_formula_structural   ScTa(SiPd)2
_chemical_formula_sum   'Sc2 Ta2 Si4 Pd4'
_cell_volume   189.75616344
_cell_formula_units_Z   2
loop_
 _symmetry_equiv_pos_site_id
 _symmetry_equiv_pos_as_xyz
  1  'x, y, z'
loop_
 _atom_site_type_symbol
 _atom_site_label
 _atom_site_symmetry_multiplicity
 _atom_site_fract_x
 _atom_site_fract_y
 _atom_site_fract_z
 _atom_site_occupancy
  Sc  Sc0  1  0.750000  0.968022  0.675702  1
  Sc  Sc1  1  0.750000  0.468022  0.824298  1
  Ta  Ta2  1  0.250000  0.030136  0.315999  1
  Ta  Ta3  1  0.250000  0.530136  0.184001  1
  Si  Si4  1  0.250000  0.254915  0.612213  1
  Si  Si5  1  0.250000  0.754915  0.887787  1
  Si  Si6  1  0.750000  0.740353  0.365319  1
  Si  Si7  1  0.750000  0.240353  0.134681  1
  Pd  Pd8  1  0.250000  0.149319  0.933531  1
  Pd  Pd9  1  0.250000  0.649319  0.566469  1
  Pd  Pd10  1  0.750000  0.857255  0.058476  1
  Pd  Pd11  1  0.750000  0.357255  0.441524  1
