# generated using pymatgen
data_Rb(Cd2Au)2
_symmetry_space_group_name_H-M   'P 1'
_cell_length_a   8.96587300
_cell_length_b   8.96587300
_cell_length_c   4.49057200
_cell_angle_alpha   90.00000000
_cell_angle_beta   90.00000000
_cell_angle_gamma   90.00000000
_symmetry_Int_Tables_number   1
_chemical_formula_structural   Rb(Cd2Au)2
_chemical_formula_sum   'Rb2 Cd8 Au4'
_cell_volume   360.98306644
_cell_formula_units_Z   2
loop_
 _symmetry_equiv_pos_site_id
 _symmetry_equiv_pos_as_xyz
  1  'x, y, z'
loop_
 _atom_site_type_symbol
 _atom_site_label
 _atom_site_symmetry_multiplicity
 _atom_site_fract_x
 _atom_site_fract_y
 _atom_site_fract_z
 _atom_site_occupancy
  Rb  Rb0  1  0.500000  0.500000  0.500000  1
  Rb  Rb1  1  0.000000  0.000000  0.000000  1
  Cd  Cd2  1  0.338040  0.082772  0.500000  1
  Cd  Cd3  1  0.661960  0.917228  0.500000  1
  Cd  Cd4  1  0.838040  0.417228  0.000000  1
  Cd  Cd5  1  0.161960  0.582772  0.000000  1
  Cd  Cd6  1  0.082772  0.338040  0.500000  1
  Cd  Cd7  1  0.917228  0.661960  0.500000  1
  Cd  Cd8  1  0.417228  0.838040  0.000000  1
  Cd  Cd9  1  0.582772  0.161960  0.000000  1
  Au  Au10  1  0.776865  0.223135  0.500000  1
  Au  Au11  1  0.223135  0.776865  0.500000  1
  Au  Au12  1  0.276865  0.276865  0.000000  1
  Au  Au13  1  0.723135  0.723135  0.000000  1
