# generated using pymatgen
data_LiUPa2Sb5
_symmetry_space_group_name_H-M   'P 1'
_cell_length_a   9.23569417
_cell_length_b   9.23806673
_cell_length_c   6.10484200
_cell_angle_alpha   90.00000000
_cell_angle_beta   90.00000000
_cell_angle_gamma   120.00850060
_symmetry_Int_Tables_number   1
_chemical_formula_structural   LiUPa2Sb5
_chemical_formula_sum   'Li2 U2 Pa4 Sb10'
_cell_volume   451.04356482
_cell_formula_units_Z   2
loop_
 _symmetry_equiv_pos_site_id
 _symmetry_equiv_pos_as_xyz
  1  'x, y, z'
loop_
 _atom_site_type_symbol
 _atom_site_label
 _atom_site_symmetry_multiplicity
 _atom_site_fract_x
 _atom_site_fract_y
 _atom_site_fract_z
 _atom_site_occupancy
  Li  Li0  1  0.999561  0.999780  0.000000  1
  Li  Li1  1  0.999561  0.999780  0.500000  1
  U  U2  1  0.615245  0.615052  0.750000  1
  U  U3  1  0.615245  0.000194  0.250000  1
  Pa  Pa4  1  0.385629  0.999732  0.750000  1
  Pa  Pa5  1  0.385629  0.385896  0.250000  1
  Pa  Pa6  1  0.999328  0.616415  0.250000  1
  Pa  Pa7  1  0.999328  0.382913  0.750000  1
  Sb  Sb8  1  0.666186  0.333092  0.500000  1
  Sb  Sb9  1  0.333211  0.666607  0.000000  1
  Sb  Sb10  1  0.735089  0.999433  0.750000  1
  Sb  Sb11  1  0.735089  0.735656  0.250000  1
  Sb  Sb12  1  0.333211  0.666607  0.500000  1
  Sb  Sb13  1  0.666186  0.333092  0.000000  1
  Sb  Sb14  1  0.265217  0.000812  0.250000  1
  Sb  Sb15  1  0.265217  0.264405  0.750000  1
  Sb  Sb16  1  0.000535  0.734094  0.750000  1
  Sb  Sb17  1  0.000535  0.266441  0.250000  1
