# generated using pymatgen
data_Pa2Co2Pt
_symmetry_space_group_name_H-M   'P 1'
_cell_length_a   7.14568000
_cell_length_b   7.14568000
_cell_length_c   3.47800500
_cell_angle_alpha   90.00000000
_cell_angle_beta   90.00000000
_cell_angle_gamma   90.00000000
_symmetry_Int_Tables_number   1
_chemical_formula_structural   Pa2Co2Pt
_chemical_formula_sum   'Pa4 Co4 Pt2'
_cell_volume   177.58951828
_cell_formula_units_Z   2
loop_
 _symmetry_equiv_pos_site_id
 _symmetry_equiv_pos_as_xyz
  1  'x, y, z'
loop_
 _atom_site_type_symbol
 _atom_site_label
 _atom_site_symmetry_multiplicity
 _atom_site_fract_x
 _atom_site_fract_y
 _atom_site_fract_z
 _atom_site_occupancy
  Pa  Pa0  1  0.676848  0.176848  0.500000  1
  Pa  Pa1  1  0.323152  0.823152  0.500000  1
  Pa  Pa2  1  0.823152  0.676848  0.500000  1
  Pa  Pa3  1  0.176848  0.323152  0.500000  1
  Co  Co4  1  0.630875  0.869125  0.000000  1
  Co  Co5  1  0.130875  0.630875  0.000000  1
  Co  Co6  1  0.869125  0.369125  0.000000  1
  Co  Co7  1  0.369125  0.130875  0.000000  1
  Pt  Pt8  1  0.500000  0.500000  0.000000  1
  Pt  Pt9  1  0.000000  0.000000  0.000000  1
