# generated using pymatgen
data_DyNi5Sn
_symmetry_space_group_name_H-M   'P 1'
_cell_length_a   4.85940600
_cell_length_b   4.85947818
_cell_length_c   19.55570800
_cell_angle_alpha   90.00000000
_cell_angle_beta   90.00000000
_cell_angle_gamma   119.99998951
_symmetry_Int_Tables_number   1
_chemical_formula_structural   DyNi5Sn
_chemical_formula_sum   'Dy4 Ni20 Sn4'
_cell_volume   399.92360969
_cell_formula_units_Z   4
loop_
 _symmetry_equiv_pos_site_id
 _symmetry_equiv_pos_as_xyz
  1  'x, y, z'
loop_
 _atom_site_type_symbol
 _atom_site_label
 _atom_site_symmetry_multiplicity
 _atom_site_fract_x
 _atom_site_fract_y
 _atom_site_fract_z
 _atom_site_occupancy
  Dy  Dy0  1  0.000000  0.000000  0.500000  1
  Dy  Dy1  1  0.000000  0.000000  0.000000  1
  Dy  Dy2  1  0.333333  0.666667  0.250000  1
  Dy  Dy3  1  0.666667  0.333333  0.750000  1
  Ni  Ni4  1  0.000009  0.999993  0.250000  1
  Ni  Ni5  1  0.999991  0.000007  0.750000  1
  Ni  Ni6  1  0.333344  0.666661  0.750000  1
  Ni  Ni7  1  0.666656  0.333339  0.250000  1
  Ni  Ni8  1  0.333332  0.666664  0.957632  1
  Ni  Ni9  1  0.666668  0.333336  0.042368  1
  Ni  Ni10  1  0.666668  0.333336  0.457632  1
  Ni  Ni11  1  0.333332  0.666664  0.542368  1
  Ni  Ni12  1  0.834067  0.165928  0.353584  1
  Ni  Ni13  1  0.834066  0.668134  0.353585  1
  Ni  Ni14  1  0.331861  0.165929  0.353586  1
  Ni  Ni15  1  0.165933  0.834072  0.646416  1
  Ni  Ni16  1  0.165934  0.331866  0.646415  1
  Ni  Ni17  1  0.668139  0.834071  0.646414  1
  Ni  Ni18  1  0.165933  0.834072  0.853584  1
  Ni  Ni19  1  0.165934  0.331866  0.853585  1
  Ni  Ni20  1  0.668139  0.834071  0.853586  1
  Ni  Ni21  1  0.834067  0.165928  0.146416  1
  Ni  Ni22  1  0.834066  0.668134  0.146415  1
  Ni  Ni23  1  0.331861  0.165929  0.146414  1
  Sn  Sn24  1  0.333332  0.666666  0.412858  1
  Sn  Sn25  1  0.666668  0.333334  0.587142  1
  Sn  Sn26  1  0.666668  0.333334  0.912858  1
  Sn  Sn27  1  0.333332  0.666666  0.087142  1
