# generated using pymatgen
data_ZrTa2(InRu2)3
_symmetry_space_group_name_H-M   'P 1'
_cell_length_a   4.53700800
_cell_length_b   6.43555400
_cell_length_c   13.61178700
_cell_angle_alpha   90.00000000
_cell_angle_beta   89.99863195
_cell_angle_gamma   90.00000000
_symmetry_Int_Tables_number   1
_chemical_formula_structural   ZrTa2(InRu2)3
_chemical_formula_sum   'Zr2 Ta4 In6 Ru12'
_cell_volume   397.43913442
_cell_formula_units_Z   2
loop_
 _symmetry_equiv_pos_site_id
 _symmetry_equiv_pos_as_xyz
  1  'x, y, z'
loop_
 _atom_site_type_symbol
 _atom_site_label
 _atom_site_symmetry_multiplicity
 _atom_site_fract_x
 _atom_site_fract_y
 _atom_site_fract_z
 _atom_site_occupancy
  Zr  Zr0  1  0.999926  0.000000  0.999101  1
  Zr  Zr1  1  0.500004  0.500000  0.167847  1
  Ta  Ta2  1  0.000039  0.000000  0.333872  1
  Ta  Ta3  1  0.500083  0.500000  0.499497  1
  Ta  Ta4  1  0.999992  0.000000  0.666984  1
  Ta  Ta5  1  0.499913  0.500000  0.832721  1
  In  In6  1  0.999927  0.500000  0.001903  1
  In  In7  1  0.499988  0.000000  0.164678  1
  In  In8  1  0.000053  0.500000  0.334383  1
  In  In9  1  0.500030  0.000000  0.502518  1
  In  In10  1  0.000050  0.500000  0.664175  1
  In  In11  1  0.499965  0.000000  0.832297  1
  Ru  Ru12  1  0.499923  0.256267  0.994865  1
  Ru  Ru13  1  0.499923  0.743731  0.994865  1
  Ru  Ru14  1  0.000007  0.243832  0.171914  1
  Ru  Ru15  1  0.000007  0.756168  0.171914  1
  Ru  Ru16  1  0.500055  0.244736  0.338512  1
  Ru  Ru17  1  0.500055  0.755263  0.338512  1
  Ru  Ru18  1  0.000022  0.249923  0.500658  1
  Ru  Ru19  1  0.000022  0.750074  0.500658  1
  Ru  Ru20  1  0.500039  0.250234  0.665895  1
  Ru  Ru21  1  0.500039  0.749765  0.665895  1
  Ru  Ru22  1  0.999969  0.254925  0.828168  1
  Ru  Ru23  1  0.999969  0.745075  0.828168  1
