# generated using pymatgen
data_Tb7YCdInPd2
_symmetry_space_group_name_H-M   'P 1'
_cell_length_a   9.75170848
_cell_length_b   9.75170859
_cell_length_c   9.76726100
_cell_angle_alpha   59.94723250
_cell_angle_beta   59.94723211
_cell_angle_gamma   60.04547035
_symmetry_Int_Tables_number   1
_chemical_formula_structural   Tb7YCdInPd2
_chemical_formula_sum   'Tb14 Y2 Cd2 In2 Pd4'
_cell_volume   656.47947747
_cell_formula_units_Z   2
loop_
 _symmetry_equiv_pos_site_id
 _symmetry_equiv_pos_as_xyz
  1  'x, y, z'
loop_
 _atom_site_type_symbol
 _atom_site_label
 _atom_site_symmetry_multiplicity
 _atom_site_fract_x
 _atom_site_fract_y
 _atom_site_fract_z
 _atom_site_occupancy
  Tb  Tb0  1  0.352737  0.352737  0.352673  1
  Tb  Tb1  1  0.352737  0.352737  0.941854  1
  Tb  Tb2  1  0.353902  0.939073  0.353513  1
  Tb  Tb3  1  0.939073  0.353902  0.353513  1
  Tb  Tb4  1  0.809908  0.190649  0.190041  1
  Tb  Tb5  1  0.190649  0.809908  0.809402  1
  Tb  Tb6  1  0.190649  0.809908  0.190041  1
  Tb  Tb7  1  0.809908  0.190649  0.809402  1
  Tb  Tb8  1  0.188957  0.188957  0.811043  1
  Tb  Tb9  1  0.808532  0.808532  0.191468  1
  Tb  Tb10  1  0.937013  0.565266  0.564855  1
  Tb  Tb11  1  0.565266  0.937013  0.932866  1
  Tb  Tb12  1  0.565266  0.937013  0.564855  1
  Tb  Tb13  1  0.937013  0.565266  0.932866  1
  Y  Y14  1  0.565606  0.565606  0.934394  1
  Y  Y15  1  0.936517  0.936517  0.563483  1
  Cd  Cd16  1  0.581252  0.252225  0.583262  1
  Cd  Cd17  1  0.252225  0.581252  0.583262  1
  In  In18  1  0.582069  0.582069  0.583851  1
  In  In19  1  0.582069  0.582069  0.252010  1
  Pd  Pd20  1  0.143804  0.143804  0.145419  1
  Pd  Pd21  1  0.143804  0.143804  0.566971  1
  Pd  Pd22  1  0.143605  0.567438  0.144478  1
  Pd  Pd23  1  0.567438  0.143605  0.144478  1
