# generated using pymatgen
data_Hf2BiRh5
_symmetry_space_group_name_H-M   'P 1'
_cell_length_a   4.15979400
_cell_length_b   5.73210100
_cell_length_c   11.21267100
_cell_angle_alpha   90.00000000
_cell_angle_beta   90.00000000
_cell_angle_gamma   90.00000000
_symmetry_Int_Tables_number   1
_chemical_formula_structural   Hf2BiRh5
_chemical_formula_sum   'Hf4 Bi2 Rh10'
_cell_volume   267.35895657
_cell_formula_units_Z   2
loop_
 _symmetry_equiv_pos_site_id
 _symmetry_equiv_pos_as_xyz
  1  'x, y, z'
loop_
 _atom_site_type_symbol
 _atom_site_label
 _atom_site_symmetry_multiplicity
 _atom_site_fract_x
 _atom_site_fract_y
 _atom_site_fract_z
 _atom_site_occupancy
  Hf  Hf0  1  0.500000  0.172277  0.645453  1
  Hf  Hf1  1  0.500000  0.827723  0.354547  1
  Hf  Hf2  1  0.500000  0.672277  0.854547  1
  Hf  Hf3  1  0.500000  0.327723  0.145453  1
  Bi  Bi4  1  0.000000  0.500000  0.500000  1
  Bi  Bi5  1  0.000000  0.000000  0.000000  1
  Rh  Rh6  1  0.500000  0.205929  0.883944  1
  Rh  Rh7  1  0.500000  0.794071  0.116056  1
  Rh  Rh8  1  0.500000  0.705929  0.616056  1
  Rh  Rh9  1  0.500000  0.294071  0.383944  1
  Rh  Rh10  1  0.000000  0.436571  0.749518  1
  Rh  Rh11  1  0.000000  0.563429  0.250482  1
  Rh  Rh12  1  0.000000  0.000000  0.500000  1
  Rh  Rh13  1  0.000000  0.500000  0.000000  1
  Rh  Rh14  1  0.000000  0.063429  0.249518  1
  Rh  Rh15  1  0.000000  0.936571  0.750482  1
