# generated using pymatgen
data_Hf5Co16Si7Pt
_symmetry_space_group_name_H-M   'P 1'
_cell_length_a   7.98211002
_cell_length_b   7.99212941
_cell_length_c   7.99213017
_cell_angle_alpha   59.91707610
_cell_angle_beta   60.04147683
_cell_angle_gamma   60.04146948
_symmetry_Int_Tables_number   1
_chemical_formula_structural   Hf5Co16Si7Pt
_chemical_formula_sum   'Hf5 Co16 Si7 Pt1'
_cell_volume   360.51760535
_cell_formula_units_Z   1
loop_
 _symmetry_equiv_pos_site_id
 _symmetry_equiv_pos_as_xyz
  1  'x, y, z'
loop_
 _atom_site_type_symbol
 _atom_site_label
 _atom_site_symmetry_multiplicity
 _atom_site_fract_x
 _atom_site_fract_y
 _atom_site_fract_z
 _atom_site_occupancy
  Hf  Hf0  1  0.797085  0.789843  0.202915  1
  Hf  Hf1  1  0.788520  0.211480  0.211480  1
  Hf  Hf2  1  0.210157  0.202915  0.789843  1
  Hf  Hf3  1  0.797085  0.202915  0.789843  1
  Hf  Hf4  1  0.210157  0.789843  0.202915  1
  Co  Co5  1  0.621262  0.617451  0.140024  1
  Co  Co6  1  0.171267  0.483088  0.174381  1
  Co  Co7  1  0.859976  0.378738  0.378738  1
  Co  Co8  1  0.516912  0.828733  0.828733  1
  Co  Co9  1  0.498522  0.166972  0.166972  1
  Co  Co10  1  0.833028  0.832466  0.501478  1
  Co  Co11  1  0.171267  0.174381  0.483088  1
  Co  Co12  1  0.145514  0.620426  0.620426  1
  Co  Co13  1  0.167534  0.166972  0.166972  1
  Co  Co14  1  0.379574  0.386364  0.854486  1
  Co  Co15  1  0.613636  0.620426  0.620426  1
  Co  Co16  1  0.379574  0.854486  0.386364  1
  Co  Co17  1  0.382549  0.378738  0.378738  1
  Co  Co18  1  0.825619  0.828733  0.828733  1
  Co  Co19  1  0.621262  0.140024  0.617451  1
  Co  Co20  1  0.833028  0.501478  0.832466  1
  Si  Si21  1  0.497139  0.992394  0.502861  1
  Si  Si22  1  0.497139  0.502861  0.992394  1
  Si  Si23  1  0.503867  0.496133  0.496133  1
  Si  Si24  1  0.007606  0.992394  0.502861  1
  Si  Si25  1  0.007606  0.502861  0.992394  1
  Si  Si26  1  0.998369  0.501631  0.501631  1
  Si  Si27  1  0.498369  0.001631  0.001631  1
  Pt  Pt28  1  0.166376  0.833624  0.833624  1
