# generated using pymatgen
data_Na2Tl3Cu(ReH9)3
_symmetry_space_group_name_H-M   'P 1'
_cell_length_a   9.06584612
_cell_length_b   9.31923514
_cell_length_c   5.66824600
_cell_angle_alpha   90.00000000
_cell_angle_beta   90.00000000
_cell_angle_gamma   120.92896503
_symmetry_Int_Tables_number   1
_chemical_formula_structural   Na2Tl3Cu(ReH9)3
_chemical_formula_sum   'Na2 Tl3 Cu1 Re3 H27'
_cell_volume   410.79577634
_cell_formula_units_Z   1
loop_
 _symmetry_equiv_pos_site_id
 _symmetry_equiv_pos_as_xyz
  1  'x, y, z'
loop_
 _atom_site_type_symbol
 _atom_site_label
 _atom_site_symmetry_multiplicity
 _atom_site_fract_x
 _atom_site_fract_y
 _atom_site_fract_z
 _atom_site_occupancy
  Na  Na0  1  0.752772  0.757676  0.500000  1
  Na  Na1  1  0.247228  0.004903  0.500000  1
  Tl  Tl2  1  0.000000  0.603651  0.000000  1
  Tl  Tl3  1  0.384989  0.403963  0.000000  1
  Tl  Tl4  1  0.615011  0.018973  0.000000  1
  Cu  Cu5  1  0.000000  0.454636  0.500000  1
  Re  Re6  1  0.667916  0.328123  0.500000  1
  Re  Re7  1  0.332084  0.660207  0.500000  1
  Re  Re8  1  0.000000  0.983950  0.000000  1
  H  H9  1  0.816275  0.317198  0.687793  1
  H  H10  1  0.675911  0.421748  0.757291  1
  H  H11  1  0.505736  0.200710  0.685957  1
  H  H12  1  0.183725  0.500923  0.312207  1
  H  H13  1  0.505736  0.200710  0.314043  1
  H  H14  1  0.816275  0.317198  0.312207  1
  H  H15  1  0.675911  0.421748  0.242709  1
  H  H16  1  0.324089  0.745838  0.757291  1
  H  H17  1  0.494264  0.694975  0.685957  1
  H  H18  1  0.191976  0.994161  0.000000  1
  H  H19  1  0.808024  0.802183  0.000000  1
  H  H20  1  0.000000  0.163031  0.000000  1
  H  H21  1  0.871335  0.990653  0.214169  1
  H  H22  1  0.128665  0.119318  0.785831  1
  H  H23  1  0.000000  0.856806  0.777330  1
  H  H24  1  0.000000  0.856806  0.222670  1
  H  H25  1  0.128665  0.119318  0.214169  1
  H  H26  1  0.871335  0.990653  0.785831  1
  H  H27  1  0.161416  0.695440  0.500000  1
  H  H28  1  0.470892  0.869491  0.500000  1
  H  H29  1  0.360731  0.495693  0.500000  1
  H  H30  1  0.529108  0.398598  0.500000  1
  H  H31  1  0.838584  0.534023  0.500000  1
  H  H32  1  0.639269  0.134963  0.500000  1
  H  H33  1  0.183725  0.500923  0.687793  1
  H  H34  1  0.324089  0.745838  0.242709  1
  H  H35  1  0.494264  0.694975  0.314043  1
