# generated using pymatgen
data_Lu12Th4MgCd3Ir4
_symmetry_space_group_name_H-M   'P 1'
_cell_length_a   9.64226780
_cell_length_b   9.64226838
_cell_length_c   9.64226774
_cell_angle_alpha   59.74517445
_cell_angle_beta   59.74517337
_cell_angle_gamma   59.74517608
_symmetry_Int_Tables_number   1
_chemical_formula_structural   Lu12Th4MgCd3Ir4
_chemical_formula_sum   'Lu12 Th4 Mg1 Cd3 Ir4'
_cell_volume   630.23447139
_cell_formula_units_Z   1
loop_
 _symmetry_equiv_pos_site_id
 _symmetry_equiv_pos_as_xyz
  1  'x, y, z'
loop_
 _atom_site_type_symbol
 _atom_site_label
 _atom_site_symmetry_multiplicity
 _atom_site_fract_x
 _atom_site_fract_y
 _atom_site_fract_z
 _atom_site_occupancy
  Lu  Lu0  1  0.812144  0.187453  0.187453  1
  Lu  Lu1  1  0.186467  0.813614  0.813614  1
  Lu  Lu2  1  0.187453  0.812144  0.187453  1
  Lu  Lu3  1  0.813614  0.186467  0.813614  1
  Lu  Lu4  1  0.187453  0.187453  0.812144  1
  Lu  Lu5  1  0.813614  0.813614  0.186467  1
  Lu  Lu6  1  0.936460  0.566476  0.566476  1
  Lu  Lu7  1  0.566525  0.934270  0.934270  1
  Lu  Lu8  1  0.566476  0.936460  0.566476  1
  Lu  Lu9  1  0.934270  0.566525  0.934270  1
  Lu  Lu10  1  0.566476  0.566476  0.936460  1
  Lu  Lu11  1  0.934270  0.934270  0.566525  1
  Th  Th12  1  0.350392  0.350392  0.350392  1
  Th  Th13  1  0.351697  0.351697  0.946816  1
  Th  Th14  1  0.351697  0.946816  0.351697  1
  Th  Th15  1  0.946816  0.351697  0.351697  1
  Mg  Mg16  1  0.580817  0.580817  0.580817  1
  Cd  Cd17  1  0.583201  0.583201  0.248356  1
  Cd  Cd18  1  0.583201  0.248356  0.583201  1
  Cd  Cd19  1  0.248356  0.583201  0.583201  1
  Ir  Ir20  1  0.142129  0.142129  0.142129  1
  Ir  Ir21  1  0.140966  0.140966  0.574537  1
  Ir  Ir22  1  0.140966  0.574537  0.140966  1
  Ir  Ir23  1  0.574537  0.140966  0.140966  1
