# generated using pymatgen
data_Np2Cl5O2
_symmetry_space_group_name_H-M   'P 1'
_cell_length_a   8.12883127
_cell_length_b   8.12883089
_cell_length_c   4.08980300
_cell_angle_alpha   90.00000000
_cell_angle_beta   90.00000000
_cell_angle_gamma   117.37816415
_symmetry_Int_Tables_number   1
_chemical_formula_structural   Np2Cl5O2
_chemical_formula_sum   'Np2 Cl5 O2'
_cell_volume   239.97555630
_cell_formula_units_Z   1
loop_
 _symmetry_equiv_pos_site_id
 _symmetry_equiv_pos_as_xyz
  1  'x, y, z'
loop_
 _atom_site_type_symbol
 _atom_site_label
 _atom_site_symmetry_multiplicity
 _atom_site_fract_x
 _atom_site_fract_y
 _atom_site_fract_z
 _atom_site_occupancy
  Np  Np0  1  0.199050  0.800950  0.000000  1
  Np  Np1  1  0.800950  0.199050  0.000000  1
  Cl  Cl2  1  0.830323  0.548834  0.000000  1
  Cl  Cl3  1  0.169677  0.451166  0.000000  1
  Cl  Cl4  1  0.000000  0.000000  0.000000  1
  Cl  Cl5  1  0.548834  0.830323  0.000000  1
  Cl  Cl6  1  0.451166  0.169677  0.000000  1
  O  O7  1  0.199718  0.800282  0.500000  1
  O  O8  1  0.800282  0.199718  0.500000  1
