# generated using pymatgen
data_Pr5Nd3Sc12Ga5Si10Pd
_symmetry_space_group_name_H-M   'P 1'
_cell_length_a   7.29720018
_cell_length_b   7.54358057
_cell_length_c   14.43655000
_cell_angle_alpha   90.00597750
_cell_angle_beta   90.07458378
_cell_angle_gamma   90.09106746
_symmetry_Int_Tables_number   1
_chemical_formula_structural   Pr5Nd3Sc12Ga5Si10Pd
_chemical_formula_sum   'Pr5 Nd3 Sc12 Ga5 Si10 Pd1'
_cell_volume   794.68733921
_cell_formula_units_Z   1
loop_
 _symmetry_equiv_pos_site_id
 _symmetry_equiv_pos_as_xyz
  1  'x, y, z'
loop_
 _atom_site_type_symbol
 _atom_site_label
 _atom_site_symmetry_multiplicity
 _atom_site_fract_x
 _atom_site_fract_y
 _atom_site_fract_z
 _atom_site_occupancy
  Pr  Pr0  1  0.490111  0.671982  0.595949  1
  Pr  Pr1  1  0.989943  0.826732  0.597380  1
  Pr  Pr2  1  0.989113  0.830529  0.900648  1
  Pr  Pr3  1  0.511095  0.327786  0.100190  1
  Pr  Pr4  1  0.009937  0.171819  0.100840  1
  Nd  Nd5  1  0.013414  0.172266  0.399250  1
  Nd  Nd6  1  0.511749  0.328266  0.400198  1
  Nd  Nd7  1  0.491207  0.672834  0.901085  1
  Sc  Sc8  1  0.328347  0.174719  0.624653  1
  Sc  Sc9  1  0.670911  0.822949  0.374041  1
  Sc  Sc10  1  0.660471  0.998211  0.751918  1
  Sc  Sc11  1  0.171058  0.676288  0.374189  1
  Sc  Sc12  1  0.826064  0.323357  0.874589  1
  Sc  Sc13  1  0.828759  0.326483  0.624888  1
  Sc  Sc14  1  0.837514  0.502857  0.252061  1
  Sc  Sc15  1  0.338397  0.997027  0.252390  1
  Sc  Sc16  1  0.333208  0.177156  0.873514  1
  Sc  Sc17  1  0.170730  0.673296  0.127909  1
  Sc  Sc18  1  0.669636  0.826629  0.127467  1
  Sc  Sc19  1  0.163456  0.493700  0.750598  1
  Ga  Ga20  1  0.154068  0.458588  0.537639  1
  Ga  Ga21  1  0.844045  0.541392  0.039906  1
  Ga  Ga22  1  0.345958  0.957218  0.038613  1
  Ga  Ga23  1  0.155954  0.458302  0.960016  1
  Ga  Ga24  1  0.654539  0.041765  0.538608  1
  Si  Si25  1  0.464947  0.624375  0.251548  1
  Si  Si26  1  0.029934  0.129655  0.749227  1
  Si  Si27  1  0.537035  0.378296  0.749303  1
  Si  Si28  1  0.965422  0.877313  0.250984  1
  Si  Si29  1  0.711123  0.118645  0.251746  1
  Si  Si30  1  0.347751  0.962376  0.459314  1
  Si  Si31  1  0.847112  0.536732  0.458795  1
  Si  Si32  1  0.788109  0.614113  0.749620  1
  Si  Si33  1  0.211849  0.381053  0.251356  1
  Si  Si34  1  0.651328  0.038819  0.960087  1
  Pd  Pd35  1  0.285707  0.886475  0.749487  1
