# generated using pymatgen
data_TbTh2(GaPt)3
_symmetry_space_group_name_H-M   'P 1'
_cell_length_a   7.29822229
_cell_length_b   7.29822254
_cell_length_c   4.09283300
_cell_angle_alpha   90.00000000
_cell_angle_beta   90.00000000
_cell_angle_gamma   119.82725327
_symmetry_Int_Tables_number   1
_chemical_formula_structural   TbTh2(GaPt)3
_chemical_formula_sum   'Tb1 Th2 Ga3 Pt3'
_cell_volume   189.12206323
_cell_formula_units_Z   1
loop_
 _symmetry_equiv_pos_site_id
 _symmetry_equiv_pos_as_xyz
  1  'x, y, z'
loop_
 _atom_site_type_symbol
 _atom_site_label
 _atom_site_symmetry_multiplicity
 _atom_site_fract_x
 _atom_site_fract_y
 _atom_site_fract_z
 _atom_site_occupancy
  Tb  Tb0  1  0.410322  0.410322  0.500000  1
  Th  Th1  1  0.584511  0.998755  0.500000  1
  Th  Th2  1  0.998755  0.584511  0.500000  1
  Ga  Ga3  1  0.753054  0.753054  0.000000  1
  Ga  Ga4  1  0.242713  0.007953  0.000000  1
  Ga  Ga5  1  0.007953  0.242713  0.000000  1
  Pt  Pt6  1  0.670435  0.333630  0.000000  1
  Pt  Pt7  1  0.333630  0.670435  0.000000  1
  Pt  Pt8  1  0.998628  0.998628  0.500000  1
