# generated using pymatgen
data_Tm2Ga3Si11Ir6
_symmetry_space_group_name_H-M   'P 1'
_cell_length_a   8.12034120
_cell_length_b   8.12034217
_cell_length_c   8.12034200
_cell_angle_alpha   56.57680535
_cell_angle_beta   56.57680084
_cell_angle_gamma   56.57680615
_symmetry_Int_Tables_number   1
_chemical_formula_structural   Tm2Ga3Si11Ir6
_chemical_formula_sum   'Tm2 Ga3 Si11 Ir6'
_cell_volume   348.67716537
_cell_formula_units_Z   1
loop_
 _symmetry_equiv_pos_site_id
 _symmetry_equiv_pos_as_xyz
  1  'x, y, z'
loop_
 _atom_site_type_symbol
 _atom_site_label
 _atom_site_symmetry_multiplicity
 _atom_site_fract_x
 _atom_site_fract_y
 _atom_site_fract_z
 _atom_site_occupancy
  Tm  Tm0  1  0.499606  0.499606  0.499606  1
  Tm  Tm1  1  0.997891  0.997891  0.997891  1
  Ga  Ga2  1  0.854636  0.083703  0.658232  1
  Ga  Ga3  1  0.658232  0.854636  0.083703  1
  Ga  Ga4  1  0.083703  0.658232  0.854636  1
  Si  Si5  1  0.656585  0.823550  0.435864  1
  Si  Si6  1  0.250055  0.250055  0.250055  1
  Si  Si7  1  0.747693  0.747693  0.747693  1
  Si  Si8  1  0.170647  0.561209  0.353484  1
  Si  Si9  1  0.561209  0.353484  0.170647  1
  Si  Si10  1  0.353484  0.170647  0.561209  1
  Si  Si11  1  0.934164  0.328778  0.149622  1
  Si  Si12  1  0.328778  0.149622  0.934164  1
  Si  Si13  1  0.149622  0.934164  0.328778  1
  Si  Si14  1  0.823550  0.435864  0.656585  1
  Si  Si15  1  0.435864  0.656585  0.823550  1
  Ir  Ir16  1  0.750299  0.072951  0.417544  1
  Ir  Ir17  1  0.417544  0.750299  0.072951  1
  Ir  Ir18  1  0.072951  0.417544  0.750299  1
  Ir  Ir19  1  0.268422  0.926664  0.558402  1
  Ir  Ir20  1  0.558402  0.268422  0.926664  1
  Ir  Ir21  1  0.926664  0.558402  0.268422  1
