# generated using pymatgen
data_Tb5Ho5(Sn3S)2
_symmetry_space_group_name_H-M   'P 1'
_cell_length_a   9.06280709
_cell_length_b   9.06059746
_cell_length_c   6.64856900
_cell_angle_alpha   90.00000000
_cell_angle_beta   90.00000000
_cell_angle_gamma   119.99192768
_symmetry_Int_Tables_number   1
_chemical_formula_structural   Tb5Ho5(Sn3S)2
_chemical_formula_sum   'Tb5 Ho5 Sn6 S2'
_cell_volume   472.83945139
_cell_formula_units_Z   1
loop_
 _symmetry_equiv_pos_site_id
 _symmetry_equiv_pos_as_xyz
  1  'x, y, z'
loop_
 _atom_site_type_symbol
 _atom_site_label
 _atom_site_symmetry_multiplicity
 _atom_site_fract_x
 _atom_site_fract_y
 _atom_site_fract_z
 _atom_site_occupancy
  Tb  Tb0  1  0.754512  0.754463  0.750000  1
  Tb  Tb1  1  0.245488  0.999951  0.750000  1
  Tb  Tb2  1  0.000000  0.245498  0.750000  1
  Tb  Tb3  1  0.245571  0.245518  0.250000  1
  Tb  Tb4  1  0.754429  0.999947  0.250000  1
  Ho  Ho5  1  0.666723  0.333402  0.000039  1
  Ho  Ho6  1  0.333277  0.666679  0.000039  1
  Ho  Ho7  1  0.333277  0.666679  0.499961  1
  Ho  Ho8  1  0.666723  0.333402  0.499961  1
  Ho  Ho9  1  0.000000  0.754904  0.250000  1
  Sn  Sn10  1  0.398336  0.398340  0.750000  1
  Sn  Sn11  1  0.601664  0.000004  0.750000  1
  Sn  Sn12  1  0.000000  0.601750  0.750000  1
  Sn  Sn13  1  0.602329  0.601934  0.250000  1
  Sn  Sn14  1  0.397671  0.999605  0.250000  1
  Sn  Sn15  1  0.000000  0.398743  0.250000  1
  S  S16  1  0.000000  0.999591  0.000379  1
  S  S17  1  0.000000  0.999591  0.499621  1
