# generated using pymatgen
data_CsRb2TmSb2
_symmetry_space_group_name_H-M   'P 1'
_cell_length_a   10.35412966
_cell_length_b   10.35412905
_cell_length_c   10.35413061
_cell_angle_alpha   129.17348122
_cell_angle_beta   69.13575664
_cell_angle_gamma   136.42596194
_symmetry_Int_Tables_number   1
_chemical_formula_structural   CsRb2TmSb2
_chemical_formula_sum   'Cs2 Rb4 Tm2 Sb4'
_cell_volume   582.37386698
_cell_formula_units_Z   2
loop_
 _symmetry_equiv_pos_site_id
 _symmetry_equiv_pos_as_xyz
  1  'x, y, z'
loop_
 _atom_site_type_symbol
 _atom_site_label
 _atom_site_symmetry_multiplicity
 _atom_site_fract_x
 _atom_site_fract_y
 _atom_site_fract_z
 _atom_site_occupancy
  Cs  Cs0  1  0.814765  0.791919  0.606684  1
  Cs  Cs1  1  0.685235  0.291919  0.977156  1
  Rb  Rb2  1  0.315404  0.700773  0.016175  1
  Rb  Rb3  1  0.184596  0.200773  0.385369  1
  Rb  Rb4  1  0.750000  0.250807  0.500807  1
  Rb  Rb5  1  0.250000  0.750806  0.500806  1
  Tm  Tm6  1  0.250000  0.251399  0.001399  1
  Tm  Tm7  1  0.750000  0.751399  0.001399  1
  Sb  Sb8  1  0.905858  0.193631  0.099488  1
  Sb  Sb9  1  0.594143  0.693632  0.287774  1
  Sb  Sb10  1  0.403006  0.311471  0.714477  1
  Sb  Sb11  1  0.096994  0.811471  0.908465  1
