# generated using pymatgen
data_Y4Ho6RuRh3
_symmetry_space_group_name_H-M   'P 1'
_cell_length_a   6.38556156
_cell_length_b   7.21965422
_cell_length_c   8.56701920
_cell_angle_alpha   96.86441373
_cell_angle_beta   112.07544175
_cell_angle_gamma   90.03047833
_symmetry_Int_Tables_number   1
_chemical_formula_structural   Y4Ho6RuRh3
_chemical_formula_sum   'Y4 Ho6 Ru1 Rh3'
_cell_volume   362.93153462
_cell_formula_units_Z   1
loop_
 _symmetry_equiv_pos_site_id
 _symmetry_equiv_pos_as_xyz
  1  'x, y, z'
loop_
 _atom_site_type_symbol
 _atom_site_label
 _atom_site_symmetry_multiplicity
 _atom_site_fract_x
 _atom_site_fract_y
 _atom_site_fract_z
 _atom_site_occupancy
  Y  Y0  1  0.980942  0.919339  0.189865  1
  Y  Y1  1  0.789305  0.581487  0.810930  1
  Y  Y2  1  0.022977  0.081256  0.813361  1
  Y  Y3  1  0.212113  0.416193  0.189852  1
  Ho  Ho4  1  0.642493  0.815052  0.435092  1
  Ho  Ho5  1  0.206849  0.686659  0.563345  1
  Ho  Ho6  1  0.357571  0.186537  0.561527  1
  Ho  Ho7  1  0.790054  0.312139  0.435701  1
  Ho  Ho8  1  0.422065  0.751964  0.001197  1
  Ho  Ho9  1  0.577427  0.249302  0.000384  1
  Ru  Ru10  1  0.403260  0.074512  0.220726  1
  Rh  Rh11  1  0.817666  0.574397  0.223086  1
  Rh  Rh12  1  0.594039  0.924829  0.778368  1
  Rh  Rh13  1  0.183239  0.426334  0.776565  1
