# generated using pymatgen
data_La7Fe4C9
_symmetry_space_group_name_H-M   'P 1'
_cell_length_a   5.37672255
_cell_length_b   6.46409150
_cell_length_c   11.17501141
_cell_angle_alpha   92.10450102
_cell_angle_beta   103.92012473
_cell_angle_gamma   114.57547172
_symmetry_Int_Tables_number   1
_chemical_formula_structural   La7Fe4C9
_chemical_formula_sum   'La7 Fe4 C9'
_cell_volume   338.69786981
_cell_formula_units_Z   1
loop_
 _symmetry_equiv_pos_site_id
 _symmetry_equiv_pos_as_xyz
  1  'x, y, z'
loop_
 _atom_site_type_symbol
 _atom_site_label
 _atom_site_symmetry_multiplicity
 _atom_site_fract_x
 _atom_site_fract_y
 _atom_site_fract_z
 _atom_site_occupancy
  La  La0  1  0.000000  0.000000  0.000000  1
  La  La1  1  0.784071  0.418775  0.149367  1
  La  La2  1  0.181542  0.046675  0.316409  1
  La  La3  1  0.529842  0.676978  0.382707  1
  La  La4  1  0.470158  0.323021  0.617293  1
  La  La5  1  0.818458  0.953325  0.683591  1
  La  La6  1  0.215929  0.581224  0.850634  1
  Fe  Fe7  1  0.514703  0.884624  0.144783  1
  Fe  Fe8  1  0.872235  0.315656  0.428814  1
  Fe  Fe9  1  0.127765  0.684344  0.571186  1
  Fe  Fe10  1  0.485297  0.115376  0.855217  1
  C  C11  1  0.500000  0.000000  0.000000  1
  C  C12  1  0.358398  0.577575  0.139223  1
  C  C13  1  0.268398  0.366434  0.170363  1
  C  C14  1  0.688169  0.083609  0.292729  1
  C  C15  1  0.002452  0.610730  0.394173  1
  C  C16  1  0.997547  0.389269  0.605826  1
  C  C17  1  0.311831  0.916391  0.707271  1
  C  C18  1  0.731602  0.633566  0.829637  1
  C  C19  1  0.641601  0.422424  0.860777  1
