# generated using pymatgen
data_Ca3YAl10Si8(Os2Rh)2
_symmetry_space_group_name_H-M   'P 1'
_cell_length_a   7.44058500
_cell_length_b   7.44058724
_cell_length_c   9.37280500
_cell_angle_alpha   90.00000000
_cell_angle_beta   90.00000000
_cell_angle_gamma   119.84853308
_symmetry_Int_Tables_number   1
_chemical_formula_structural   Ca3YAl10Si8(Os2Rh)2
_chemical_formula_sum   'Ca3 Y1 Al10 Si8 Os4 Rh2'
_cell_volume   450.06510627
_cell_formula_units_Z   1
loop_
 _symmetry_equiv_pos_site_id
 _symmetry_equiv_pos_as_xyz
  1  'x, y, z'
loop_
 _atom_site_type_symbol
 _atom_site_label
 _atom_site_symmetry_multiplicity
 _atom_site_fract_x
 _atom_site_fract_y
 _atom_site_fract_z
 _atom_site_occupancy
  Ca  Ca0  1  0.004552  0.668680  0.250000  1
  Ca  Ca1  1  0.996667  0.331545  0.750000  1
  Ca  Ca2  1  0.669085  0.004945  0.250000  1
  Y  Y3  1  0.331641  0.995839  0.750000  1
  Al  Al4  1  0.127388  0.127623  0.250000  1
  Al  Al5  1  0.872278  0.872388  0.750000  1
  Al  Al6  1  0.335413  0.336051  0.559897  1
  Al  Al7  1  0.664125  0.664208  0.441367  1
  Al  Al8  1  0.664125  0.664208  0.058633  1
  Al  Al9  1  0.335413  0.336051  0.940103  1
  Al  Al10  1  0.338612  0.547565  0.250000  1
  Al  Al11  1  0.660735  0.452491  0.750000  1
  Al  Al12  1  0.547571  0.338803  0.250000  1
  Al  Al13  1  0.452621  0.660738  0.750000  1
  Si  Si14  1  0.008973  0.337890  0.070214  1
  Si  Si15  1  0.991016  0.661917  0.929070  1
  Si  Si16  1  0.991016  0.661917  0.570930  1
  Si  Si17  1  0.337275  0.008582  0.429409  1
  Si  Si18  1  0.008973  0.337890  0.429786  1
  Si  Si19  1  0.662605  0.991262  0.570968  1
  Si  Si20  1  0.662605  0.991262  0.929032  1
  Si  Si21  1  0.337275  0.008582  0.070591  1
  Os  Os22  1  0.679493  0.318652  0.999070  1
  Os  Os23  1  0.319407  0.681172  0.998936  1
  Os  Os24  1  0.319407  0.681172  0.501064  1
  Os  Os25  1  0.679493  0.318652  0.500930  1
  Rh  Rh26  1  0.001119  0.999958  0.998821  1
  Rh  Rh27  1  0.001119  0.999958  0.501179  1
