# generated using pymatgen
data_TbFeB6Mo
_symmetry_space_group_name_H-M   'P 1'
_cell_length_a   3.32321300
_cell_length_b   8.87139100
_cell_length_c   11.21016300
_cell_angle_alpha   90.00000000
_cell_angle_beta   90.00000000
_cell_angle_gamma   90.00000000
_symmetry_Int_Tables_number   1
_chemical_formula_structural   TbFeB6Mo
_chemical_formula_sum   'Tb4 Fe4 B24 Mo4'
_cell_volume   330.49266598
_cell_formula_units_Z   4
loop_
 _symmetry_equiv_pos_site_id
 _symmetry_equiv_pos_as_xyz
  1  'x, y, z'
loop_
 _atom_site_type_symbol
 _atom_site_label
 _atom_site_symmetry_multiplicity
 _atom_site_fract_x
 _atom_site_fract_y
 _atom_site_fract_z
 _atom_site_occupancy
  Tb  Tb0  1  0.000000  0.821256  0.086322  1
  Tb  Tb1  1  0.000000  0.178744  0.913678  1
  Tb  Tb2  1  0.000000  0.321256  0.413678  1
  Tb  Tb3  1  0.000000  0.678744  0.586322  1
  Fe  Fe4  1  0.000000  0.142998  0.183658  1
  Fe  Fe5  1  0.000000  0.857002  0.816342  1
  Fe  Fe6  1  0.000000  0.642998  0.316342  1
  Fe  Fe7  1  0.000000  0.357002  0.683658  1
  B  B8  1  0.500000  0.055539  0.067835  1
  B  B9  1  0.500000  0.944461  0.932165  1
  B  B10  1  0.500000  0.555539  0.432165  1
  B  B11  1  0.500000  0.444461  0.567835  1
  B  B12  1  0.500000  0.253281  0.083219  1
  B  B13  1  0.500000  0.746719  0.916781  1
  B  B14  1  0.500000  0.753281  0.416781  1
  B  B15  1  0.500000  0.246719  0.583219  1
  B  B16  1  0.500000  0.297039  0.235465  1
  B  B17  1  0.500000  0.702961  0.764535  1
  B  B18  1  0.500000  0.797039  0.264535  1
  B  B19  1  0.500000  0.202961  0.735465  1
  B  B20  1  0.500000  0.128639  0.317849  1
  B  B21  1  0.500000  0.871361  0.682151  1
  B  B22  1  0.500000  0.628639  0.182151  1
  B  B23  1  0.500000  0.371361  0.817849  1
  B  B24  1  0.500000  0.482533  0.286008  1
  B  B25  1  0.500000  0.517467  0.713992  1
  B  B26  1  0.500000  0.982533  0.213992  1
  B  B27  1  0.500000  0.017467  0.786008  1
  B  B28  1  0.500000  0.099126  0.474033  1
  B  B29  1  0.500000  0.900874  0.525967  1
  B  B30  1  0.500000  0.599126  0.025967  1
  B  B31  1  0.500000  0.400874  0.974033  1
  Mo  Mo32  1  0.000000  0.445043  0.127389  1
  Mo  Mo33  1  0.000000  0.554957  0.872611  1
  Mo  Mo34  1  0.000000  0.945043  0.372611  1
  Mo  Mo35  1  0.000000  0.054957  0.627389  1
