# generated using pymatgen
data_Sc12CdFe3Sb
_symmetry_space_group_name_H-M   'P 1'
_cell_length_a   7.75138986
_cell_length_b   7.75139082
_cell_length_c   7.75138900
_cell_angle_alpha   108.38135934
_cell_angle_beta   108.82050540
_cell_angle_gamma   111.22646790
_symmetry_Int_Tables_number   1
_chemical_formula_structural   Sc12CdFe3Sb
_chemical_formula_sum   'Sc12 Cd1 Fe3 Sb1'
_cell_volume   358.26454529
_cell_formula_units_Z   1
loop_
 _symmetry_equiv_pos_site_id
 _symmetry_equiv_pos_as_xyz
  1  'x, y, z'
loop_
 _atom_site_type_symbol
 _atom_site_label
 _atom_site_symmetry_multiplicity
 _atom_site_fract_x
 _atom_site_fract_y
 _atom_site_fract_z
 _atom_site_occupancy
  Sc  Sc0  1  0.309118  0.301526  0.610646  1
  Sc  Sc1  1  0.690882  0.698474  0.389354  1
  Sc  Sc2  1  0.690882  0.301526  0.992408  1
  Sc  Sc3  1  0.309118  0.698474  0.007592  1
  Sc  Sc4  1  0.195270  0.428261  0.232991  1
  Sc  Sc5  1  0.804730  0.571739  0.767009  1
  Sc  Sc6  1  0.195270  0.962277  0.767009  1
  Sc  Sc7  1  0.954052  0.191975  0.762078  1
  Sc  Sc8  1  0.804730  0.037723  0.232991  1
  Sc  Sc9  1  0.045948  0.808025  0.237922  1
  Sc  Sc10  1  0.429897  0.191975  0.237922  1
  Sc  Sc11  1  0.570103  0.808025  0.762078  1
  Cd  Cd12  1  0.500000  0.000000  0.500000  1
  Fe  Fe13  1  0.378854  0.378854  0.000000  1
  Fe  Fe14  1  0.621146  0.621146  0.000000  1
  Fe  Fe15  1  0.000000  0.000000  0.000000  1
  Sb  Sb16  1  0.000000  0.500000  0.500000  1
