# generated using pymatgen
data_Y4ScBi2Sb
_symmetry_space_group_name_H-M   'P 1'
_cell_length_a   8.06896400
_cell_length_b   9.37880000
_cell_length_c   11.91855000
_cell_angle_alpha   90.00000000
_cell_angle_beta   90.00000000
_cell_angle_gamma   90.00000000
_symmetry_Int_Tables_number   1
_chemical_formula_structural   Y4ScBi2Sb
_chemical_formula_sum   'Y16 Sc4 Bi8 Sb4'
_cell_volume   901.96248685
_cell_formula_units_Z   4
loop_
 _symmetry_equiv_pos_site_id
 _symmetry_equiv_pos_as_xyz
  1  'x, y, z'
loop_
 _atom_site_type_symbol
 _atom_site_label
 _atom_site_symmetry_multiplicity
 _atom_site_fract_x
 _atom_site_fract_y
 _atom_site_fract_z
 _atom_site_occupancy
  Y  Y0  1  0.182943  0.750000  0.720391  1
  Y  Y1  1  0.682943  0.750000  0.779609  1
  Y  Y2  1  0.817057  0.250000  0.279609  1
  Y  Y3  1  0.317057  0.250000  0.220391  1
  Y  Y4  1  0.306541  0.438431  0.942104  1
  Y  Y5  1  0.806541  0.061569  0.557896  1
  Y  Y6  1  0.693459  0.938431  0.057896  1
  Y  Y7  1  0.193459  0.561569  0.442104  1
  Y  Y8  1  0.693459  0.561569  0.057896  1
  Y  Y9  1  0.193459  0.938431  0.442104  1
  Y  Y10  1  0.306541  0.061569  0.942104  1
  Y  Y11  1  0.806541  0.438431  0.557896  1
  Y  Y12  1  0.354514  0.750000  0.212566  1
  Y  Y13  1  0.854514  0.750000  0.287434  1
  Y  Y14  1  0.645486  0.250000  0.787434  1
  Y  Y15  1  0.145486  0.250000  0.712566  1
  Sc  Sc16  1  0.029512  0.750000  0.987852  1
  Sc  Sc17  1  0.529512  0.750000  0.512148  1
  Sc  Sc18  1  0.970488  0.250000  0.012148  1
  Sc  Sc19  1  0.470488  0.250000  0.487852  1
  Bi  Bi20  1  0.434340  0.003723  0.668492  1
  Bi  Bi21  1  0.934340  0.496277  0.831508  1
  Bi  Bi22  1  0.565660  0.503723  0.331508  1
  Bi  Bi23  1  0.065660  0.996277  0.168492  1
  Bi  Bi24  1  0.565660  0.996277  0.331508  1
  Bi  Bi25  1  0.065660  0.503723  0.168492  1
  Bi  Bi26  1  0.434340  0.496277  0.668492  1
  Bi  Bi27  1  0.934340  0.003723  0.831508  1
  Sb  Sb28  1  0.405229  0.750000  0.958658  1
  Sb  Sb29  1  0.905229  0.750000  0.541342  1
  Sb  Sb30  1  0.594771  0.250000  0.041342  1
  Sb  Sb31  1  0.094771  0.250000  0.458658  1
