# generated using pymatgen
data_HoZrMn6Co6P7
_symmetry_space_group_name_H-M   'P 1'
_cell_length_a   9.03701800
_cell_length_b   9.03701923
_cell_length_c   3.60402800
_cell_angle_alpha   90.00000000
_cell_angle_beta   90.00000000
_cell_angle_gamma   120.00000284
_symmetry_Int_Tables_number   1
_chemical_formula_structural   HoZrMn6Co6P7
_chemical_formula_sum   'Ho1 Zr1 Mn6 Co6 P7'
_cell_volume   254.89958546
_cell_formula_units_Z   1
loop_
 _symmetry_equiv_pos_site_id
 _symmetry_equiv_pos_as_xyz
  1  'x, y, z'
loop_
 _atom_site_type_symbol
 _atom_site_label
 _atom_site_symmetry_multiplicity
 _atom_site_fract_x
 _atom_site_fract_y
 _atom_site_fract_z
 _atom_site_occupancy
  Ho  Ho0  1  0.333333  0.666667  0.500000  1
  Zr  Zr1  1  0.666667  0.333333  0.000000  1
  Mn  Mn2  1  0.279736  0.158331  0.000000  1
  Mn  Mn3  1  0.841669  0.121403  0.000000  1
  Mn  Mn4  1  0.878597  0.720264  0.000000  1
  Mn  Mn5  1  0.105463  0.228253  0.500000  1
  Mn  Mn6  1  0.771747  0.877211  0.500000  1
  Mn  Mn7  1  0.122789  0.894537  0.500000  1
  Co  Co8  1  0.059640  0.431024  0.000000  1
  Co  Co9  1  0.568976  0.628617  0.000000  1
  Co  Co10  1  0.371383  0.940360  0.000000  1
  Co  Co11  1  0.441918  0.387854  0.500000  1
  Co  Co12  1  0.612146  0.054063  0.500000  1
  Co  Co13  1  0.945937  0.558082  0.500000  1
  P  P14  1  0.299627  0.412563  0.000000  1
  P  P15  1  0.587437  0.887064  0.000000  1
  P  P16  1  0.112936  0.700373  0.000000  1
  P  P17  1  0.409884  0.122287  0.500000  1
  P  P18  1  0.877713  0.287597  0.500000  1
  P  P19  1  0.712403  0.590116  0.500000  1
  P  P20  1  0.000000  0.000000  0.000000  1
