# generated using pymatgen
data_Y5CuRhO12
_symmetry_space_group_name_H-M   'P 1'
_cell_length_a   6.82531917
_cell_length_b   6.82531937
_cell_length_c   7.26737487
_cell_angle_alpha   74.42723148
_cell_angle_beta   74.42723472
_cell_angle_gamma   51.34424608
_symmetry_Int_Tables_number   1
_chemical_formula_structural   Y5CuRhO12
_chemical_formula_sum   'Y5 Cu1 Rh1 O12'
_cell_volume   252.37786187
_cell_formula_units_Z   1
loop_
 _symmetry_equiv_pos_site_id
 _symmetry_equiv_pos_as_xyz
  1  'x, y, z'
loop_
 _atom_site_type_symbol
 _atom_site_label
 _atom_site_symmetry_multiplicity
 _atom_site_fract_x
 _atom_site_fract_y
 _atom_site_fract_z
 _atom_site_occupancy
  Y  Y0  1  0.500543  0.499457  0.500000  1
  Y  Y1  1  0.194069  0.189137  0.167705  1
  Y  Y2  1  0.810863  0.805931  0.832295  1
  Y  Y3  1  0.810101  0.797406  0.358387  1
  Y  Y4  1  0.202594  0.189899  0.641613  1
  Cu  Cu5  1  0.247333  0.752667  0.000000  1
  Rh  Rh6  1  0.738175  0.261825  0.000000  1
  O  O7  1  0.992963  0.006137  0.185896  1
  O  O8  1  0.993863  0.007037  0.814104  1
  O  O9  1  0.498922  0.502603  0.819030  1
  O  O10  1  0.497397  0.501078  0.180970  1
  O  O11  1  0.599537  0.096408  0.575707  1
  O  O12  1  0.903592  0.400463  0.424293  1
  O  O13  1  0.405841  0.900077  0.424936  1
  O  O14  1  0.399661  0.922703  0.918918  1
  O  O15  1  0.077297  0.600339  0.081082  1
  O  O16  1  0.598171  0.070843  0.081897  1
  O  O17  1  0.929157  0.401829  0.918103  1
  O  O18  1  0.099923  0.594159  0.575064  1
