# generated using pymatgen
data_YCl30
_symmetry_space_group_name_H-M   'P 1'
_cell_length_a   13.46064823
_cell_length_b   13.46064843
_cell_length_c   15.95660063
_cell_angle_alpha   82.39337562
_cell_angle_beta   82.39337603
_cell_angle_gamma   120.14397747
_symmetry_Int_Tables_number   1
_chemical_formula_structural   YCl30
_chemical_formula_sum   'Y1 Cl30'
_cell_volume   2410.57362635
_cell_formula_units_Z   1
loop_
 _symmetry_equiv_pos_site_id
 _symmetry_equiv_pos_as_xyz
  1  'x, y, z'
loop_
 _atom_site_type_symbol
 _atom_site_label
 _atom_site_symmetry_multiplicity
 _atom_site_fract_x
 _atom_site_fract_y
 _atom_site_fract_z
 _atom_site_occupancy
  Y  Y0  1  0.000000  0.000000  0.000000  1
  Cl  Cl1  1  0.937643  0.937643  0.173577  1
  Cl  Cl2  1  0.062357  0.062357  0.826423  1
  Cl  Cl3  1  0.109482  0.224899  0.005744  1
  Cl  Cl4  1  0.890518  0.775101  0.994256  1
  Cl  Cl5  1  0.224899  0.109482  0.005744  1
  Cl  Cl6  1  0.775101  0.890518  0.994256  1
  Cl  Cl7  1  0.198964  0.743466  0.064995  1
  Cl  Cl8  1  0.801036  0.256534  0.935005  1
  Cl  Cl9  1  0.695001  0.082922  0.258389  1
  Cl  Cl10  1  0.256534  0.801036  0.935005  1
  Cl  Cl11  1  0.304999  0.917078  0.741611  1
  Cl  Cl12  1  0.743466  0.198964  0.064995  1
  Cl  Cl13  1  0.981872  0.200647  0.774349  1
  Cl  Cl14  1  0.917078  0.304999  0.741611  1
  Cl  Cl15  1  0.018128  0.799353  0.225651  1
  Cl  Cl16  1  0.082922  0.695001  0.258389  1
  Cl  Cl17  1  0.799353  0.018128  0.225651  1
  Cl  Cl18  1  0.200647  0.981872  0.774349  1
  Cl  Cl19  1  0.465442  0.550744  0.262300  1
  Cl  Cl20  1  0.534558  0.449256  0.737700  1
  Cl  Cl21  1  0.508635  0.206868  0.450416  1
  Cl  Cl22  1  0.449256  0.534558  0.737700  1
  Cl  Cl23  1  0.491365  0.793132  0.549584  1
  Cl  Cl24  1  0.550744  0.465442  0.262300  1
  Cl  Cl25  1  0.239897  0.429004  0.547602  1
  Cl  Cl26  1  0.793132  0.491365  0.549584  1
  Cl  Cl27  1  0.760103  0.570996  0.452398  1
  Cl  Cl28  1  0.206868  0.508635  0.450416  1
  Cl  Cl29  1  0.570996  0.760103  0.452398  1
  Cl  Cl30  1  0.429004  0.239897  0.547602  1
