# generated using pymatgen
data_Ca3HoAl18CuRh5
_symmetry_space_group_name_H-M   'P 1'
_cell_length_a   7.56152531
_cell_length_b   7.56183060
_cell_length_c   9.56969174
_cell_angle_alpha   90.18195619
_cell_angle_beta   90.19571191
_cell_angle_gamma   119.42605671
_symmetry_Int_Tables_number   1
_chemical_formula_structural   Ca3HoAl18CuRh5
_chemical_formula_sum   'Ca3 Ho1 Al18 Cu1 Rh5'
_cell_volume   476.58286996
_cell_formula_units_Z   1
loop_
 _symmetry_equiv_pos_site_id
 _symmetry_equiv_pos_as_xyz
  1  'x, y, z'
loop_
 _atom_site_type_symbol
 _atom_site_label
 _atom_site_symmetry_multiplicity
 _atom_site_fract_x
 _atom_site_fract_y
 _atom_site_fract_z
 _atom_site_occupancy
  Ca  Ca0  1  0.005264  0.326791  0.749962  1
  Ca  Ca1  1  0.672031  0.994467  0.249920  1
  Ca  Ca2  1  0.328705  0.006424  0.750116  1
  Ho  Ho3  1  0.996630  0.672604  0.249655  1
  Al  Al4  1  0.132279  0.129119  0.251385  1
  Al  Al5  1  0.867661  0.868121  0.748509  1
  Al  Al6  1  0.000828  0.337055  0.074489  1
  Al  Al7  1  0.998489  0.662132  0.926054  1
  Al  Al8  1  0.999147  0.665077  0.571190  1
  Al  Al9  1  0.335512  0.000780  0.428654  1
  Al  Al10  1  0.000360  0.335081  0.427936  1
  Al  Al11  1  0.664717  0.999260  0.570702  1
  Al  Al12  1  0.662235  0.998232  0.927113  1
  Al  Al13  1  0.337512  0.001298  0.073979  1
  Al  Al14  1  0.333685  0.334118  0.545672  1
  Al  Al15  1  0.666680  0.666426  0.450710  1
  Al  Al16  1  0.665572  0.665521  0.050607  1
  Al  Al17  1  0.336546  0.336730  0.953710  1
  Al  Al18  1  0.334824  0.546691  0.249511  1
  Al  Al19  1  0.661285  0.451596  0.750405  1
  Al  Al20  1  0.550205  0.341571  0.249745  1
  Al  Al21  1  0.451290  0.661573  0.750283  1
  Cu  Cu22  1  0.999080  0.998225  0.001547  1
  Rh  Rh23  1  0.672570  0.329673  0.001525  1
  Rh  Rh24  1  0.327518  0.671505  0.001406  1
  Rh  Rh25  1  0.328112  0.671355  0.498296  1
  Rh  Rh26  1  0.672026  0.329887  0.498684  1
  Rh  Rh27  1  0.999235  0.998688  0.498234  1
