# generated using pymatgen
data_DyHo3(Co5As3)4
_symmetry_space_group_name_H-M   'P 1'
_cell_length_a   3.77390200
_cell_length_b   12.14131202
_cell_length_c   10.64932242
_cell_angle_alpha   90.01296908
_cell_angle_beta   90.00000000
_cell_angle_gamma   90.00000000
_symmetry_Int_Tables_number   1
_chemical_formula_structural   DyHo3(Co5As3)4
_chemical_formula_sum   'Dy1 Ho3 Co20 As12'
_cell_volume   487.95323669
_cell_formula_units_Z   1
loop_
 _symmetry_equiv_pos_site_id
 _symmetry_equiv_pos_as_xyz
  1  'x, y, z'
loop_
 _atom_site_type_symbol
 _atom_site_label
 _atom_site_symmetry_multiplicity
 _atom_site_fract_x
 _atom_site_fract_y
 _atom_site_fract_z
 _atom_site_occupancy
  Dy  Dy0  1  0.750000  0.701536  0.082002  1
  Ho  Ho1  1  0.250000  0.298665  0.918096  1
  Ho  Ho2  1  0.250000  0.798762  0.581721  1
  Ho  Ho3  1  0.750000  0.201268  0.418258  1
  Co  Co4  1  0.750000  0.697148  0.384407  1
  Co  Co5  1  0.250000  0.302766  0.615781  1
  Co  Co6  1  0.250000  0.803051  0.883922  1
  Co  Co7  1  0.750000  0.197164  0.115918  1
  Co  Co8  1  0.750000  0.991066  0.212142  1
  Co  Co9  1  0.250000  0.008975  0.787813  1
  Co  Co10  1  0.250000  0.508710  0.712002  1
  Co  Co11  1  0.750000  0.491016  0.287968  1
  Co  Co12  1  0.750000  0.677756  0.783920  1
  Co  Co13  1  0.250000  0.322172  0.216049  1
  Co  Co14  1  0.250000  0.822322  0.284135  1
  Co  Co15  1  0.750000  0.177708  0.715969  1
  Co  Co16  1  0.750000  0.932335  0.969315  1
  Co  Co17  1  0.250000  0.068237  0.030458  1
  Co  Co18  1  0.250000  0.567885  0.469707  1
  Co  Co19  1  0.750000  0.431922  0.530470  1
  Co  Co20  1  0.750000  0.987886  0.592815  1
  Co  Co21  1  0.250000  0.012171  0.407179  1
  Co  Co22  1  0.250000  0.511751  0.092780  1
  Co  Co23  1  0.750000  0.487706  0.907115  1
  As  As24  1  0.750000  0.614374  0.584858  1
  As  As25  1  0.250000  0.385513  0.415180  1
  As  As26  1  0.250000  0.885991  0.084773  1
  As  As27  1  0.750000  0.114595  0.915172  1
  As  As28  1  0.750000  0.890510  0.399516  1
  As  As29  1  0.250000  0.109497  0.600460  1
  As  As30  1  0.250000  0.609382  0.899253  1
  As  As31  1  0.750000  0.390413  0.100527  1
  As  As32  1  0.750000  0.870393  0.768890  1
  As  As33  1  0.250000  0.129635  0.231106  1
  As  As34  1  0.250000  0.629433  0.269330  1
  As  As35  1  0.750000  0.370285  0.730991  1
