# generated using pymatgen
data_Gd2Ta2Sb2O11
_symmetry_space_group_name_H-M   'P 1'
_cell_length_a   6.64943663
_cell_length_b   7.63303167
_cell_length_c   9.63373500
_cell_angle_alpha   101.52014857
_cell_angle_beta   91.27279915
_cell_angle_gamma   90.24912066
_symmetry_Int_Tables_number   1
_chemical_formula_structural   Gd2Ta2Sb2O11
_chemical_formula_sum   'Gd4 Ta4 Sb4 O22'
_cell_volume   478.97582056
_cell_formula_units_Z   2
loop_
 _symmetry_equiv_pos_site_id
 _symmetry_equiv_pos_as_xyz
  1  'x, y, z'
loop_
 _atom_site_type_symbol
 _atom_site_label
 _atom_site_symmetry_multiplicity
 _atom_site_fract_x
 _atom_site_fract_y
 _atom_site_fract_z
 _atom_site_occupancy
  Gd  Gd0  1  0.749549  0.369921  0.481743  1
  Gd  Gd1  1  0.250451  0.630079  0.518257  1
  Gd  Gd2  1  0.760054  0.871793  0.497548  1
  Gd  Gd3  1  0.239946  0.128207  0.502452  1
  Ta  Ta4  1  0.918692  0.701890  0.805325  1
  Ta  Ta5  1  0.081308  0.298110  0.194675  1
  Ta  Ta6  1  0.921367  0.199900  0.802055  1
  Ta  Ta7  1  0.078633  0.800100  0.197945  1
  Sb  Sb8  1  0.412120  0.956965  0.810180  1
  Sb  Sb9  1  0.587880  0.043035  0.189820  1
  Sb  Sb10  1  0.430222  0.453773  0.824467  1
  Sb  Sb11  1  0.569778  0.546227  0.175533  1
  O  O12  1  0.216933  0.740810  0.760529  1
  O  O13  1  0.783067  0.259190  0.239471  1
  O  O14  1  0.636828  0.653195  0.832469  1
  O  O15  1  0.363172  0.346805  0.167531  1
  O  O16  1  0.636277  0.257663  0.826342  1
  O  O17  1  0.363723  0.742337  0.173658  1
  O  O18  1  0.896450  0.154944  0.583223  1
  O  O19  1  0.103550  0.845056  0.416777  1
  O  O20  1  0.215981  0.137537  0.752081  1
  O  O21  1  0.784019  0.862463  0.247919  1
  O  O22  1  0.898683  0.636940  0.588787  1
  O  O23  1  0.101317  0.363060  0.411213  1
  O  O24  1  0.017461  0.550638  0.202040  1
  O  O25  1  0.982539  0.449362  0.797960  1
  O  O26  1  0.997631  0.788363  0.002432  1
  O  O27  1  0.002369  0.211637  0.997568  1
  O  O28  1  0.568051  0.594929  0.387208  1
  O  O29  1  0.431949  0.405071  0.612792  1
  O  O30  1  0.159234  0.057768  0.229562  1
  O  O31  1  0.840766  0.942232  0.770438  1
  O  O32  1  0.541629  0.103097  0.396329  1
  O  O33  1  0.458371  0.896903  0.603671  1
