# generated using pymatgen
data_DyTm7Ga3Fe
_symmetry_space_group_name_H-M   'P 1'
_cell_length_a   9.87652023
_cell_length_b   9.87652084
_cell_length_c   6.88789165
_cell_angle_alpha   89.95382915
_cell_angle_beta   90.04616772
_cell_angle_gamma   120.01981278
_symmetry_Int_Tables_number   1
_chemical_formula_structural   DyTm7Ga3Fe
_chemical_formula_sum   'Dy2 Tm14 Ga6 Fe2'
_cell_volume   581.75208972
_cell_formula_units_Z   2
loop_
 _symmetry_equiv_pos_site_id
 _symmetry_equiv_pos_as_xyz
  1  'x, y, z'
loop_
 _atom_site_type_symbol
 _atom_site_label
 _atom_site_symmetry_multiplicity
 _atom_site_fract_x
 _atom_site_fract_y
 _atom_site_fract_z
 _atom_site_occupancy
  Dy  Dy0  1  0.535047  0.070597  0.518074  1
  Dy  Dy1  1  0.929403  0.464953  0.518074  1
  Tm  Tm2  1  0.535506  0.464494  0.519240  1
  Tm  Tm3  1  0.463399  0.927040  0.018778  1
  Tm  Tm4  1  0.072960  0.536601  0.018778  1
  Tm  Tm5  1  0.463690  0.536310  0.019504  1
  Tm  Tm6  1  0.174531  0.348252  0.717232  1
  Tm  Tm7  1  0.651748  0.825469  0.717232  1
  Tm  Tm8  1  0.173844  0.826156  0.717442  1
  Tm  Tm9  1  0.825848  0.652667  0.215360  1
  Tm  Tm10  1  0.347333  0.174152  0.215360  1
  Tm  Tm11  1  0.826782  0.173218  0.214440  1
  Tm  Tm12  1  0.666376  0.333624  0.896715  1
  Tm  Tm13  1  0.333780  0.666220  0.395422  1
  Tm  Tm14  1  0.000087  0.999913  0.494155  1
  Tm  Tm15  1  0.000272  0.999728  0.994318  1
  Ga  Ga16  1  0.836248  0.673422  0.767610  1
  Ga  Ga17  1  0.326578  0.163752  0.767610  1
  Ga  Ga18  1  0.836922  0.163078  0.768244  1
  Ga  Ga19  1  0.163774  0.327316  0.267091  1
  Ga  Ga20  1  0.672684  0.836226  0.267091  1
  Ga  Ga21  1  0.163593  0.836407  0.267474  1
  Fe  Fe22  1  0.666293  0.333707  0.280698  1
  Fe  Fe23  1  0.333303  0.666697  0.782062  1
