# generated using pymatgen
data_Tm2Lu10Os3Pd
_symmetry_space_group_name_H-M   'P 1'
_cell_length_a   7.23407020
_cell_length_b   8.87186400
_cell_length_c   6.26555200
_cell_angle_alpha   90.00000000
_cell_angle_beta   90.08628344
_cell_angle_gamma   90.00000000
_symmetry_Int_Tables_number   1
_chemical_formula_structural   Tm2Lu10Os3Pd
_chemical_formula_sum   'Tm2 Lu10 Os3 Pd1'
_cell_volume   402.12071031
_cell_formula_units_Z   1
loop_
 _symmetry_equiv_pos_site_id
 _symmetry_equiv_pos_as_xyz
  1  'x, y, z'
loop_
 _atom_site_type_symbol
 _atom_site_label
 _atom_site_symmetry_multiplicity
 _atom_site_fract_x
 _atom_site_fract_y
 _atom_site_fract_z
 _atom_site_occupancy
  Tm  Tm0  1  0.532009  0.250000  0.876999  1
  Tm  Tm1  1  0.036690  0.250000  0.618180  1
  Lu  Lu2  1  0.669976  0.056860  0.336352  1
  Lu  Lu3  1  0.183455  0.443508  0.172053  1
  Lu  Lu4  1  0.322909  0.561651  0.671182  1
  Lu  Lu5  1  0.822664  0.933168  0.823210  1
  Lu  Lu6  1  0.322909  0.938349  0.671182  1
  Lu  Lu7  1  0.822664  0.566832  0.823210  1
  Lu  Lu8  1  0.669976  0.443140  0.336352  1
  Lu  Lu9  1  0.183455  0.056492  0.172053  1
  Lu  Lu10  1  0.464856  0.750000  0.119107  1
  Lu  Lu11  1  0.963131  0.750000  0.373899  1
  Os  Os12  1  0.384328  0.250000  0.462746  1
  Os  Os13  1  0.115133  0.750000  0.965087  1
  Os  Os14  1  0.614675  0.750000  0.531809  1
  Pd  Pd15  1  0.891168  0.250000  0.046582  1
