# generated using pymatgen
data_Zn4H8OsRu
_symmetry_space_group_name_H-M   'P 1'
_cell_length_a   5.20292783
_cell_length_b   5.20292912
_cell_length_c   4.92504100
_cell_angle_alpha   90.00000000
_cell_angle_beta   90.00000000
_cell_angle_gamma   95.16994357
_symmetry_Int_Tables_number   1
_chemical_formula_structural   Zn4H8OsRu
_chemical_formula_sum   'Zn4 H8 Os1 Ru1'
_cell_volume   132.78076430
_cell_formula_units_Z   1
loop_
 _symmetry_equiv_pos_site_id
 _symmetry_equiv_pos_as_xyz
  1  'x, y, z'
loop_
 _atom_site_type_symbol
 _atom_site_label
 _atom_site_symmetry_multiplicity
 _atom_site_fract_x
 _atom_site_fract_y
 _atom_site_fract_z
 _atom_site_occupancy
  Zn  Zn0  1  0.340246  0.037536  0.250000  1
  Zn  Zn1  1  0.041162  0.340740  0.750000  1
  Zn  Zn2  1  0.659260  0.958838  0.750000  1
  Zn  Zn3  1  0.962464  0.659754  0.250000  1
  H  H4  1  0.129782  0.351659  0.250000  1
  H  H5  1  0.351987  0.127228  0.750000  1
  H  H6  1  0.872772  0.648013  0.750000  1
  H  H7  1  0.648341  0.870218  0.250000  1
  H  H8  1  0.686644  0.313356  0.041378  1
  H  H9  1  0.310918  0.689082  0.958904  1
  H  H10  1  0.686644  0.313356  0.458622  1
  H  H11  1  0.310918  0.689082  0.541096  1
  Os  Os12  1  0.855268  0.144732  0.250000  1
  Ru  Ru13  1  0.143593  0.856407  0.750000  1
