# generated using pymatgen
data_SrPrIn2Pt3
_symmetry_space_group_name_H-M   'P 1'
_cell_length_a   4.40849600
_cell_length_b   8.24717400
_cell_length_c   9.20110600
_cell_angle_alpha   90.00000000
_cell_angle_beta   90.00000000
_cell_angle_gamma   90.00000000
_symmetry_Int_Tables_number   1
_chemical_formula_structural   SrPrIn2Pt3
_chemical_formula_sum   'Sr2 Pr2 In4 Pt6'
_cell_volume   334.53044057
_cell_formula_units_Z   2
loop_
 _symmetry_equiv_pos_site_id
 _symmetry_equiv_pos_as_xyz
  1  'x, y, z'
loop_
 _atom_site_type_symbol
 _atom_site_label
 _atom_site_symmetry_multiplicity
 _atom_site_fract_x
 _atom_site_fract_y
 _atom_site_fract_z
 _atom_site_occupancy
  Sr  Sr0  1  0.000000  0.000000  0.278540  1
  Sr  Sr1  1  0.500001  0.500000  0.721461  1
  Pr  Pr2  1  0.000000  0.500000  0.347507  1
  Pr  Pr3  1  0.500001  0.000000  0.652494  1
  In  In4  1  0.500001  0.304972  0.109405  1
  In  In5  1  0.500001  0.695029  0.109405  1
  In  In6  1  0.000000  0.195028  0.890595  1
  In  In7  1  0.000000  0.804971  0.890595  1
  Pt  Pt8  1  0.000000  0.500000  0.017219  1
  Pt  Pt9  1  0.500001  0.257231  0.407099  1
  Pt  Pt10  1  0.500001  0.742769  0.407099  1
  Pt  Pt11  1  0.000000  0.242769  0.592902  1
  Pt  Pt12  1  0.000000  0.757231  0.592902  1
  Pt  Pt13  1  0.500001  0.000000  0.982782  1
