# generated using pymatgen
data_DyLu2Si2GeRu2
_symmetry_space_group_name_H-M   'P 1'
_cell_length_a   5.67654459
_cell_length_b   5.67654675
_cell_length_c   13.77210200
_cell_angle_alpha   90.00000000
_cell_angle_beta   90.00000000
_cell_angle_gamma   137.08574605
_symmetry_Int_Tables_number   1
_chemical_formula_structural   DyLu2Si2GeRu2
_chemical_formula_sum   'Dy2 Lu4 Si4 Ge2 Ru4'
_cell_volume   302.17171337
_cell_formula_units_Z   2
loop_
 _symmetry_equiv_pos_site_id
 _symmetry_equiv_pos_as_xyz
  1  'x, y, z'
loop_
 _atom_site_type_symbol
 _atom_site_label
 _atom_site_symmetry_multiplicity
 _atom_site_fract_x
 _atom_site_fract_y
 _atom_site_fract_z
 _atom_site_occupancy
  Dy  Dy0  1  0.644554  0.355446  0.250000  1
  Dy  Dy1  1  0.355446  0.644554  0.750000  1
  Lu  Lu2  1  0.925281  0.074719  0.112001  1
  Lu  Lu3  1  0.074719  0.925281  0.887999  1
  Lu  Lu4  1  0.074719  0.925281  0.612001  1
  Lu  Lu5  1  0.925281  0.074719  0.387999  1
  Si  Si6  1  0.614752  0.385248  0.037925  1
  Si  Si7  1  0.385248  0.614752  0.962075  1
  Si  Si8  1  0.385248  0.614752  0.537925  1
  Si  Si9  1  0.614752  0.385248  0.462075  1
  Ge  Ge10  1  0.341612  0.658388  0.250000  1
  Ge  Ge11  1  0.658388  0.341612  0.750000  1
  Ru  Ru12  1  0.788700  0.211300  0.579207  1
  Ru  Ru13  1  0.211300  0.788700  0.420793  1
  Ru  Ru14  1  0.211300  0.788700  0.079207  1
  Ru  Ru15  1  0.788700  0.211300  0.920793  1
