# generated using pymatgen
data_CaPr(Co3Si2)2
_symmetry_space_group_name_H-M   'P 1'
_cell_length_a   6.33563916
_cell_length_b   6.33563958
_cell_length_c   6.33563854
_cell_angle_alpha   130.18204030
_cell_angle_beta   114.88770885
_cell_angle_gamma   86.21231840
_symmetry_Int_Tables_number   1
_chemical_formula_structural   CaPr(Co3Si2)2
_chemical_formula_sum   'Ca1 Pr1 Co6 Si4'
_cell_volume   168.32803256
_cell_formula_units_Z   1
loop_
 _symmetry_equiv_pos_site_id
 _symmetry_equiv_pos_as_xyz
  1  'x, y, z'
loop_
 _atom_site_type_symbol
 _atom_site_label
 _atom_site_symmetry_multiplicity
 _atom_site_fract_x
 _atom_site_fract_y
 _atom_site_fract_z
 _atom_site_occupancy
  Ca  Ca0  1  0.250000  0.968633  0.718633  1
  Pr  Pr1  1  0.750000  0.032774  0.282774  1
  Co  Co2  1  0.502603  0.500124  0.502727  1
  Co  Co3  1  0.997397  0.500124  0.997521  1
  Co  Co4  1  0.278760  0.999217  0.279890  1
  Co  Co5  1  0.719327  0.999217  0.720457  1
  Co  Co6  1  0.221240  0.501130  0.720457  1
  Co  Co7  1  0.780673  0.501130  0.279890  1
  Si  Si8  1  0.083187  0.285601  0.202414  1
  Si  Si9  1  0.924415  0.720827  0.796412  1
  Si  Si10  1  0.416813  0.619226  0.202414  1
  Si  Si11  1  0.575585  0.371998  0.796412  1
