# generated using pymatgen
data_EuY2Ta(Co4P3)2
_symmetry_space_group_name_H-M   'P 1'
_cell_length_a   3.73878700
_cell_length_b   10.72543000
_cell_length_c   12.40602500
_cell_angle_alpha   90.00000000
_cell_angle_beta   90.00000000
_cell_angle_gamma   90.00000000
_symmetry_Int_Tables_number   1
_chemical_formula_structural   EuY2Ta(Co4P3)2
_chemical_formula_sum   'Eu2 Y4 Ta2 Co16 P12'
_cell_volume   497.48282143
_cell_formula_units_Z   2
loop_
 _symmetry_equiv_pos_site_id
 _symmetry_equiv_pos_as_xyz
  1  'x, y, z'
loop_
 _atom_site_type_symbol
 _atom_site_label
 _atom_site_symmetry_multiplicity
 _atom_site_fract_x
 _atom_site_fract_y
 _atom_site_fract_z
 _atom_site_occupancy
  Eu  Eu0  1  0.000000  0.500000  0.527573  1
  Eu  Eu1  1  0.500000  0.000000  0.472427  1
  Y  Y2  1  0.500000  0.820434  0.204312  1
  Y  Y3  1  0.500000  0.179566  0.204312  1
  Y  Y4  1  0.000000  0.679566  0.795688  1
  Y  Y5  1  0.000000  0.320434  0.795688  1
  Ta  Ta6  1  0.500000  0.500000  0.154788  1
  Ta  Ta7  1  0.000000  0.000000  0.845212  1
  Co  Co8  1  0.500000  0.500000  0.704228  1
  Co  Co9  1  0.000000  0.000000  0.295772  1
  Co  Co10  1  0.000000  0.500000  0.986857  1
  Co  Co11  1  0.500000  0.000000  0.013143  1
  Co  Co12  1  0.500000  0.332495  0.992011  1
  Co  Co13  1  0.500000  0.667505  0.992011  1
  Co  Co14  1  0.000000  0.167505  0.007989  1
  Co  Co15  1  0.000000  0.832495  0.007989  1
  Co  Co16  1  0.500000  0.294764  0.430969  1
  Co  Co17  1  0.500000  0.705236  0.430969  1
  Co  Co18  1  0.000000  0.205236  0.569031  1
  Co  Co19  1  0.000000  0.794764  0.569031  1
  Co  Co20  1  0.500000  0.878298  0.707039  1
  Co  Co21  1  0.500000  0.121702  0.707039  1
  Co  Co22  1  0.000000  0.621702  0.292961  1
  Co  Co23  1  0.000000  0.378298  0.292961  1
  P  P24  1  0.500000  0.500000  0.882840  1
  P  P25  1  0.000000  0.000000  0.117160  1
  P  P26  1  0.500000  0.500000  0.353875  1
  P  P27  1  0.000000  0.000000  0.646125  1
  P  P28  1  0.500000  0.307699  0.615671  1
  P  P29  1  0.500000  0.692301  0.615671  1
  P  P30  1  0.000000  0.192301  0.384329  1
  P  P31  1  0.000000  0.807699  0.384329  1
  P  P32  1  0.500000  0.841652  0.893718  1
  P  P33  1  0.500000  0.158348  0.893718  1
  P  P34  1  0.000000  0.658348  0.106282  1
  P  P35  1  0.000000  0.341652  0.106282  1
