# generated using pymatgen
data_LiSi6(BiPd10)2
_symmetry_space_group_name_H-M   'P 1'
_cell_length_a   8.68226607
_cell_length_b   8.68226632
_cell_length_c   8.68226600
_cell_angle_alpha   60.00000121
_cell_angle_beta   60.00000027
_cell_angle_gamma   60.00000332
_symmetry_Int_Tables_number   1
_chemical_formula_structural   LiSi6(BiPd10)2
_chemical_formula_sum   'Li1 Si6 Bi2 Pd20'
_cell_volume   462.79035479
_cell_formula_units_Z   1
loop_
 _symmetry_equiv_pos_site_id
 _symmetry_equiv_pos_as_xyz
  1  'x, y, z'
loop_
 _atom_site_type_symbol
 _atom_site_label
 _atom_site_symmetry_multiplicity
 _atom_site_fract_x
 _atom_site_fract_y
 _atom_site_fract_z
 _atom_site_occupancy
  Li  Li0  1  0.000000  0.000000  0.000000  1
  Si  Si1  1  0.731939  0.268061  0.268061  1
  Si  Si2  1  0.268061  0.731939  0.731939  1
  Si  Si3  1  0.268061  0.731939  0.268061  1
  Si  Si4  1  0.731939  0.268061  0.731939  1
  Si  Si5  1  0.268061  0.268061  0.731939  1
  Si  Si6  1  0.731939  0.731939  0.268061  1
  Bi  Bi7  1  0.250000  0.250000  0.250000  1
  Bi  Bi8  1  0.750000  0.750000  0.750000  1
  Pd  Pd9  1  0.383027  0.383027  0.383027  1
  Pd  Pd10  1  0.616973  0.616973  0.616973  1
  Pd  Pd11  1  0.383027  0.383027  0.850918  1
  Pd  Pd12  1  0.383027  0.850918  0.383027  1
  Pd  Pd13  1  0.616973  0.616973  0.149082  1
  Pd  Pd14  1  0.616973  0.149082  0.616973  1
  Pd  Pd15  1  0.850918  0.383027  0.383027  1
  Pd  Pd16  1  0.149082  0.616973  0.616973  1
  Pd  Pd17  1  0.341151  0.000000  0.000000  1
  Pd  Pd18  1  0.658849  0.000000  0.000000  1
  Pd  Pd19  1  0.000000  0.341151  0.658849  1
  Pd  Pd20  1  0.000000  0.658849  0.341151  1
  Pd  Pd21  1  0.000000  0.341151  0.000000  1
  Pd  Pd22  1  0.658849  0.000000  0.341151  1
  Pd  Pd23  1  0.000000  0.658849  0.000000  1
  Pd  Pd24  1  0.341151  0.000000  0.658849  1
  Pd  Pd25  1  0.000000  0.000000  0.341151  1
  Pd  Pd26  1  0.000000  0.000000  0.658849  1
  Pd  Pd27  1  0.658849  0.341151  0.000000  1
  Pd  Pd28  1  0.341151  0.658849  0.000000  1
