# generated using pymatgen
data_TbYbNi10
_symmetry_space_group_name_H-M   'P 1'
_cell_length_a   3.94596300
_cell_length_b   4.86049200
_cell_length_c   8.40898900
_cell_angle_alpha   90.00000000
_cell_angle_beta   90.00000000
_cell_angle_gamma   90.00000000
_symmetry_Int_Tables_number   1
_chemical_formula_structural   TbYbNi10
_chemical_formula_sum   'Tb1 Yb1 Ni10'
_cell_volume   161.27870431
_cell_formula_units_Z   1
loop_
 _symmetry_equiv_pos_site_id
 _symmetry_equiv_pos_as_xyz
  1  'x, y, z'
loop_
 _atom_site_type_symbol
 _atom_site_label
 _atom_site_symmetry_multiplicity
 _atom_site_fract_x
 _atom_site_fract_y
 _atom_site_fract_z
 _atom_site_occupancy
  Tb  Tb0  1  0.000000  0.000000  0.500000  1
  Yb  Yb1  1  0.000000  0.500000  0.000000  1
  Ni  Ni2  1  0.000000  0.500000  0.329999  1
  Ni  Ni3  1  0.000000  0.000000  0.836308  1
  Ni  Ni4  1  0.000000  0.000000  0.163692  1
  Ni  Ni5  1  0.000000  0.500000  0.670001  1
  Ni  Ni6  1  0.500000  0.500000  0.500000  1
  Ni  Ni7  1  0.500000  0.000000  0.000000  1
  Ni  Ni8  1  0.500000  0.750320  0.249601  1
  Ni  Ni9  1  0.500000  0.249680  0.750399  1
  Ni  Ni10  1  0.500000  0.249680  0.249601  1
  Ni  Ni11  1  0.500000  0.750320  0.750399  1
