# generated using pymatgen
data_DyHo7(ErRu2)2
_symmetry_space_group_name_H-M   'P 1'
_cell_length_a   6.31930082
_cell_length_b   7.26901949
_cell_length_c   8.45439964
_cell_angle_alpha   96.75146199
_cell_angle_beta   112.04671913
_cell_angle_gamma   89.97131458
_symmetry_Int_Tables_number   1
_chemical_formula_structural   DyHo7(ErRu2)2
_chemical_formula_sum   'Dy1 Ho7 Er2 Ru4'
_cell_volume   357.05879339
_cell_formula_units_Z   1
loop_
 _symmetry_equiv_pos_site_id
 _symmetry_equiv_pos_as_xyz
  1  'x, y, z'
loop_
 _atom_site_type_symbol
 _atom_site_label
 _atom_site_symmetry_multiplicity
 _atom_site_fract_x
 _atom_site_fract_y
 _atom_site_fract_z
 _atom_site_occupancy
  Dy  Dy0  1  0.791883  0.584220  0.813547  1
  Ho  Ho1  1  0.978319  0.915663  0.186134  1
  Ho  Ho2  1  0.207954  0.415665  0.186471  1
  Ho  Ho3  1  0.021977  0.084359  0.814085  1
  Ho  Ho4  1  0.206289  0.684888  0.565854  1
  Ho  Ho5  1  0.640510  0.815131  0.434140  1
  Ho  Ho6  1  0.793447  0.315009  0.433882  1
  Ho  Ho7  1  0.359383  0.184955  0.565751  1
  Er  Er8  1  0.420809  0.749959  0.999869  1
  Er  Er9  1  0.579145  0.250003  0.000099  1
  Ru  Ru10  1  0.603267  0.924697  0.779941  1
  Ru  Ru11  1  0.823446  0.576244  0.220104  1
  Ru  Ru12  1  0.396588  0.075556  0.220079  1
  Ru  Ru13  1  0.176982  0.423652  0.780044  1
