# generated using pymatgen
data_TbHo5(AuO7)2
_symmetry_space_group_name_H-M   'P 1'
_cell_length_a   6.47872924
_cell_length_b   6.47873028
_cell_length_c   7.42852411
_cell_angle_alpha   90.01602994
_cell_angle_beta   89.98397408
_cell_angle_gamma   108.82348741
_symmetry_Int_Tables_number   1
_chemical_formula_structural   TbHo5(AuO7)2
_chemical_formula_sum   'Tb1 Ho5 Au2 O14'
_cell_volume   295.12818949
_cell_formula_units_Z   1
loop_
 _symmetry_equiv_pos_site_id
 _symmetry_equiv_pos_as_xyz
  1  'x, y, z'
loop_
 _atom_site_type_symbol
 _atom_site_label
 _atom_site_symmetry_multiplicity
 _atom_site_fract_x
 _atom_site_fract_y
 _atom_site_fract_z
 _atom_site_occupancy
  Tb  Tb0  1  0.500000  0.500000  0.000000  1
  Ho  Ho1  1  0.500000  0.500000  0.500000  1
  Ho  Ho2  1  0.528872  0.997788  0.749494  1
  Ho  Ho3  1  0.997788  0.528872  0.250506  1
  Ho  Ho4  1  0.471128  0.002212  0.250506  1
  Ho  Ho5  1  0.002212  0.471128  0.749494  1
  Au  Au6  1  0.000000  0.000000  0.500000  1
  Au  Au7  1  0.000000  0.000000  0.000000  1
  O  O8  1  0.669276  0.918145  0.475262  1
  O  O9  1  0.918145  0.669276  0.524738  1
  O  O10  1  0.669292  0.919292  0.024703  1
  O  O11  1  0.919292  0.669292  0.975297  1
  O  O12  1  0.330724  0.081855  0.524738  1
  O  O13  1  0.081855  0.330724  0.475262  1
  O  O14  1  0.330708  0.080708  0.975297  1
  O  O15  1  0.080708  0.330708  0.024703  1
  O  O16  1  0.920009  0.079991  0.749982  1
  O  O17  1  0.079991  0.920009  0.250018  1
  O  O18  1  0.367299  0.632701  0.748016  1
  O  O19  1  0.632701  0.367299  0.251984  1
  O  O20  1  0.639384  0.360616  0.748229  1
  O  O21  1  0.360616  0.639384  0.251771  1
