# generated using pymatgen
data_Th3Al2GeIr3
_symmetry_space_group_name_H-M   'P 1'
_cell_length_a   7.30113600
_cell_length_b   7.25628473
_cell_length_c   4.09825200
_cell_angle_alpha   90.00000000
_cell_angle_beta   90.00000000
_cell_angle_gamma   120.20467815
_symmetry_Int_Tables_number   1
_chemical_formula_structural   Th3Al2GeIr3
_chemical_formula_sum   'Th3 Al2 Ge1 Ir3'
_cell_volume   187.64397505
_cell_formula_units_Z   1
loop_
 _symmetry_equiv_pos_site_id
 _symmetry_equiv_pos_as_xyz
  1  'x, y, z'
loop_
 _atom_site_type_symbol
 _atom_site_label
 _atom_site_symmetry_multiplicity
 _atom_site_fract_x
 _atom_site_fract_y
 _atom_site_fract_z
 _atom_site_occupancy
  Th  Th0  1  0.418391  0.000000  0.500000  1
  Th  Th1  1  0.999342  0.415446  0.500000  1
  Th  Th2  1  0.583897  0.584554  0.500000  1
  Al  Al3  1  0.002634  0.768797  0.000000  1
  Al  Al4  1  0.233838  0.231203  0.000000  1
  Ge  Ge5  1  0.763376  0.000000  0.000000  1
  Ir  Ir6  1  0.326726  0.663110  0.000000  1
  Ir  Ir7  1  0.663617  0.336890  0.000000  1
  Ir  Ir8  1  0.008178  0.000000  0.500000  1
