# generated using pymatgen
data_Ho4Er6Si5Ge
_symmetry_space_group_name_H-M   'P 1'
_cell_length_a   8.39180105
_cell_length_b   8.39183488
_cell_length_c   6.30272900
_cell_angle_alpha   90.00000000
_cell_angle_beta   90.00000000
_cell_angle_gamma   119.98747342
_symmetry_Int_Tables_number   1
_chemical_formula_structural   Ho4Er6Si5Ge
_chemical_formula_sum   'Ho4 Er6 Si5 Ge1'
_cell_volume   384.43788604
_cell_formula_units_Z   1
loop_
 _symmetry_equiv_pos_site_id
 _symmetry_equiv_pos_as_xyz
  1  'x, y, z'
loop_
 _atom_site_type_symbol
 _atom_site_label
 _atom_site_symmetry_multiplicity
 _atom_site_fract_x
 _atom_site_fract_y
 _atom_site_fract_z
 _atom_site_occupancy
  Ho  Ho0  1  0.998816  0.756301  0.750000  1
  Ho  Ho1  1  0.999923  0.242751  0.250000  1
  Ho  Ho2  1  0.757991  0.999947  0.750000  1
  Ho  Ho3  1  0.242622  0.243751  0.750000  1
  Er  Er4  1  0.757082  0.757148  0.250000  1
  Er  Er5  1  0.242482  0.999953  0.250000  1
  Er  Er6  1  0.333220  0.665767  0.499245  1
  Er  Er7  1  0.667418  0.334300  0.000759  1
  Er  Er8  1  0.667418  0.334300  0.499241  1
  Er  Er9  1  0.333220  0.665767  0.000755  1
  Si  Si10  1  0.394527  0.394371  0.250000  1
  Si  Si11  1  0.000065  0.605765  0.250000  1
  Si  Si12  1  0.999957  0.394482  0.750000  1
  Si  Si13  1  0.605460  0.605495  0.750000  1
  Si  Si14  1  0.605637  0.999909  0.250000  1
  Ge  Ge15  1  0.394163  0.999993  0.750000  1
