# generated using pymatgen
data_NpTlN3O11
_symmetry_space_group_name_H-M   'P 1'
_cell_length_a   8.64907063
_cell_length_b   8.64907075
_cell_length_c   8.64907100
_cell_angle_alpha   68.82321489
_cell_angle_beta   68.82321458
_cell_angle_gamma   68.82321312
_symmetry_Int_Tables_number   1
_chemical_formula_structural   NpTlN3O11
_chemical_formula_sum   'Np2 Tl2 N6 O22'
_cell_volume   542.40071588
_cell_formula_units_Z   2
loop_
 _symmetry_equiv_pos_site_id
 _symmetry_equiv_pos_as_xyz
  1  'x, y, z'
loop_
 _atom_site_type_symbol
 _atom_site_label
 _atom_site_symmetry_multiplicity
 _atom_site_fract_x
 _atom_site_fract_y
 _atom_site_fract_z
 _atom_site_occupancy
  Np  Np0  1  0.250000  0.250000  0.250000  1
  Np  Np1  1  0.750000  0.750000  0.750000  1
  Tl  Tl2  1  0.000000  0.000000  0.000000  1
  Tl  Tl3  1  0.500000  0.500000  0.500000  1
  N  N4  1  0.549593  0.950407  0.250000  1
  N  N5  1  0.250000  0.549593  0.950407  1
  N  N6  1  0.049593  0.750000  0.450407  1
  N  N7  1  0.450407  0.049593  0.750000  1
  N  N8  1  0.750000  0.450407  0.049593  1
  N  N9  1  0.950407  0.250000  0.549593  1
  O  O10  1  0.451245  0.908911  0.872125  1
  O  O11  1  0.324601  0.175399  0.750000  1
  O  O12  1  0.175399  0.750000  0.324601  1
  O  O13  1  0.250000  0.675399  0.824601  1
  O  O14  1  0.675399  0.824601  0.250000  1
  O  O15  1  0.824601  0.250000  0.675399  1
  O  O16  1  0.872125  0.451245  0.908911  1
  O  O17  1  0.908911  0.872125  0.451245  1
  O  O18  1  0.750000  0.324601  0.175399  1
  O  O19  1  0.627875  0.591089  0.048755  1
  O  O20  1  0.127875  0.548755  0.091089  1
  O  O21  1  0.048755  0.627875  0.591089  1
  O  O22  1  0.591089  0.048755  0.627875  1
  O  O23  1  0.548755  0.091089  0.127875  1
  O  O24  1  0.091089  0.127875  0.548755  1
  O  O25  1  0.372125  0.408911  0.951245  1
  O  O26  1  0.408911  0.951245  0.372125  1
  O  O27  1  0.951245  0.372125  0.408911  1
  O  O28  1  0.341053  0.341053  0.341053  1
  O  O29  1  0.841053  0.841053  0.841053  1
  O  O30  1  0.658947  0.658947  0.658947  1
  O  O31  1  0.158947  0.158947  0.158947  1
