# generated using pymatgen
data_TbNd5(Sb3Au2)2
_symmetry_space_group_name_H-M   'P 1'
_cell_length_a   4.62361300
_cell_length_b   4.62361521
_cell_length_c   23.86608600
_cell_angle_alpha   90.00000000
_cell_angle_beta   90.00000000
_cell_angle_gamma   120.00000566
_symmetry_Int_Tables_number   1
_chemical_formula_structural   TbNd5(Sb3Au2)2
_chemical_formula_sum   'Tb1 Nd5 Sb6 Au4'
_cell_volume   441.85011052
_cell_formula_units_Z   1
loop_
 _symmetry_equiv_pos_site_id
 _symmetry_equiv_pos_as_xyz
  1  'x, y, z'
loop_
 _atom_site_type_symbol
 _atom_site_label
 _atom_site_symmetry_multiplicity
 _atom_site_fract_x
 _atom_site_fract_y
 _atom_site_fract_z
 _atom_site_occupancy
  Tb  Tb0  1  0.333333  0.666667  0.250000  1
  Nd  Nd1  1  0.666667  0.333333  0.925096  1
  Nd  Nd2  1  0.333333  0.666667  0.075670  1
  Nd  Nd3  1  0.333333  0.666667  0.424330  1
  Nd  Nd4  1  0.666667  0.333333  0.574904  1
  Nd  Nd5  1  0.666667  0.333333  0.750000  1
  Sb  Sb6  1  0.333333  0.666667  0.652587  1
  Sb  Sb7  1  0.000000  0.000000  0.499930  1
  Sb  Sb8  1  0.666667  0.333333  0.346656  1
  Sb  Sb9  1  0.333333  0.666667  0.847413  1
  Sb  Sb10  1  0.666667  0.333333  0.153344  1
  Sb  Sb11  1  0.000000  0.000000  0.000070  1
  Au  Au12  1  0.000000  0.000000  0.813686  1
  Au  Au13  1  0.000000  0.000000  0.189513  1
  Au  Au14  1  0.000000  0.000000  0.310487  1
  Au  Au15  1  0.000000  0.000000  0.686314  1
