# generated using pymatgen
data_Y2PaCoNi
_symmetry_space_group_name_H-M   'P 1'
_cell_length_a   3.67063575
_cell_length_b   6.08061040
_cell_length_c   5.97003615
_cell_angle_alpha   120.61458505
_cell_angle_beta   107.90389722
_cell_angle_gamma   90.00000371
_symmetry_Int_Tables_number   1
_chemical_formula_structural   Y2PaCoNi
_chemical_formula_sum   'Y2 Pa1 Co1 Ni1'
_cell_volume   107.11016845
_cell_formula_units_Z   1
loop_
 _symmetry_equiv_pos_site_id
 _symmetry_equiv_pos_as_xyz
  1  'x, y, z'
loop_
 _atom_site_type_symbol
 _atom_site_label
 _atom_site_symmetry_multiplicity
 _atom_site_fract_x
 _atom_site_fract_y
 _atom_site_fract_z
 _atom_site_occupancy
  Y  Y0  1  0.804565  0.300316  0.609132  1
  Y  Y1  1  0.195435  0.691185  0.390868  1
  Pa  Pa2  1  0.000000  0.987843  0.000000  1
  Co  Co3  1  0.500000  0.728895  0.000000  1
  Ni  Ni4  1  0.500000  0.291760  0.000000  1
