# generated using pymatgen
data_Yb3Cd(Ru2O7)2
_symmetry_space_group_name_H-M   'P 1'
_cell_length_a   7.27398233
_cell_length_b   7.27398275
_cell_length_c   7.17098652
_cell_angle_alpha   59.52372563
_cell_angle_beta   59.52372265
_cell_angle_gamma   60.00000211
_symmetry_Int_Tables_number   1
_chemical_formula_structural   Yb3Cd(Ru2O7)2
_chemical_formula_sum   'Yb3 Cd1 Ru4 O14'
_cell_volume   266.34477086
_cell_formula_units_Z   1
loop_
 _symmetry_equiv_pos_site_id
 _symmetry_equiv_pos_as_xyz
  1  'x, y, z'
loop_
 _atom_site_type_symbol
 _atom_site_label
 _atom_site_symmetry_multiplicity
 _atom_site_fract_x
 _atom_site_fract_y
 _atom_site_fract_z
 _atom_site_occupancy
  Yb  Yb0  1  0.125000  0.625000  0.125000  1
  Yb  Yb1  1  0.625000  0.125000  0.125000  1
  Yb  Yb2  1  0.125000  0.125000  0.125000  1
  Cd  Cd3  1  0.125000  0.125000  0.625000  1
  Ru  Ru4  1  0.625000  0.125000  0.625000  1
  Ru  Ru5  1  0.625000  0.625000  0.125000  1
  Ru  Ru6  1  0.125000  0.625000  0.625000  1
  Ru  Ru7  1  0.625000  0.625000  0.625000  1
  O  O8  1  0.698824  0.698824  0.299831  1
  O  O9  1  0.943411  0.560278  0.552900  1
  O  O10  1  0.551176  0.947479  0.950169  1
  O  O11  1  0.943411  0.943411  0.552900  1
  O  O12  1  0.947479  0.551176  0.950169  1
  O  O13  1  0.560278  0.943411  0.552900  1
  O  O14  1  0.302521  0.698824  0.299831  1
  O  O15  1  0.306589  0.689722  0.697100  1
  O  O16  1  0.698824  0.302521  0.299831  1
  O  O17  1  0.689722  0.306589  0.697100  1
  O  O18  1  0.551176  0.551176  0.950169  1
  O  O19  1  0.306589  0.306589  0.697100  1
  O  O20  1  0.245156  0.245156  0.264532  1
  O  O21  1  0.004844  0.004844  0.985468  1
