# generated using pymatgen
data_Li2Sm8Sc10Si15As
_symmetry_space_group_name_H-M   'P 1'
_cell_length_a   7.11238847
_cell_length_b   7.46382179
_cell_length_c   14.12643970
_cell_angle_alpha   90.12206896
_cell_angle_beta   89.46096512
_cell_angle_gamma   90.07172851
_symmetry_Int_Tables_number   1
_chemical_formula_structural   Li2Sm8Sc10Si15As
_chemical_formula_sum   'Li2 Sm8 Sc10 Si15 As1'
_cell_volume   749.87507021
_cell_formula_units_Z   1
loop_
 _symmetry_equiv_pos_site_id
 _symmetry_equiv_pos_as_xyz
  1  'x, y, z'
loop_
 _atom_site_type_symbol
 _atom_site_label
 _atom_site_symmetry_multiplicity
 _atom_site_fract_x
 _atom_site_fract_y
 _atom_site_fract_z
 _atom_site_occupancy
  Li  Li0  1  0.161694  0.499923  0.752201  1
  Li  Li1  1  0.838572  0.500610  0.251135  1
  Sm  Sm2  1  0.010042  0.180829  0.099431  1
  Sm  Sm3  1  0.990380  0.819667  0.900166  1
  Sm  Sm4  1  0.484081  0.673751  0.900556  1
  Sm  Sm5  1  0.992790  0.816143  0.598117  1
  Sm  Sm6  1  0.516794  0.326642  0.099485  1
  Sm  Sm7  1  0.006278  0.184769  0.400967  1
  Sm  Sm8  1  0.513979  0.325820  0.399921  1
  Sm  Sm9  1  0.489105  0.672609  0.599698  1
  Sc  Sc10  1  0.337319  0.999866  0.251457  1
  Sc  Sc11  1  0.662595  0.000248  0.749281  1
  Sc  Sc12  1  0.332648  0.180194  0.626518  1
  Sc  Sc13  1  0.669172  0.819216  0.373958  1
  Sc  Sc14  1  0.155677  0.672012  0.375187  1
  Sc  Sc15  1  0.670648  0.817410  0.125524  1
  Sc  Sc16  1  0.841203  0.327578  0.624607  1
  Sc  Sc17  1  0.328795  0.182279  0.874168  1
  Sc  Sc18  1  0.835434  0.324574  0.873300  1
  Sc  Sc19  1  0.165095  0.675557  0.126125  1
  Si  Si20  1  0.033409  0.109505  0.748540  1
  Si  Si21  1  0.966712  0.890160  0.250179  1
  Si  Si22  1  0.456209  0.621180  0.249757  1
  Si  Si23  1  0.543501  0.378963  0.750419  1
  Si  Si24  1  0.291334  0.889182  0.750040  1
  Si  Si25  1  0.709504  0.110035  0.249363  1
  Si  Si26  1  0.218786  0.378854  0.250062  1
  Si  Si27  1  0.781998  0.621543  0.749648  1
  Si  Si28  1  0.818801  0.544338  0.465803  1
  Si  Si29  1  0.342567  0.964596  0.462158  1
  Si  Si30  1  0.844747  0.539657  0.033633  1
  Si  Si31  1  0.657229  0.034989  0.538674  1
  Si  Si32  1  0.155256  0.460855  0.965808  1
  Si  Si33  1  0.653738  0.034422  0.960633  1
  Si  Si34  1  0.346533  0.966071  0.039209  1
  As  As35  1  0.177372  0.455955  0.534272  1
