# generated using pymatgen
data_Mn3Fe(ReSi)6
_symmetry_space_group_name_H-M   'P 1'
_cell_length_a   6.95975800
_cell_length_b   6.95975916
_cell_length_c   4.82030100
_cell_angle_alpha   90.00000000
_cell_angle_beta   90.00000000
_cell_angle_gamma   120.00000397
_symmetry_Int_Tables_number   1
_chemical_formula_structural   Mn3Fe(ReSi)6
_chemical_formula_sum   'Mn3 Fe1 Re6 Si6'
_cell_volume   202.20557394
_cell_formula_units_Z   1
loop_
 _symmetry_equiv_pos_site_id
 _symmetry_equiv_pos_as_xyz
  1  'x, y, z'
loop_
 _atom_site_type_symbol
 _atom_site_label
 _atom_site_symmetry_multiplicity
 _atom_site_fract_x
 _atom_site_fract_y
 _atom_site_fract_z
 _atom_site_occupancy
  Mn  Mn0  1  0.666667  0.333333  0.000000  1
  Mn  Mn1  1  0.666667  0.333333  0.500000  1
  Mn  Mn2  1  0.333333  0.666667  0.000000  1
  Fe  Fe3  1  0.333333  0.666667  0.500000  1
  Re  Re4  1  0.999188  0.761340  0.749503  1
  Re  Re5  1  0.999188  0.237849  0.250497  1
  Re  Re6  1  0.762151  0.761340  0.250497  1
  Re  Re7  1  0.762151  0.000812  0.749503  1
  Re  Re8  1  0.238660  0.237849  0.749503  1
  Re  Re9  1  0.238660  0.000812  0.250497  1
  Si  Si10  1  0.405318  0.999158  0.748147  1
  Si  Si11  1  0.405318  0.406161  0.251853  1
  Si  Si12  1  0.000842  0.594682  0.251853  1
  Si  Si13  1  0.000842  0.406161  0.748147  1
  Si  Si14  1  0.593839  0.594682  0.748147  1
  Si  Si15  1  0.593839  0.999158  0.251853  1
