# generated using pymatgen
data_Na10CuAgSe24
_symmetry_space_group_name_H-M   'P 1'
_cell_length_a   17.20573805
_cell_length_b   7.19738449
_cell_length_c   8.46354800
_cell_angle_alpha   73.44955248
_cell_angle_beta   89.97200103
_cell_angle_gamma   90.03145327
_symmetry_Int_Tables_number   1
_chemical_formula_structural   Na10CuAgSe24
_chemical_formula_sum   'Na10 Cu1 Ag1 Se24'
_cell_volume   1004.67089685
_cell_formula_units_Z   1
loop_
 _symmetry_equiv_pos_site_id
 _symmetry_equiv_pos_as_xyz
  1  'x, y, z'
loop_
 _atom_site_type_symbol
 _atom_site_label
 _atom_site_symmetry_multiplicity
 _atom_site_fract_x
 _atom_site_fract_y
 _atom_site_fract_z
 _atom_site_occupancy
  Na  Na0  1  0.352499  0.777197  0.347281  1
  Na  Na1  1  0.852677  0.222565  0.652107  1
  Na  Na2  1  0.937551  0.778420  0.017698  1
  Na  Na3  1  0.436760  0.222221  0.982078  1
  Na  Na4  1  0.070506  0.291556  0.443332  1
  Na  Na5  1  0.569475  0.708259  0.556107  1
  Na  Na6  1  0.761515  0.663190  0.286997  1
  Na  Na7  1  0.261641  0.336883  0.712969  1
  Na  Na8  1  0.138701  0.878112  0.101898  1
  Na  Na9  1  0.638305  0.122217  0.899061  1
  Cu  Cu10  1  0.351065  0.783835  0.839911  1
  Ag  Ag11  1  0.851180  0.214999  0.159380  1
  Se  Se12  1  0.787112  0.006490  0.426780  1
  Se  Se13  1  0.544825  0.953270  0.211226  1
  Se  Se14  1  0.720117  0.389189  0.080569  1
  Se  Se15  1  0.228748  0.621471  0.915517  1
  Se  Se16  1  0.983059  0.042773  0.247716  1
  Se  Se17  1  0.473819  0.947170  0.757305  1
  Se  Se18  1  0.913225  0.426439  0.891275  1
  Se  Se19  1  0.291579  0.978422  0.589855  1
  Se  Se20  1  0.447065  0.214914  0.519878  1
  Se  Se21  1  0.408631  0.589081  0.091447  1
  Se  Se22  1  0.752506  0.633999  0.832056  1
  Se  Se23  1  0.253754  0.370852  0.166524  1
  Se  Se24  1  0.948798  0.779734  0.482279  1
  Se  Se25  1  0.187833  0.606944  0.422298  1
  Se  Se26  1  0.662495  0.154243  0.435499  1
  Se  Se27  1  0.164954  0.843311  0.569187  1
  Se  Se28  1  0.044428  0.311393  0.903675  1
  Se  Se29  1  0.541824  0.690021  0.092894  1
  Se  Se30  1  0.779988  0.904715  0.934356  1
  Se  Se31  1  0.279439  0.098118  0.066196  1
  Se  Se32  1  0.927385  0.520960  0.362972  1
  Se  Se33  1  0.427515  0.476757  0.636308  1
  Se  Se34  1  0.687136  0.393471  0.578035  1
  Se  Se35  1  0.045646  0.046807  0.787331  1
