# generated using pymatgen
data_TbYbHo2(ReC2)2
_symmetry_space_group_name_H-M   'P 1'
_cell_length_a   5.11906800
_cell_length_b   6.55224229
_cell_length_c   9.97000241
_cell_angle_alpha   88.98169642
_cell_angle_beta   90.00000000
_cell_angle_gamma   90.00000000
_symmetry_Int_Tables_number   1
_chemical_formula_structural   TbYbHo2(ReC2)2
_chemical_formula_sum   'Tb2 Yb2 Ho4 Re4 C8'
_cell_volume   334.35476426
_cell_formula_units_Z   2
loop_
 _symmetry_equiv_pos_site_id
 _symmetry_equiv_pos_as_xyz
  1  'x, y, z'
loop_
 _atom_site_type_symbol
 _atom_site_label
 _atom_site_symmetry_multiplicity
 _atom_site_fract_x
 _atom_site_fract_y
 _atom_site_fract_z
 _atom_site_occupancy
  Tb  Tb0  1  0.250000  0.534123  0.220611  1
  Tb  Tb1  1  0.750000  0.465877  0.779389  1
  Yb  Yb2  1  0.750000  0.964934  0.721447  1
  Yb  Yb3  1  0.250000  0.035066  0.278553  1
  Ho  Ho4  1  0.250000  0.687020  0.554733  1
  Ho  Ho5  1  0.750000  0.312980  0.445267  1
  Ho  Ho6  1  0.750000  0.820258  0.054892  1
  Ho  Ho7  1  0.250000  0.179742  0.945108  1
  Re  Re8  1  0.250000  0.720388  0.862829  1
  Re  Re9  1  0.750000  0.279612  0.137171  1
  Re  Re10  1  0.750000  0.774769  0.363206  1
  Re  Re11  1  0.250000  0.225231  0.636794  1
  C  C12  1  0.250000  0.454997  0.759809  1
  C  C13  1  0.750000  0.545003  0.240191  1
  C  C14  1  0.750000  0.044075  0.260105  1
  C  C15  1  0.250000  0.955925  0.739895  1
  C  C16  1  0.250000  0.816410  0.043431  1
  C  C17  1  0.750000  0.183590  0.956569  1
  C  C18  1  0.750000  0.677645  0.545172  1
  C  C19  1  0.250000  0.322355  0.454828  1
