# generated using pymatgen
data_DyLuFe3P7Ru9
_symmetry_space_group_name_H-M   'P 1'
_cell_length_a   3.84625800
_cell_length_b   9.28856638
_cell_length_c   9.28757600
_cell_angle_alpha   120.00550077
_cell_angle_beta   90.00000000
_cell_angle_gamma   90.00000000
_symmetry_Int_Tables_number   1
_chemical_formula_structural   DyLuFe3P7Ru9
_chemical_formula_sum   'Dy1 Lu1 Fe3 P7 Ru9'
_cell_volume   287.33996773
_cell_formula_units_Z   1
loop_
 _symmetry_equiv_pos_site_id
 _symmetry_equiv_pos_as_xyz
  1  'x, y, z'
loop_
 _atom_site_type_symbol
 _atom_site_label
 _atom_site_symmetry_multiplicity
 _atom_site_fract_x
 _atom_site_fract_y
 _atom_site_fract_z
 _atom_site_occupancy
  Dy  Dy0  1  0.000000  0.666680  0.333343  1
  Lu  Lu1  1  0.500000  0.333351  0.666683  1
  Fe  Fe2  1  0.000000  0.889290  0.731928  1
  Fe  Fe3  1  0.000000  0.268095  0.157373  1
  Fe  Fe4  1  0.000000  0.842612  0.110737  1
  P  P5  1  0.000000  0.109780  0.696246  1
  P  P6  1  0.000000  0.303790  0.413524  1
  P  P7  1  0.000000  0.586486  0.890244  1
  P  P8  1  0.500000  0.719488  0.603514  1
  P  P9  1  0.500000  0.396496  0.115981  1
  P  P10  1  0.500000  0.884001  0.280520  1
  P  P11  1  0.000000  0.999958  0.999944  1
  Ru  Ru12  1  0.000000  0.360702  0.937970  1
  Ru  Ru13  1  0.000000  0.062026  0.422735  1
  Ru  Ru14  1  0.000000  0.577277  0.639301  1
  Ru  Ru15  1  0.500000  0.948509  0.562322  1
  Ru  Ru16  1  0.500000  0.437642  0.386173  1
  Ru  Ru17  1  0.500000  0.613828  0.051492  1
  Ru  Ru18  1  0.500000  0.116526  0.911858  1
  Ru  Ru19  1  0.500000  0.088114  0.204650  1
  Ru  Ru20  1  0.500000  0.795349  0.883461  1
