# generated using pymatgen
data_Ho4Sc4Re(B8Os)3
_symmetry_space_group_name_H-M   'P 1'
_cell_length_a   3.56967800
_cell_length_b   8.96480277
_cell_length_c   11.35296412
_cell_angle_alpha   90.02766096
_cell_angle_beta   90.00000000
_cell_angle_gamma   90.00000000
_symmetry_Int_Tables_number   1
_chemical_formula_structural   Ho4Sc4Re(B8Os)3
_chemical_formula_sum   'Ho4 Sc4 Re1 B24 Os3'
_cell_volume   363.31137616
_cell_formula_units_Z   1
loop_
 _symmetry_equiv_pos_site_id
 _symmetry_equiv_pos_as_xyz
  1  'x, y, z'
loop_
 _atom_site_type_symbol
 _atom_site_label
 _atom_site_symmetry_multiplicity
 _atom_site_fract_x
 _atom_site_fract_y
 _atom_site_fract_z
 _atom_site_occupancy
  Ho  Ho0  1  0.000000  0.320112  0.414934  1
  Ho  Ho1  1  0.000000  0.681505  0.587605  1
  Ho  Ho2  1  0.000000  0.820201  0.084460  1
  Ho  Ho3  1  0.000000  0.178929  0.913337  1
  Sc  Sc4  1  0.000000  0.944938  0.373321  1
  Sc  Sc5  1  0.000000  0.053942  0.626982  1
  Sc  Sc6  1  0.000000  0.444290  0.126819  1
  Sc  Sc7  1  0.000000  0.556055  0.873437  1
  Re  Re8  1  0.000000  0.860172  0.818735  1
  B  B9  1  0.500000  0.554592  0.433084  1
  B  B10  1  0.500000  0.445749  0.567027  1
  B  B11  1  0.500000  0.054513  0.067417  1
  B  B12  1  0.500000  0.946298  0.933180  1
  B  B13  1  0.500000  0.753137  0.418738  1
  B  B14  1  0.500000  0.247104  0.580872  1
  B  B15  1  0.500000  0.252503  0.081215  1
  B  B16  1  0.500000  0.746927  0.918972  1
  B  B17  1  0.500000  0.793202  0.265079  1
  B  B18  1  0.500000  0.206571  0.734188  1
  B  B19  1  0.500000  0.293684  0.234760  1
  B  B20  1  0.500000  0.705694  0.765210  1
  B  B21  1  0.500000  0.628493  0.182674  1
  B  B22  1  0.500000  0.371058  0.816897  1
  B  B23  1  0.500000  0.128878  0.317438  1
  B  B24  1  0.500000  0.871333  0.682860  1
  B  B25  1  0.500000  0.981407  0.214350  1
  B  B26  1  0.500000  0.019677  0.785587  1
  B  B27  1  0.500000  0.481149  0.286117  1
  B  B28  1  0.500000  0.518772  0.714117  1
  B  B29  1  0.500000  0.598419  0.027413  1
  B  B30  1  0.500000  0.399989  0.973206  1
  B  B31  1  0.500000  0.099855  0.472604  1
  B  B32  1  0.500000  0.900732  0.526267  1
  Os  Os33  1  0.000000  0.639592  0.318363  1
  Os  Os34  1  0.000000  0.360495  0.681112  1
  Os  Os35  1  0.000000  0.140034  0.181625  1
