# generated using pymatgen
data_Nd5Er2TmIn8
_symmetry_space_group_name_H-M   'P 1'
_cell_length_a   6.69180500
_cell_length_b   6.69180605
_cell_length_c   10.08737200
_cell_angle_alpha   90.00000000
_cell_angle_beta   90.00000000
_cell_angle_gamma   97.83552643
_symmetry_Int_Tables_number   1
_chemical_formula_structural   Nd5Er2TmIn8
_chemical_formula_sum   'Nd5 Er2 Tm1 In8'
_cell_volume   447.49771411
_cell_formula_units_Z   1
loop_
 _symmetry_equiv_pos_site_id
 _symmetry_equiv_pos_as_xyz
  1  'x, y, z'
loop_
 _atom_site_type_symbol
 _atom_site_label
 _atom_site_symmetry_multiplicity
 _atom_site_fract_x
 _atom_site_fract_y
 _atom_site_fract_z
 _atom_site_occupancy
  Nd  Nd0  1  0.468802  0.468802  0.750000  1
  Nd  Nd1  1  0.250086  0.752814  0.499546  1
  Nd  Nd2  1  0.250086  0.752814  0.000454  1
  Nd  Nd3  1  0.752814  0.250086  0.499546  1
  Nd  Nd4  1  0.752814  0.250086  0.000454  1
  Er  Er5  1  0.969979  0.969978  0.250000  1
  Er  Er6  1  0.024854  0.024853  0.750000  1
  Tm  Tm7  1  0.527067  0.527067  0.250000  1
  In  In8  1  0.249754  0.249754  0.024949  1
  In  In9  1  0.751572  0.751572  0.981624  1
  In  In10  1  0.249754  0.249754  0.475051  1
  In  In11  1  0.751572  0.751572  0.518376  1
  In  In12  1  0.477451  0.021123  0.250000  1
  In  In13  1  0.977663  0.524612  0.750000  1
  In  In14  1  0.524612  0.977663  0.750000  1
  In  In15  1  0.021123  0.477451  0.250000  1
