# generated using pymatgen
data_Rb2U(SO5)2
_symmetry_space_group_name_H-M   'P 1'
_cell_length_a   14.49369100
_cell_length_b   5.60892214
_cell_length_c   7.19905100
_cell_angle_alpha   66.53310623
_cell_angle_beta   90.00000000
_cell_angle_gamma   90.00000000
_symmetry_Int_Tables_number   1
_chemical_formula_structural   Rb2U(SO5)2
_chemical_formula_sum   'Rb4 U2 S4 O20'
_cell_volume   536.83456584
_cell_formula_units_Z   2
loop_
 _symmetry_equiv_pos_site_id
 _symmetry_equiv_pos_as_xyz
  1  'x, y, z'
loop_
 _atom_site_type_symbol
 _atom_site_label
 _atom_site_symmetry_multiplicity
 _atom_site_fract_x
 _atom_site_fract_y
 _atom_site_fract_z
 _atom_site_occupancy
  Rb  Rb0  1  0.652124  0.657307  0.126174  1
  Rb  Rb1  1  0.152124  0.342693  0.373826  1
  Rb  Rb2  1  0.347876  0.342693  0.873826  1
  Rb  Rb3  1  0.847876  0.657307  0.626174  1
  U  U4  1  0.500000  0.000000  0.500000  1
  U  U5  1  0.000000  0.000000  0.000000  1
  S  S6  1  0.605739  0.385377  0.740250  1
  S  S7  1  0.105739  0.614623  0.759750  1
  S  S8  1  0.394261  0.614623  0.259750  1
  S  S9  1  0.894261  0.385377  0.240250  1
  O  O10  1  0.655511  0.259938  0.929908  1
  O  O11  1  0.155511  0.740062  0.570092  1
  O  O12  1  0.344489  0.740062  0.070092  1
  O  O13  1  0.844489  0.259938  0.429908  1
  O  O14  1  0.535448  0.193212  0.719167  1
  O  O15  1  0.035448  0.806788  0.780833  1
  O  O16  1  0.464552  0.806788  0.280833  1
  O  O17  1  0.964552  0.193212  0.219167  1
  O  O18  1  0.544771  0.601887  0.753528  1
  O  O19  1  0.044771  0.398113  0.746472  1
  O  O20  1  0.455229  0.398113  0.246472  1
  O  O21  1  0.955229  0.601887  0.253528  1
  O  O22  1  0.663523  0.492129  0.559714  1
  O  O23  1  0.163523  0.507871  0.940286  1
  O  O24  1  0.336477  0.507871  0.440286  1
  O  O25  1  0.836477  0.492129  0.059714  1
  O  O26  1  0.614514  0.064915  0.392981  1
  O  O27  1  0.114514  0.935085  0.107019  1
  O  O28  1  0.385486  0.935085  0.607019  1
  O  O29  1  0.885486  0.064915  0.892981  1
