# generated using pymatgen
data_ZrMnCl6
_symmetry_space_group_name_H-M   'P 1'
_cell_length_a   7.45201892
_cell_length_b   7.45201888
_cell_length_c   7.45201944
_cell_angle_alpha   51.75632376
_cell_angle_beta   51.75631819
_cell_angle_gamma   51.75630991
_symmetry_Int_Tables_number   1
_chemical_formula_structural   ZrMnCl6
_chemical_formula_sum   'Zr1 Mn1 Cl6'
_cell_volume   235.86849242
_cell_formula_units_Z   1
loop_
 _symmetry_equiv_pos_site_id
 _symmetry_equiv_pos_as_xyz
  1  'x, y, z'
loop_
 _atom_site_type_symbol
 _atom_site_label
 _atom_site_symmetry_multiplicity
 _atom_site_fract_x
 _atom_site_fract_y
 _atom_site_fract_z
 _atom_site_occupancy
  Zr  Zr0  1  0.666787  0.666787  0.666787  1
  Mn  Mn1  1  0.333171  0.333171  0.333171  1
  Cl  Cl2  1  0.069756  0.443596  0.710800  1
  Cl  Cl3  1  0.294493  0.920235  0.561162  1
  Cl  Cl4  1  0.443596  0.710800  0.069756  1
  Cl  Cl5  1  0.561162  0.294493  0.920235  1
  Cl  Cl6  1  0.710800  0.069756  0.443596  1
  Cl  Cl7  1  0.920235  0.561162  0.294493  1
