# generated using pymatgen
data_La4Ho6IrRu3
_symmetry_space_group_name_H-M   'P 1'
_cell_length_a   6.51660207
_cell_length_b   7.24190418
_cell_length_c   8.83710959
_cell_angle_alpha   96.52208498
_cell_angle_beta   112.24380631
_cell_angle_gamma   89.82173245
_symmetry_Int_Tables_number   1
_chemical_formula_structural   La4Ho6IrRu3
_chemical_formula_sum   'La4 Ho6 Ir1 Ru3'
_cell_volume   383.15113533
_cell_formula_units_Z   1
loop_
 _symmetry_equiv_pos_site_id
 _symmetry_equiv_pos_as_xyz
  1  'x, y, z'
loop_
 _atom_site_type_symbol
 _atom_site_label
 _atom_site_symmetry_multiplicity
 _atom_site_fract_x
 _atom_site_fract_y
 _atom_site_fract_z
 _atom_site_occupancy
  La  La0  1  0.986057  0.917379  0.193248  1
  La  La1  1  0.785150  0.590867  0.802693  1
  La  La2  1  0.017480  0.089547  0.805245  1
  La  La3  1  0.217198  0.409251  0.195636  1
  Ho  Ho4  1  0.634292  0.814197  0.429810  1
  Ho  Ho5  1  0.205685  0.685029  0.569606  1
  Ho  Ho6  1  0.366377  0.186248  0.570866  1
  Ho  Ho7  1  0.796600  0.314552  0.432602  1
  Ho  Ho8  1  0.428599  0.748852  0.000368  1
  Ho  Ho9  1  0.572019  0.250744  0.998725  1
  Ir  Ir10  1  0.817104  0.577082  0.229050  1
  Ru  Ru11  1  0.601785  0.918543  0.777512  1
  Ru  Ru12  1  0.171047  0.417914  0.771723  1
  Ru  Ru13  1  0.400605  0.079796  0.222916  1
