# generated using pymatgen
data_LiEu4Mg3Pt4
_symmetry_space_group_name_H-M   'P 1'
_cell_length_a   4.28503700
_cell_length_b   7.42012369
_cell_length_c   8.63298481
_cell_angle_alpha   89.80771480
_cell_angle_beta   90.00000000
_cell_angle_gamma   90.00000000
_symmetry_Int_Tables_number   1
_chemical_formula_structural   LiEu4Mg3Pt4
_chemical_formula_sum   'Li1 Eu4 Mg3 Pt4'
_cell_volume   274.48856206
_cell_formula_units_Z   1
loop_
 _symmetry_equiv_pos_site_id
 _symmetry_equiv_pos_as_xyz
  1  'x, y, z'
loop_
 _atom_site_type_symbol
 _atom_site_label
 _atom_site_symmetry_multiplicity
 _atom_site_fract_x
 _atom_site_fract_y
 _atom_site_fract_z
 _atom_site_occupancy
  Li  Li0  1  0.750000  0.367068  0.441364  1
  Eu  Eu1  1  0.250000  0.040450  0.326004  1
  Eu  Eu2  1  0.250000  0.531653  0.180892  1
  Eu  Eu3  1  0.750000  0.967036  0.674666  1
  Eu  Eu4  1  0.750000  0.465791  0.821118  1
  Mg  Mg5  1  0.250000  0.134550  0.938315  1
  Mg  Mg6  1  0.250000  0.632237  0.558459  1
  Mg  Mg7  1  0.750000  0.861808  0.062079  1
  Pt  Pt8  1  0.250000  0.266356  0.630355  1
  Pt  Pt9  1  0.250000  0.766628  0.874816  1
  Pt  Pt10  1  0.750000  0.736476  0.374272  1
  Pt  Pt11  1  0.750000  0.229945  0.117659  1
