# generated using pymatgen
data_LaPr4HoU4O20
_symmetry_space_group_name_H-M   'P 1'
_cell_length_a   6.78069945
_cell_length_b   7.72892214
_cell_length_c   8.65492514
_cell_angle_alpha   101.72585989
_cell_angle_beta   97.68566176
_cell_angle_gamma   107.10266792
_symmetry_Int_Tables_number   1
_chemical_formula_structural   LaPr4HoU4O20
_chemical_formula_sum   'La1 Pr4 Ho1 U4 O20'
_cell_volume   415.30467263
_cell_formula_units_Z   1
loop_
 _symmetry_equiv_pos_site_id
 _symmetry_equiv_pos_as_xyz
  1  'x, y, z'
loop_
 _atom_site_type_symbol
 _atom_site_label
 _atom_site_symmetry_multiplicity
 _atom_site_fract_x
 _atom_site_fract_y
 _atom_site_fract_z
 _atom_site_occupancy
  La  La0  1  0.000000  0.500000  0.500000  1
  Pr  Pr1  1  0.612388  0.704119  0.699688  1
  Pr  Pr2  1  0.387612  0.295881  0.300312  1
  Pr  Pr3  1  0.198859  0.898165  0.892699  1
  Pr  Pr4  1  0.801141  0.101835  0.107301  1
  Ho  Ho5  1  0.000000  0.000000  0.500000  1
  U  U6  1  0.401815  0.804953  0.301850  1
  U  U7  1  0.198397  0.400987  0.901090  1
  U  U8  1  0.801603  0.599013  0.098910  1
  U  U9  1  0.598185  0.195047  0.698150  1
  O  O10  1  0.437844  0.535244  0.132246  1
  O  O11  1  0.557680  0.994622  0.837165  1
  O  O12  1  0.273232  0.151258  0.740636  1
  O  O13  1  0.361448  0.601376  0.436790  1
  O  O14  1  0.054132  0.735142  0.325557  1
  O  O15  1  0.442320  0.005378  0.162835  1
  O  O16  1  0.150983  0.190268  0.028607  1
  O  O17  1  0.562156  0.464756  0.867754  1
  O  O18  1  0.856337  0.342051  0.949275  1
  O  O19  1  0.255580  0.600909  0.764754  1
  O  O20  1  0.955142  0.781448  0.645644  1
  O  O21  1  0.352251  0.055613  0.455481  1
  O  O22  1  0.647749  0.944387  0.544519  1
  O  O23  1  0.044858  0.218552  0.354356  1
  O  O24  1  0.744420  0.399091  0.235246  1
  O  O25  1  0.143663  0.657949  0.050725  1
  O  O26  1  0.849017  0.809732  0.971393  1
  O  O27  1  0.945868  0.264858  0.674443  1
  O  O28  1  0.638552  0.398624  0.563210  1
  O  O29  1  0.726768  0.848742  0.259364  1
