# generated using pymatgen
data_Tb2HoZr(Al3Rh)6
_symmetry_space_group_name_H-M   'P 1'
_cell_length_a   7.53933302
_cell_length_b   7.52526263
_cell_length_c   9.41492100
_cell_angle_alpha   90.00000000
_cell_angle_beta   90.00000000
_cell_angle_gamma   119.48010855
_symmetry_Int_Tables_number   1
_chemical_formula_structural   Tb2HoZr(Al3Rh)6
_chemical_formula_sum   'Tb2 Ho1 Zr1 Al18 Rh6'
_cell_volume   465.00038666
_cell_formula_units_Z   1
loop_
 _symmetry_equiv_pos_site_id
 _symmetry_equiv_pos_as_xyz
  1  'x, y, z'
loop_
 _atom_site_type_symbol
 _atom_site_label
 _atom_site_symmetry_multiplicity
 _atom_site_fract_x
 _atom_site_fract_y
 _atom_site_fract_z
 _atom_site_occupancy
  Tb  Tb0  1  0.006170  0.327625  0.750000  1
  Tb  Tb1  1  0.328587  0.006431  0.750000  1
  Ho  Ho2  1  0.671952  0.995604  0.250000  1
  Zr  Zr3  1  0.996285  0.672195  0.250000  1
  Al  Al4  1  0.124258  0.121809  0.250000  1
  Al  Al5  1  0.871182  0.869592  0.750000  1
  Al  Al6  1  0.999952  0.338692  0.079972  1
  Al  Al7  1  0.999439  0.664853  0.929043  1
  Al  Al8  1  0.999439  0.664853  0.570957  1
  Al  Al9  1  0.332259  0.997429  0.419986  1
  Al  Al10  1  0.999952  0.338692  0.420028  1
  Al  Al11  1  0.664314  0.998189  0.574962  1
  Al  Al12  1  0.664314  0.998189  0.925038  1
  Al  Al13  1  0.332259  0.997429  0.080014  1
  Al  Al14  1  0.333683  0.333700  0.546901  1
  Al  Al15  1  0.669740  0.667541  0.444723  1
  Al  Al16  1  0.669740  0.667541  0.055277  1
  Al  Al17  1  0.333683  0.333700  0.953099  1
  Al  Al18  1  0.336249  0.551670  0.250000  1
  Al  Al19  1  0.660680  0.450966  0.750000  1
  Al  Al20  1  0.557130  0.344918  0.250000  1
  Al  Al21  1  0.449502  0.658726  0.750000  1
  Rh  Rh22  1  0.672723  0.328189  0.001420  1
  Rh  Rh23  1  0.327784  0.672578  0.002026  1
  Rh  Rh24  1  0.327784  0.672578  0.497974  1
  Rh  Rh25  1  0.672723  0.328189  0.498580  1
  Rh  Rh26  1  0.999109  0.999062  0.001414  1
  Rh  Rh27  1  0.999109  0.999062  0.498586  1
