# generated using pymatgen
data_Pa4Al18(OsRh)3
_symmetry_space_group_name_H-M   'P 1'
_cell_length_a   7.59731293
_cell_length_b   7.59785319
_cell_length_c   9.32460316
_cell_angle_alpha   90.03578794
_cell_angle_beta   90.03529122
_cell_angle_gamma   118.77776762
_symmetry_Int_Tables_number   1
_chemical_formula_structural   Pa4Al18(OsRh)3
_chemical_formula_sum   'Pa4 Al18 Os3 Rh3'
_cell_volume   471.76929579
_cell_formula_units_Z   1
loop_
 _symmetry_equiv_pos_site_id
 _symmetry_equiv_pos_as_xyz
  1  'x, y, z'
loop_
 _atom_site_type_symbol
 _atom_site_label
 _atom_site_symmetry_multiplicity
 _atom_site_fract_x
 _atom_site_fract_y
 _atom_site_fract_z
 _atom_site_occupancy
  Pa  Pa0  1  0.993404  0.684465  0.247285  1
  Pa  Pa1  1  0.998766  0.311842  0.752841  1
  Pa  Pa2  1  0.688417  0.001201  0.247154  1
  Pa  Pa3  1  0.315600  0.006511  0.752715  1
  Al  Al4  1  0.140266  0.140359  0.250817  1
  Al  Al5  1  0.859788  0.860042  0.749212  1
  Al  Al6  1  0.008755  0.342792  0.078872  1
  Al  Al7  1  0.995302  0.657501  0.920003  1
  Al  Al8  1  0.997101  0.659923  0.578380  1
  Al  Al9  1  0.339997  0.002909  0.421631  1
  Al  Al10  1  0.005785  0.343133  0.422381  1
  Al  Al11  1  0.656996  0.994432  0.577680  1
  Al  Al12  1  0.657332  0.991407  0.921098  1
  Al  Al13  1  0.342502  0.004780  0.080034  1
  Al  Al14  1  0.333889  0.334999  0.548422  1
  Al  Al15  1  0.664888  0.665869  0.451463  1
  Al  Al16  1  0.665209  0.662446  0.045587  1
  Al  Al17  1  0.337295  0.334672  0.954543  1
  Al  Al18  1  0.346686  0.560355  0.250452  1
  Al  Al19  1  0.653687  0.444267  0.749321  1
  Al  Al20  1  0.555661  0.346336  0.250662  1
  Al  Al21  1  0.439387  0.653196  0.749547  1
  Os  Os22  1  0.675714  0.324392  0.000076  1
  Os  Os23  1  0.000860  0.998721  0.000265  1
  Os  Os24  1  0.999591  0.999996  0.499780  1
  Rh  Rh25  1  0.327157  0.672940  0.000182  1
  Rh  Rh26  1  0.326540  0.673580  0.499827  1
  Rh  Rh27  1  0.673425  0.326935  0.499773  1
