# generated using pymatgen
data_Dy3Ho9In2Fe2Os
_symmetry_space_group_name_H-M   'P 1'
_cell_length_a   8.33238316
_cell_length_b   8.33241786
_cell_length_c   8.33310935
_cell_angle_alpha   108.69599840
_cell_angle_beta   108.69903021
_cell_angle_gamma   111.03010105
_symmetry_Int_Tables_number   1
_chemical_formula_structural   Dy3Ho9In2Fe2Os
_chemical_formula_sum   'Dy3 Ho9 In2 Fe2 Os1'
_cell_volume   445.12588238
_cell_formula_units_Z   1
loop_
 _symmetry_equiv_pos_site_id
 _symmetry_equiv_pos_as_xyz
  1  'x, y, z'
loop_
 _atom_site_type_symbol
 _atom_site_label
 _atom_site_symmetry_multiplicity
 _atom_site_fract_x
 _atom_site_fract_y
 _atom_site_fract_z
 _atom_site_occupancy
  Dy  Dy0  1  0.307222  0.306883  0.614061  1
  Dy  Dy1  1  0.693168  0.692822  0.385949  1
  Dy  Dy2  1  0.306978  0.693064  0.999996  1
  Ho  Ho3  1  0.692693  0.307302  0.999987  1
  Ho  Ho4  1  0.430526  0.192173  0.238042  1
  Ho  Ho5  1  0.569763  0.808227  0.761918  1
  Ho  Ho6  1  0.953682  0.192161  0.761901  1
  Ho  Ho7  1  0.192480  0.954129  0.761965  1
  Ho  Ho8  1  0.045860  0.807512  0.238026  1
  Ho  Ho9  1  0.807857  0.046331  0.238099  1
  Ho  Ho10  1  0.191773  0.430257  0.238100  1
  Ho  Ho11  1  0.807834  0.569476  0.761961  1
  In  In12  1  0.499736  0.000184  0.499928  1
  In  In13  1  0.999801  0.500257  0.500043  1
  Fe  Fe14  1  0.387094  0.386428  0.000007  1
  Fe  Fe15  1  0.613477  0.612812  0.000020  1
  Os  Os16  1  0.000057  0.999981  0.999998  1
