# generated using pymatgen
data_Eu4Sn3AsO14
_symmetry_space_group_name_H-M   'P 1'
_cell_length_a   7.52025565
_cell_length_b   7.52025511
_cell_length_c   7.52025557
_cell_angle_alpha   59.43741031
_cell_angle_beta   59.43742220
_cell_angle_gamma   59.43740752
_symmetry_Int_Tables_number   1
_chemical_formula_structural   Eu4Sn3AsO14
_chemical_formula_sum   'Eu4 Sn3 As1 O14'
_cell_volume   296.88490233
_cell_formula_units_Z   1
loop_
 _symmetry_equiv_pos_site_id
 _symmetry_equiv_pos_as_xyz
  1  'x, y, z'
loop_
 _atom_site_type_symbol
 _atom_site_label
 _atom_site_symmetry_multiplicity
 _atom_site_fract_x
 _atom_site_fract_y
 _atom_site_fract_z
 _atom_site_occupancy
  Eu  Eu0  1  0.125000  0.125000  0.125000  1
  Eu  Eu1  1  0.625000  0.125000  0.125000  1
  Eu  Eu2  1  0.125000  0.625000  0.125000  1
  Eu  Eu3  1  0.125000  0.125000  0.625000  1
  Sn  Sn4  1  0.125000  0.625000  0.625000  1
  Sn  Sn5  1  0.625000  0.125000  0.625000  1
  Sn  Sn6  1  0.625000  0.625000  0.125000  1
  As  As7  1  0.625000  0.625000  0.625000  1
  O  O8  1  0.962077  0.546934  0.962077  1
  O  O9  1  0.703066  0.287923  0.287923  1
  O  O10  1  0.320765  0.695655  0.695655  1
  O  O11  1  0.695655  0.320765  0.695655  1
  O  O12  1  0.287923  0.287923  0.703066  1
  O  O13  1  0.695655  0.695655  0.320765  1
  O  O14  1  0.962077  0.962077  0.546934  1
  O  O15  1  0.546934  0.962077  0.962077  1
  O  O16  1  0.929235  0.554345  0.554345  1
  O  O17  1  0.554345  0.554345  0.929235  1
  O  O18  1  0.287923  0.703066  0.287923  1
  O  O19  1  0.554345  0.929235  0.554345  1
  O  O20  1  0.999348  0.999348  0.999348  1
  O  O21  1  0.250652  0.250652  0.250652  1
