# generated using pymatgen
data_Dy3Er3TaBiO14
_symmetry_space_group_name_H-M   'P 1'
_cell_length_a   6.44083782
_cell_length_b   6.48682185
_cell_length_c   7.63946291
_cell_angle_alpha   106.61781814
_cell_angle_beta   89.87645986
_cell_angle_gamma   97.97658212
_symmetry_Int_Tables_number   1
_chemical_formula_structural   Dy3Er3TaBiO14
_chemical_formula_sum   'Dy3 Er3 Ta1 Bi1 O14'
_cell_volume   302.65397607
_cell_formula_units_Z   1
loop_
 _symmetry_equiv_pos_site_id
 _symmetry_equiv_pos_as_xyz
  1  'x, y, z'
loop_
 _atom_site_type_symbol
 _atom_site_label
 _atom_site_symmetry_multiplicity
 _atom_site_fract_x
 _atom_site_fract_y
 _atom_site_fract_z
 _atom_site_occupancy
  Dy  Dy0  1  0.733382  0.461368  0.114529  1
  Dy  Dy1  1  0.732011  0.468280  0.605675  1
  Dy  Dy2  1  0.541538  0.995044  0.754854  1
  Er  Er3  1  0.457151  0.005064  0.245306  1
  Er  Er4  1  0.269532  0.534542  0.395269  1
  Er  Er5  1  0.266136  0.539661  0.886644  1
  Ta  Ta6  1  0.000824  0.000564  0.000553  1
  Bi  Bi7  1  0.001018  0.000809  0.500015  1
  O  O8  1  0.696680  0.073188  0.486589  1
  O  O9  1  0.927265  0.688687  0.979905  1
  O  O10  1  0.710618  0.072821  0.055503  1
  O  O11  1  0.931956  0.644240  0.384644  1
  O  O12  1  0.888136  0.910532  0.736321  1
  O  O13  1  0.555042  0.352882  0.834898  1
  O  O14  1  0.540426  0.359759  0.342531  1
  O  O15  1  0.453389  0.638732  0.656954  1
  O  O16  1  0.439573  0.649518  0.166476  1
  O  O17  1  0.113232  0.089987  0.263411  1
  O  O18  1  0.071742  0.354607  0.616991  1
  O  O19  1  0.291089  0.925172  0.948753  1
  O  O20  1  0.074667  0.309131  0.015096  1
  O  O21  1  0.304597  0.925412  0.509084  1
