# generated using pymatgen
data_Ce4ReTc5Os2
_symmetry_space_group_name_H-M   'P 1'
_cell_length_a   5.15323369
_cell_length_b   5.15323345
_cell_length_c   9.25442400
_cell_angle_alpha   90.00000000
_cell_angle_beta   90.00000000
_cell_angle_gamma   113.15265618
_symmetry_Int_Tables_number   1
_chemical_formula_structural   Ce4ReTc5Os2
_chemical_formula_sum   'Ce4 Re1 Tc5 Os2'
_cell_volume   225.96550380
_cell_formula_units_Z   1
loop_
 _symmetry_equiv_pos_site_id
 _symmetry_equiv_pos_as_xyz
  1  'x, y, z'
loop_
 _atom_site_type_symbol
 _atom_site_label
 _atom_site_symmetry_multiplicity
 _atom_site_fract_x
 _atom_site_fract_y
 _atom_site_fract_z
 _atom_site_occupancy
  Ce  Ce0  1  0.332535  0.667465  0.434872  1
  Ce  Ce1  1  0.664971  0.335029  0.566143  1
  Ce  Ce2  1  0.664971  0.335029  0.933857  1
  Ce  Ce3  1  0.332535  0.667465  0.065128  1
  Re  Re4  1  0.835261  0.164739  0.250000  1
  Tc  Tc5  1  0.835411  0.654816  0.250000  1
  Tc  Tc6  1  0.345184  0.164589  0.250000  1
  Tc  Tc7  1  0.171215  0.828785  0.750000  1
  Tc  Tc8  1  0.165974  0.338699  0.750000  1
  Tc  Tc9  1  0.661301  0.834026  0.750000  1
  Os  Os10  1  0.995321  0.004679  0.499875  1
  Os  Os11  1  0.995321  0.004679  0.000125  1
