# generated using pymatgen
data_Nd6SnHg9
_symmetry_space_group_name_H-M   'P 1'
_cell_length_a   6.49456220
_cell_length_b   6.49456262
_cell_length_c   10.71755431
_cell_angle_alpha   91.28486866
_cell_angle_beta   91.28486911
_cell_angle_gamma   104.57344424
_symmetry_Int_Tables_number   1
_chemical_formula_structural   Nd6SnHg9
_chemical_formula_sum   'Nd6 Sn1 Hg9'
_cell_volume   437.22072542
_cell_formula_units_Z   1
loop_
 _symmetry_equiv_pos_site_id
 _symmetry_equiv_pos_as_xyz
  1  'x, y, z'
loop_
 _atom_site_type_symbol
 _atom_site_label
 _atom_site_symmetry_multiplicity
 _atom_site_fract_x
 _atom_site_fract_y
 _atom_site_fract_z
 _atom_site_occupancy
  Nd  Nd0  1  0.605451  0.605451  0.248316  1
  Nd  Nd1  1  0.392433  0.392433  0.756213  1
  Nd  Nd2  1  0.204727  0.803660  0.495735  1
  Nd  Nd3  1  0.204981  0.796191  0.997706  1
  Nd  Nd4  1  0.803660  0.204727  0.495735  1
  Nd  Nd5  1  0.796191  0.204981  0.997706  1
  Sn  Sn6  1  0.684706  0.684706  0.543514  1
  Hg  Hg7  1  0.001019  0.001019  0.242706  1
  Hg  Hg8  1  0.000604  0.000604  0.751180  1
  Hg  Hg9  1  0.301146  0.301146  0.036391  1
  Hg  Hg10  1  0.694053  0.694053  0.968592  1
  Hg  Hg11  1  0.309035  0.309035  0.463931  1
  Hg  Hg12  1  0.490013  0.061476  0.248575  1
  Hg  Hg13  1  0.938619  0.511886  0.752564  1
  Hg  Hg14  1  0.511886  0.938619  0.752564  1
  Hg  Hg15  1  0.061476  0.490013  0.248575  1
