# generated using pymatgen
data_Dy4TcRuC4
_symmetry_space_group_name_H-M   'P 1'
_cell_length_a   5.10285200
_cell_length_b   6.52123463
_cell_length_c   9.82183890
_cell_angle_alpha   89.82494995
_cell_angle_beta   90.00000000
_cell_angle_gamma   90.00000000
_symmetry_Int_Tables_number   1
_chemical_formula_structural   Dy4TcRuC4
_chemical_formula_sum   'Dy8 Tc2 Ru2 C8'
_cell_volume   326.83877784
_cell_formula_units_Z   2
loop_
 _symmetry_equiv_pos_site_id
 _symmetry_equiv_pos_as_xyz
  1  'x, y, z'
loop_
 _atom_site_type_symbol
 _atom_site_label
 _atom_site_symmetry_multiplicity
 _atom_site_fract_x
 _atom_site_fract_y
 _atom_site_fract_z
 _atom_site_occupancy
  Dy  Dy0  1  0.250000  0.676788  0.555753  1
  Dy  Dy1  1  0.750000  0.323212  0.444247  1
  Dy  Dy2  1  0.750000  0.820208  0.056439  1
  Dy  Dy3  1  0.250000  0.179792  0.943561  1
  Dy  Dy4  1  0.250000  0.530093  0.217321  1
  Dy  Dy5  1  0.750000  0.469907  0.782679  1
  Dy  Dy6  1  0.750000  0.970276  0.714537  1
  Dy  Dy7  1  0.250000  0.029724  0.285463  1
  Tc  Tc8  1  0.250000  0.720558  0.865453  1
  Tc  Tc9  1  0.750000  0.279442  0.134547  1
  Ru  Ru10  1  0.750000  0.778981  0.365095  1
  Ru  Ru11  1  0.250000  0.221019  0.634905  1
  C  C12  1  0.250000  0.455679  0.759090  1
  C  C13  1  0.750000  0.544321  0.240910  1
  C  C14  1  0.750000  0.045189  0.257143  1
  C  C15  1  0.250000  0.954811  0.742857  1
  C  C16  1  0.250000  0.822619  0.050639  1
  C  C17  1  0.750000  0.177381  0.949361  1
  C  C18  1  0.750000  0.674731  0.550547  1
  C  C19  1  0.250000  0.325269  0.449453  1
