# generated using pymatgen
data_NdPa(Be12Ni)2
_symmetry_space_group_name_H-M   'P 1'
_cell_length_a   7.28007116
_cell_length_b   7.33973508
_cell_length_c   7.26098207
_cell_angle_alpha   59.81334033
_cell_angle_beta   59.84100119
_cell_angle_gamma   59.55605580
_symmetry_Int_Tables_number   1
_chemical_formula_structural   NdPa(Be12Ni)2
_chemical_formula_sum   'Nd1 Pa1 Be24 Ni2'
_cell_volume   272.70062780
_cell_formula_units_Z   1
loop_
 _symmetry_equiv_pos_site_id
 _symmetry_equiv_pos_as_xyz
  1  'x, y, z'
loop_
 _atom_site_type_symbol
 _atom_site_label
 _atom_site_symmetry_multiplicity
 _atom_site_fract_x
 _atom_site_fract_y
 _atom_site_fract_z
 _atom_site_occupancy
  Nd  Nd0  1  0.249746  0.250254  0.249746  1
  Pa  Pa1  1  0.753439  0.746561  0.753439  1
  Be  Be2  1  0.500052  0.499948  0.500052  1
  Be  Be3  1  0.000356  0.999644  0.000356  1
  Be  Be4  1  0.569113  0.786789  0.435268  1
  Be  Be5  1  0.435268  0.208830  0.569113  1
  Be  Be6  1  0.294765  0.935120  0.709206  1
  Be  Be7  1  0.709206  0.060909  0.294765  1
  Be  Be8  1  0.931573  0.284450  0.065680  1
  Be  Be9  1  0.065680  0.718297  0.931573  1
  Be  Be10  1  0.205736  0.796205  0.559799  1
  Be  Be11  1  0.791201  0.202210  0.442035  1
  Be  Be12  1  0.442035  0.564554  0.791201  1
  Be  Be13  1  0.559799  0.438261  0.205736  1
  Be  Be14  1  0.713474  0.286582  0.935214  1
  Be  Be15  1  0.290586  0.717421  0.060592  1
  Be  Be16  1  0.060592  0.931402  0.290586  1
  Be  Be17  1  0.935214  0.064730  0.713474  1
  Be  Be18  1  0.563345  0.204878  0.792402  1
  Be  Be19  1  0.439882  0.791621  0.204590  1
  Be  Be20  1  0.792402  0.439377  0.563345  1
  Be  Be21  1  0.204590  0.563906  0.439882  1
  Be  Be22  1  0.934662  0.713179  0.290497  1
  Be  Be23  1  0.060306  0.289378  0.713794  1
  Be  Be24  1  0.290497  0.061661  0.934662  1
  Be  Be25  1  0.713794  0.936523  0.060306  1
  Ni  Ni26  1  0.796000  0.561242  0.196686  1
  Ni  Ni27  1  0.196686  0.446072  0.796000  1
