# generated using pymatgen
data_Mo2P4O13
_symmetry_space_group_name_H-M   'P 1'
_cell_length_a   9.37385100
_cell_length_b   8.56198818
_cell_length_c   13.55166800
_cell_angle_alpha   73.79097933
_cell_angle_beta   90.00000000
_cell_angle_gamma   90.00000000
_symmetry_Int_Tables_number   1
_chemical_formula_structural   Mo2P4O13
_chemical_formula_sum   'Mo8 P16 O52'
_cell_volume   1044.40664331
_cell_formula_units_Z   4
loop_
 _symmetry_equiv_pos_site_id
 _symmetry_equiv_pos_as_xyz
  1  'x, y, z'
loop_
 _atom_site_type_symbol
 _atom_site_label
 _atom_site_symmetry_multiplicity
 _atom_site_fract_x
 _atom_site_fract_y
 _atom_site_fract_z
 _atom_site_occupancy
  Mo  Mo0  1  0.995555  0.964944  0.720789  1
  Mo  Mo1  1  0.504445  0.964944  0.220789  1
  Mo  Mo2  1  0.003297  0.559642  0.737204  1
  Mo  Mo3  1  0.503297  0.440358  0.762796  1
  Mo  Mo4  1  0.496703  0.559642  0.237204  1
  Mo  Mo5  1  0.996703  0.440358  0.262796  1
  Mo  Mo6  1  0.495555  0.035056  0.779211  1
  Mo  Mo7  1  0.004445  0.035056  0.279211  1
  P  P8  1  0.758189  0.857343  0.935079  1
  P  P9  1  0.272368  0.712726  0.843759  1
  P  P10  1  0.702543  0.784639  0.659299  1
  P  P11  1  0.741811  0.857343  0.435079  1
  P  P12  1  0.750528  0.502394  0.937370  1
  P  P13  1  0.227632  0.712726  0.343759  1
  P  P14  1  0.797457  0.784639  0.159299  1
  P  P15  1  0.250528  0.497606  0.562630  1
  P  P16  1  0.749472  0.502394  0.437370  1
  P  P17  1  0.202543  0.215361  0.840701  1
  P  P18  1  0.772368  0.287274  0.656241  1
  P  P19  1  0.249472  0.497606  0.062630  1
  P  P20  1  0.258189  0.142657  0.564921  1
  P  P21  1  0.297457  0.215361  0.340701  1
  P  P22  1  0.727632  0.287274  0.156241  1
  P  P23  1  0.241811  0.142657  0.064921  1
  O  O24  1  0.627779  0.964035  0.912400  1
  O  O25  1  0.879466  0.889477  0.860630  1
  O  O26  1  0.338913  0.866188  0.857238  1
  O  O27  1  0.628002  0.882003  0.720183  1
  O  O28  1  0.872221  0.964035  0.412400  1
  O  O29  1  0.675069  0.875431  0.539787  1
  O  O30  1  0.703928  0.670684  0.960975  1
  O  O31  1  0.133614  0.749084  0.776348  1
  O  O32  1  0.869619  0.780605  0.672325  1
  O  O33  1  0.620534  0.889477  0.360630  1
  O  O34  1  0.206117  0.612029  0.953065  1
  O  O35  1  0.161087  0.866188  0.357238  1
  O  O36  1  0.871998  0.882003  0.220183  1
  O  O37  1  0.374515  0.609724  0.804571  1
  O  O38  1  0.884007  0.532080  0.874447  1
  O  O39  1  0.647670  0.613229  0.678165  1
  O  O40  1  0.824931  0.875431  0.039787  1
  O  O41  1  0.796072  0.670684  0.460975  1
  O  O42  1  0.366386  0.749084  0.276348  1
  O  O43  1  0.630381  0.780605  0.172325  1
  O  O44  1  0.122420  0.570234  0.599985  1
  O  O45  1  0.293883  0.612029  0.453065  1
  O  O46  1  0.622420  0.429766  0.900015  1
  O  O47  1  0.147670  0.386771  0.821835  1
  O  O48  1  0.384007  0.467920  0.625553  1
  O  O49  1  0.125485  0.609724  0.304571  1
  O  O50  1  0.874515  0.390276  0.695429  1
  O  O51  1  0.615993  0.532080  0.374447  1
  O  O52  1  0.852330  0.613229  0.178165  1
  O  O53  1  0.377580  0.570234  0.099985  1
  O  O54  1  0.706117  0.387971  0.546935  1
  O  O55  1  0.877580  0.429766  0.400015  1
  O  O56  1  0.369619  0.219395  0.827675  1
  O  O57  1  0.633614  0.250916  0.723652  1
  O  O58  1  0.203928  0.329316  0.539025  1
  O  O59  1  0.175069  0.124569  0.960213  1
  O  O60  1  0.352330  0.386771  0.321835  1
  O  O61  1  0.115993  0.467920  0.125553  1
  O  O62  1  0.625485  0.390276  0.195429  1
  O  O63  1  0.128002  0.117997  0.779817  1
  O  O64  1  0.838913  0.133812  0.642762  1
  O  O65  1  0.793883  0.387971  0.046935  1
  O  O66  1  0.379466  0.110523  0.639370  1
  O  O67  1  0.130381  0.219395  0.327675  1
  O  O68  1  0.866386  0.250916  0.223652  1
  O  O69  1  0.296072  0.329316  0.039025  1
  O  O70  1  0.324931  0.124569  0.460213  1
  O  O71  1  0.127779  0.035965  0.587600  1
  O  O72  1  0.371998  0.117997  0.279817  1
  O  O73  1  0.661087  0.133812  0.142762  1
  O  O74  1  0.120534  0.110523  0.139370  1
  O  O75  1  0.372221  0.035965  0.087600  1
