# generated using pymatgen
data_TbDy3Lu4(B6Ir)4
_symmetry_space_group_name_H-M   'P 1'
_cell_length_a   3.61493500
_cell_length_b   9.11731701
_cell_length_c   11.48435800
_cell_angle_alpha   90.00125230
_cell_angle_beta   90.00000000
_cell_angle_gamma   90.00000000
_symmetry_Int_Tables_number   1
_chemical_formula_structural   TbDy3Lu4(B6Ir)4
_chemical_formula_sum   'Tb1 Dy3 Lu4 B24 Ir4'
_cell_volume   378.50730902
_cell_formula_units_Z   1
loop_
 _symmetry_equiv_pos_site_id
 _symmetry_equiv_pos_as_xyz
  1  'x, y, z'
loop_
 _atom_site_type_symbol
 _atom_site_label
 _atom_site_symmetry_multiplicity
 _atom_site_fract_x
 _atom_site_fract_y
 _atom_site_fract_z
 _atom_site_occupancy
  Tb  Tb0  1  0.000000  0.321276  0.413420  1
  Dy  Dy1  1  0.000000  0.678818  0.586469  1
  Dy  Dy2  1  0.000000  0.821116  0.086473  1
  Dy  Dy3  1  0.000000  0.178825  0.913547  1
  Lu  Lu4  1  0.000000  0.944137  0.374292  1
  Lu  Lu5  1  0.000000  0.055769  0.625501  1
  Lu  Lu6  1  0.000000  0.444138  0.125654  1
  Lu  Lu7  1  0.000000  0.555841  0.874637  1
  B  B8  1  0.500000  0.554277  0.433670  1
  B  B9  1  0.500000  0.446139  0.566573  1
  B  B10  1  0.500000  0.053978  0.066179  1
  B  B11  1  0.500000  0.945970  0.933707  1
  B  B12  1  0.500000  0.751354  0.420175  1
  B  B13  1  0.500000  0.248636  0.580182  1
  B  B14  1  0.500000  0.251290  0.079770  1
  B  B15  1  0.500000  0.748711  0.920112  1
  B  B16  1  0.500000  0.793723  0.265058  1
  B  B17  1  0.500000  0.206290  0.734956  1
  B  B18  1  0.500000  0.293566  0.234595  1
  B  B19  1  0.500000  0.706368  0.765242  1
  B  B20  1  0.500000  0.630906  0.183193  1
  B  B21  1  0.500000  0.369210  0.816733  1
  B  B22  1  0.500000  0.130648  0.316549  1
  B  B23  1  0.500000  0.869168  0.683374  1
  B  B24  1  0.500000  0.981464  0.213722  1
  B  B25  1  0.500000  0.018349  0.786273  1
  B  B26  1  0.500000  0.481812  0.286034  1
  B  B27  1  0.500000  0.518465  0.713843  1
  B  B28  1  0.500000  0.605628  0.028739  1
  B  B29  1  0.500000  0.394405  0.971303  1
  B  B30  1  0.500000  0.105130  0.471380  1
  B  B31  1  0.500000  0.894486  0.528682  1
  Ir  Ir32  1  0.000000  0.639661  0.319942  1
  Ir  Ir33  1  0.000000  0.360710  0.680238  1
  Ir  Ir34  1  0.000000  0.138939  0.179600  1
  Ir  Ir35  1  0.000000  0.860793  0.820187  1
