# generated using pymatgen
data_Cs2NaTmAs2
_symmetry_space_group_name_H-M   'P 1'
_cell_length_a   9.79948514
_cell_length_b   9.79948515
_cell_length_c   9.79946602
_cell_angle_alpha   137.12843614
_cell_angle_beta   136.39777907
_cell_angle_gamma   62.80483214
_symmetry_Int_Tables_number   1
_chemical_formula_structural   Cs2NaTmAs2
_chemical_formula_sum   'Cs4 Na2 Tm2 As4'
_cell_volume   436.06388300
_cell_formula_units_Z   2
loop_
 _symmetry_equiv_pos_site_id
 _symmetry_equiv_pos_as_xyz
  1  'x, y, z'
loop_
 _atom_site_type_symbol
 _atom_site_label
 _atom_site_symmetry_multiplicity
 _atom_site_fract_x
 _atom_site_fract_y
 _atom_site_fract_z
 _atom_site_occupancy
  Cs  Cs0  1  0.101695  0.320091  0.781604  1
  Cs  Cs1  1  0.461513  0.179909  0.281604  1
  Cs  Cs2  1  0.898305  0.679909  0.218396  1
  Cs  Cs3  1  0.538487  0.820091  0.718396  1
  Na  Na4  1  0.499996  0.749996  0.250000  1
  Na  Na5  1  0.500004  0.250004  0.750000  1
  Tm  Tm6  1  0.000003  0.750003  0.750000  1
  Tm  Tm7  1  0.999997  0.249997  0.250000  1
  As  As8  1  0.128929  0.910809  0.218117  1
  As  As9  1  0.871071  0.089191  0.781883  1
  As  As10  1  0.307308  0.589188  0.718117  1
  As  As11  1  0.692692  0.410812  0.281883  1
