# generated using pymatgen
data_Tb2(CeRu)3
_symmetry_space_group_name_H-M   'P 1'
_cell_length_a   6.87023200
_cell_length_b   7.95129175
_cell_length_c   7.95129000
_cell_angle_alpha   120.00000936
_cell_angle_beta   90.00000000
_cell_angle_gamma   90.00000000
_symmetry_Int_Tables_number   1
_chemical_formula_structural   Tb2(CeRu)3
_chemical_formula_sum   'Tb4 Ce6 Ru6'
_cell_volume   376.16403994
_cell_formula_units_Z   2
loop_
 _symmetry_equiv_pos_site_id
 _symmetry_equiv_pos_as_xyz
  1  'x, y, z'
loop_
 _atom_site_type_symbol
 _atom_site_label
 _atom_site_symmetry_multiplicity
 _atom_site_fract_x
 _atom_site_fract_y
 _atom_site_fract_z
 _atom_site_occupancy
  Tb  Tb0  1  0.000000  0.666667  0.333333  1
  Tb  Tb1  1  0.000000  0.333333  0.666667  1
  Tb  Tb2  1  0.500000  0.333333  0.666667  1
  Tb  Tb3  1  0.500000  0.666667  0.333333  1
  Ce  Ce4  1  0.750000  0.758114  0.758114  1
  Ce  Ce5  1  0.250000  0.241886  0.241886  1
  Ce  Ce6  1  0.750000  0.000000  0.241886  1
  Ce  Ce7  1  0.250000  0.000000  0.758114  1
  Ce  Ce8  1  0.750000  0.241886  0.000000  1
  Ce  Ce9  1  0.250000  0.758114  0.000000  1
  Ru  Ru10  1  0.750000  0.363142  0.363142  1
  Ru  Ru11  1  0.250000  0.636858  0.636858  1
  Ru  Ru12  1  0.750000  0.000000  0.636858  1
  Ru  Ru13  1  0.250000  0.000000  0.363142  1
  Ru  Ru14  1  0.750000  0.636858  0.000000  1
  Ru  Ru15  1  0.250000  0.363142  0.000000  1
