# generated using pymatgen
data_La4Nd3DySe12
_symmetry_space_group_name_H-M   'P 1'
_cell_length_a   4.26064900
_cell_length_b   11.20703416
_cell_length_c   11.58509700
_cell_angle_alpha   90.00981597
_cell_angle_beta   90.00000000
_cell_angle_gamma   90.00000000
_symmetry_Int_Tables_number   1
_chemical_formula_structural   La4Nd3DySe12
_chemical_formula_sum   'La4 Nd3 Dy1 Se12'
_cell_volume   553.17955628
_cell_formula_units_Z   1
loop_
 _symmetry_equiv_pos_site_id
 _symmetry_equiv_pos_as_xyz
  1  'x, y, z'
loop_
 _atom_site_type_symbol
 _atom_site_label
 _atom_site_symmetry_multiplicity
 _atom_site_fract_x
 _atom_site_fract_y
 _atom_site_fract_z
 _atom_site_occupancy
  La  La0  1  0.250000  0.998181  0.694312  1
  La  La1  1  0.750000  0.003307  0.306166  1
  La  La2  1  0.750000  0.496567  0.807219  1
  La  La3  1  0.250000  0.501320  0.192395  1
  Nd  Nd4  1  0.250000  0.313861  0.510127  1
  Nd  Nd5  1  0.750000  0.686108  0.489617  1
  Nd  Nd6  1  0.750000  0.814151  0.989845  1
  Dy  Dy7  1  0.250000  0.185978  0.009552  1
  Se  Se8  1  0.750000  0.060098  0.885715  1
  Se  Se9  1  0.250000  0.947402  0.116092  1
  Se  Se10  1  0.250000  0.556297  0.618691  1
  Se  Se11  1  0.750000  0.443279  0.381463  1
  Se  Se12  1  0.250000  0.872466  0.454729  1
  Se  Se13  1  0.750000  0.128042  0.545393  1
  Se  Se14  1  0.750000  0.365743  0.044238  1
  Se  Se15  1  0.250000  0.627330  0.954820  1
  Se  Se16  1  0.250000  0.297777  0.773446  1
  Se  Se17  1  0.750000  0.700757  0.229256  1
  Se  Se18  1  0.750000  0.799856  0.729929  1
  Se  Se19  1  0.250000  0.201479  0.267000  1
