# generated using pymatgen
data_ErLu3Cr4(Co4P3)4
_symmetry_space_group_name_H-M   'P 1'
_cell_length_a   3.63168400
_cell_length_b   10.26582018
_cell_length_c   11.73425821
_cell_angle_alpha   89.97830616
_cell_angle_beta   90.00000000
_cell_angle_gamma   90.00000000
_symmetry_Int_Tables_number   1
_chemical_formula_structural   ErLu3Cr4(Co4P3)4
_chemical_formula_sum   'Er1 Lu3 Cr4 Co16 P12'
_cell_volume   437.47910503
_cell_formula_units_Z   1
loop_
 _symmetry_equiv_pos_site_id
 _symmetry_equiv_pos_as_xyz
  1  'x, y, z'
loop_
 _atom_site_type_symbol
 _atom_site_label
 _atom_site_symmetry_multiplicity
 _atom_site_fract_x
 _atom_site_fract_y
 _atom_site_fract_z
 _atom_site_occupancy
  Er  Er0  1  0.750000  0.082745  0.795697  1
  Lu  Lu1  1  0.250000  0.582669  0.704272  1
  Lu  Lu2  1  0.250000  0.917341  0.204296  1
  Lu  Lu3  1  0.750000  0.417315  0.295735  1
  Cr  Cr4  1  0.250000  0.709698  0.988751  1
  Cr  Cr5  1  0.250000  0.790164  0.488653  1
  Cr  Cr6  1  0.750000  0.290284  0.011430  1
  Cr  Cr7  1  0.750000  0.209823  0.511301  1
  Co  Co8  1  0.250000  0.406488  0.488507  1
  Co  Co9  1  0.250000  0.093547  0.989236  1
  Co  Co10  1  0.750000  0.593511  0.511474  1
  Co  Co11  1  0.750000  0.906331  0.011636  1
  Co  Co12  1  0.250000  0.220965  0.177785  1
  Co  Co13  1  0.250000  0.279527  0.677505  1
  Co  Co14  1  0.750000  0.778914  0.822296  1
  Co  Co15  1  0.750000  0.720888  0.322273  1
  Co  Co16  1  0.250000  0.885465  0.698916  1
  Co  Co17  1  0.250000  0.613906  0.199303  1
  Co  Co18  1  0.750000  0.113928  0.300680  1
  Co  Co19  1  0.750000  0.386366  0.800751  1
  Co  Co20  1  0.250000  0.466253  0.933283  1
  Co  Co21  1  0.250000  0.033988  0.432969  1
  Co  Co22  1  0.750000  0.533964  0.066851  1
  Co  Co23  1  0.750000  0.965846  0.566447  1
  P  P24  1  0.250000  0.417736  0.114332  1
  P  P25  1  0.250000  0.082301  0.613537  1
  P  P26  1  0.750000  0.582306  0.885741  1
  P  P27  1  0.750000  0.917713  0.385573  1
  P  P28  1  0.250000  0.268664  0.868930  1
  P  P29  1  0.250000  0.232286  0.368552  1
  P  P30  1  0.750000  0.732223  0.131466  1
  P  P31  1  0.750000  0.767767  0.631506  1
  P  P32  1  0.250000  0.598875  0.390894  1
  P  P33  1  0.250000  0.900252  0.891303  1
  P  P34  1  0.750000  0.400994  0.609099  1
  P  P35  1  0.750000  0.098959  0.109021  1
