# generated using pymatgen
data_Tb7Nd8Lu5Ga16
_symmetry_space_group_name_H-M   'P 1'
_cell_length_a   7.92550069
_cell_length_b   7.92237877
_cell_length_c   14.76879100
_cell_angle_alpha   89.91033585
_cell_angle_beta   89.91041454
_cell_angle_gamma   90.00761265
_symmetry_Int_Tables_number   1
_chemical_formula_structural   Tb7Nd8Lu5Ga16
_chemical_formula_sum   'Tb7 Nd8 Lu5 Ga16'
_cell_volume   927.31265886
_cell_formula_units_Z   1
loop_
 _symmetry_equiv_pos_site_id
 _symmetry_equiv_pos_as_xyz
  1  'x, y, z'
loop_
 _atom_site_type_symbol
 _atom_site_label
 _atom_site_symmetry_multiplicity
 _atom_site_fract_x
 _atom_site_fract_y
 _atom_site_fract_z
 _atom_site_occupancy
  Tb  Tb0  1  0.992919  0.141961  0.623726  1
  Tb  Tb1  1  0.857408  0.005933  0.877225  1
  Tb  Tb2  1  0.142248  0.994038  0.374982  1
  Tb  Tb3  1  0.506704  0.641802  0.626286  1
  Tb  Tb4  1  0.358114  0.493262  0.874509  1
  Tb  Tb5  1  0.641632  0.506306  0.373359  1
  Tb  Tb6  1  0.005708  0.858669  0.123816  1
  Nd  Nd7  1  0.638770  0.990606  0.459897  1
  Nd  Nd8  1  0.360002  0.010014  0.961889  1
  Nd  Nd9  1  0.990873  0.640115  0.539104  1
  Nd  Nd10  1  0.492183  0.861995  0.210068  1
  Nd  Nd11  1  0.508908  0.138927  0.710760  1
  Nd  Nd12  1  0.859169  0.489219  0.789850  1
  Nd  Nd13  1  0.142296  0.509900  0.287760  1
  Nd  Nd14  1  0.007991  0.359688  0.040064  1
  Lu  Lu15  1  0.495462  0.358595  0.125422  1
  Lu  Lu16  1  0.318936  0.319152  0.499987  1
  Lu  Lu17  1  0.180750  0.819361  0.750347  1
  Lu  Lu18  1  0.819216  0.181613  0.249299  1
  Lu  Lu19  1  0.678931  0.678328  0.000666  1
  Ga  Ga20  1  0.287860  0.937028  0.562720  1
  Ga  Ga21  1  0.710237  0.064741  0.064094  1
  Ga  Ga22  1  0.937105  0.288872  0.436488  1
  Ga  Ga23  1  0.437129  0.213436  0.311395  1
  Ga  Ga24  1  0.562777  0.788223  0.813610  1
  Ga  Ga25  1  0.211347  0.437064  0.687061  1
  Ga  Ga26  1  0.787501  0.561594  0.186021  1
  Ga  Ga27  1  0.064006  0.711488  0.937657  1
  Ga  Ga28  1  0.800470  0.845820  0.689616  1
  Ga  Ga29  1  0.203469  0.154711  0.186909  1
  Ga  Ga30  1  0.846964  0.799450  0.310510  1
  Ga  Ga31  1  0.346517  0.700133  0.438830  1
  Ga  Ga32  1  0.653079  0.300157  0.940335  1
  Ga  Ga33  1  0.699854  0.346736  0.560815  1
  Ga  Ga34  1  0.300643  0.650887  0.063424  1
  Ga  Ga35  1  0.152824  0.200182  0.811494  1
