# generated using pymatgen
data_CaGe2(AsRh3)2
_symmetry_space_group_name_H-M   'P 1'
_cell_length_a   7.26479544
_cell_length_b   7.26479520
_cell_length_c   3.81578600
_cell_angle_alpha   90.00000000
_cell_angle_beta   90.00000000
_cell_angle_gamma   119.50259433
_symmetry_Int_Tables_number   1
_chemical_formula_structural   CaGe2(AsRh3)2
_chemical_formula_sum   'Ca1 Ge2 As2 Rh6'
_cell_volume   175.27356711
_cell_formula_units_Z   1
loop_
 _symmetry_equiv_pos_site_id
 _symmetry_equiv_pos_as_xyz
  1  'x, y, z'
loop_
 _atom_site_type_symbol
 _atom_site_label
 _atom_site_symmetry_multiplicity
 _atom_site_fract_x
 _atom_site_fract_y
 _atom_site_fract_z
 _atom_site_occupancy
  Ca  Ca0  1  0.999811  0.000189  0.000000  1
  Ge  Ge1  1  0.808038  0.191962  0.500000  1
  Ge  Ge2  1  0.332909  0.667091  0.000000  1
  As  As3  1  0.382226  0.189754  0.500000  1
  As  As4  1  0.810246  0.617774  0.500000  1
  Rh  Rh5  1  0.199564  0.800436  0.500000  1
  Rh  Rh6  1  0.200645  0.399845  0.500000  1
  Rh  Rh7  1  0.535745  0.071523  0.000000  1
  Rh  Rh8  1  0.928477  0.464255  0.000000  1
  Rh  Rh9  1  0.535515  0.464485  0.000000  1
  Rh  Rh10  1  0.600155  0.799355  0.500000  1
