# generated using pymatgen
data_Tm10InSn3Bi2
_symmetry_space_group_name_H-M   'P 1'
_cell_length_a   6.43786600
_cell_length_b   8.88420963
_cell_length_c   8.91605808
_cell_angle_alpha   119.88190644
_cell_angle_beta   90.00004091
_cell_angle_gamma   89.99993641
_symmetry_Int_Tables_number   1
_chemical_formula_structural   Tm10InSn3Bi2
_chemical_formula_sum   'Tm10 In1 Sn3 Bi2'
_cell_volume   442.16038297
_cell_formula_units_Z   1
loop_
 _symmetry_equiv_pos_site_id
 _symmetry_equiv_pos_as_xyz
  1  'x, y, z'
loop_
 _atom_site_type_symbol
 _atom_site_label
 _atom_site_symmetry_multiplicity
 _atom_site_fract_x
 _atom_site_fract_y
 _atom_site_fract_z
 _atom_site_occupancy
  Tm  Tm0  1  0.496584  0.337827  0.671789  1
  Tm  Tm1  1  0.496584  0.666037  0.328211  1
  Tm  Tm2  1  0.003414  0.666039  0.328210  1
  Tm  Tm3  1  0.003414  0.337831  0.671790  1
  Tm  Tm4  1  0.750002  0.240295  0.000000  1
  Tm  Tm5  1  0.749998  0.760461  0.768523  1
  Tm  Tm6  1  0.749998  0.991938  0.231477  1
  Tm  Tm7  1  0.249998  0.761663  0.000000  1
  Tm  Tm8  1  0.250002  0.238106  0.236718  1
  Tm  Tm9  1  0.250002  0.001388  0.763282  1
  In  In10  1  0.749999  0.601702  0.000000  1
  Sn  Sn11  1  0.249999  0.394720  0.000000  1
  Sn  Sn12  1  0.249999  0.607136  0.604759  1
  Sn  Sn13  1  0.249999  0.002376  0.395241  1
  Bi  Bi14  1  0.750002  0.393350  0.394222  1
  Bi  Bi15  1  0.750002  0.999128  0.605778  1
