# generated using pymatgen
data_Nd20Ir7RuRh4
_symmetry_space_group_name_H-M   'P 1'
_cell_length_a   11.23408058
_cell_length_b   11.23469469
_cell_length_c   6.62826753
_cell_angle_alpha   89.99274359
_cell_angle_beta   89.98809840
_cell_angle_gamma   89.98654048
_symmetry_Int_Tables_number   1
_chemical_formula_structural   Nd20Ir7RuRh4
_chemical_formula_sum   'Nd20 Ir7 Ru1 Rh4'
_cell_volume   836.56330993
_cell_formula_units_Z   1
loop_
 _symmetry_equiv_pos_site_id
 _symmetry_equiv_pos_as_xyz
  1  'x, y, z'
loop_
 _atom_site_type_symbol
 _atom_site_label
 _atom_site_symmetry_multiplicity
 _atom_site_fract_x
 _atom_site_fract_y
 _atom_site_fract_z
 _atom_site_occupancy
  Nd  Nd0  1  0.089468  0.292124  0.112781  1
  Nd  Nd1  1  0.792297  0.410399  0.112579  1
  Nd  Nd2  1  0.207926  0.588276  0.112262  1
  Nd  Nd3  1  0.909231  0.707181  0.112375  1
  Nd  Nd4  1  0.410679  0.790414  0.384797  1
  Nd  Nd5  1  0.590589  0.209389  0.384667  1
  Nd  Nd6  1  0.291181  0.091740  0.384782  1
  Nd  Nd7  1  0.709565  0.909579  0.384474  1
  Nd  Nd8  1  0.410084  0.209236  0.884942  1
  Nd  Nd9  1  0.709668  0.089986  0.884664  1
  Nd  Nd10  1  0.291358  0.910304  0.883605  1
  Nd  Nd11  1  0.589835  0.790780  0.884579  1
  Nd  Nd12  1  0.089156  0.707281  0.619057  1
  Nd  Nd13  1  0.910547  0.291614  0.617589  1
  Nd  Nd14  1  0.207939  0.410642  0.617805  1
  Nd  Nd15  1  0.792013  0.589400  0.617434  1
  Nd  Nd16  1  0.999950  0.000107  0.000692  1
  Nd  Nd17  1  0.500096  0.500038  0.000811  1
  Nd  Nd18  1  0.499948  0.499899  0.500449  1
  Nd  Nd19  1  0.999933  0.000003  0.500563  1
  Ir  Ir20  1  0.346553  0.345917  0.249783  1
  Ir  Ir21  1  0.653116  0.654404  0.250123  1
  Ir  Ir22  1  0.846090  0.152954  0.249910  1
  Ir  Ir23  1  0.346824  0.654853  0.749533  1
  Ir  Ir24  1  0.154455  0.152686  0.749156  1
  Ir  Ir25  1  0.845705  0.847133  0.749972  1
  Ir  Ir26  1  0.652851  0.345606  0.749620  1
  Ru  Ru27  1  0.000436  0.500492  0.878516  1
  Rh  Rh28  1  0.153328  0.847613  0.249824  1
  Rh  Rh29  1  0.000330  0.500707  0.379275  1
  Rh  Rh30  1  0.499219  0.999646  0.121712  1
  Rh  Rh31  1  0.499632  0.999593  0.621669  1
