# generated using pymatgen
data_Tb2Co6P6Ru3Rh
_symmetry_space_group_name_H-M   'P 1'
_cell_length_a   3.75886400
_cell_length_b   10.51251900
_cell_length_c   11.96965200
_cell_angle_alpha   90.00000000
_cell_angle_beta   90.00000000
_cell_angle_gamma   90.00000000
_symmetry_Int_Tables_number   1
_chemical_formula_structural   Tb2Co6P6Ru3Rh
_chemical_formula_sum   'Tb4 Co12 P12 Ru6 Rh2'
_cell_volume   472.98234548
_cell_formula_units_Z   2
loop_
 _symmetry_equiv_pos_site_id
 _symmetry_equiv_pos_as_xyz
  1  'x, y, z'
loop_
 _atom_site_type_symbol
 _atom_site_label
 _atom_site_symmetry_multiplicity
 _atom_site_fract_x
 _atom_site_fract_y
 _atom_site_fract_z
 _atom_site_occupancy
  Tb  Tb0  1  0.250000  0.585789  0.709448  1
  Tb  Tb1  1  0.250000  0.914211  0.209448  1
  Tb  Tb2  1  0.750000  0.414120  0.290895  1
  Tb  Tb3  1  0.750000  0.085880  0.790895  1
  Co  Co4  1  0.250000  0.224710  0.178847  1
  Co  Co5  1  0.250000  0.275290  0.678847  1
  Co  Co6  1  0.750000  0.776281  0.821251  1
  Co  Co7  1  0.750000  0.723719  0.321251  1
  Co  Co8  1  0.250000  0.884016  0.698589  1
  Co  Co9  1  0.250000  0.615984  0.198589  1
  Co  Co10  1  0.750000  0.115674  0.300197  1
  Co  Co11  1  0.750000  0.384326  0.800197  1
  Co  Co12  1  0.250000  0.462973  0.932060  1
  Co  Co13  1  0.250000  0.037027  0.432060  1
  Co  Co14  1  0.750000  0.536774  0.066805  1
  Co  Co15  1  0.750000  0.963226  0.566805  1
  P  P16  1  0.250000  0.422386  0.111366  1
  P  P17  1  0.250000  0.077614  0.611366  1
  P  P18  1  0.750000  0.577922  0.888218  1
  P  P19  1  0.750000  0.922078  0.388218  1
  P  P20  1  0.250000  0.273036  0.865561  1
  P  P21  1  0.250000  0.226964  0.365561  1
  P  P22  1  0.750000  0.724229  0.136395  1
  P  P23  1  0.750000  0.775771  0.636395  1
  P  P24  1  0.250000  0.601836  0.383112  1
  P  P25  1  0.250000  0.898164  0.883112  1
  P  P26  1  0.750000  0.395501  0.615201  1
  P  P27  1  0.750000  0.104499  0.115201  1
  Ru  Ru28  1  0.250000  0.708735  0.984514  1
  Ru  Ru29  1  0.250000  0.791265  0.484514  1
  Ru  Ru30  1  0.750000  0.292311  0.014566  1
  Ru  Ru31  1  0.750000  0.207689  0.514566  1
  Ru  Ru32  1  0.250000  0.404816  0.486759  1
  Ru  Ru33  1  0.250000  0.095184  0.986759  1
  Rh  Rh34  1  0.750000  0.596995  0.516216  1
  Rh  Rh35  1  0.750000  0.903005  0.016216  1
