# generated using pymatgen
data_HfZr3Pd2N
_symmetry_space_group_name_H-M   'P 1'
_cell_length_a   8.84827481
_cell_length_b   8.84827452
_cell_length_c   8.84827500
_cell_angle_alpha   60.00000196
_cell_angle_beta   60.00000303
_cell_angle_gamma   60.00000095
_symmetry_Int_Tables_number   1
_chemical_formula_structural   HfZr3Pd2N
_chemical_formula_sum   'Hf4 Zr12 Pd8 N4'
_cell_volume   489.84741948
_cell_formula_units_Z   4
loop_
 _symmetry_equiv_pos_site_id
 _symmetry_equiv_pos_as_xyz
  1  'x, y, z'
loop_
 _atom_site_type_symbol
 _atom_site_label
 _atom_site_symmetry_multiplicity
 _atom_site_fract_x
 _atom_site_fract_y
 _atom_site_fract_z
 _atom_site_occupancy
  Hf  Hf0  1  0.125000  0.625000  0.625000  1
  Hf  Hf1  1  0.625000  0.125000  0.625000  1
  Hf  Hf2  1  0.625000  0.625000  0.125000  1
  Hf  Hf3  1  0.625000  0.625000  0.625000  1
  Zr  Zr4  1  0.819102  0.819102  0.180898  1
  Zr  Zr5  1  0.180898  0.180898  0.819102  1
  Zr  Zr6  1  0.819102  0.180898  0.819102  1
  Zr  Zr7  1  0.180898  0.819102  0.180898  1
  Zr  Zr8  1  0.180898  0.819102  0.819102  1
  Zr  Zr9  1  0.819102  0.180898  0.180898  1
  Zr  Zr10  1  0.430898  0.430898  0.069102  1
  Zr  Zr11  1  0.069102  0.069102  0.430898  1
  Zr  Zr12  1  0.430898  0.069102  0.430898  1
  Zr  Zr13  1  0.069102  0.430898  0.069102  1
  Zr  Zr14  1  0.069102  0.430898  0.430898  1
  Zr  Zr15  1  0.430898  0.069102  0.069102  1
  Pd  Pd16  1  0.763551  0.412150  0.412150  1
  Pd  Pd17  1  0.412150  0.763551  0.412150  1
  Pd  Pd18  1  0.412150  0.412150  0.763551  1
  Pd  Pd19  1  0.412150  0.412150  0.412150  1
  Pd  Pd20  1  0.486449  0.837850  0.837850  1
  Pd  Pd21  1  0.837850  0.486449  0.837850  1
  Pd  Pd22  1  0.837850  0.837850  0.486449  1
  Pd  Pd23  1  0.837850  0.837850  0.837850  1
  N  N24  1  0.625000  0.125000  0.125000  1
  N  N25  1  0.125000  0.625000  0.125000  1
  N  N26  1  0.125000  0.125000  0.625000  1
  N  N27  1  0.125000  0.125000  0.125000  1
