# generated using pymatgen
data_Sm2Y4CoI10
_symmetry_space_group_name_H-M   'P 1'
_cell_length_a   7.75087335
_cell_length_b   9.75091266
_cell_length_c   9.71535830
_cell_angle_alpha   106.94863328
_cell_angle_beta   96.60269107
_cell_angle_gamma   104.93399129
_symmetry_Int_Tables_number   1
_chemical_formula_structural   Sm2Y4CoI10
_chemical_formula_sum   'Sm2 Y4 Co1 I10'
_cell_volume   664.14121378
_cell_formula_units_Z   1
loop_
 _symmetry_equiv_pos_site_id
 _symmetry_equiv_pos_as_xyz
  1  'x, y, z'
loop_
 _atom_site_type_symbol
 _atom_site_label
 _atom_site_symmetry_multiplicity
 _atom_site_fract_x
 _atom_site_fract_y
 _atom_site_fract_z
 _atom_site_occupancy
  Sm  Sm0  1  0.889007  0.959343  0.229399  1
  Sm  Sm1  1  0.110993  0.040657  0.770601  1
  Y  Y2  1  0.030476  0.716599  0.915121  1
  Y  Y3  1  0.969524  0.283401  0.084879  1
  Y  Y4  1  0.655427  0.877067  0.836146  1
  Y  Y5  1  0.344573  0.122933  0.163854  1
  Co  Co6  1  0.000000  0.000000  0.000000  1
  I  I7  1  0.648832  0.550437  0.728434  1
  I  I8  1  0.351168  0.449563  0.271566  1
  I  I9  1  0.738065  0.911214  0.539921  1
  I  I10  1  0.261935  0.088786  0.460079  1
  I  I11  1  0.085304  0.374282  0.820394  1
  I  I12  1  0.914696  0.625718  0.179606  1
  I  I13  1  0.452006  0.816170  0.092175  1
  I  I14  1  0.547994  0.183830  0.907825  1
  I  I15  1  0.222632  0.741207  0.654983  1
  I  I16  1  0.777368  0.258793  0.345017  1
