# generated using pymatgen
data_CsTl2BiCl6
_symmetry_space_group_name_H-M   'P 1'
_cell_length_a   13.61967847
_cell_length_b   13.61967917
_cell_length_c   13.25854300
_cell_angle_alpha   81.35997586
_cell_angle_beta   81.35997541
_cell_angle_gamma   33.74796948
_symmetry_Int_Tables_number   1
_chemical_formula_structural   CsTl2BiCl6
_chemical_formula_sum   'Cs4 Tl8 Bi4 Cl24'
_cell_volume   1349.35737794
_cell_formula_units_Z   4
loop_
 _symmetry_equiv_pos_site_id
 _symmetry_equiv_pos_as_xyz
  1  'x, y, z'
loop_
 _atom_site_type_symbol
 _atom_site_label
 _atom_site_symmetry_multiplicity
 _atom_site_fract_x
 _atom_site_fract_y
 _atom_site_fract_z
 _atom_site_occupancy
  Cs  Cs0  1  0.788358  0.314832  0.569711  1
  Cs  Cs1  1  0.211642  0.685168  0.430289  1
  Cs  Cs2  1  0.314832  0.788358  0.069711  1
  Cs  Cs3  1  0.685168  0.211642  0.930289  1
  Tl  Tl4  1  0.469324  0.844092  0.368748  1
  Tl  Tl5  1  0.976693  0.347477  0.200226  1
  Tl  Tl6  1  0.652523  0.023307  0.299774  1
  Tl  Tl7  1  0.530676  0.155908  0.631252  1
  Tl  Tl8  1  0.155908  0.530676  0.131252  1
  Tl  Tl9  1  0.023307  0.652523  0.799774  1
  Tl  Tl10  1  0.844092  0.469324  0.868748  1
  Tl  Tl11  1  0.347477  0.976693  0.700226  1
  Bi  Bi12  1  0.000000  0.500000  0.500000  1
  Bi  Bi13  1  0.222336  0.777664  0.750000  1
  Bi  Bi14  1  0.777664  0.222336  0.250000  1
  Bi  Bi15  1  0.500000  0.000000  0.000000  1
  Cl  Cl16  1  0.137381  0.362250  0.691362  1
  Cl  Cl17  1  0.392280  0.478257  0.684889  1
  Cl  Cl18  1  0.140685  0.204142  0.473660  1
  Cl  Cl19  1  0.697803  0.650536  0.573293  1
  Cl  Cl20  1  0.650536  0.697803  0.073293  1
  Cl  Cl21  1  0.478257  0.392280  0.184889  1
  Cl  Cl22  1  0.795858  0.859315  0.026340  1
  Cl  Cl23  1  0.906489  0.965986  0.699962  1
  Cl  Cl24  1  0.862619  0.637750  0.308638  1
  Cl  Cl25  1  0.707805  0.176191  0.438668  1
  Cl  Cl26  1  0.204142  0.140685  0.973660  1
  Cl  Cl27  1  0.362250  0.137381  0.191362  1
  Cl  Cl28  1  0.292195  0.823809  0.561332  1
  Cl  Cl29  1  0.859315  0.795858  0.526340  1
  Cl  Cl30  1  0.093511  0.034014  0.300038  1
  Cl  Cl31  1  0.302197  0.349464  0.426707  1
  Cl  Cl32  1  0.637750  0.862619  0.808638  1
  Cl  Cl33  1  0.521743  0.607720  0.815111  1
  Cl  Cl34  1  0.034014  0.093511  0.800038  1
  Cl  Cl35  1  0.965986  0.906489  0.199962  1
  Cl  Cl36  1  0.607720  0.521743  0.315111  1
  Cl  Cl37  1  0.349464  0.302197  0.926707  1
  Cl  Cl38  1  0.823809  0.292195  0.061332  1
  Cl  Cl39  1  0.176191  0.707805  0.938668  1
