# generated using pymatgen
data_Y6PuO12
_symmetry_space_group_name_H-M   'P 1'
_cell_length_a   6.56177685
_cell_length_b   6.56177695
_cell_length_c   6.56177676
_cell_angle_alpha   98.76618174
_cell_angle_beta   98.76617157
_cell_angle_gamma   98.76617227
_symmetry_Int_Tables_number   1
_chemical_formula_structural   Y6PuO12
_chemical_formula_sum   'Y6 Pu1 O12'
_cell_volume   271.47004003
_cell_formula_units_Z   1
loop_
 _symmetry_equiv_pos_site_id
 _symmetry_equiv_pos_as_xyz
  1  'x, y, z'
loop_
 _atom_site_type_symbol
 _atom_site_label
 _atom_site_symmetry_multiplicity
 _atom_site_fract_x
 _atom_site_fract_y
 _atom_site_fract_z
 _atom_site_occupancy
  Y  Y0  1  0.854659  0.388183  0.680451  1
  Y  Y1  1  0.611817  0.319549  0.145341  1
  Y  Y2  1  0.319549  0.145341  0.611817  1
  Y  Y3  1  0.680451  0.854659  0.388183  1
  Y  Y4  1  0.388183  0.680451  0.854659  1
  Y  Y5  1  0.145341  0.611817  0.319549  1
  Pu  Pu6  1  0.000000  0.000000  0.000000  1
  O  O7  1  0.926345  0.041851  0.692786  1
  O  O8  1  0.958149  0.307214  0.073655  1
  O  O9  1  0.590830  0.177293  0.430481  1
  O  O10  1  0.822707  0.569519  0.409170  1
  O  O11  1  0.307214  0.073655  0.958149  1
  O  O12  1  0.569519  0.409170  0.822707  1
  O  O13  1  0.430481  0.590830  0.177293  1
  O  O14  1  0.692786  0.926345  0.041851  1
  O  O15  1  0.177293  0.430481  0.590830  1
  O  O16  1  0.409170  0.822707  0.569519  1
  O  O17  1  0.041851  0.692786  0.926345  1
  O  O18  1  0.073655  0.958149  0.307214  1
