# generated using pymatgen
data_Nd3Eu(CuP2)4
_symmetry_space_group_name_H-M   'P 1'
_cell_length_a   3.77484500
_cell_length_b   3.88288991
_cell_length_c   20.22884597
_cell_angle_alpha   89.99183570
_cell_angle_beta   90.00000000
_cell_angle_gamma   90.00000000
_symmetry_Int_Tables_number   1
_chemical_formula_structural   Nd3Eu(CuP2)4
_chemical_formula_sum   'Nd3 Eu1 Cu4 P8'
_cell_volume   296.50041401
_cell_formula_units_Z   1
loop_
 _symmetry_equiv_pos_site_id
 _symmetry_equiv_pos_as_xyz
  1  'x, y, z'
loop_
 _atom_site_type_symbol
 _atom_site_label
 _atom_site_symmetry_multiplicity
 _atom_site_fract_x
 _atom_site_fract_y
 _atom_site_fract_z
 _atom_site_occupancy
  Nd  Nd0  1  0.250000  0.710572  0.380937  1
  Nd  Nd1  1  0.250000  0.789337  0.881284  1
  Nd  Nd2  1  0.750000  0.289184  0.619268  1
  Eu  Eu3  1  0.750000  0.209930  0.117709  1
  Cu  Cu4  1  0.250000  0.210216  0.249917  1
  Cu  Cu5  1  0.750000  0.790560  0.750300  1
  Cu  Cu6  1  0.250000  0.290184  0.749743  1
  Cu  Cu7  1  0.750000  0.709830  0.250565  1
  P  P8  1  0.750000  0.817372  0.503020  1
  P  P9  1  0.750000  0.681464  0.000926  1
  P  P10  1  0.250000  0.182956  0.498020  1
  P  P11  1  0.250000  0.317198  0.995582  1
  P  P12  1  0.250000  0.710051  0.180183  1
  P  P13  1  0.750000  0.210670  0.323211  1
  P  P14  1  0.750000  0.290564  0.821628  1
  P  P15  1  0.250000  0.789912  0.677709  1
