# generated using pymatgen
data_TbYFe4(PC)2
_symmetry_space_group_name_H-M   'P 1'
_cell_length_a   5.49574201
_cell_length_b   5.49574118
_cell_length_c   6.68539300
_cell_angle_alpha   90.00000000
_cell_angle_beta   90.00000000
_cell_angle_gamma   140.95832749
_symmetry_Int_Tables_number   1
_chemical_formula_structural   TbYFe4(PC)2
_chemical_formula_sum   'Tb1 Y1 Fe4 P2 C2'
_cell_volume   127.18653471
_cell_formula_units_Z   1
loop_
 _symmetry_equiv_pos_site_id
 _symmetry_equiv_pos_as_xyz
  1  'x, y, z'
loop_
 _atom_site_type_symbol
 _atom_site_label
 _atom_site_symmetry_multiplicity
 _atom_site_fract_x
 _atom_site_fract_y
 _atom_site_fract_z
 _atom_site_occupancy
  Tb  Tb0  1  0.548310  0.451690  0.250000  1
  Y  Y1  1  0.451738  0.548262  0.750000  1
  Fe  Fe2  1  0.832545  0.167455  0.057097  1
  Fe  Fe3  1  0.167457  0.832543  0.942801  1
  Fe  Fe4  1  0.167457  0.832543  0.557199  1
  Fe  Fe5  1  0.832545  0.167455  0.442903  1
  P  P6  1  0.269900  0.730100  0.250000  1
  P  P7  1  0.730107  0.269893  0.750000  1
  C  C8  1  0.999970  0.000030  0.999910  1
  C  C9  1  0.999970  0.000030  0.500090  1
