# generated using pymatgen
data_Lu5Sc3Cu4
_symmetry_space_group_name_H-M   'P 1'
_cell_length_a   4.67931500
_cell_length_b   6.74254511
_cell_length_c   8.24337320
_cell_angle_alpha   90.78266981
_cell_angle_beta   90.00000000
_cell_angle_gamma   90.00000000
_symmetry_Int_Tables_number   1
_chemical_formula_structural   Lu5Sc3Cu4
_chemical_formula_sum   'Lu5 Sc3 Cu4'
_cell_volume   260.05821879
_cell_formula_units_Z   1
loop_
 _symmetry_equiv_pos_site_id
 _symmetry_equiv_pos_as_xyz
  1  'x, y, z'
loop_
 _atom_site_type_symbol
 _atom_site_label
 _atom_site_symmetry_multiplicity
 _atom_site_fract_x
 _atom_site_fract_y
 _atom_site_fract_z
 _atom_site_occupancy
  Lu  Lu0  1  0.750000  0.639915  0.418398  1
  Lu  Lu1  1  0.250000  0.475441  0.169818  1
  Lu  Lu2  1  0.250000  0.985133  0.322227  1
  Lu  Lu3  1  0.750000  0.521056  0.826600  1
  Lu  Lu4  1  0.750000  0.022124  0.682184  1
  Sc  Sc5  1  0.250000  0.856360  0.923191  1
  Sc  Sc6  1  0.250000  0.359876  0.581447  1
  Sc  Sc7  1  0.750000  0.144530  0.078741  1
  Cu  Cu8  1  0.250000  0.242906  0.892790  1
  Cu  Cu9  1  0.250000  0.753493  0.606223  1
  Cu  Cu10  1  0.750000  0.757721  0.099276  1
  Cu  Cu11  1  0.750000  0.241448  0.399105  1
