# generated using pymatgen
data_Tb2HoSi2Ni
_symmetry_space_group_name_H-M   'P 1'
_cell_length_a   4.12651800
_cell_length_b   11.23675700
_cell_length_c   11.29378600
_cell_angle_alpha   90.00000000
_cell_angle_beta   90.00000000
_cell_angle_gamma   90.00000000
_symmetry_Int_Tables_number   1
_chemical_formula_structural   Tb2HoSi2Ni
_chemical_formula_sum   'Tb8 Ho4 Si8 Ni4'
_cell_volume   523.67794927
_cell_formula_units_Z   4
loop_
 _symmetry_equiv_pos_site_id
 _symmetry_equiv_pos_as_xyz
  1  'x, y, z'
loop_
 _atom_site_type_symbol
 _atom_site_label
 _atom_site_symmetry_multiplicity
 _atom_site_fract_x
 _atom_site_fract_y
 _atom_site_fract_z
 _atom_site_occupancy
  Tb  Tb0  1  0.250000  0.124853  0.557668  1
  Tb  Tb1  1  0.250000  0.375147  0.057668  1
  Tb  Tb2  1  0.750000  0.875147  0.442332  1
  Tb  Tb3  1  0.750000  0.624853  0.942332  1
  Tb  Tb4  1  0.250000  0.803347  0.714295  1
  Tb  Tb5  1  0.250000  0.696653  0.214295  1
  Tb  Tb6  1  0.750000  0.196653  0.285705  1
  Tb  Tb7  1  0.750000  0.303347  0.785705  1
  Ho  Ho8  1  0.250000  0.058994  0.882678  1
  Ho  Ho9  1  0.250000  0.441006  0.382678  1
  Ho  Ho10  1  0.750000  0.941006  0.117322  1
  Ho  Ho11  1  0.750000  0.558994  0.617322  1
  Si  Si12  1  0.250000  0.814983  0.975281  1
  Si  Si13  1  0.250000  0.685017  0.475281  1
  Si  Si14  1  0.750000  0.185017  0.024719  1
  Si  Si15  1  0.750000  0.314983  0.524719  1
  Si  Si16  1  0.250000  0.495672  0.802524  1
  Si  Si17  1  0.250000  0.004328  0.302524  1
  Si  Si18  1  0.750000  0.504328  0.197476  1
  Si  Si19  1  0.750000  0.995672  0.697476  1
  Ni  Ni20  1  0.250000  0.367388  0.629076  1
  Ni  Ni21  1  0.250000  0.132612  0.129076  1
  Ni  Ni22  1  0.750000  0.632612  0.370924  1
  Ni  Ni23  1  0.750000  0.867388  0.870924  1
