# generated using pymatgen
data_K(TiSe2)8
_symmetry_space_group_name_H-M   'P 1'
_cell_length_a   7.07533600
_cell_length_b   7.07533575
_cell_length_c   16.13835000
_cell_angle_alpha   90.00000000
_cell_angle_beta   90.00000000
_cell_angle_gamma   119.99999184
_symmetry_Int_Tables_number   1
_chemical_formula_structural   K(TiSe2)8
_chemical_formula_sum   'K1 Ti8 Se16'
_cell_volume   699.65496357
_cell_formula_units_Z   1
loop_
 _symmetry_equiv_pos_site_id
 _symmetry_equiv_pos_as_xyz
  1  'x, y, z'
loop_
 _atom_site_type_symbol
 _atom_site_label
 _atom_site_symmetry_multiplicity
 _atom_site_fract_x
 _atom_site_fract_y
 _atom_site_fract_z
 _atom_site_occupancy
  K  K0  1  0.000000  0.000000  0.000000  1
  Ti  Ti1  1  0.500703  0.499297  0.736675  1
  Ti  Ti2  1  0.499297  0.500703  0.263325  1
  Ti  Ti3  1  0.500703  0.001404  0.736675  1
  Ti  Ti4  1  0.499297  0.998596  0.263325  1
  Ti  Ti5  1  0.998596  0.499297  0.736675  1
  Ti  Ti6  1  0.001404  0.500703  0.263325  1
  Ti  Ti7  1  0.000000  0.000000  0.737245  1
  Ti  Ti8  1  0.000000  0.000000  0.262755  1
  Se  Se9  1  0.832294  0.664588  0.165808  1
  Se  Se10  1  0.833718  0.667437  0.640950  1
  Se  Se11  1  0.832294  0.167706  0.165808  1
  Se  Se12  1  0.833718  0.166282  0.640950  1
  Se  Se13  1  0.333333  0.666667  0.165744  1
  Se  Se14  1  0.333333  0.666667  0.641488  1
  Se  Se15  1  0.335412  0.167706  0.165808  1
  Se  Se16  1  0.332563  0.166282  0.640950  1
  Se  Se17  1  0.664588  0.832294  0.834192  1
  Se  Se18  1  0.667437  0.833718  0.359050  1
  Se  Se19  1  0.666667  0.333333  0.834256  1
  Se  Se20  1  0.666667  0.333333  0.358512  1
  Se  Se21  1  0.167706  0.832294  0.834192  1
  Se  Se22  1  0.166282  0.833718  0.359050  1
  Se  Se23  1  0.167706  0.335412  0.834192  1
  Se  Se24  1  0.166282  0.332563  0.359050  1
