# generated using pymatgen
data_Sc3UPt12
_symmetry_space_group_name_H-M   'P 1'
_cell_length_a   5.72481700
_cell_length_b   5.72481729
_cell_length_c   9.36774400
_cell_angle_alpha   90.00000000
_cell_angle_beta   90.00000000
_cell_angle_gamma   120.00000410
_symmetry_Int_Tables_number   1
_chemical_formula_structural   Sc3UPt12
_chemical_formula_sum   'Sc3 U1 Pt12'
_cell_volume   265.88195700
_cell_formula_units_Z   1
loop_
 _symmetry_equiv_pos_site_id
 _symmetry_equiv_pos_as_xyz
  1  'x, y, z'
loop_
 _atom_site_type_symbol
 _atom_site_label
 _atom_site_symmetry_multiplicity
 _atom_site_fract_x
 _atom_site_fract_y
 _atom_site_fract_z
 _atom_site_occupancy
  Sc  Sc0  1  0.000000  0.000000  0.500000  1
  Sc  Sc1  1  0.333333  0.666667  0.744167  1
  Sc  Sc2  1  0.666667  0.333333  0.255833  1
  U  U3  1  0.000000  0.000000  0.000000  1
  Pt  Pt4  1  0.500000  0.500000  0.500000  1
  Pt  Pt5  1  0.500000  0.000000  0.500000  1
  Pt  Pt6  1  0.000000  0.500000  0.500000  1
  Pt  Pt7  1  0.500000  0.500000  0.000000  1
  Pt  Pt8  1  0.500000  0.000000  0.000000  1
  Pt  Pt9  1  0.000000  0.500000  0.000000  1
  Pt  Pt10  1  0.168857  0.831143  0.249170  1
  Pt  Pt11  1  0.168857  0.337714  0.249170  1
  Pt  Pt12  1  0.662286  0.831143  0.249170  1
  Pt  Pt13  1  0.831143  0.168857  0.750830  1
  Pt  Pt14  1  0.831143  0.662286  0.750830  1
  Pt  Pt15  1  0.337714  0.168857  0.750830  1
