# generated using pymatgen
data_Tb6MgZn22Si
_symmetry_space_group_name_H-M   'P 1'
_cell_length_a   9.13625764
_cell_length_b   9.13496044
_cell_length_c   9.13512608
_cell_angle_alpha   60.00811147
_cell_angle_beta   59.99494227
_cell_angle_gamma   59.99657260
_symmetry_Int_Tables_number   1
_chemical_formula_structural   Tb6MgZn22Si
_chemical_formula_sum   'Tb6 Mg1 Zn22 Si1'
_cell_volume   539.10494653
_cell_formula_units_Z   1
loop_
 _symmetry_equiv_pos_site_id
 _symmetry_equiv_pos_as_xyz
  1  'x, y, z'
loop_
 _atom_site_type_symbol
 _atom_site_label
 _atom_site_symmetry_multiplicity
 _atom_site_fract_x
 _atom_site_fract_y
 _atom_site_fract_z
 _atom_site_occupancy
  Tb  Tb0  1  0.717039  0.282961  0.282961  1
  Tb  Tb1  1  0.282961  0.717039  0.717039  1
  Tb  Tb2  1  0.282921  0.717069  0.282932  1
  Tb  Tb3  1  0.717079  0.282931  0.717068  1
  Tb  Tb4  1  0.282974  0.282972  0.717028  1
  Tb  Tb5  1  0.717026  0.717028  0.282972  1
  Mg  Mg6  1  0.000000  0.000000  0.000000  1
  Zn  Zn7  1  0.129800  0.129753  0.129745  1
  Zn  Zn8  1  0.870200  0.870247  0.870255  1
  Zn  Zn9  1  0.129744  0.129796  0.610708  1
  Zn  Zn10  1  0.129752  0.610708  0.129797  1
  Zn  Zn11  1  0.870256  0.870204  0.389292  1
  Zn  Zn12  1  0.870248  0.389292  0.870203  1
  Zn  Zn13  1  0.610704  0.129744  0.129752  1
  Zn  Zn14  1  0.389296  0.870256  0.870248  1
  Zn  Zn15  1  0.500000  0.000000  0.000000  1
  Zn  Zn16  1  0.000000  0.500000  0.500000  1
  Zn  Zn17  1  0.000000  0.500000  0.000000  1
  Zn  Zn18  1  0.500000  0.000000  0.500000  1
  Zn  Zn19  1  0.000000  0.000000  0.500000  1
  Zn  Zn20  1  0.500000  0.500000  0.000000  1
  Zn  Zn21  1  0.332064  0.332048  0.332184  1
  Zn  Zn22  1  0.667936  0.667952  0.667816  1
  Zn  Zn23  1  0.332082  0.332063  0.003697  1
  Zn  Zn24  1  0.332159  0.003697  0.332063  1
  Zn  Zn25  1  0.667918  0.667937  0.996303  1
  Zn  Zn26  1  0.667841  0.996303  0.667937  1
  Zn  Zn27  1  0.003705  0.332184  0.332048  1
  Zn  Zn28  1  0.996295  0.667816  0.667952  1
  Si  Si29  1  0.500000  0.500000  0.500000  1
