# generated using pymatgen
data_Tb13Lu3InAg3Rh4
_symmetry_space_group_name_H-M   'P 1'
_cell_length_a   9.53206525
_cell_length_b   9.57458342
_cell_length_c   9.57022459
_cell_angle_alpha   60.30570810
_cell_angle_beta   60.06109824
_cell_angle_gamma   59.96150054
_symmetry_Int_Tables_number   1
_chemical_formula_structural   Tb13Lu3InAg3Rh4
_chemical_formula_sum   'Tb13 Lu3 In1 Ag3 Rh4'
_cell_volume   619.12911186
_cell_formula_units_Z   1
loop_
 _symmetry_equiv_pos_site_id
 _symmetry_equiv_pos_as_xyz
  1  'x, y, z'
loop_
 _atom_site_type_symbol
 _atom_site_label
 _atom_site_symmetry_multiplicity
 _atom_site_fract_x
 _atom_site_fract_y
 _atom_site_fract_z
 _atom_site_occupancy
  Tb  Tb0  1  0.647060  0.055987  0.649475  1
  Tb  Tb1  1  0.065856  0.062136  0.437545  1
  Tb  Tb2  1  0.440697  0.434981  0.060426  1
  Tb  Tb3  1  0.649780  0.647075  0.648200  1
  Tb  Tb4  1  0.811477  0.188943  0.188175  1
  Tb  Tb5  1  0.185802  0.815003  0.813264  1
  Tb  Tb6  1  0.055202  0.646319  0.648562  1
  Tb  Tb7  1  0.440082  0.062582  0.061175  1
  Tb  Tb8  1  0.440175  0.060388  0.436779  1
  Tb  Tb9  1  0.067520  0.436013  0.060994  1
  Tb  Tb10  1  0.649416  0.648853  0.053570  1
  Tb  Tb11  1  0.186997  0.814433  0.188531  1
  Tb  Tb12  1  0.068743  0.434316  0.435932  1
  Lu  Lu13  1  0.812307  0.810217  0.188811  1
  Lu  Lu14  1  0.813277  0.188453  0.810580  1
  Lu  Lu15  1  0.186537  0.188461  0.813514  1
  In  In16  1  0.736996  0.421387  0.420353  1
  Ag  Ag17  1  0.416054  0.418038  0.418377  1
  Ag  Ag18  1  0.415856  0.417036  0.748180  1
  Ag  Ag19  1  0.416202  0.747877  0.417360  1
  Rh  Rh20  1  0.858226  0.424506  0.855436  1
  Rh  Rh21  1  0.855085  0.860781  0.860758  1
  Rh  Rh22  1  0.853921  0.855816  0.427349  1
  Rh  Rh23  1  0.426733  0.860398  0.856653  1
