# generated using pymatgen
data_BaSrH6Pd
_symmetry_space_group_name_H-M   'P 1'
_cell_length_a   7.56172400
_cell_length_b   7.56172343
_cell_length_c   5.63213300
_cell_angle_alpha   90.00000000
_cell_angle_beta   90.00000000
_cell_angle_gamma   136.15608366
_symmetry_Int_Tables_number   1
_chemical_formula_structural   BaSrH6Pd
_chemical_formula_sum   'Ba2 Sr2 H12 Pd2'
_cell_volume   223.07829204
_cell_formula_units_Z   2
loop_
 _symmetry_equiv_pos_site_id
 _symmetry_equiv_pos_as_xyz
  1  'x, y, z'
loop_
 _atom_site_type_symbol
 _atom_site_label
 _atom_site_symmetry_multiplicity
 _atom_site_fract_x
 _atom_site_fract_y
 _atom_site_fract_z
 _atom_site_occupancy
  Ba  Ba0  1  0.147580  0.852420  0.500000  1
  Ba  Ba1  1  0.647580  0.352420  0.000000  1
  Sr  Sr2  1  0.857873  0.142127  0.500000  1
  Sr  Sr3  1  0.357873  0.642127  0.000000  1
  H  H4  1  0.010166  0.488810  0.750735  1
  H  H5  1  0.511190  0.989834  0.249265  1
  H  H6  1  0.011190  0.489834  0.250735  1
  H  H7  1  0.510166  0.988810  0.749265  1
  H  H8  1  0.377363  0.622637  0.500000  1
  H  H9  1  0.877363  0.122637  0.000000  1
  H  H10  1  0.616509  0.383491  0.500000  1
  H  H11  1  0.116509  0.883491  0.000000  1
  H  H12  1  0.277690  0.293505  0.713929  1
  H  H13  1  0.706495  0.722310  0.286071  1
  H  H14  1  0.206495  0.222310  0.213929  1
  H  H15  1  0.777690  0.793505  0.786071  1
  Pd  Pd16  1  0.495137  0.504863  0.500000  1
  Pd  Pd17  1  0.995137  0.004863  0.000000  1
