# generated using pymatgen
data_Nd4Ho12Cd4Ir3Pt
_symmetry_space_group_name_H-M   'P 1'
_cell_length_a   9.68506129
_cell_length_b   9.67307612
_cell_length_c   9.67307461
_cell_angle_alpha   60.15079220
_cell_angle_beta   60.04999252
_cell_angle_gamma   60.05000339
_symmetry_Int_Tables_number   1
_chemical_formula_structural   Nd4Ho12Cd4Ir3Pt
_chemical_formula_sum   'Nd4 Ho12 Cd4 Ir3 Pt1'
_cell_volume   642.00371731
_cell_formula_units_Z   1
loop_
 _symmetry_equiv_pos_site_id
 _symmetry_equiv_pos_as_xyz
  1  'x, y, z'
loop_
 _atom_site_type_symbol
 _atom_site_label
 _atom_site_symmetry_multiplicity
 _atom_site_fract_x
 _atom_site_fract_y
 _atom_site_fract_z
 _atom_site_occupancy
  Nd  Nd0  1  0.563253  0.937461  0.563436  1
  Nd  Nd1  1  0.937765  0.563622  0.936771  1
  Nd  Nd2  1  0.563253  0.563436  0.937461  1
  Nd  Nd3  1  0.937765  0.936771  0.563622  1
  Ho  Ho4  1  0.349362  0.346325  0.346325  1
  Ho  Ho5  1  0.350161  0.352971  0.952691  1
  Ho  Ho6  1  0.350161  0.952691  0.352971  1
  Ho  Ho7  1  0.950205  0.350528  0.350528  1
  Ho  Ho8  1  0.807840  0.188096  0.188096  1
  Ho  Ho9  1  0.185485  0.813017  0.813017  1
  Ho  Ho10  1  0.190091  0.807242  0.189379  1
  Ho  Ho11  1  0.811666  0.186310  0.811104  1
  Ho  Ho12  1  0.190091  0.189379  0.807242  1
  Ho  Ho13  1  0.811666  0.811104  0.186310  1
  Ho  Ho14  1  0.945074  0.555561  0.555561  1
  Ho  Ho15  1  0.557181  0.944321  0.944321  1
  Cd  Cd16  1  0.583178  0.578427  0.578427  1
  Cd  Cd17  1  0.578672  0.582932  0.259072  1
  Cd  Cd18  1  0.578672  0.259072  0.582932  1
  Cd  Cd19  1  0.259185  0.578948  0.578948  1
  Ir  Ir20  1  0.139678  0.145851  0.574647  1
  Ir  Ir21  1  0.139678  0.574647  0.145851  1
  Ir  Ir22  1  0.574730  0.140235  0.140235  1
  Pt  Pt23  1  0.145187  0.141051  0.141051  1
