# generated using pymatgen
data_Dy8Os3WC8
_symmetry_space_group_name_H-M   'P 1'
_cell_length_a   5.12396700
_cell_length_b   6.54646305
_cell_length_c   9.83372293
_cell_angle_alpha   89.63813615
_cell_angle_beta   90.00000000
_cell_angle_gamma   90.00000000
_symmetry_Int_Tables_number   1
_chemical_formula_structural   Dy8Os3WC8
_chemical_formula_sum   'Dy8 Os3 W1 C8'
_cell_volume   329.85445261
_cell_formula_units_Z   1
loop_
 _symmetry_equiv_pos_site_id
 _symmetry_equiv_pos_as_xyz
  1  'x, y, z'
loop_
 _atom_site_type_symbol
 _atom_site_label
 _atom_site_symmetry_multiplicity
 _atom_site_fract_x
 _atom_site_fract_y
 _atom_site_fract_z
 _atom_site_occupancy
  Dy  Dy0  1  0.250000  0.680791  0.553264  1
  Dy  Dy1  1  0.750000  0.320354  0.445201  1
  Dy  Dy2  1  0.750000  0.821669  0.054902  1
  Dy  Dy3  1  0.250000  0.182923  0.945131  1
  Dy  Dy4  1  0.250000  0.529908  0.213674  1
  Dy  Dy5  1  0.750000  0.468343  0.780609  1
  Dy  Dy6  1  0.750000  0.971532  0.716599  1
  Dy  Dy7  1  0.250000  0.028204  0.284901  1
  Os  Os8  1  0.750000  0.277505  0.136235  1
  Os  Os9  1  0.750000  0.775910  0.363293  1
  Os  Os10  1  0.250000  0.225079  0.633497  1
  W  W11  1  0.250000  0.722450  0.866633  1
  C  C12  1  0.250000  0.454893  0.759103  1
  C  C13  1  0.750000  0.540805  0.242596  1
  C  C14  1  0.750000  0.041906  0.258788  1
  C  C15  1  0.250000  0.960261  0.739955  1
  C  C16  1  0.250000  0.823711  0.056088  1
  C  C17  1  0.750000  0.176109  0.951452  1
  C  C18  1  0.750000  0.674774  0.549694  1
  C  C19  1  0.250000  0.322872  0.448384  1
