# generated using pymatgen
data_NdNb8FeSe16
_symmetry_space_group_name_H-M   'P 1'
_cell_length_a   6.96551600
_cell_length_b   6.96551617
_cell_length_c   13.69245400
_cell_angle_alpha   90.00000000
_cell_angle_beta   90.00000000
_cell_angle_gamma   119.99999920
_symmetry_Int_Tables_number   1
_chemical_formula_structural   NdNb8FeSe16
_chemical_formula_sum   'Nd1 Nb8 Fe1 Se16'
_cell_volume   575.33199249
_cell_formula_units_Z   1
loop_
 _symmetry_equiv_pos_site_id
 _symmetry_equiv_pos_as_xyz
  1  'x, y, z'
loop_
 _atom_site_type_symbol
 _atom_site_label
 _atom_site_symmetry_multiplicity
 _atom_site_fract_x
 _atom_site_fract_y
 _atom_site_fract_z
 _atom_site_occupancy
  Nd  Nd0  1  0.000000  0.000000  0.500000  1
  Nb  Nb1  1  0.000000  0.000000  0.231012  1
  Nb  Nb2  1  0.000000  0.000000  0.768988  1
  Nb  Nb3  1  0.507251  0.014503  0.225766  1
  Nb  Nb4  1  0.985497  0.492749  0.225766  1
  Nb  Nb5  1  0.507251  0.492749  0.225766  1
  Nb  Nb6  1  0.492749  0.985497  0.774234  1
  Nb  Nb7  1  0.014503  0.507251  0.774234  1
  Nb  Nb8  1  0.492749  0.507251  0.774234  1
  Fe  Fe9  1  0.000000  0.000000  0.000000  1
  Se  Se10  1  0.333333  0.666667  0.899954  1
  Se  Se11  1  0.666667  0.333333  0.100046  1
  Se  Se12  1  0.666667  0.333333  0.354367  1
  Se  Se13  1  0.333333  0.666667  0.645633  1
  Se  Se14  1  0.171563  0.828437  0.349739  1
  Se  Se15  1  0.171563  0.343126  0.349739  1
  Se  Se16  1  0.656874  0.828437  0.349739  1
  Se  Se17  1  0.828437  0.171563  0.650261  1
  Se  Se18  1  0.828437  0.656874  0.650261  1
  Se  Se19  1  0.343126  0.171563  0.650261  1
  Se  Se20  1  0.835673  0.164327  0.894023  1
  Se  Se21  1  0.835673  0.671347  0.894023  1
  Se  Se22  1  0.328653  0.164327  0.894023  1
  Se  Se23  1  0.164327  0.835673  0.105977  1
  Se  Se24  1  0.164327  0.328653  0.105977  1
  Se  Se25  1  0.671347  0.835673  0.105977  1
