# generated using pymatgen
data_La3Yb5SiPd24
_symmetry_space_group_name_H-M   'P 1'
_cell_length_a   8.36973346
_cell_length_b   8.36973346
_cell_length_c   8.38847522
_cell_angle_alpha   90.07096031
_cell_angle_beta   89.92903969
_cell_angle_gamma   89.83333182
_symmetry_Int_Tables_number   1
_chemical_formula_structural   La3Yb5SiPd24
_chemical_formula_sum   'La3 Yb5 Si1 Pd24'
_cell_volume   587.62975211
_cell_formula_units_Z   1
loop_
 _symmetry_equiv_pos_site_id
 _symmetry_equiv_pos_as_xyz
  1  'x, y, z'
loop_
 _atom_site_type_symbol
 _atom_site_label
 _atom_site_symmetry_multiplicity
 _atom_site_fract_x
 _atom_site_fract_y
 _atom_site_fract_z
 _atom_site_occupancy
  La  La0  1  0.253392  0.746608  0.254214  1
  La  La1  1  0.254265  0.745735  0.745409  1
  La  La2  1  0.746047  0.253953  0.255188  1
  Yb  Yb3  1  0.252185  0.251794  0.251796  1
  Yb  Yb4  1  0.748093  0.748080  0.748436  1
  Yb  Yb5  1  0.748206  0.747815  0.251796  1
  Yb  Yb6  1  0.747884  0.252116  0.747189  1
  Yb  Yb7  1  0.251920  0.251907  0.748436  1
  Si  Si8  1  0.999286  0.000714  0.999211  1
  Pd  Pd9  1  0.257407  0.494791  0.999879  1
  Pd  Pd10  1  0.742259  0.501473  0.996782  1
  Pd  Pd11  1  0.003895  0.257791  0.502228  1
  Pd  Pd12  1  0.498527  0.257741  0.996782  1
  Pd  Pd13  1  0.992536  0.742880  0.500817  1
  Pd  Pd14  1  0.505209  0.742593  0.999879  1
  Pd  Pd15  1  0.500532  0.999990  0.257349  1
  Pd  Pd16  1  0.257120  0.007464  0.500817  1
  Pd  Pd17  1  0.502210  0.003168  0.742143  1
  Pd  Pd18  1  0.742209  0.996105  0.502228  1
  Pd  Pd19  1  0.000010  0.499468  0.257349  1
  Pd  Pd20  1  0.996832  0.497790  0.742143  1
  Pd  Pd21  1  0.251894  0.492226  0.500280  1
  Pd  Pd22  1  0.748166  0.503859  0.503396  1
  Pd  Pd23  1  0.496141  0.251834  0.503396  1
  Pd  Pd24  1  0.507774  0.748106  0.500280  1
  Pd  Pd25  1  0.500054  0.499946  0.252252  1
  Pd  Pd26  1  0.503252  0.496748  0.747751  1
  Pd  Pd27  1  0.282030  0.007643  0.999662  1
  Pd  Pd28  1  0.718634  0.996533  0.996235  1
  Pd  Pd29  1  0.003467  0.281366  0.996235  1
  Pd  Pd30  1  0.992357  0.717970  0.999662  1
  Pd  Pd31  1  0.999858  0.000142  0.282064  1
  Pd  Pd32  1  0.996346  0.003654  0.718714  1
