# generated using pymatgen
data_Ca2NiRhI
_symmetry_space_group_name_H-M   'P 1'
_cell_length_a   4.17192300
_cell_length_b   4.17192336
_cell_length_c   16.79606500
_cell_angle_alpha   90.00000000
_cell_angle_beta   90.00000000
_cell_angle_gamma   119.99998925
_symmetry_Int_Tables_number   1
_chemical_formula_structural   Ca2NiRhI
_chemical_formula_sum   'Ca4 Ni2 Rh2 I2'
_cell_volume   253.16917757
_cell_formula_units_Z   2
loop_
 _symmetry_equiv_pos_site_id
 _symmetry_equiv_pos_as_xyz
  1  'x, y, z'
loop_
 _atom_site_type_symbol
 _atom_site_label
 _atom_site_symmetry_multiplicity
 _atom_site_fract_x
 _atom_site_fract_y
 _atom_site_fract_z
 _atom_site_occupancy
  Ca  Ca0  1  0.000000  0.000000  0.607973  1
  Ca  Ca1  1  0.000000  0.000000  0.392118  1
  Ca  Ca2  1  0.000000  0.000000  0.107973  1
  Ca  Ca3  1  0.000000  0.000000  0.892118  1
  Ni  Ni4  1  0.666667  0.333333  0.999132  1
  Ni  Ni5  1  0.333333  0.666667  0.499132  1
  Rh  Rh6  1  0.666667  0.333333  0.500736  1
  Rh  Rh7  1  0.333333  0.666667  0.000736  1
  I  I8  1  0.666667  0.333333  0.250042  1
  I  I9  1  0.333333  0.666667  0.750042  1
