# generated using pymatgen
data_Rb8Ho3Tm3BeBr20
_symmetry_space_group_name_H-M   'P 1'
_cell_length_a   12.28489515
_cell_length_b   12.29057512
_cell_length_c   12.29601238
_cell_angle_alpha   59.95896980
_cell_angle_beta   60.00496448
_cell_angle_gamma   60.04955944
_symmetry_Int_Tables_number   1
_chemical_formula_structural   Rb8Ho3Tm3BeBr20
_chemical_formula_sum   'Rb8 Ho3 Tm3 Be1 Br20'
_cell_volume   1312.91525996
_cell_formula_units_Z   1
loop_
 _symmetry_equiv_pos_site_id
 _symmetry_equiv_pos_as_xyz
  1  'x, y, z'
loop_
 _atom_site_type_symbol
 _atom_site_label
 _atom_site_symmetry_multiplicity
 _atom_site_fract_x
 _atom_site_fract_y
 _atom_site_fract_z
 _atom_site_occupancy
  Rb  Rb0  1  0.358985  0.359056  0.359041  1
  Rb  Rb1  1  0.641000  0.640987  0.640966  1
  Rb  Rb2  1  0.358989  0.359004  0.922987  1
  Rb  Rb3  1  0.359018  0.922945  0.359002  1
  Rb  Rb4  1  0.640972  0.641005  0.077043  1
  Rb  Rb5  1  0.640988  0.077009  0.641003  1
  Rb  Rb6  1  0.922986  0.359022  0.358994  1
  Rb  Rb7  1  0.077050  0.640972  0.640964  1
  Ho  Ho8  1  0.845850  0.154159  0.153902  1
  Ho  Ho9  1  0.153891  0.846099  0.845842  1
  Ho  Ho10  1  0.153845  0.846167  0.153844  1
  Tm  Tm11  1  0.846225  0.153764  0.846227  1
  Tm  Tm12  1  0.153473  0.153699  0.846310  1
  Tm  Tm13  1  0.846300  0.846527  0.153465  1
  Be  Be14  1  0.999762  0.000239  0.999762  1
  Br  Br15  1  0.329390  0.001018  0.998992  1
  Br  Br16  1  0.671447  0.000002  0.999982  1
  Br  Br17  1  0.999992  0.328538  0.671455  1
  Br  Br18  1  0.998991  0.670624  0.329377  1
  Br  Br19  1  0.000982  0.329387  0.998969  1
  Br  Br20  1  0.670633  0.999027  0.329306  1
  Br  Br21  1  0.998956  0.670676  0.000972  1
  Br  Br22  1  0.329305  0.001038  0.670631  1
  Br  Br23  1  0.999996  0.000014  0.330111  1
  Br  Br24  1  0.998985  0.001007  0.670674  1
  Br  Br25  1  0.670695  0.329305  0.998986  1
  Br  Br26  1  0.330095  0.669905  0.999993  1
  Br  Br27  1  0.680766  0.319248  0.319237  1
  Br  Br28  1  0.319214  0.680769  0.680751  1
  Br  Br29  1  0.319250  0.680764  0.319252  1
  Br  Br30  1  0.681983  0.317999  0.681989  1
  Br  Br31  1  0.318008  0.318041  0.681971  1
  Br  Br32  1  0.681964  0.681994  0.317992  1
  Br  Br33  1  0.249995  0.249998  0.250001  1
  Br  Br34  1  0.750019  0.749993  0.750009  1
