# generated using pymatgen
data_Tm4Al18Ir5Au
_symmetry_space_group_name_H-M   'P 1'
_cell_length_a   7.57314952
_cell_length_b   7.57314810
_cell_length_c   9.42962417
_cell_angle_alpha   90.01074784
_cell_angle_beta   90.01074301
_cell_angle_gamma   119.59283829
_symmetry_Int_Tables_number   1
_chemical_formula_structural   Tm4Al18Ir5Au
_chemical_formula_sum   'Tm4 Al18 Ir5 Au1'
_cell_volume   470.26777758
_cell_formula_units_Z   1
loop_
 _symmetry_equiv_pos_site_id
 _symmetry_equiv_pos_as_xyz
  1  'x, y, z'
loop_
 _atom_site_type_symbol
 _atom_site_label
 _atom_site_symmetry_multiplicity
 _atom_site_fract_x
 _atom_site_fract_y
 _atom_site_fract_z
 _atom_site_occupancy
  Tm  Tm0  1  0.995821  0.672997  0.251469  1
  Tm  Tm1  1  0.004179  0.327003  0.748531  1
  Tm  Tm2  1  0.672997  0.995821  0.251469  1
  Tm  Tm3  1  0.327003  0.004179  0.748531  1
  Al  Al4  1  0.134252  0.134252  0.255608  1
  Al  Al5  1  0.865748  0.865748  0.744392  1
  Al  Al6  1  0.000887  0.343638  0.079620  1
  Al  Al7  1  0.999113  0.656362  0.920380  1
  Al  Al8  1  0.000402  0.664623  0.574629  1
  Al  Al9  1  0.335377  0.999598  0.425371  1
  Al  Al10  1  0.999598  0.335377  0.425371  1
  Al  Al11  1  0.664623  0.000402  0.574629  1
  Al  Al12  1  0.656362  0.999113  0.920380  1
  Al  Al13  1  0.343638  0.000887  0.079620  1
  Al  Al14  1  0.332896  0.332896  0.553989  1
  Al  Al15  1  0.667104  0.667104  0.446011  1
  Al  Al16  1  0.658750  0.658750  0.060320  1
  Al  Al17  1  0.341250  0.341250  0.939680  1
  Al  Al18  1  0.339015  0.550434  0.251106  1
  Al  Al19  1  0.660985  0.449566  0.748894  1
  Al  Al20  1  0.550434  0.339015  0.251106  1
  Al  Al21  1  0.449566  0.660985  0.748894  1
  Ir  Ir22  1  0.672074  0.327926  0.000000  1
  Ir  Ir23  1  0.327926  0.672074  0.000000  1
  Ir  Ir24  1  0.327909  0.672091  0.500000  1
  Ir  Ir25  1  0.672091  0.327909  0.500000  1
  Ir  Ir26  1  0.000000  0.000000  0.500000  1
  Au  Au27  1  0.000000  0.000000  0.000000  1
