# generated using pymatgen
data_Nd5TmAl16(SiOs)8
_symmetry_space_group_name_H-M   'P 1'
_cell_length_a   8.77363611
_cell_length_b   8.77363697
_cell_length_c   9.52948800
_cell_angle_alpha   90.00000000
_cell_angle_beta   90.00000000
_cell_angle_gamma   120.20833886
_symmetry_Int_Tables_number   1
_chemical_formula_structural   Nd5TmAl16(SiOs)8
_chemical_formula_sum   'Nd5 Tm1 Al16 Si8 Os8'
_cell_volume   633.93379303
_cell_formula_units_Z   1
loop_
 _symmetry_equiv_pos_site_id
 _symmetry_equiv_pos_as_xyz
  1  'x, y, z'
loop_
 _atom_site_type_symbol
 _atom_site_label
 _atom_site_symmetry_multiplicity
 _atom_site_fract_x
 _atom_site_fract_y
 _atom_site_fract_z
 _atom_site_occupancy
  Nd  Nd0  1  0.189925  0.382356  0.250000  1
  Nd  Nd1  1  0.810009  0.617271  0.750000  1
  Nd  Nd2  1  0.617644  0.810075  0.250000  1
  Nd  Nd3  1  0.382729  0.189991  0.750000  1
  Nd  Nd4  1  0.193043  0.806957  0.250000  1
  Tm  Tm5  1  0.802614  0.197386  0.750000  1
  Al  Al6  1  0.163984  0.328915  0.578420  1
  Al  Al7  1  0.834094  0.669604  0.424038  1
  Al  Al8  1  0.671085  0.836016  0.578420  1
  Al  Al9  1  0.834094  0.669604  0.075962  1
  Al  Al10  1  0.330396  0.165906  0.424038  1
  Al  Al11  1  0.163984  0.328915  0.921580  1
  Al  Al12  1  0.165093  0.834907  0.577197  1
  Al  Al13  1  0.330396  0.165906  0.075962  1
  Al  Al14  1  0.835409  0.164591  0.427206  1
  Al  Al15  1  0.671085  0.836016  0.921580  1
  Al  Al16  1  0.835409  0.164591  0.072794  1
  Al  Al17  1  0.165093  0.834907  0.922803  1
  Al  Al18  1  0.566048  0.433952  0.250000  1
  Al  Al19  1  0.433299  0.566701  0.750000  1
  Al  Al20  1  0.001002  0.998998  0.250000  1
  Al  Al21  1  0.995174  0.004826  0.750000  1
  Si  Si22  1  0.335583  0.664417  0.034562  1
  Si  Si23  1  0.665971  0.334029  0.961845  1
  Si  Si24  1  0.665971  0.334029  0.538155  1
  Si  Si25  1  0.335583  0.664417  0.465438  1
  Si  Si26  1  0.567506  0.126937  0.250000  1
  Si  Si27  1  0.438194  0.876051  0.750000  1
  Si  Si28  1  0.873063  0.432494  0.250000  1
  Si  Si29  1  0.123949  0.561806  0.750000  1
  Os  Os30  1  0.502065  0.001135  0.998090  1
  Os  Os31  1  0.998865  0.497935  0.998090  1
  Os  Os32  1  0.502065  0.001135  0.501910  1
  Os  Os33  1  0.500263  0.499737  0.999405  1
  Os  Os34  1  0.998865  0.497935  0.501910  1
  Os  Os35  1  0.500263  0.499737  0.500595  1
  Os  Os36  1  0.000093  0.999907  0.999734  1
  Os  Os37  1  0.000093  0.999907  0.500266  1
