# generated using pymatgen
data_Na3Ca(InAu)4
_symmetry_space_group_name_H-M   'P 1'
_cell_length_a   4.44616900
_cell_length_b   7.56611866
_cell_length_c   8.68884828
_cell_angle_alpha   89.56181725
_cell_angle_beta   90.00000000
_cell_angle_gamma   90.00000000
_symmetry_Int_Tables_number   1
_chemical_formula_structural   Na3Ca(InAu)4
_chemical_formula_sum   'Na3 Ca1 In4 Au4'
_cell_volume   292.28641313
_cell_formula_units_Z   1
loop_
 _symmetry_equiv_pos_site_id
 _symmetry_equiv_pos_as_xyz
  1  'x, y, z'
loop_
 _atom_site_type_symbol
 _atom_site_label
 _atom_site_symmetry_multiplicity
 _atom_site_fract_x
 _atom_site_fract_y
 _atom_site_fract_z
 _atom_site_occupancy
  Na  Na0  1  0.750000  0.977603  0.676786  1
  Na  Na1  1  0.250000  0.021153  0.324451  1
  Na  Na2  1  0.750000  0.477298  0.818698  1
  Ca  Ca3  1  0.250000  0.525204  0.176726  1
  In  In4  1  0.750000  0.336823  0.435511  1
  In  In5  1  0.250000  0.154859  0.930733  1
  In  In6  1  0.250000  0.659337  0.571217  1
  In  In7  1  0.750000  0.853125  0.067251  1
  Au  Au8  1  0.250000  0.772780  0.877721  1
  Au  Au9  1  0.250000  0.277001  0.624753  1
  Au  Au10  1  0.750000  0.714430  0.371310  1
  Au  Au11  1  0.750000  0.230387  0.124843  1
