# generated using pymatgen
data_NaAl2Cl5O
_symmetry_space_group_name_H-M   'P 1'
_cell_length_a   11.54957100
_cell_length_b   12.59312300
_cell_length_c   13.32565900
_cell_angle_alpha   90.00000000
_cell_angle_beta   90.00000000
_cell_angle_gamma   90.00000000
_symmetry_Int_Tables_number   1
_chemical_formula_structural   NaAl2Cl5O
_chemical_formula_sum   'Na8 Al16 Cl40 O8'
_cell_volume   1938.15271463
_cell_formula_units_Z   8
loop_
 _symmetry_equiv_pos_site_id
 _symmetry_equiv_pos_as_xyz
  1  'x, y, z'
loop_
 _atom_site_type_symbol
 _atom_site_label
 _atom_site_symmetry_multiplicity
 _atom_site_fract_x
 _atom_site_fract_y
 _atom_site_fract_z
 _atom_site_occupancy
  Na  Na0  1  0.019301  0.345533  0.690279  1
  Na  Na1  1  0.980699  0.654467  0.309721  1
  Na  Na2  1  0.519301  0.345533  0.809721  1
  Na  Na3  1  0.519301  0.154467  0.309721  1
  Na  Na4  1  0.480699  0.654467  0.190279  1
  Na  Na5  1  0.980699  0.845533  0.809721  1
  Na  Na6  1  0.019301  0.154467  0.190279  1
  Na  Na7  1  0.480699  0.845533  0.690279  1
  Al  Al8  1  0.794576  0.542115  0.865513  1
  Al  Al9  1  0.515466  0.895497  0.998165  1
  Al  Al10  1  0.015466  0.604503  0.001835  1
  Al  Al11  1  0.705424  0.042115  0.865513  1
  Al  Al12  1  0.984534  0.395497  0.998165  1
  Al  Al13  1  0.205424  0.457885  0.134487  1
  Al  Al14  1  0.515466  0.604503  0.498165  1
  Al  Al15  1  0.984534  0.104503  0.498165  1
  Al  Al16  1  0.484534  0.395497  0.501835  1
  Al  Al17  1  0.294576  0.542115  0.634487  1
  Al  Al18  1  0.205424  0.042115  0.634487  1
  Al  Al19  1  0.705424  0.457885  0.365513  1
  Al  Al20  1  0.015466  0.895497  0.501835  1
  Al  Al21  1  0.294576  0.957885  0.134487  1
  Al  Al22  1  0.484534  0.104503  0.001835  1
  Al  Al23  1  0.794576  0.957885  0.365513  1
  Cl  Cl24  1  0.211170  0.287387  0.143754  1
  Cl  Cl25  1  0.635136  0.013038  0.430083  1
  Cl  Cl26  1  0.617083  0.687160  0.606110  1
  Cl  Cl27  1  0.288830  0.712613  0.643754  1
  Cl  Cl28  1  0.117083  0.687160  0.893890  1
  Cl  Cl29  1  0.135136  0.013038  0.069917  1
  Cl  Cl30  1  0.882917  0.187160  0.606110  1
  Cl  Cl31  1  0.711170  0.287387  0.356246  1
  Cl  Cl32  1  0.711170  0.212613  0.856246  1
  Cl  Cl33  1  0.788830  0.787387  0.356246  1
  Cl  Cl34  1  0.677416  0.971362  0.720573  1
  Cl  Cl35  1  0.288830  0.787387  0.143754  1
  Cl  Cl36  1  0.117083  0.812840  0.393890  1
  Cl  Cl37  1  0.443839  0.792172  0.888012  1
  Cl  Cl38  1  0.882917  0.312840  0.106110  1
  Cl  Cl39  1  0.364864  0.986962  0.569917  1
  Cl  Cl40  1  0.364864  0.513038  0.069917  1
  Cl  Cl41  1  0.822584  0.471362  0.720573  1
  Cl  Cl42  1  0.788830  0.712613  0.856246  1
  Cl  Cl43  1  0.056161  0.292172  0.888012  1
  Cl  Cl44  1  0.556161  0.207828  0.111988  1
  Cl  Cl45  1  0.943839  0.792172  0.611988  1
  Cl  Cl46  1  0.211170  0.212613  0.643754  1
  Cl  Cl47  1  0.617083  0.812840  0.106110  1
  Cl  Cl48  1  0.443839  0.707828  0.388012  1
  Cl  Cl49  1  0.943839  0.707828  0.111988  1
  Cl  Cl50  1  0.135136  0.486962  0.569917  1
  Cl  Cl51  1  0.322584  0.471362  0.779427  1
  Cl  Cl52  1  0.177416  0.528638  0.279427  1
  Cl  Cl53  1  0.382917  0.312840  0.393890  1
  Cl  Cl54  1  0.556161  0.292172  0.611988  1
  Cl  Cl55  1  0.382917  0.187160  0.893890  1
  Cl  Cl56  1  0.864864  0.986962  0.930083  1
  Cl  Cl57  1  0.322584  0.028638  0.279427  1
  Cl  Cl58  1  0.056161  0.207828  0.388012  1
  Cl  Cl59  1  0.177416  0.971362  0.779427  1
  Cl  Cl60  1  0.635136  0.486962  0.930083  1
  Cl  Cl61  1  0.822584  0.028638  0.220573  1
  Cl  Cl62  1  0.864864  0.513038  0.430083  1
  Cl  Cl63  1  0.677416  0.528638  0.220573  1
  O  O64  1  0.413176  0.988434  0.053929  1
  O  O65  1  0.913176  0.988434  0.446071  1
  O  O66  1  0.913176  0.511566  0.946071  1
  O  O67  1  0.086824  0.488434  0.053929  1
  O  O68  1  0.586824  0.011566  0.946071  1
  O  O69  1  0.413176  0.511566  0.553929  1
  O  O70  1  0.086824  0.011566  0.553929  1
  O  O71  1  0.586824  0.488434  0.446071  1
