# generated using pymatgen
data_PrHo2Th3Si4
_symmetry_space_group_name_H-M   'P 1'
_cell_length_a   7.65515060
_cell_length_b   7.65515042
_cell_length_c   4.28752700
_cell_angle_alpha   90.00000000
_cell_angle_beta   90.00000000
_cell_angle_gamma   90.35248380
_symmetry_Int_Tables_number   1
_chemical_formula_structural   PrHo2Th3Si4
_chemical_formula_sum   'Pr1 Ho2 Th3 Si4'
_cell_volume   251.25002719
_cell_formula_units_Z   1
loop_
 _symmetry_equiv_pos_site_id
 _symmetry_equiv_pos_as_xyz
  1  'x, y, z'
loop_
 _atom_site_type_symbol
 _atom_site_label
 _atom_site_symmetry_multiplicity
 _atom_site_fract_x
 _atom_site_fract_y
 _atom_site_fract_z
 _atom_site_occupancy
  Pr  Pr0  1  0.823185  0.676815  0.500000  1
  Ho  Ho1  1  0.999166  0.000756  0.000000  1
  Ho  Ho2  1  0.499244  0.500834  0.000000  1
  Th  Th3  1  0.677614  0.178807  0.500000  1
  Th  Th4  1  0.321193  0.822386  0.500000  1
  Th  Th5  1  0.178447  0.321553  0.500000  1
  Si  Si6  1  0.119973  0.614757  0.000000  1
  Si  Si7  1  0.885243  0.380027  0.000000  1
  Si  Si8  1  0.613636  0.886364  0.000000  1
  Si  Si9  1  0.382299  0.117701  0.000000  1
