# generated using pymatgen
data_Cs6YInCl12
_symmetry_space_group_name_H-M   'P 1'
_cell_length_a   9.43633300
_cell_length_b   9.41483203
_cell_length_c   7.82705200
_cell_angle_alpha   90.00000000
_cell_angle_beta   90.00000000
_cell_angle_gamma   90.18865075
_symmetry_Int_Tables_number   1
_chemical_formula_structural   Cs6YInCl12
_chemical_formula_sum   'Cs6 Y1 In1 Cl12'
_cell_volume   695.36319434
_cell_formula_units_Z   1
loop_
 _symmetry_equiv_pos_site_id
 _symmetry_equiv_pos_as_xyz
  1  'x, y, z'
loop_
 _atom_site_type_symbol
 _atom_site_label
 _atom_site_symmetry_multiplicity
 _atom_site_fract_x
 _atom_site_fract_y
 _atom_site_fract_z
 _atom_site_occupancy
  Cs  Cs0  1  0.000000  0.000000  0.500000  1
  Cs  Cs1  1  0.000000  0.000000  0.000000  1
  Cs  Cs2  1  0.236972  0.583585  0.500000  1
  Cs  Cs3  1  0.763028  0.416415  0.500000  1
  Cs  Cs4  1  0.417908  0.234490  0.000000  1
  Cs  Cs5  1  0.582092  0.765510  0.000000  1
  Y  Y6  1  0.000000  0.500000  0.000000  1
  In  In7  1  0.500000  0.000000  0.500000  1
  Cl  Cl8  1  0.685464  0.057152  0.732801  1
  Cl  Cl9  1  0.314536  0.942848  0.732801  1
  Cl  Cl10  1  0.942639  0.691697  0.240009  1
  Cl  Cl11  1  0.057361  0.308303  0.240009  1
  Cl  Cl12  1  0.314536  0.942848  0.267199  1
  Cl  Cl13  1  0.685464  0.057152  0.267199  1
  Cl  Cl14  1  0.057361  0.308303  0.759991  1
  Cl  Cl15  1  0.942639  0.691697  0.759991  1
  Cl  Cl16  1  0.570156  0.739525  0.500000  1
  Cl  Cl17  1  0.429844  0.260475  0.500000  1
  Cl  Cl18  1  0.270408  0.572169  0.000000  1
  Cl  Cl19  1  0.729592  0.427831  0.000000  1
