# generated using pymatgen
data_Y20Hg6PdRu
_symmetry_space_group_name_H-M   'P 1'
_cell_length_a   9.71800700
_cell_length_b   9.71800594
_cell_length_c   9.67263000
_cell_angle_alpha   90.00000000
_cell_angle_beta   90.00000000
_cell_angle_gamma   120.00000021
_symmetry_Int_Tables_number   1
_chemical_formula_structural   Y20Hg6PdRu
_chemical_formula_sum   'Y20 Hg6 Pd1 Ru1'
_cell_volume   791.09670173
_cell_formula_units_Z   1
loop_
 _symmetry_equiv_pos_site_id
 _symmetry_equiv_pos_as_xyz
  1  'x, y, z'
loop_
 _atom_site_type_symbol
 _atom_site_label
 _atom_site_symmetry_multiplicity
 _atom_site_fract_x
 _atom_site_fract_y
 _atom_site_fract_z
 _atom_site_occupancy
  Y  Y0  1  0.209058  0.790942  0.938636  1
  Y  Y1  1  0.209058  0.418118  0.938636  1
  Y  Y2  1  0.581882  0.790942  0.938636  1
  Y  Y3  1  0.793328  0.206672  0.059060  1
  Y  Y4  1  0.793328  0.586657  0.059060  1
  Y  Y5  1  0.413343  0.206672  0.059060  1
  Y  Y6  1  0.793328  0.206672  0.440940  1
  Y  Y7  1  0.793328  0.586657  0.440940  1
  Y  Y8  1  0.413343  0.206672  0.440940  1
  Y  Y9  1  0.209058  0.790942  0.561364  1
  Y  Y10  1  0.209058  0.418118  0.561364  1
  Y  Y11  1  0.581882  0.790942  0.561364  1
  Y  Y12  1  0.541112  0.458888  0.750000  1
  Y  Y13  1  0.541112  0.082224  0.750000  1
  Y  Y14  1  0.917776  0.458888  0.750000  1
  Y  Y15  1  0.456968  0.543032  0.250000  1
  Y  Y16  1  0.456968  0.913938  0.250000  1
  Y  Y17  1  0.086062  0.543032  0.250000  1
  Y  Y18  1  0.000000  0.000000  0.999953  1
  Y  Y19  1  0.000000  0.000000  0.500047  1
  Hg  Hg20  1  0.880634  0.119366  0.750000  1
  Hg  Hg21  1  0.880634  0.761268  0.750000  1
  Hg  Hg22  1  0.238732  0.119366  0.750000  1
  Hg  Hg23  1  0.118802  0.881198  0.250000  1
  Hg  Hg24  1  0.118802  0.237604  0.250000  1
  Hg  Hg25  1  0.762396  0.881198  0.250000  1
  Pd  Pd26  1  0.666667  0.333333  0.250000  1
  Ru  Ru27  1  0.333333  0.666667  0.750000  1
