# generated using pymatgen
data_Tb5Sc5(In2Pt)4
_symmetry_space_group_name_H-M   'P 1'
_cell_length_a   3.57980900
_cell_length_b   7.97075978
_cell_length_c   17.77887768
_cell_angle_alpha   90.12556831
_cell_angle_beta   90.00000000
_cell_angle_gamma   90.00000000
_symmetry_Int_Tables_number   1
_chemical_formula_structural   Tb5Sc5(In2Pt)4
_chemical_formula_sum   'Tb5 Sc5 In8 Pt4'
_cell_volume   507.29767912
_cell_formula_units_Z   1
loop_
 _symmetry_equiv_pos_site_id
 _symmetry_equiv_pos_as_xyz
  1  'x, y, z'
loop_
 _atom_site_type_symbol
 _atom_site_label
 _atom_site_symmetry_multiplicity
 _atom_site_fract_x
 _atom_site_fract_y
 _atom_site_fract_z
 _atom_site_occupancy
  Tb  Tb0  1  0.000000  0.239908  0.213106  1
  Tb  Tb1  1  0.000000  0.760092  0.786894  1
  Tb  Tb2  1  0.000000  0.257892  0.716492  1
  Tb  Tb3  1  0.000000  0.742108  0.283508  1
  Tb  Tb4  1  0.000000  0.500000  0.500000  1
  Sc  Sc5  1  0.000000  0.117164  0.412866  1
  Sc  Sc6  1  0.000000  0.882836  0.587134  1
  Sc  Sc7  1  0.000000  0.387046  0.915565  1
  Sc  Sc8  1  0.000000  0.612954  0.084435  1
  Sc  Sc9  1  0.000000  0.000000  0.000000  1
  In  In10  1  0.500000  0.412595  0.349992  1
  In  In11  1  0.500000  0.587405  0.650008  1
  In  In12  1  0.500000  0.086647  0.856880  1
  In  In13  1  0.500000  0.913353  0.143120  1
  In  In14  1  0.500000  0.296853  0.057023  1
  In  In15  1  0.500000  0.703147  0.942977  1
  In  In16  1  0.500000  0.190738  0.559012  1
  In  In17  1  0.500000  0.809262  0.440988  1
  Pt  Pt18  1  0.500000  0.032226  0.305557  1
  Pt  Pt19  1  0.500000  0.967774  0.694443  1
  Pt  Pt20  1  0.500000  0.467963  0.808677  1
  Pt  Pt21  1  0.500000  0.532037  0.191323  1
