# generated using pymatgen
data_HoLu3S4
_symmetry_space_group_name_H-M   'P 1'
_cell_length_a   12.48420203
_cell_length_b   12.48420198
_cell_length_c   12.48420043
_cell_angle_alpha   17.76380566
_cell_angle_beta   17.76380450
_cell_angle_gamma   17.76380250
_symmetry_Int_Tables_number   1
_chemical_formula_structural   HoLu3S4
_chemical_formula_sum   'Ho1 Lu3 S4'
_cell_volume   158.10438429
_cell_formula_units_Z   1
loop_
 _symmetry_equiv_pos_site_id
 _symmetry_equiv_pos_as_xyz
  1  'x, y, z'
loop_
 _atom_site_type_symbol
 _atom_site_label
 _atom_site_symmetry_multiplicity
 _atom_site_fract_x
 _atom_site_fract_y
 _atom_site_fract_z
 _atom_site_occupancy
  Ho  Ho0  1  0.000000  0.000000  0.000000  1
  Lu  Lu1  1  0.250499  0.250499  0.250499  1
  Lu  Lu2  1  0.500000  0.500000  0.500000  1
  Lu  Lu3  1  0.749501  0.749501  0.749501  1
  S  S4  1  0.376264  0.376264  0.376264  1
  S  S5  1  0.125078  0.125078  0.125078  1
  S  S6  1  0.623736  0.623736  0.623736  1
  S  S7  1  0.874922  0.874922  0.874922  1
