# generated using pymatgen
data_Tb8Sc12Si15Ag
_symmetry_space_group_name_H-M   'P 1'
_cell_length_a   7.14898970
_cell_length_b   7.39089449
_cell_length_c   14.10205209
_cell_angle_alpha   89.90795993
_cell_angle_beta   89.61356887
_cell_angle_gamma   90.18317786
_symmetry_Int_Tables_number   1
_chemical_formula_structural   Tb8Sc12Si15Ag
_chemical_formula_sum   'Tb8 Sc12 Si15 Ag1'
_cell_volume   745.09442772
_cell_formula_units_Z   1
loop_
 _symmetry_equiv_pos_site_id
 _symmetry_equiv_pos_as_xyz
  1  'x, y, z'
loop_
 _atom_site_type_symbol
 _atom_site_label
 _atom_site_symmetry_multiplicity
 _atom_site_fract_x
 _atom_site_fract_y
 _atom_site_fract_z
 _atom_site_occupancy
  Tb  Tb0  1  0.012324  0.175147  0.097807  1
  Tb  Tb1  1  0.987481  0.826052  0.903760  1
  Tb  Tb2  1  0.487133  0.676337  0.903534  1
  Tb  Tb3  1  0.988488  0.830856  0.597694  1
  Tb  Tb4  1  0.512163  0.324193  0.096805  1
  Tb  Tb5  1  0.009044  0.171656  0.398973  1
  Tb  Tb6  1  0.512459  0.323199  0.399967  1
  Tb  Tb7  1  0.493616  0.677908  0.599964  1
  Sc  Sc8  1  0.162910  0.501165  0.753067  1
  Sc  Sc9  1  0.838016  0.498822  0.250882  1
  Sc  Sc10  1  0.337934  0.000028  0.248843  1
  Sc  Sc11  1  0.664721  0.996555  0.751362  1
  Sc  Sc12  1  0.341389  0.172945  0.626827  1
  Sc  Sc13  1  0.665511  0.823404  0.373929  1
  Sc  Sc14  1  0.167342  0.675270  0.372034  1
  Sc  Sc15  1  0.670171  0.824415  0.124646  1
  Sc  Sc16  1  0.825966  0.325356  0.625261  1
  Sc  Sc17  1  0.328649  0.175067  0.876152  1
  Sc  Sc18  1  0.830123  0.322681  0.876000  1
  Sc  Sc19  1  0.169160  0.676446  0.125052  1
  Si  Si20  1  0.035986  0.121468  0.750013  1
  Si  Si21  1  0.965324  0.882554  0.248935  1
  Si  Si22  1  0.466484  0.616553  0.248303  1
  Si  Si23  1  0.534508  0.384803  0.752078  1
  Si  Si24  1  0.284998  0.874472  0.750847  1
  Si  Si25  1  0.712675  0.126633  0.248504  1
  Si  Si26  1  0.214458  0.371998  0.248722  1
  Si  Si27  1  0.788147  0.626708  0.752251  1
  Si  Si28  1  0.835444  0.538035  0.459160  1
  Si  Si29  1  0.338720  0.962045  0.460769  1
  Si  Si30  1  0.843900  0.535518  0.039107  1
  Si  Si31  1  0.658564  0.036237  0.537924  1
  Si  Si32  1  0.155008  0.464456  0.961695  1
  Si  Si33  1  0.656582  0.035189  0.960593  1
  Si  Si34  1  0.343046  0.964424  0.039847  1
  Ag  Ag35  1  0.161559  0.461408  0.538692  1
