# generated using pymatgen
data_Zr2Si4Os3
_symmetry_space_group_name_H-M   'P 1'
_cell_length_a   9.96737990
_cell_length_b   9.96738004
_cell_length_c   13.43898797
_cell_angle_alpha   53.66138375
_cell_angle_beta   53.66138354
_cell_angle_gamma   31.58086030
_symmetry_Int_Tables_number   1
_chemical_formula_structural   Zr2Si4Os3
_chemical_formula_sum   'Zr8 Si16 Os12'
_cell_volume   550.91841249
_cell_formula_units_Z   4
loop_
 _symmetry_equiv_pos_site_id
 _symmetry_equiv_pos_as_xyz
  1  'x, y, z'
loop_
 _atom_site_type_symbol
 _atom_site_label
 _atom_site_symmetry_multiplicity
 _atom_site_fract_x
 _atom_site_fract_y
 _atom_site_fract_z
 _atom_site_occupancy
  Zr  Zr0  1  0.039455  0.294316  0.635692  1
  Zr  Zr1  1  0.705684  0.960545  0.864308  1
  Zr  Zr2  1  0.960545  0.705684  0.364308  1
  Zr  Zr3  1  0.294316  0.039455  0.135692  1
  Zr  Zr4  1  0.301737  0.552174  0.648495  1
  Zr  Zr5  1  0.447826  0.698263  0.851505  1
  Zr  Zr6  1  0.698263  0.447826  0.351505  1
  Zr  Zr7  1  0.552174  0.301737  0.148495  1
  Si  Si8  1  0.973001  0.252272  0.894333  1
  Si  Si9  1  0.747728  0.026999  0.605667  1
  Si  Si10  1  0.026999  0.747728  0.105667  1
  Si  Si11  1  0.252272  0.973001  0.394333  1
  Si  Si12  1  0.141976  0.388150  0.895586  1
  Si  Si13  1  0.611850  0.858024  0.604414  1
  Si  Si14  1  0.858024  0.611850  0.104414  1
  Si  Si15  1  0.388150  0.141976  0.395586  1
  Si  Si16  1  0.088133  0.572917  0.564260  1
  Si  Si17  1  0.427083  0.911867  0.935740  1
  Si  Si18  1  0.911867  0.427083  0.435740  1
  Si  Si19  1  0.572917  0.088133  0.064260  1
  Si  Si20  1  0.621614  0.378386  0.750000  1
  Si  Si21  1  0.378386  0.621614  0.250000  1
  Si  Si22  1  0.130370  0.869630  0.750000  1
  Si  Si23  1  0.869630  0.130370  0.250000  1
  Os  Os24  1  0.911877  0.128973  0.585411  1
  Os  Os25  1  0.871027  0.088123  0.914589  1
  Os  Os26  1  0.088123  0.871027  0.414589  1
  Os  Os27  1  0.128973  0.911877  0.085411  1
  Os  Os28  1  0.826515  0.647338  0.780954  1
  Os  Os29  1  0.352662  0.173485  0.719046  1
  Os  Os30  1  0.173485  0.352662  0.219046  1
  Os  Os31  1  0.647338  0.826515  0.280954  1
  Os  Os32  1  0.231165  0.519099  0.931810  1
  Os  Os33  1  0.480901  0.768835  0.568190  1
  Os  Os34  1  0.768835  0.480901  0.068190  1
  Os  Os35  1  0.519099  0.231165  0.431810  1
