# generated using pymatgen
data_Ho7Sn23(OsRu)3
_symmetry_space_group_name_H-M   'P 1'
_cell_length_a   9.85116300
_cell_length_b   9.85116102
_cell_length_c   10.08961500
_cell_angle_alpha   90.00000000
_cell_angle_beta   90.00000000
_cell_angle_gamma   119.99999656
_symmetry_Int_Tables_number   1
_chemical_formula_structural   Ho7Sn23(OsRu)3
_chemical_formula_sum   'Ho7 Sn23 Os3 Ru3'
_cell_volume   847.96936889
_cell_formula_units_Z   1
loop_
 _symmetry_equiv_pos_site_id
 _symmetry_equiv_pos_as_xyz
  1  'x, y, z'
loop_
 _atom_site_type_symbol
 _atom_site_label
 _atom_site_symmetry_multiplicity
 _atom_site_fract_x
 _atom_site_fract_y
 _atom_site_fract_z
 _atom_site_occupancy
  Ho  Ho0  1  0.000000  0.000000  0.006129  1
  Ho  Ho1  1  0.514685  0.485315  0.697184  1
  Ho  Ho2  1  0.514685  0.029369  0.697184  1
  Ho  Ho3  1  0.970631  0.485315  0.697184  1
  Ho  Ho4  1  0.027128  0.513565  0.300832  1
  Ho  Ho5  1  0.486435  0.972872  0.300832  1
  Ho  Ho6  1  0.486435  0.513565  0.300832  1
  Sn  Sn7  1  0.666667  0.333333  0.172526  1
  Sn  Sn8  1  0.666667  0.333333  0.868134  1
  Sn  Sn9  1  0.333333  0.666667  0.130456  1
  Sn  Sn10  1  0.349040  0.349360  0.998635  1
  Sn  Sn11  1  0.000320  0.650960  0.998635  1
  Sn  Sn12  1  0.650640  0.999680  0.998635  1
  Sn  Sn13  1  0.650640  0.650960  0.998635  1
  Sn  Sn14  1  0.333333  0.666667  0.822879  1
  Sn  Sn15  1  0.440569  0.220285  0.464078  1
  Sn  Sn16  1  0.220320  0.779680  0.536486  1
  Sn  Sn17  1  0.220320  0.440638  0.536486  1
  Sn  Sn18  1  0.559362  0.779680  0.536486  1
  Sn  Sn19  1  0.118461  0.881539  0.277309  1
  Sn  Sn20  1  0.779715  0.559431  0.464078  1
  Sn  Sn21  1  0.779715  0.220285  0.464078  1
  Sn  Sn22  1  0.349040  0.999680  0.998635  1
  Sn  Sn23  1  0.118461  0.236922  0.277309  1
  Sn  Sn24  1  0.763078  0.881539  0.277309  1
  Sn  Sn25  1  0.235688  0.117844  0.726858  1
  Sn  Sn26  1  0.882156  0.764312  0.726858  1
  Sn  Sn27  1  0.882156  0.117844  0.726858  1
  Sn  Sn28  1  0.000000  0.000000  0.501897  1
  Sn  Sn29  1  0.000320  0.349360  0.998635  1
  Os  Os30  1  0.340192  0.170096  0.202106  1
  Os  Os31  1  0.829904  0.659808  0.202106  1
  Os  Os32  1  0.829904  0.170096  0.202106  1
  Ru  Ru33  1  0.170547  0.829453  0.797201  1
  Ru  Ru34  1  0.170547  0.341095  0.797201  1
  Ru  Ru35  1  0.658905  0.829453  0.797201  1
