# generated using pymatgen
data_Zr5Sc3(Si4W3)4
_symmetry_space_group_name_H-M   'P 1'
_cell_length_a   6.59537502
_cell_length_b   6.76355802
_cell_length_c   12.73657407
_cell_angle_alpha   90.00878412
_cell_angle_beta   90.00779584
_cell_angle_gamma   89.99594203
_symmetry_Int_Tables_number   1
_chemical_formula_structural   Zr5Sc3(Si4W3)4
_chemical_formula_sum   'Zr5 Sc3 Si16 W12'
_cell_volume   568.15565075
_cell_formula_units_Z   1
loop_
 _symmetry_equiv_pos_site_id
 _symmetry_equiv_pos_as_xyz
  1  'x, y, z'
loop_
 _atom_site_type_symbol
 _atom_site_label
 _atom_site_symmetry_multiplicity
 _atom_site_fract_x
 _atom_site_fract_y
 _atom_site_fract_z
 _atom_site_occupancy
  Zr  Zr0  1  0.495519  0.669370  0.592014  1
  Zr  Zr1  1  0.995299  0.829229  0.907410  1
  Zr  Zr2  1  0.505432  0.329374  0.092295  1
  Zr  Zr3  1  0.004919  0.170794  0.407758  1
  Zr  Zr4  1  0.504958  0.329615  0.407899  1
  Sc  Sc5  1  0.006246  0.169183  0.091380  1
  Sc  Sc6  1  0.493661  0.669968  0.908592  1
  Sc  Sc7  1  0.993617  0.831228  0.591808  1
  Si  Si8  1  0.667800  0.958572  0.457812  1
  Si  Si9  1  0.167376  0.539187  0.043047  1
  Si  Si10  1  0.332917  0.039258  0.957102  1
  Si  Si11  1  0.833252  0.460425  0.543604  1
  Si  Si12  1  0.330401  0.039487  0.543077  1
  Si  Si13  1  0.830813  0.459601  0.957095  1
  Si  Si14  1  0.669225  0.959730  0.042839  1
  Si  Si15  1  0.167052  0.542500  0.457817  1
  Si  Si16  1  0.464355  0.381151  0.750882  1
  Si  Si17  1  0.964466  0.119761  0.749427  1
  Si  Si18  1  0.535929  0.620892  0.249591  1
  Si  Si19  1  0.035344  0.880493  0.249810  1
  Si  Si20  1  0.698016  0.857591  0.750126  1
  Si  Si21  1  0.198256  0.642407  0.750047  1
  Si  Si22  1  0.300391  0.141178  0.248809  1
  Si  Si23  1  0.803115  0.357949  0.249136  1
  W  W24  1  0.664394  0.164472  0.624383  1
  W  W25  1  0.165233  0.335232  0.875645  1
  W  W26  1  0.334601  0.835697  0.124097  1
  W  W27  1  0.834077  0.663345  0.375908  1
  W  W28  1  0.335698  0.836751  0.375529  1
  W  W29  1  0.834989  0.663500  0.124600  1
  W  W30  1  0.665238  0.163270  0.875414  1
  W  W31  1  0.166346  0.336625  0.624304  1
  W  W32  1  0.833379  0.505083  0.750709  1
  W  W33  1  0.333436  0.995535  0.750114  1
  W  W34  1  0.166944  0.494959  0.250451  1
  W  W35  1  0.667304  0.006586  0.249469  1
