# generated using pymatgen
data_Sr4Si6NiHg
_symmetry_space_group_name_H-M   'P 1'
_cell_length_a   11.84114811
_cell_length_b   10.26891714
_cell_length_c   8.33258691
_cell_angle_alpha   78.31154488
_cell_angle_beta   58.12910995
_cell_angle_gamma   43.55933965
_symmetry_Int_Tables_number   1
_chemical_formula_structural   Sr4Si6NiHg
_chemical_formula_sum   'Sr8 Si12 Ni2 Hg2'
_cell_volume   564.18884486
_cell_formula_units_Z   2
loop_
 _symmetry_equiv_pos_site_id
 _symmetry_equiv_pos_as_xyz
  1  'x, y, z'
loop_
 _atom_site_type_symbol
 _atom_site_label
 _atom_site_symmetry_multiplicity
 _atom_site_fract_x
 _atom_site_fract_y
 _atom_site_fract_z
 _atom_site_occupancy
  Sr  Sr0  1  0.131961  0.116427  0.871256  1
  Sr  Sr1  1  0.871257  0.880355  0.131960  1
  Sr  Sr2  1  0.133574  0.118040  0.369645  1
  Sr  Sr3  1  0.369646  0.378744  0.133573  1
  Sr  Sr4  1  0.617731  0.630303  0.378556  1
  Sr  Sr5  1  0.378556  0.373410  0.617731  1
  Sr  Sr6  1  0.619698  0.632269  0.876590  1
  Sr  Sr7  1  0.876591  0.871445  0.619697  1
  Si  Si8  1  0.907461  0.593252  0.435803  1
  Si  Si9  1  0.093470  0.399934  0.580420  1
  Si  Si10  1  0.435803  0.063484  0.907461  1
  Si  Si11  1  0.580420  0.926175  0.093470  1
  Si  Si12  1  0.323825  0.669580  0.850066  1
  Si  Si13  1  0.656748  0.342539  0.186516  1
  Si  Si14  1  0.850066  0.156530  0.323825  1
  Si  Si15  1  0.186516  0.814197  0.656748  1
  Si  Si16  1  0.906699  0.593302  0.906698  1
  Si  Si17  1  0.576442  0.923559  0.576441  1
  Si  Si18  1  0.326442  0.673559  0.326442  1
  Si  Si19  1  0.656698  0.343302  0.656698  1
  Ni  Ni20  1  0.167786  0.832214  0.167786  1
  Ni  Ni21  1  0.417786  0.082214  0.417786  1
  Hg  Hg22  1  0.082412  0.417588  0.082412  1
  Hg  Hg23  1  0.832412  0.167588  0.832412  1
