# generated using pymatgen
data_DyTh3(Sc3Sn4)2
_symmetry_space_group_name_H-M   'P 1'
_cell_length_a   7.85208632
_cell_length_b   7.98830828
_cell_length_c   14.93923500
_cell_angle_alpha   90.01684092
_cell_angle_beta   89.98366957
_cell_angle_gamma   90.12142737
_symmetry_Int_Tables_number   1
_chemical_formula_structural   DyTh3(Sc3Sn4)2
_chemical_formula_sum   'Dy2 Th6 Sc12 Sn16'
_cell_volume   937.05963226
_cell_formula_units_Z   2
loop_
 _symmetry_equiv_pos_site_id
 _symmetry_equiv_pos_as_xyz
  1  'x, y, z'
loop_
 _atom_site_type_symbol
 _atom_site_label
 _atom_site_symmetry_multiplicity
 _atom_site_fract_x
 _atom_site_fract_y
 _atom_site_fract_z
 _atom_site_occupancy
  Dy  Dy0  1  0.487407  0.323755  0.406530  1
  Dy  Dy1  1  0.512593  0.676245  0.593470  1
  Th  Th2  1  0.988871  0.174461  0.095153  1
  Th  Th3  1  0.011129  0.825539  0.904847  1
  Th  Th4  1  0.508863  0.674343  0.906993  1
  Th  Th5  1  0.007535  0.827155  0.591714  1
  Th  Th6  1  0.491137  0.325657  0.093007  1
  Th  Th7  1  0.992465  0.172845  0.408286  1
  Sc  Sc8  1  0.170486  0.499548  0.749575  1
  Sc  Sc9  1  0.829514  0.500452  0.250425  1
  Sc  Sc10  1  0.327689  0.997424  0.250585  1
  Sc  Sc11  1  0.672311  0.002576  0.749415  1
  Sc  Sc12  1  0.339587  0.161824  0.626843  1
  Sc  Sc13  1  0.660413  0.838176  0.373157  1
  Sc  Sc14  1  0.154725  0.659768  0.374088  1
  Sc  Sc15  1  0.656449  0.841214  0.127940  1
  Sc  Sc16  1  0.845275  0.340232  0.625912  1
  Sc  Sc17  1  0.343551  0.158786  0.872060  1
  Sc  Sc18  1  0.838648  0.342578  0.872966  1
  Sc  Sc19  1  0.161352  0.657422  0.127034  1
  Sn  Sn20  1  0.034279  0.130304  0.749994  1
  Sn  Sn21  1  0.965721  0.869696  0.250006  1
  Sn  Sn22  1  0.466075  0.627878  0.251180  1
  Sn  Sn23  1  0.533925  0.372122  0.748820  1
  Sn  Sn24  1  0.316521  0.852859  0.746602  1
  Sn  Sn25  1  0.683479  0.147141  0.253398  1
  Sn  Sn26  1  0.190184  0.355102  0.252057  1
  Sn  Sn27  1  0.809816  0.644898  0.747943  1
  Sn  Sn28  1  0.190523  0.458782  0.544255  1
  Sn  Sn29  1  0.809477  0.541218  0.455745  1
  Sn  Sn30  1  0.322072  0.953150  0.456853  1
  Sn  Sn31  1  0.818779  0.548049  0.044017  1
  Sn  Sn32  1  0.677928  0.046850  0.543147  1
  Sn  Sn33  1  0.181221  0.451951  0.955983  1
  Sn  Sn34  1  0.683983  0.045533  0.956518  1
  Sn  Sn35  1  0.316017  0.954467  0.043482  1
