# generated using pymatgen
data_Ce2Ti2Ge4Mo
_symmetry_space_group_name_H-M   'P 1'
_cell_length_a   6.91770900
_cell_length_b   7.05273600
_cell_length_c   13.50821900
_cell_angle_alpha   90.00000000
_cell_angle_beta   90.00000000
_cell_angle_gamma   90.00000000
_symmetry_Int_Tables_number   1
_chemical_formula_structural   Ce2Ti2Ge4Mo
_chemical_formula_sum   'Ce8 Ti8 Ge16 Mo4'
_cell_volume   659.04946152
_cell_formula_units_Z   4
loop_
 _symmetry_equiv_pos_site_id
 _symmetry_equiv_pos_as_xyz
  1  'x, y, z'
loop_
 _atom_site_type_symbol
 _atom_site_label
 _atom_site_symmetry_multiplicity
 _atom_site_fract_x
 _atom_site_fract_y
 _atom_site_fract_z
 _atom_site_occupancy
  Ce  Ce0  1  0.495897  0.667638  0.093915  1
  Ce  Ce1  1  0.995897  0.832362  0.406085  1
  Ce  Ce2  1  0.504103  0.332362  0.593915  1
  Ce  Ce3  1  0.004103  0.167638  0.906085  1
  Ce  Ce4  1  0.504103  0.332362  0.906085  1
  Ce  Ce5  1  0.004103  0.167638  0.593915  1
  Ce  Ce6  1  0.495897  0.667638  0.406085  1
  Ce  Ce7  1  0.995897  0.832362  0.093915  1
  Ti  Ti8  1  0.661583  0.165194  0.127548  1
  Ti  Ti9  1  0.161583  0.334806  0.372452  1
  Ti  Ti10  1  0.338417  0.834806  0.627548  1
  Ti  Ti11  1  0.838417  0.665194  0.872452  1
  Ti  Ti12  1  0.338417  0.834806  0.872452  1
  Ti  Ti13  1  0.838417  0.665194  0.627548  1
  Ti  Ti14  1  0.661583  0.165194  0.372452  1
  Ti  Ti15  1  0.161583  0.334806  0.127548  1
  Ge  Ge16  1  0.690769  0.865380  0.250000  1
  Ge  Ge17  1  0.190769  0.634620  0.250000  1
  Ge  Ge18  1  0.309231  0.134620  0.750000  1
  Ge  Ge19  1  0.809231  0.365380  0.750000  1
  Ge  Ge20  1  0.668421  0.951584  0.954489  1
  Ge  Ge21  1  0.168421  0.548416  0.545511  1
  Ge  Ge22  1  0.331579  0.048416  0.454489  1
  Ge  Ge23  1  0.831579  0.451584  0.045511  1
  Ge  Ge24  1  0.331579  0.048416  0.045511  1
  Ge  Ge25  1  0.831579  0.451584  0.454489  1
  Ge  Ge26  1  0.668421  0.951584  0.545511  1
  Ge  Ge27  1  0.168421  0.548416  0.954489  1
  Ge  Ge28  1  0.462763  0.366663  0.250000  1
  Ge  Ge29  1  0.962763  0.133337  0.250000  1
  Ge  Ge30  1  0.537237  0.633337  0.750000  1
  Ge  Ge31  1  0.037237  0.866663  0.750000  1
  Mo  Mo32  1  0.332173  0.005216  0.250000  1
  Mo  Mo33  1  0.832173  0.494784  0.250000  1
  Mo  Mo34  1  0.667827  0.994784  0.750000  1
  Mo  Mo35  1  0.167827  0.505216  0.750000  1
