# generated using pymatgen
data_Ti11Nb3P8
_symmetry_space_group_name_H-M   'P 1'
_cell_length_a   7.58780985
_cell_length_b   7.58781026
_cell_length_c   13.62161223
_cell_angle_alpha   75.58122616
_cell_angle_beta   75.58122500
_cell_angle_gamma   26.01636919
_symmetry_Int_Tables_number   1
_chemical_formula_structural   Ti11Nb3P8
_chemical_formula_sum   'Ti11 Nb3 P8'
_cell_volume   332.57576502
_cell_formula_units_Z   1
loop_
 _symmetry_equiv_pos_site_id
 _symmetry_equiv_pos_as_xyz
  1  'x, y, z'
loop_
 _atom_site_type_symbol
 _atom_site_label
 _atom_site_symmetry_multiplicity
 _atom_site_fract_x
 _atom_site_fract_y
 _atom_site_fract_z
 _atom_site_occupancy
  Ti  Ti0  1  0.660587  0.660587  0.031883  1
  Ti  Ti1  1  0.339413  0.339413  0.968117  1
  Ti  Ti2  1  0.995952  0.995952  0.662847  1
  Ti  Ti3  1  0.004048  0.004048  0.337153  1
  Ti  Ti4  1  0.822656  0.822656  0.540842  1
  Ti  Ti5  1  0.177344  0.177344  0.459158  1
  Ti  Ti6  1  0.206116  0.206116  0.205539  1
  Ti  Ti7  1  0.793884  0.793884  0.794461  1
  Ti  Ti8  1  0.197289  0.197289  0.690996  1
  Ti  Ti9  1  0.802711  0.802711  0.309004  1
  Ti  Ti10  1  0.000000  0.000000  0.000000  1
  Nb  Nb11  1  0.426875  0.426875  0.171540  1
  Nb  Nb12  1  0.573125  0.573125  0.828460  1
  Nb  Nb13  1  0.500000  0.500000  0.500000  1
  P  P14  1  0.063190  0.063190  0.150841  1
  P  P15  1  0.936810  0.936810  0.849159  1
  P  P16  1  0.367928  0.367928  0.660586  1
  P  P17  1  0.632072  0.632072  0.339414  1
  P  P18  1  0.372552  0.372552  0.393528  1
  P  P19  1  0.627448  0.627448  0.606472  1
  P  P20  1  0.180617  0.180617  0.891584  1
  P  P21  1  0.819383  0.819383  0.108416  1
