# generated using pymatgen
data_GdDy2RuI3
_symmetry_space_group_name_H-M   'P 1'
_cell_length_a   4.25768200
_cell_length_b   8.97470382
_cell_length_c   12.41617401
_cell_angle_alpha   86.09105955
_cell_angle_beta   90.00000000
_cell_angle_gamma   90.00000000
_symmetry_Int_Tables_number   1
_chemical_formula_structural   GdDy2RuI3
_chemical_formula_sum   'Gd2 Dy4 Ru2 I6'
_cell_volume   473.33611355
_cell_formula_units_Z   2
loop_
 _symmetry_equiv_pos_site_id
 _symmetry_equiv_pos_as_xyz
  1  'x, y, z'
loop_
 _atom_site_type_symbol
 _atom_site_label
 _atom_site_symmetry_multiplicity
 _atom_site_fract_x
 _atom_site_fract_y
 _atom_site_fract_z
 _atom_site_occupancy
  Gd  Gd0  1  0.750000  0.132694  0.125923  1
  Gd  Gd1  1  0.250000  0.867306  0.874077  1
  Dy  Dy2  1  0.750000  0.099189  0.684137  1
  Dy  Dy3  1  0.250000  0.900811  0.315863  1
  Dy  Dy4  1  0.250000  0.260506  0.896908  1
  Dy  Dy5  1  0.750000  0.739494  0.103092  1
  Ru  Ru6  1  0.750000  0.053468  0.907107  1
  Ru  Ru7  1  0.250000  0.946532  0.092893  1
  I  I8  1  0.250000  0.353598  0.636294  1
  I  I9  1  0.750000  0.646402  0.363706  1
  I  I10  1  0.750000  0.142244  0.392842  1
  I  I11  1  0.250000  0.857756  0.607158  1
  I  I12  1  0.250000  0.426655  0.133006  1
  I  I13  1  0.750000  0.573345  0.866994  1
