# generated using pymatgen
data_Na4ThZrCl12
_symmetry_space_group_name_H-M   'P 1'
_cell_length_a   7.01034800
_cell_length_b   7.01034847
_cell_length_c   13.20535200
_cell_angle_alpha   90.00000000
_cell_angle_beta   90.00000000
_cell_angle_gamma   119.99999778
_symmetry_Int_Tables_number   1
_chemical_formula_structural   Na4ThZrCl12
_chemical_formula_sum   'Na4 Th1 Zr1 Cl12'
_cell_volume   562.03040029
_cell_formula_units_Z   1
loop_
 _symmetry_equiv_pos_site_id
 _symmetry_equiv_pos_as_xyz
  1  'x, y, z'
loop_
 _atom_site_type_symbol
 _atom_site_label
 _atom_site_symmetry_multiplicity
 _atom_site_fract_x
 _atom_site_fract_y
 _atom_site_fract_z
 _atom_site_occupancy
  Na  Na0  1  0.000000  0.000000  0.750000  1
  Na  Na1  1  0.666667  0.333333  0.750000  1
  Na  Na2  1  0.333333  0.666667  0.250000  1
  Na  Na3  1  0.000000  0.000000  0.250000  1
  Th  Th4  1  0.666667  0.333333  0.250000  1
  Zr  Zr5  1  0.333333  0.666667  0.750000  1
  Cl  Cl6  1  0.039850  0.373072  0.642299  1
  Cl  Cl7  1  0.333223  0.960150  0.642299  1
  Cl  Cl8  1  0.626928  0.666777  0.642299  1
  Cl  Cl9  1  0.626928  0.960150  0.857701  1
  Cl  Cl10  1  0.333223  0.373072  0.857701  1
  Cl  Cl11  1  0.039850  0.666777  0.857701  1
  Cl  Cl12  1  0.985649  0.333008  0.135661  1
  Cl  Cl13  1  0.347358  0.014351  0.135661  1
  Cl  Cl14  1  0.666992  0.652642  0.135661  1
  Cl  Cl15  1  0.666992  0.014351  0.364339  1
  Cl  Cl16  1  0.347358  0.333008  0.364339  1
  Cl  Cl17  1  0.985649  0.652642  0.364339  1
