# generated using pymatgen
data_Hf6B4IrRu9
_symmetry_space_group_name_H-M   'P 1'
_cell_length_a   9.50557703
_cell_length_b   9.50205703
_cell_length_c   3.13089400
_cell_angle_alpha   90.00000000
_cell_angle_beta   90.00000000
_cell_angle_gamma   90.00885618
_symmetry_Int_Tables_number   1
_chemical_formula_structural   Hf6B4IrRu9
_chemical_formula_sum   'Hf6 B4 Ir1 Ru9'
_cell_volume   282.79027955
_cell_formula_units_Z   1
loop_
 _symmetry_equiv_pos_site_id
 _symmetry_equiv_pos_as_xyz
  1  'x, y, z'
loop_
 _atom_site_type_symbol
 _atom_site_label
 _atom_site_symmetry_multiplicity
 _atom_site_fract_x
 _atom_site_fract_y
 _atom_site_fract_z
 _atom_site_occupancy
  Hf  Hf0  1  0.829041  0.674617  0.000000  1
  Hf  Hf1  1  0.175412  0.323947  0.000000  1
  Hf  Hf2  1  0.320228  0.826081  0.000000  1
  Hf  Hf3  1  0.675904  0.176366  0.000000  1
  Hf  Hf4  1  0.498804  0.496133  0.000000  1
  Hf  Hf5  1  0.999740  0.000999  0.000000  1
  B  B6  1  0.623938  0.884249  0.000000  1
  B  B7  1  0.376105  0.121363  0.000000  1
  B  B8  1  0.122766  0.621768  0.000000  1
  B  B9  1  0.877807  0.378455  0.000000  1
  Ir  Ir10  1  0.572245  0.719809  0.500000  1
  Ru  Ru11  1  0.428336  0.277372  0.500000  1
  Ru  Ru12  1  0.071451  0.779646  0.500000  1
  Ru  Ru13  1  0.926640  0.221063  0.500000  1
  Ru  Ru14  1  0.280438  0.573022  0.500000  1
  Ru  Ru15  1  0.720618  0.429909  0.500000  1
  Ru  Ru16  1  0.220014  0.071269  0.500000  1
  Ru  Ru17  1  0.779548  0.926433  0.500000  1
  Ru  Ru18  1  0.499444  0.998072  0.500000  1
  Ru  Ru19  1  0.001522  0.499428  0.500000  1
