# generated using pymatgen
data_Hf2Zr14Ni4Mo3Pt
_symmetry_space_group_name_H-M   'P 1'
_cell_length_a   8.77824246
_cell_length_b   8.77759896
_cell_length_c   8.78180900
_cell_angle_alpha   59.98412876
_cell_angle_beta   59.98655525
_cell_angle_gamma   59.99052727
_symmetry_Int_Tables_number   1
_chemical_formula_structural   Hf2Zr14Ni4Mo3Pt
_chemical_formula_sum   'Hf2 Zr14 Ni4 Mo3 Pt1'
_cell_volume   478.32706217
_cell_formula_units_Z   1
loop_
 _symmetry_equiv_pos_site_id
 _symmetry_equiv_pos_as_xyz
  1  'x, y, z'
loop_
 _atom_site_type_symbol
 _atom_site_label
 _atom_site_symmetry_multiplicity
 _atom_site_fract_x
 _atom_site_fract_y
 _atom_site_fract_z
 _atom_site_occupancy
  Hf  Hf0  1  0.193181  0.601666  0.602577  1
  Hf  Hf1  1  0.601777  0.194051  0.602087  1
  Zr  Zr2  1  0.601925  0.601462  0.602181  1
  Zr  Zr3  1  0.601925  0.601462  0.194434  1
  Zr  Zr4  1  0.451930  0.452816  0.047627  1
  Zr  Zr5  1  0.047601  0.045279  0.453560  1
  Zr  Zr6  1  0.451972  0.048418  0.047286  1
  Zr  Zr7  1  0.048307  0.453364  0.453573  1
  Zr  Zr8  1  0.048307  0.453364  0.044757  1
  Zr  Zr9  1  0.451972  0.048418  0.452323  1
  Zr  Zr10  1  0.814137  0.815947  0.184958  1
  Zr  Zr11  1  0.178748  0.190019  0.815616  1
  Zr  Zr12  1  0.813875  0.184586  0.185816  1
  Zr  Zr13  1  0.177870  0.815817  0.816038  1
  Zr  Zr14  1  0.177870  0.815817  0.190273  1
  Zr  Zr15  1  0.813875  0.184586  0.815723  1
  Ni  Ni16  1  0.826163  0.390050  0.391893  1
  Ni  Ni17  1  0.393252  0.825370  0.390689  1
  Ni  Ni18  1  0.394074  0.389738  0.391579  1
  Ni  Ni19  1  0.394074  0.389738  0.824610  1
  Mo  Mo20  1  0.837254  0.500840  0.830954  1
  Mo  Mo21  1  0.836482  0.832369  0.830506  1
  Mo  Mo22  1  0.836482  0.832369  0.500644  1
  Pt  Pt23  1  0.506950  0.832455  0.830297  1
