# generated using pymatgen
data_PrZn3AgRh
_symmetry_space_group_name_H-M   'P 1'
_cell_length_a   5.25901694
_cell_length_b   5.25901716
_cell_length_c   5.25901679
_cell_angle_alpha   62.32454661
_cell_angle_beta   62.32454422
_cell_angle_gamma   62.32453860
_symmetry_Int_Tables_number   1
_chemical_formula_structural   PrZn3AgRh
_chemical_formula_sum   'Pr1 Zn3 Ag1 Rh1'
_cell_volume   108.18352665
_cell_formula_units_Z   1
loop_
 _symmetry_equiv_pos_site_id
 _symmetry_equiv_pos_as_xyz
  1  'x, y, z'
loop_
 _atom_site_type_symbol
 _atom_site_label
 _atom_site_symmetry_multiplicity
 _atom_site_fract_x
 _atom_site_fract_y
 _atom_site_fract_z
 _atom_site_occupancy
  Pr  Pr0  1  0.999624  0.999624  0.999624  1
  Zn  Zn1  1  0.869178  0.379868  0.379868  1
  Zn  Zn2  1  0.379868  0.869178  0.379868  1
  Zn  Zn3  1  0.379868  0.379868  0.869178  1
  Ag  Ag4  1  0.746221  0.746221  0.746221  1
  Rh  Rh5  1  0.375240  0.375240  0.375240  1
