# generated using pymatgen
data_SmEr2TeAs2
_symmetry_space_group_name_H-M   'P 1'
_cell_length_a   4.19239700
_cell_length_b   10.43754072
_cell_length_c   7.24498972
_cell_angle_alpha   89.80714581
_cell_angle_beta   90.00000000
_cell_angle_gamma   90.00000000
_symmetry_Int_Tables_number   1
_chemical_formula_structural   SmEr2TeAs2
_chemical_formula_sum   'Sm2 Er4 Te2 As4'
_cell_volume   317.02674212
_cell_formula_units_Z   2
loop_
 _symmetry_equiv_pos_site_id
 _symmetry_equiv_pos_as_xyz
  1  'x, y, z'
loop_
 _atom_site_type_symbol
 _atom_site_label
 _atom_site_symmetry_multiplicity
 _atom_site_fract_x
 _atom_site_fract_y
 _atom_site_fract_z
 _atom_site_occupancy
  Sm  Sm0  1  0.250000  0.500955  0.248304  1
  Sm  Sm1  1  0.750000  0.499045  0.751696  1
  Er  Er2  1  0.250000  0.808785  0.917004  1
  Er  Er3  1  0.750000  0.191215  0.082996  1
  Er  Er4  1  0.750000  0.806487  0.419426  1
  Er  Er5  1  0.250000  0.193513  0.580574  1
  Te  Te6  1  0.750000  0.000869  0.748523  1
  Te  Te7  1  0.250000  0.999131  0.251477  1
  As  As8  1  0.250000  0.666204  0.585431  1
  As  As9  1  0.750000  0.333796  0.414569  1
  As  As10  1  0.750000  0.668679  0.083823  1
  As  As11  1  0.250000  0.331321  0.916177  1
