# generated using pymatgen
data_V(PtRh3)2
_symmetry_space_group_name_H-M   'P 1'
_cell_length_a   6.11924258
_cell_length_b   6.11924088
_cell_length_c   6.11924192
_cell_angle_alpha   95.91470399
_cell_angle_beta   95.38420287
_cell_angle_gamma   143.42892983
_symmetry_Int_Tables_number   1
_chemical_formula_structural   V(PtRh3)2
_chemical_formula_sum   'V1 Pt2 Rh6'
_cell_volume   129.62804048
_cell_formula_units_Z   1
loop_
 _symmetry_equiv_pos_site_id
 _symmetry_equiv_pos_as_xyz
  1  'x, y, z'
loop_
 _atom_site_type_symbol
 _atom_site_label
 _atom_site_symmetry_multiplicity
 _atom_site_fract_x
 _atom_site_fract_y
 _atom_site_fract_z
 _atom_site_occupancy
  V  V0  1  0.000000  0.000000  0.000000  1
  Pt  Pt1  1  0.671247  0.000000  0.671247  1
  Pt  Pt2  1  0.328753  0.000000  0.328753  1
  Rh  Rh3  1  0.339833  0.338135  0.677968  1
  Rh  Rh4  1  0.660167  0.661865  0.322032  1
  Rh  Rh5  1  0.660167  0.338135  0.998303  1
  Rh  Rh6  1  0.339833  0.661865  0.001697  1
  Rh  Rh7  1  0.000000  0.325877  0.325877  1
  Rh  Rh8  1  0.000000  0.674123  0.674123  1
