# generated using pymatgen
data_Hf7ThBi9
_symmetry_space_group_name_H-M   'P 1'
_cell_length_a   10.90681901
_cell_length_b   10.90681901
_cell_length_c   7.68567901
_cell_angle_alpha   89.99996929
_cell_angle_beta   89.99996935
_cell_angle_gamma   89.99799844
_symmetry_Int_Tables_number   1
_chemical_formula_structural   Hf7ThBi9
_chemical_formula_sum   'Hf14 Th2 Bi18'
_cell_volume   914.27839053
_cell_formula_units_Z   2
loop_
 _symmetry_equiv_pos_site_id
 _symmetry_equiv_pos_as_xyz
  1  'x, y, z'
loop_
 _atom_site_type_symbol
 _atom_site_label
 _atom_site_symmetry_multiplicity
 _atom_site_fract_x
 _atom_site_fract_y
 _atom_site_fract_z
 _atom_site_occupancy
  Hf  Hf0  1  0.999992  0.500008  0.000019  1
  Hf  Hf1  1  0.500008  0.999992  0.000019  1
  Hf  Hf2  1  0.500008  0.500008  0.000019  1
  Hf  Hf3  1  0.999992  0.999992  0.000019  1
  Hf  Hf4  1  0.894653  0.249975  0.152742  1
  Hf  Hf5  1  0.605338  0.250024  0.152719  1
  Hf  Hf6  1  0.105355  0.750025  0.847239  1
  Hf  Hf7  1  0.394650  0.749977  0.847261  1
  Hf  Hf8  1  0.750025  0.105355  0.847239  1
  Hf  Hf9  1  0.749977  0.394650  0.847261  1
  Hf  Hf10  1  0.249975  0.894653  0.152742  1
  Hf  Hf11  1  0.250024  0.605338  0.152719  1
  Hf  Hf12  1  0.750002  0.750002  0.435483  1
  Hf  Hf13  1  0.249999  0.249999  0.564529  1
  Th  Th14  1  0.749994  0.749994  0.926176  1
  Th  Th15  1  0.250005  0.250005  0.073810  1
  Bi  Bi16  1  0.419425  0.080561  0.353966  1
  Bi  Bi17  1  0.080561  0.419425  0.353966  1
  Bi  Bi18  1  0.580560  0.580560  0.646065  1
  Bi  Bi19  1  0.919440  0.919440  0.646070  1
  Bi  Bi20  1  0.919439  0.580576  0.646067  1
  Bi  Bi21  1  0.580576  0.919439  0.646067  1
  Bi  Bi22  1  0.419441  0.419441  0.353964  1
  Bi  Bi23  1  0.080558  0.080558  0.353961  1
  Bi  Bi24  1  0.249984  0.750017  0.499971  1
  Bi  Bi25  1  0.750017  0.249984  0.499971  1
  Bi  Bi26  1  0.491769  0.250028  0.797200  1
  Bi  Bi27  1  0.008229  0.249974  0.797230  1
  Bi  Bi28  1  0.508223  0.749973  0.202785  1
  Bi  Bi29  1  0.991781  0.750025  0.202755  1
  Bi  Bi30  1  0.749973  0.508223  0.202785  1
  Bi  Bi31  1  0.750025  0.991781  0.202755  1
  Bi  Bi32  1  0.250028  0.491769  0.797200  1
  Bi  Bi33  1  0.249974  0.008229  0.797230  1
