# generated using pymatgen
data_Er2Tm3InBi2
_symmetry_space_group_name_H-M   'P 1'
_cell_length_a   6.45136500
_cell_length_b   9.01941146
_cell_length_c   8.98791862
_cell_angle_alpha   120.11697954
_cell_angle_beta   90.00136878
_cell_angle_gamma   89.99990120
_symmetry_Int_Tables_number   1
_chemical_formula_structural   Er2Tm3InBi2
_chemical_formula_sum   'Er4 Tm6 In2 Bi4'
_cell_volume   452.38316858
_cell_formula_units_Z   2
loop_
 _symmetry_equiv_pos_site_id
 _symmetry_equiv_pos_as_xyz
  1  'x, y, z'
loop_
 _atom_site_type_symbol
 _atom_site_label
 _atom_site_symmetry_multiplicity
 _atom_site_fract_x
 _atom_site_fract_y
 _atom_site_fract_z
 _atom_site_occupancy
  Er  Er0  1  0.749985  0.235511  0.000005  1
  Er  Er1  1  0.750042  0.765562  0.763544  1
  Er  Er2  1  0.750076  0.002014  0.236451  1
  Er  Er3  1  0.249976  0.767717  0.999985  1
  Tm  Tm4  1  0.496399  0.331266  0.659784  1
  Tm  Tm5  1  0.496396  0.671479  0.340214  1
  Tm  Tm6  1  0.003590  0.671481  0.340223  1
  Tm  Tm7  1  0.003590  0.331260  0.659783  1
  Tm  Tm8  1  0.249992  0.233311  0.242339  1
  Tm  Tm9  1  0.249989  0.990971  0.757663  1
  In  In10  1  0.250002  0.604178  0.605839  1
  In  In11  1  0.249994  0.998343  0.394166  1
  Bi  Bi12  1  0.749997  0.606110  0.000000  1
  Bi  Bi13  1  0.749986  0.397190  0.393819  1
  Bi  Bi14  1  0.749989  0.003367  0.606183  1
  Bi  Bi15  1  0.249996  0.390243  0.000002  1
