# generated using pymatgen
data_Gd2HoTm(SeO3)6
_symmetry_space_group_name_H-M   'P 1'
_cell_length_a   7.12932789
_cell_length_b   8.16546186
_cell_length_c   9.11427178
_cell_angle_alpha   71.25888121
_cell_angle_beta   70.17520278
_cell_angle_gamma   66.12504531
_symmetry_Int_Tables_number   1
_chemical_formula_structural   Gd2HoTm(SeO3)6
_chemical_formula_sum   'Gd2 Ho1 Tm1 Se6 O18'
_cell_volume   445.85844297
_cell_formula_units_Z   1
loop_
 _symmetry_equiv_pos_site_id
 _symmetry_equiv_pos_as_xyz
  1  'x, y, z'
loop_
 _atom_site_type_symbol
 _atom_site_label
 _atom_site_symmetry_multiplicity
 _atom_site_fract_x
 _atom_site_fract_y
 _atom_site_fract_z
 _atom_site_occupancy
  Gd  Gd0  1  0.332850  0.729305  0.590671  1
  Gd  Gd1  1  0.666234  0.271981  0.409050  1
  Ho  Ho2  1  0.741315  0.735010  0.799456  1
  Tm  Tm3  1  0.258810  0.263974  0.200623  1
  Se  Se4  1  0.113551  0.243841  0.582188  1
  Se  Se5  1  0.426403  0.780116  0.195016  1
  Se  Se6  1  0.148384  0.747273  0.967859  1
  Se  Se7  1  0.852046  0.249473  0.034121  1
  Se  Se8  1  0.572724  0.222118  0.805246  1
  Se  Se9  1  0.886807  0.756899  0.415965  1
  O  O10  1  0.154730  0.017669  0.656219  1
  O  O11  1  0.170071  0.560920  0.121147  1
  O  O12  1  0.030766  0.705536  0.556562  1
  O  O13  1  0.343037  0.251356  0.432425  1
  O  O14  1  0.063756  0.694911  0.835567  1
  O  O15  1  0.592723  0.288135  0.149285  1
  O  O16  1  0.351547  0.208477  0.952599  1
  O  O17  1  0.360582  0.949630  0.298806  1
  O  O18  1  0.515692  0.599111  0.348323  1
  O  O19  1  0.482431  0.402975  0.652121  1
  O  O20  1  0.637263  0.053527  0.700823  1
  O  O21  1  0.649023  0.792750  0.049494  1
  O  O22  1  0.406781  0.711198  0.851853  1
  O  O23  1  0.937949  0.303427  0.164904  1
  O  O24  1  0.657083  0.748487  0.565075  1
  O  O25  1  0.970519  0.294214  0.441288  1
  O  O26  1  0.831988  0.434459  0.879536  1
  O  O27  1  0.844938  0.983229  0.343776  1
