# generated using pymatgen
data_Nd3ErAl18(Pd2Ru)2
_symmetry_space_group_name_H-M   'P 1'
_cell_length_a   7.65304962
_cell_length_b   7.66600114
_cell_length_c   9.58006200
_cell_angle_alpha   90.00000000
_cell_angle_beta   90.00000000
_cell_angle_gamma   119.46498112
_symmetry_Int_Tables_number   1
_chemical_formula_structural   Nd3ErAl18(Pd2Ru)2
_chemical_formula_sum   'Nd3 Er1 Al18 Pd4 Ru2'
_cell_volume   489.34885315
_cell_formula_units_Z   1
loop_
 _symmetry_equiv_pos_site_id
 _symmetry_equiv_pos_as_xyz
  1  'x, y, z'
loop_
 _atom_site_type_symbol
 _atom_site_label
 _atom_site_symmetry_multiplicity
 _atom_site_fract_x
 _atom_site_fract_y
 _atom_site_fract_z
 _atom_site_occupancy
  Nd  Nd0  1  0.995377  0.667869  0.250000  1
  Nd  Nd1  1  0.005365  0.331572  0.750000  1
  Nd  Nd2  1  0.667878  0.994436  0.250000  1
  Er  Er3  1  0.329783  0.005726  0.750000  1
  Al  Al4  1  0.126616  0.125210  0.250000  1
  Al  Al5  1  0.876004  0.874919  0.750000  1
  Al  Al6  1  0.002525  0.328603  0.074678  1
  Al  Al7  1  0.000605  0.673291  0.922463  1
  Al  Al8  1  0.000605  0.673291  0.577537  1
  Al  Al9  1  0.328878  0.001845  0.428397  1
  Al  Al10  1  0.002525  0.328603  0.425322  1
  Al  Al11  1  0.668419  0.998221  0.577488  1
  Al  Al12  1  0.668419  0.998221  0.922512  1
  Al  Al13  1  0.328878  0.001845  0.071603  1
  Al  Al14  1  0.329531  0.327851  0.553379  1
  Al  Al15  1  0.671248  0.671140  0.452060  1
  Al  Al16  1  0.671248  0.671140  0.047940  1
  Al  Al17  1  0.329531  0.327851  0.946621  1
  Al  Al18  1  0.342883  0.544243  0.250000  1
  Al  Al19  1  0.654617  0.452213  0.750000  1
  Al  Al20  1  0.543921  0.341079  0.250000  1
  Al  Al21  1  0.454101  0.659582  0.750000  1
  Pd  Pd22  1  0.671404  0.328018  0.999093  1
  Pd  Pd23  1  0.328135  0.671963  0.999201  1
  Pd  Pd24  1  0.328135  0.671963  0.500799  1
  Pd  Pd25  1  0.671404  0.328018  0.500907  1
  Ru  Ru26  1  0.000984  0.000645  0.998229  1
  Ru  Ru27  1  0.000984  0.000645  0.501771  1
