# generated using pymatgen
data_Dy4CCl6
_symmetry_space_group_name_H-M   'P 1'
_cell_length_a   3.78305200
_cell_length_b   12.44067400
_cell_length_c   12.96483200
_cell_angle_alpha   90.00000000
_cell_angle_beta   90.00000000
_cell_angle_gamma   90.00000000
_symmetry_Int_Tables_number   1
_chemical_formula_structural   Dy4CCl6
_chemical_formula_sum   'Dy8 C2 Cl12'
_cell_volume   610.17317975
_cell_formula_units_Z   2
loop_
 _symmetry_equiv_pos_site_id
 _symmetry_equiv_pos_as_xyz
  1  'x, y, z'
loop_
 _atom_site_type_symbol
 _atom_site_label
 _atom_site_symmetry_multiplicity
 _atom_site_fract_x
 _atom_site_fract_y
 _atom_site_fract_z
 _atom_site_occupancy
  Dy  Dy0  1  0.000000  0.104794  0.080275  1
  Dy  Dy1  1  0.000000  0.895206  0.919725  1
  Dy  Dy2  1  0.000000  0.604794  0.419725  1
  Dy  Dy3  1  0.000000  0.395206  0.580275  1
  Dy  Dy4  1  0.500000  0.122887  0.852394  1
  Dy  Dy5  1  0.500000  0.877113  0.147606  1
  Dy  Dy6  1  0.500000  0.622887  0.647606  1
  Dy  Dy7  1  0.500000  0.377113  0.352394  1
  C  C8  1  0.500000  0.000000  0.000000  1
  C  C9  1  0.500000  0.500000  0.500000  1
  Cl  Cl10  1  0.500000  0.264297  0.678175  1
  Cl  Cl11  1  0.500000  0.735703  0.321825  1
  Cl  Cl12  1  0.500000  0.764297  0.821825  1
  Cl  Cl13  1  0.500000  0.235703  0.178175  1
  Cl  Cl14  1  0.000000  0.258385  0.928383  1
  Cl  Cl15  1  0.000000  0.741615  0.071617  1
  Cl  Cl16  1  0.000000  0.484252  0.242518  1
  Cl  Cl17  1  0.000000  0.515748  0.757482  1
  Cl  Cl18  1  0.000000  0.984252  0.257482  1
  Cl  Cl19  1  0.000000  0.015748  0.742518  1
  Cl  Cl20  1  0.000000  0.241615  0.428383  1
  Cl  Cl21  1  0.000000  0.758385  0.571617  1
