# generated using pymatgen
data_Mn2Nb5B4Ru8W
_symmetry_space_group_name_H-M   'P 1'
_cell_length_a   9.31720300
_cell_length_b   9.31720300
_cell_length_c   3.01468600
_cell_angle_alpha   90.00000000
_cell_angle_beta   90.00000000
_cell_angle_gamma   90.00000000
_symmetry_Int_Tables_number   1
_chemical_formula_structural   Mn2Nb5B4Ru8W
_chemical_formula_sum   'Mn2 Nb5 B4 Ru8 W1'
_cell_volume   261.70571088
_cell_formula_units_Z   1
loop_
 _symmetry_equiv_pos_site_id
 _symmetry_equiv_pos_as_xyz
  1  'x, y, z'
loop_
 _atom_site_type_symbol
 _atom_site_label
 _atom_site_symmetry_multiplicity
 _atom_site_fract_x
 _atom_site_fract_y
 _atom_site_fract_z
 _atom_site_occupancy
  Mn  Mn0  1  0.500000  0.000000  0.500000  1
  Mn  Mn1  1  0.000000  0.500000  0.500000  1
  Nb  Nb2  1  0.830795  0.669732  0.000000  1
  Nb  Nb3  1  0.169205  0.330268  0.000000  1
  Nb  Nb4  1  0.330268  0.830795  0.000000  1
  Nb  Nb5  1  0.669732  0.169205  0.000000  1
  Nb  Nb6  1  0.000000  0.000000  0.000000  1
  B  B7  1  0.613783  0.887786  0.000000  1
  B  B8  1  0.386217  0.112214  0.000000  1
  B  B9  1  0.112214  0.613783  0.000000  1
  B  B10  1  0.887786  0.386217  0.000000  1
  Ru  Ru11  1  0.570402  0.718644  0.500000  1
  Ru  Ru12  1  0.429598  0.281356  0.500000  1
  Ru  Ru13  1  0.072365  0.778483  0.500000  1
  Ru  Ru14  1  0.927635  0.221517  0.500000  1
  Ru  Ru15  1  0.281356  0.570402  0.500000  1
  Ru  Ru16  1  0.718644  0.429598  0.500000  1
  Ru  Ru17  1  0.221517  0.072365  0.500000  1
  Ru  Ru18  1  0.778483  0.927635  0.500000  1
  W  W19  1  0.500000  0.500000  0.000000  1
