# generated using pymatgen
data_Hf12Zn8PdAu3C4
_symmetry_space_group_name_H-M   'P 1'
_cell_length_a   8.64349140
_cell_length_b   8.64349108
_cell_length_c   8.64349216
_cell_angle_alpha   59.89101039
_cell_angle_beta   59.89101207
_cell_angle_gamma   59.89101018
_symmetry_Int_Tables_number   1
_chemical_formula_structural   Hf12Zn8PdAu3C4
_chemical_formula_sum   'Hf12 Zn8 Pd1 Au3 C4'
_cell_volume   455.48849032
_cell_formula_units_Z   1
loop_
 _symmetry_equiv_pos_site_id
 _symmetry_equiv_pos_as_xyz
  1  'x, y, z'
loop_
 _atom_site_type_symbol
 _atom_site_label
 _atom_site_symmetry_multiplicity
 _atom_site_fract_x
 _atom_site_fract_y
 _atom_site_fract_z
 _atom_site_occupancy
  Hf  Hf0  1  0.437504  0.437504  0.061921  1
  Hf  Hf1  1  0.062908  0.437147  0.062908  1
  Hf  Hf2  1  0.437147  0.062908  0.062908  1
  Hf  Hf3  1  0.062908  0.062908  0.437147  1
  Hf  Hf4  1  0.437504  0.061921  0.437504  1
  Hf  Hf5  1  0.061921  0.437504  0.437504  1
  Hf  Hf6  1  0.812496  0.812496  0.188079  1
  Hf  Hf7  1  0.187092  0.812853  0.187092  1
  Hf  Hf8  1  0.812853  0.187092  0.187092  1
  Hf  Hf9  1  0.187092  0.187092  0.812853  1
  Hf  Hf10  1  0.812496  0.188079  0.812496  1
  Hf  Hf11  1  0.188079  0.812496  0.812496  1
  Zn  Zn12  1  0.831105  0.831105  0.497979  1
  Zn  Zn13  1  0.831105  0.497979  0.831105  1
  Zn  Zn14  1  0.497979  0.831105  0.831105  1
  Zn  Zn15  1  0.834701  0.834701  0.834701  1
  Zn  Zn16  1  0.418895  0.418895  0.752021  1
  Zn  Zn17  1  0.418895  0.752021  0.418895  1
  Zn  Zn18  1  0.752021  0.418895  0.418895  1
  Zn  Zn19  1  0.415299  0.415299  0.415299  1
  Pd  Pd20  1  0.625000  0.625000  0.625000  1
  Au  Au21  1  0.625000  0.625000  0.125000  1
  Au  Au22  1  0.625000  0.125000  0.625000  1
  Au  Au23  1  0.125000  0.625000  0.625000  1
  C  C24  1  0.125000  0.125000  0.625000  1
  C  C25  1  0.125000  0.625000  0.125000  1
  C  C26  1  0.625000  0.125000  0.125000  1
  C  C27  1  0.125000  0.125000  0.125000  1
