# generated using pymatgen
data_Ba10Al4Si13Pb
_symmetry_space_group_name_H-M   'P 1'
_cell_length_a   6.77932454
_cell_length_b   6.77932394
_cell_length_c   18.43795251
_cell_angle_alpha   81.41339094
_cell_angle_beta   81.41339353
_cell_angle_gamma   100.18425058
_symmetry_Int_Tables_number   1
_chemical_formula_structural   Ba10Al4Si13Pb
_chemical_formula_sum   'Ba10 Al4 Si13 Pb1'
_cell_volume   811.14275544
_cell_formula_units_Z   1
loop_
 _symmetry_equiv_pos_site_id
 _symmetry_equiv_pos_as_xyz
  1  'x, y, z'
loop_
 _atom_site_type_symbol
 _atom_site_label
 _atom_site_symmetry_multiplicity
 _atom_site_fract_x
 _atom_site_fract_y
 _atom_site_fract_z
 _atom_site_occupancy
  Ba  Ba0  1  0.746893  0.251372  0.002354  1
  Ba  Ba1  1  0.120027  0.567861  0.785074  1
  Ba  Ba2  1  0.292099  0.708980  0.499233  1
  Ba  Ba3  1  0.766810  0.766810  0.637556  1
  Ba  Ba4  1  0.239087  0.239087  0.356021  1
  Ba  Ba5  1  0.567861  0.120027  0.785074  1
  Ba  Ba6  1  0.251372  0.746893  0.002354  1
  Ba  Ba7  1  0.708980  0.292099  0.499233  1
  Ba  Ba8  1  0.428465  0.878983  0.213239  1
  Ba  Ba9  1  0.878983  0.428465  0.213239  1
  Al  Al10  1  0.218056  0.218056  0.073095  1
  Al  Al11  1  0.926667  0.926667  0.263721  1
  Al  Al12  1  0.070776  0.070776  0.736716  1
  Al  Al13  1  0.789013  0.789013  0.936277  1
  Si  Si14  1  0.347864  0.347864  0.641813  1
  Si  Si15  1  0.278980  0.278980  0.934649  1
  Si  Si16  1  0.931028  0.931028  0.131185  1
  Si  Si17  1  0.651696  0.651696  0.357963  1
  Si  Si18  1  0.424279  0.424279  0.148058  1
  Si  Si19  1  0.066103  0.066103  0.871467  1
  Si  Si20  1  0.818702  0.818702  0.448228  1
  Si  Si21  1  0.328984  0.975159  0.640649  1
  Si  Si22  1  0.670196  0.025458  0.358592  1
  Si  Si23  1  0.182580  0.182580  0.550496  1
  Si  Si24  1  0.975159  0.328984  0.640649  1
  Si  Si25  1  0.025458  0.670196  0.358592  1
  Si  Si26  1  0.702603  0.702603  0.072887  1
  Pb  Pb27  1  0.591279  0.591279  0.841586  1
