# generated using pymatgen
data_Y4ZnSi6Ir
_symmetry_space_group_name_H-M   'P 1'
_cell_length_a   8.12929100
_cell_length_b   8.12929117
_cell_length_c   8.16296200
_cell_angle_alpha   90.00000000
_cell_angle_beta   90.00000000
_cell_angle_gamma   119.99999526
_symmetry_Int_Tables_number   1
_chemical_formula_structural   Y4ZnSi6Ir
_chemical_formula_sum   'Y8 Zn2 Si12 Ir2'
_cell_volume   467.17949850
_cell_formula_units_Z   2
loop_
 _symmetry_equiv_pos_site_id
 _symmetry_equiv_pos_as_xyz
  1  'x, y, z'
loop_
 _atom_site_type_symbol
 _atom_site_label
 _atom_site_symmetry_multiplicity
 _atom_site_fract_x
 _atom_site_fract_y
 _atom_site_fract_z
 _atom_site_occupancy
  Y  Y0  1  0.502199  0.004398  0.243044  1
  Y  Y1  1  0.497801  0.995602  0.756956  1
  Y  Y2  1  0.995602  0.497801  0.243044  1
  Y  Y3  1  0.004398  0.502199  0.756956  1
  Y  Y4  1  0.502199  0.497801  0.243044  1
  Y  Y5  1  0.497801  0.502199  0.756956  1
  Y  Y6  1  0.000000  0.000000  0.249504  1
  Y  Y7  1  0.000000  0.000000  0.750496  1
  Zn  Zn8  1  0.666667  0.333333  0.511990  1
  Zn  Zn9  1  0.333333  0.666667  0.488010  1
  Si  Si10  1  0.166995  0.333990  0.003181  1
  Si  Si11  1  0.833005  0.666010  0.996819  1
  Si  Si12  1  0.666010  0.833005  0.003181  1
  Si  Si13  1  0.833812  0.667624  0.493040  1
  Si  Si14  1  0.333990  0.166995  0.996819  1
  Si  Si15  1  0.166188  0.332376  0.506960  1
  Si  Si16  1  0.166995  0.833005  0.003181  1
  Si  Si17  1  0.332376  0.166188  0.493040  1
  Si  Si18  1  0.833005  0.166995  0.996819  1
  Si  Si19  1  0.667624  0.833812  0.506960  1
  Si  Si20  1  0.833812  0.166188  0.493040  1
  Si  Si21  1  0.166188  0.833812  0.506960  1
  Ir  Ir22  1  0.333333  0.666667  0.004044  1
  Ir  Ir23  1  0.666667  0.333333  0.995956  1
