# generated using pymatgen
data_Er2Tm4P13Rh20
_symmetry_space_group_name_H-M   'P 1'
_cell_length_a   13.30738201
_cell_length_b   13.30707247
_cell_length_c   3.90439900
_cell_angle_alpha   90.00215117
_cell_angle_beta   89.99788427
_cell_angle_gamma   119.99794460
_symmetry_Int_Tables_number   1
_chemical_formula_structural   Er2Tm4P13Rh20
_chemical_formula_sum   'Er2 Tm4 P13 Rh20'
_cell_volume   598.78231505
_cell_formula_units_Z   1
loop_
 _symmetry_equiv_pos_site_id
 _symmetry_equiv_pos_as_xyz
  1  'x, y, z'
loop_
 _atom_site_type_symbol
 _atom_site_label
 _atom_site_symmetry_multiplicity
 _atom_site_fract_x
 _atom_site_fract_y
 _atom_site_fract_z
 _atom_site_occupancy
  Er  Er0  1  0.529129  0.717471  0.248653  1
  Er  Er1  1  0.282540  0.811637  0.248636  1
  Tm  Tm2  1  0.188367  0.470856  0.248654  1
  Tm  Tm3  1  0.470894  0.282519  0.751323  1
  Tm  Tm4  1  0.717466  0.188356  0.751356  1
  Tm  Tm5  1  0.811613  0.529109  0.751362  1
  P  P6  1  0.527041  0.139958  0.250369  1
  P  P7  1  0.860012  0.387078  0.250344  1
  P  P8  1  0.612897  0.472941  0.250303  1
  P  P9  1  0.944239  0.713783  0.254418  1
  P  P10  1  0.286206  0.230433  0.254469  1
  P  P11  1  0.769534  0.055762  0.254438  1
  P  P12  1  0.386983  0.526881  0.749758  1
  P  P13  1  0.473089  0.860164  0.749705  1
  P  P14  1  0.139871  0.612806  0.749722  1
  P  P15  1  0.713982  0.769647  0.745521  1
  P  P16  1  0.230379  0.944351  0.745584  1
  P  P17  1  0.055788  0.286178  0.745546  1
  P  P18  1  0.000013  0.000024  0.000055  1
  Rh  Rh19  1  0.333159  0.666440  0.752187  1
  Rh  Rh20  1  0.920448  0.250575  0.253165  1
  Rh  Rh21  1  0.749487  0.669882  0.253176  1
  Rh  Rh22  1  0.330138  0.079615  0.253219  1
  Rh  Rh23  1  0.438250  0.021865  0.751296  1
  Rh  Rh24  1  0.978290  0.416431  0.751267  1
  Rh  Rh25  1  0.583613  0.561717  0.751297  1
  Rh  Rh26  1  0.666693  0.333353  0.247749  1
  Rh  Rh27  1  0.094651  0.187535  0.247953  1
  Rh  Rh28  1  0.812502  0.907121  0.247969  1
  Rh  Rh29  1  0.092875  0.905348  0.247947  1
  Rh  Rh30  1  0.021655  0.583529  0.248691  1
  Rh  Rh31  1  0.416363  0.438073  0.248651  1
  Rh  Rh32  1  0.561944  0.978379  0.248679  1
  Rh  Rh33  1  0.670023  0.920662  0.746759  1
  Rh  Rh34  1  0.079306  0.749321  0.746842  1
  Rh  Rh35  1  0.250543  0.330144  0.746802  1
  Rh  Rh36  1  0.905459  0.812513  0.752058  1
  Rh  Rh37  1  0.187467  0.092952  0.752006  1
  Rh  Rh38  1  0.907090  0.094590  0.752072  1
