# generated using pymatgen
data_Dy4Al3SiRu4
_symmetry_space_group_name_H-M   'P 1'
_cell_length_a   4.48615400
_cell_length_b   7.20465222
_cell_length_c   7.04724169
_cell_angle_alpha   89.47436591
_cell_angle_beta   90.00000000
_cell_angle_gamma   90.00000000
_symmetry_Int_Tables_number   1
_chemical_formula_structural   Dy4Al3SiRu4
_chemical_formula_sum   'Dy4 Al3 Si1 Ru4'
_cell_volume   227.76557792
_cell_formula_units_Z   1
loop_
 _symmetry_equiv_pos_site_id
 _symmetry_equiv_pos_as_xyz
  1  'x, y, z'
loop_
 _atom_site_type_symbol
 _atom_site_label
 _atom_site_symmetry_multiplicity
 _atom_site_fract_x
 _atom_site_fract_y
 _atom_site_fract_z
 _atom_site_occupancy
  Dy  Dy0  1  0.250000  0.981333  0.808561  1
  Dy  Dy1  1  0.750000  0.022688  0.193732  1
  Dy  Dy2  1  0.250000  0.471774  0.690160  1
  Dy  Dy3  1  0.750000  0.520499  0.310928  1
  Al  Al4  1  0.250000  0.311256  0.109622  1
  Al  Al5  1  0.750000  0.686158  0.891270  1
  Al  Al6  1  0.250000  0.808195  0.395556  1
  Si  Si7  1  0.750000  0.192968  0.601020  1
  Ru  Ru8  1  0.750000  0.854984  0.565515  1
  Ru  Ru9  1  0.250000  0.158452  0.444862  1
  Ru  Ru10  1  0.750000  0.332856  0.924034  1
  Ru  Ru11  1  0.250000  0.658838  0.064740  1
