# generated using pymatgen
data_Tb3Ho3(AuO7)2
_symmetry_space_group_name_H-M   'P 1'
_cell_length_a   6.49746051
_cell_length_b   6.49520263
_cell_length_c   7.45463133
_cell_angle_alpha   90.00082283
_cell_angle_beta   90.00214813
_cell_angle_gamma   108.83687196
_symmetry_Int_Tables_number   1
_chemical_formula_structural   Tb3Ho3(AuO7)2
_chemical_formula_sum   'Tb3 Ho3 Au2 O14'
_cell_volume   297.75315867
_cell_formula_units_Z   1
loop_
 _symmetry_equiv_pos_site_id
 _symmetry_equiv_pos_as_xyz
  1  'x, y, z'
loop_
 _atom_site_type_symbol
 _atom_site_label
 _atom_site_symmetry_multiplicity
 _atom_site_fract_x
 _atom_site_fract_y
 _atom_site_fract_z
 _atom_site_occupancy
  Tb  Tb0  1  0.499926  0.500213  0.500369  1
  Tb  Tb1  1  0.497609  0.497672  0.999588  1
  Tb  Tb2  1  0.997616  0.528910  0.249506  1
  Ho  Ho3  1  0.001518  0.471618  0.749499  1
  Ho  Ho4  1  0.528900  0.997729  0.750519  1
  Ho  Ho5  1  0.471450  0.001638  0.250524  1
  Au  Au6  1  0.999843  0.999829  0.500692  1
  Au  Au7  1  0.000386  0.000466  0.999414  1
  O  O8  1  0.919513  0.079655  0.749963  1
  O  O9  1  0.081346  0.922134  0.249982  1
  O  O10  1  0.362867  0.640151  0.249900  1
  O  O11  1  0.639608  0.359393  0.749934  1
  O  O12  1  0.365829  0.633886  0.750048  1
  O  O13  1  0.630744  0.364730  0.250081  1
  O  O14  1  0.330776  0.079883  0.975505  1
  O  O15  1  0.669875  0.920543  0.475946  1
  O  O16  1  0.330055  0.078661  0.525290  1
  O  O17  1  0.670690  0.921912  0.024877  1
  O  O18  1  0.083257  0.330252  0.476990  1
  O  O19  1  0.917479  0.670238  0.973525  1
  O  O20  1  0.916624  0.669552  0.525636  1
  O  O21  1  0.084089  0.330934  0.022211  1
