# generated using pymatgen
data_Dy2Pa2Tc7Ir
_symmetry_space_group_name_H-M   'P 1'
_cell_length_a   5.19296000
_cell_length_b   5.19296062
_cell_length_c   9.46443800
_cell_angle_alpha   90.00000000
_cell_angle_beta   90.00000000
_cell_angle_gamma   119.99999603
_symmetry_Int_Tables_number   1
_chemical_formula_structural   Dy2Pa2Tc7Ir
_chemical_formula_sum   'Dy2 Pa2 Tc7 Ir1'
_cell_volume   221.03216949
_cell_formula_units_Z   1
loop_
 _symmetry_equiv_pos_site_id
 _symmetry_equiv_pos_as_xyz
  1  'x, y, z'
loop_
 _atom_site_type_symbol
 _atom_site_label
 _atom_site_symmetry_multiplicity
 _atom_site_fract_x
 _atom_site_fract_y
 _atom_site_fract_z
 _atom_site_occupancy
  Dy  Dy0  1  0.666667  0.333333  0.935566  1
  Dy  Dy1  1  0.333333  0.666667  0.064434  1
  Pa  Pa2  1  0.333333  0.666667  0.437316  1
  Pa  Pa3  1  0.666667  0.333333  0.562684  1
  Tc  Tc4  1  0.000000  0.000000  0.500000  1
  Tc  Tc5  1  0.830279  0.169721  0.248279  1
  Tc  Tc6  1  0.830279  0.660558  0.248279  1
  Tc  Tc7  1  0.339442  0.169721  0.248279  1
  Tc  Tc8  1  0.169721  0.830279  0.751721  1
  Tc  Tc9  1  0.169721  0.339442  0.751721  1
  Tc  Tc10  1  0.660558  0.830279  0.751721  1
  Ir  Ir11  1  0.000000  0.000000  0.000000  1
