# generated using pymatgen
data_Na4LuRuO6
_symmetry_space_group_name_H-M   'P 1'
_cell_length_a   5.60277735
_cell_length_b   5.60284343
_cell_length_c   5.80173403
_cell_angle_alpha   99.42236570
_cell_angle_beta   99.42529190
_cell_angle_gamma   119.96534207
_symmetry_Int_Tables_number   1
_chemical_formula_structural   Na4LuRuO6
_chemical_formula_sum   'Na4 Lu1 Ru1 O6'
_cell_volume   149.08946433
_cell_formula_units_Z   1
loop_
 _symmetry_equiv_pos_site_id
 _symmetry_equiv_pos_as_xyz
  1  'x, y, z'
loop_
 _atom_site_type_symbol
 _atom_site_label
 _atom_site_symmetry_multiplicity
 _atom_site_fract_x
 _atom_site_fract_y
 _atom_site_fract_z
 _atom_site_occupancy
  Na  Na0  1  0.500561  0.499467  0.999995  1
  Na  Na1  1  0.990235  0.009818  0.500033  1
  Na  Na2  1  0.662801  0.337218  0.499940  1
  Na  Na3  1  0.342611  0.657421  0.500005  1
  Lu  Lu4  1  0.166817  0.833029  0.999960  1
  Ru  Ru5  1  0.832669  0.167288  0.000032  1
  O  O6  1  0.596826  0.950776  0.206923  1
  O  O7  1  0.925963  0.543599  0.211765  1
  O  O8  1  0.191818  0.215940  0.212159  1
  O  O9  1  0.784031  0.808170  0.787886  1
  O  O10  1  0.456394  0.074019  0.788278  1
  O  O11  1  0.049277  0.403258  0.793028  1
