# generated using pymatgen
data_Pa3TiSn5
_symmetry_space_group_name_H-M   'P 1'
_cell_length_a   9.18247100
_cell_length_b   9.18247235
_cell_length_c   6.12417700
_cell_angle_alpha   90.00000000
_cell_angle_beta   90.00000000
_cell_angle_gamma   119.99999154
_symmetry_Int_Tables_number   1
_chemical_formula_structural   Pa3TiSn5
_chemical_formula_sum   'Pa6 Ti2 Sn10'
_cell_volume   447.19567783
_cell_formula_units_Z   2
loop_
 _symmetry_equiv_pos_site_id
 _symmetry_equiv_pos_as_xyz
  1  'x, y, z'
loop_
 _atom_site_type_symbol
 _atom_site_label
 _atom_site_symmetry_multiplicity
 _atom_site_fract_x
 _atom_site_fract_y
 _atom_site_fract_z
 _atom_site_occupancy
  Pa  Pa0  1  0.613690  0.000000  0.750000  1
  Pa  Pa1  1  0.386310  0.000000  0.250000  1
  Pa  Pa2  1  0.000000  0.613690  0.750000  1
  Pa  Pa3  1  0.000000  0.386310  0.250000  1
  Pa  Pa4  1  0.386310  0.386310  0.750000  1
  Pa  Pa5  1  0.613690  0.613690  0.250000  1
  Ti  Ti6  1  0.000000  0.000000  0.500000  1
  Ti  Ti7  1  0.000000  0.000000  0.000000  1
  Sn  Sn8  1  0.263156  0.000000  0.750000  1
  Sn  Sn9  1  0.736844  0.000000  0.250000  1
  Sn  Sn10  1  0.000000  0.263156  0.750000  1
  Sn  Sn11  1  0.000000  0.736844  0.250000  1
  Sn  Sn12  1  0.736844  0.736844  0.750000  1
  Sn  Sn13  1  0.263156  0.263156  0.250000  1
  Sn  Sn14  1  0.333333  0.666667  0.500000  1
  Sn  Sn15  1  0.666667  0.333333  0.500000  1
  Sn  Sn16  1  0.666667  0.333333  0.000000  1
  Sn  Sn17  1  0.333333  0.666667  0.000000  1
