# generated using pymatgen
data_ZrSc7(Si4W3)4
_symmetry_space_group_name_H-M   'P 1'
_cell_length_a   6.58439904
_cell_length_b   6.78457896
_cell_length_c   12.69329474
_cell_angle_alpha   89.97644177
_cell_angle_beta   90.03124923
_cell_angle_gamma   89.94386045
_symmetry_Int_Tables_number   1
_chemical_formula_structural   ZrSc7(Si4W3)4
_chemical_formula_sum   'Zr1 Sc7 Si16 W12'
_cell_volume   567.03921987
_cell_formula_units_Z   1
loop_
 _symmetry_equiv_pos_site_id
 _symmetry_equiv_pos_as_xyz
  1  'x, y, z'
loop_
 _atom_site_type_symbol
 _atom_site_label
 _atom_site_symmetry_multiplicity
 _atom_site_fract_x
 _atom_site_fract_y
 _atom_site_fract_z
 _atom_site_occupancy
  Zr  Zr0  1  0.493821  0.669566  0.593127  1
  Sc  Sc1  1  0.993266  0.830499  0.907977  1
  Sc  Sc2  1  0.506387  0.330262  0.092314  1
  Sc  Sc3  1  0.006779  0.169275  0.407482  1
  Sc  Sc4  1  0.506000  0.330842  0.407454  1
  Sc  Sc5  1  0.006232  0.169778  0.092361  1
  Sc  Sc6  1  0.493250  0.669508  0.907718  1
  Sc  Sc7  1  0.992423  0.830396  0.591946  1
  Si  Si8  1  0.668446  0.963393  0.455713  1
  Si  Si9  1  0.167856  0.537266  0.044474  1
  Si  Si10  1  0.332356  0.037290  0.955513  1
  Si  Si11  1  0.833209  0.460940  0.543267  1
  Si  Si12  1  0.331527  0.039512  0.543285  1
  Si  Si13  1  0.831971  0.462438  0.955828  1
  Si  Si14  1  0.667514  0.963135  0.044371  1
  Si  Si15  1  0.168663  0.537070  0.455398  1
  Si  Si16  1  0.464022  0.379954  0.750876  1
  Si  Si17  1  0.965009  0.118588  0.750106  1
  Si  Si18  1  0.535590  0.618377  0.249582  1
  Si  Si19  1  0.035288  0.881099  0.249876  1
  Si  Si20  1  0.699411  0.858285  0.751252  1
  Si  Si21  1  0.196443  0.642912  0.751344  1
  Si  Si22  1  0.302192  0.142970  0.249695  1
  Si  Si23  1  0.802226  0.357003  0.250043  1
  W  W24  1  0.666959  0.164503  0.624223  1
  W  W25  1  0.166755  0.336123  0.875543  1
  W  W26  1  0.332905  0.835573  0.124560  1
  W  W27  1  0.832653  0.664466  0.375591  1
  W  W28  1  0.333620  0.835618  0.375640  1
  W  W29  1  0.832485  0.664238  0.124281  1
  W  W30  1  0.667315  0.164422  0.875278  1
  W  W31  1  0.167675  0.336805  0.624683  1
  W  W32  1  0.833437  0.503854  0.749418  1
  W  W33  1  0.333435  0.994222  0.749458  1
  W  W34  1  0.166570  0.496378  0.250387  1
  W  W35  1  0.666313  0.003438  0.249934  1
