# generated using pymatgen
data_Na4CdTeO6
_symmetry_space_group_name_H-M   'P 1'
_cell_length_a   5.73442611
_cell_length_b   5.73442548
_cell_length_c   5.80878004
_cell_angle_alpha   100.18207313
_cell_angle_beta   100.18206417
_cell_angle_gamma   119.43879768
_symmetry_Int_Tables_number   1
_chemical_formula_structural   Na4CdTeO6
_chemical_formula_sum   'Na4 Cd1 Te1 O6'
_cell_volume   155.79232090
_cell_formula_units_Z   1
loop_
 _symmetry_equiv_pos_site_id
 _symmetry_equiv_pos_as_xyz
  1  'x, y, z'
loop_
 _atom_site_type_symbol
 _atom_site_label
 _atom_site_symmetry_multiplicity
 _atom_site_fract_x
 _atom_site_fract_y
 _atom_site_fract_z
 _atom_site_occupancy
  Na  Na0  1  0.500190  0.499809  0.000000  1
  Na  Na1  1  0.999549  0.000453  0.500000  1
  Na  Na2  1  0.663309  0.336693  0.500000  1
  Na  Na3  1  0.336877  0.663125  0.500000  1
  Cd  Cd4  1  0.833011  0.166987  0.000000  1
  Te  Te5  1  0.167277  0.832722  0.000000  1
  O  O6  1  0.960772  0.620561  0.204642  1
  O  O7  1  0.230104  0.183525  0.215414  1
  O  O8  1  0.524278  0.911288  0.216022  1
  O  O9  1  0.088712  0.475722  0.783978  1
  O  O10  1  0.816475  0.769896  0.784587  1
  O  O11  1  0.379439  0.039229  0.795359  1
