# generated using pymatgen
data_PrNb6InCl18
_symmetry_space_group_name_H-M   'P 1'
_cell_length_a   10.33519443
_cell_length_b   10.33519448
_cell_length_c   10.33519501
_cell_angle_alpha   55.19969109
_cell_angle_beta   55.19969178
_cell_angle_gamma   55.19968759
_symmetry_Int_Tables_number   1
_chemical_formula_structural   PrNb6InCl18
_chemical_formula_sum   'Pr1 Nb6 In1 Cl18'
_cell_volume   693.50756304
_cell_formula_units_Z   1
loop_
 _symmetry_equiv_pos_site_id
 _symmetry_equiv_pos_as_xyz
  1  'x, y, z'
loop_
 _atom_site_type_symbol
 _atom_site_label
 _atom_site_symmetry_multiplicity
 _atom_site_fract_x
 _atom_site_fract_y
 _atom_site_fract_z
 _atom_site_occupancy
  Pr  Pr0  1  0.498274  0.498274  0.498274  1
  Nb  Nb1  1  0.800110  0.147346  0.915844  1
  Nb  Nb2  1  0.915844  0.800110  0.147346  1
  Nb  Nb3  1  0.147346  0.915844  0.800110  1
  Nb  Nb4  1  0.200706  0.852942  0.083393  1
  Nb  Nb5  1  0.083393  0.200706  0.852942  1
  Nb  Nb6  1  0.852942  0.083393  0.200706  1
  In  In7  1  0.221641  0.221641  0.221641  1
  Cl  Cl8  1  0.861684  0.409449  0.729617  1
  Cl  Cl9  1  0.729617  0.861684  0.409449  1
  Cl  Cl10  1  0.409449  0.729617  0.861684  1
  Cl  Cl11  1  0.138103  0.589868  0.271592  1
  Cl  Cl12  1  0.271592  0.138103  0.589868  1
  Cl  Cl13  1  0.589868  0.271592  0.138103  1
  Cl  Cl14  1  0.531971  0.336529  0.815569  1
  Cl  Cl15  1  0.815569  0.531971  0.336529  1
  Cl  Cl16  1  0.336529  0.815569  0.531971  1
  Cl  Cl17  1  0.461972  0.664808  0.189275  1
  Cl  Cl18  1  0.189275  0.461972  0.664808  1
  Cl  Cl19  1  0.664808  0.189275  0.461972  1
  Cl  Cl20  1  0.665288  0.936905  0.074034  1
  Cl  Cl21  1  0.074034  0.665288  0.936905  1
  Cl  Cl22  1  0.936905  0.074034  0.665288  1
  Cl  Cl23  1  0.335002  0.063363  0.925855  1
  Cl  Cl24  1  0.925855  0.335002  0.063363  1
  Cl  Cl25  1  0.063363  0.925855  0.335002  1
