# generated using pymatgen
data_Nb6VCdS12
_symmetry_space_group_name_H-M   'P 1'
_cell_length_a   5.82333600
_cell_length_b   5.82333658
_cell_length_c   12.92873100
_cell_angle_alpha   90.00000000
_cell_angle_beta   90.00000000
_cell_angle_gamma   120.00000808
_symmetry_Int_Tables_number   1
_chemical_formula_structural   Nb6VCdS12
_chemical_formula_sum   'Nb6 V1 Cd1 S12'
_cell_volume   379.69094242
_cell_formula_units_Z   1
loop_
 _symmetry_equiv_pos_site_id
 _symmetry_equiv_pos_as_xyz
  1  'x, y, z'
loop_
 _atom_site_type_symbol
 _atom_site_label
 _atom_site_symmetry_multiplicity
 _atom_site_fract_x
 _atom_site_fract_y
 _atom_site_fract_z
 _atom_site_occupancy
  Nb  Nb0  1  0.000000  0.000000  0.515257  1
  Nb  Nb1  1  0.000000  0.000000  0.984743  1
  Nb  Nb2  1  0.333333  0.666667  0.983620  1
  Nb  Nb3  1  0.666667  0.333333  0.987405  1
  Nb  Nb4  1  0.666667  0.333333  0.512595  1
  Nb  Nb5  1  0.333333  0.666667  0.516380  1
  V  V6  1  0.666667  0.333333  0.750000  1
  Cd  Cd7  1  0.333333  0.666667  0.250000  1
  S  S8  1  0.330958  0.328506  0.392533  1
  S  S9  1  0.671494  0.002453  0.392533  1
  S  S10  1  0.997547  0.669042  0.392533  1
  S  S11  1  0.335589  0.333312  0.635940  1
  S  S12  1  0.997723  0.664411  0.635940  1
  S  S13  1  0.666688  0.002277  0.635940  1
  S  S14  1  0.666688  0.664411  0.864060  1
  S  S15  1  0.335589  0.002277  0.864060  1
  S  S16  1  0.997723  0.333312  0.864060  1
  S  S17  1  0.671494  0.669042  0.107467  1
  S  S18  1  0.997547  0.328506  0.107467  1
  S  S19  1  0.330958  0.002453  0.107467  1
