# generated using pymatgen
data_Ho5Th3MgCdRu2
_symmetry_space_group_name_H-M   'P 1'
_cell_length_a   9.67869186
_cell_length_b   9.77701974
_cell_length_c   9.79193686
_cell_angle_alpha   59.28592364
_cell_angle_beta   60.28029709
_cell_angle_gamma   60.31852761
_symmetry_Int_Tables_number   1
_chemical_formula_structural   Ho5Th3MgCdRu2
_chemical_formula_sum   'Ho10 Th6 Mg2 Cd2 Ru4'
_cell_volume   654.49756637
_cell_formula_units_Z   2
loop_
 _symmetry_equiv_pos_site_id
 _symmetry_equiv_pos_as_xyz
  1  'x, y, z'
loop_
 _atom_site_type_symbol
 _atom_site_label
 _atom_site_symmetry_multiplicity
 _atom_site_fract_x
 _atom_site_fract_y
 _atom_site_fract_z
 _atom_site_occupancy
  Ho  Ho0  1  0.189460  0.809667  0.190563  1
  Ho  Ho1  1  0.809667  0.189460  0.810310  1
  Ho  Ho2  1  0.189492  0.189492  0.810508  1
  Ho  Ho3  1  0.808791  0.808791  0.191209  1
  Ho  Ho4  1  0.932414  0.566722  0.567964  1
  Ho  Ho5  1  0.566722  0.932414  0.932900  1
  Ho  Ho6  1  0.561670  0.937006  0.563489  1
  Ho  Ho7  1  0.937006  0.561670  0.937835  1
  Ho  Ho8  1  0.562285  0.562285  0.937715  1
  Ho  Ho9  1  0.936975  0.936975  0.563025  1
  Th  Th10  1  0.340689  0.351049  0.349659  1
  Th  Th11  1  0.351049  0.340689  0.958602  1
  Th  Th12  1  0.352237  0.955461  0.341896  1
  Th  Th13  1  0.955461  0.352237  0.350406  1
  Th  Th14  1  0.815945  0.183719  0.185152  1
  Th  Th15  1  0.183719  0.815945  0.815184  1
  Mg  Mg16  1  0.578030  0.264049  0.580609  1
  Mg  Mg17  1  0.264049  0.578030  0.577313  1
  Cd  Cd18  1  0.584255  0.580356  0.582941  1
  Cd  Cd19  1  0.580356  0.584255  0.252448  1
  Ru  Ru20  1  0.128734  0.148046  0.148700  1
  Ru  Ru21  1  0.148046  0.128734  0.574517  1
  Ru  Ru22  1  0.148283  0.574663  0.127786  1
  Ru  Ru23  1  0.574663  0.148283  0.149266  1
