# generated using pymatgen
data_Li3Mg9Os8
_symmetry_space_group_name_H-M   'P 1'
_cell_length_a   6.89206444
_cell_length_b   6.90429174
_cell_length_c   6.90429174
_cell_angle_alpha   89.80995007
_cell_angle_beta   90.18726758
_cell_angle_gamma   89.81273242
_symmetry_Int_Tables_number   1
_chemical_formula_structural   Li3Mg9Os8
_chemical_formula_sum   'Li3 Mg9 Os8'
_cell_volume   328.53417612
_cell_formula_units_Z   1
loop_
 _symmetry_equiv_pos_site_id
 _symmetry_equiv_pos_as_xyz
  1  'x, y, z'
loop_
 _atom_site_type_symbol
 _atom_site_label
 _atom_site_symmetry_multiplicity
 _atom_site_fract_x
 _atom_site_fract_y
 _atom_site_fract_z
 _atom_site_occupancy
  Li  Li0  1  0.625000  0.294106  0.544106  1
  Li  Li1  1  0.704346  0.048047  0.867932  1
  Li  Li2  1  0.545654  0.617932  0.298047  1
  Mg  Mg3  1  0.949336  0.368515  0.789721  1
  Mg  Mg4  1  0.300664  0.539721  0.618515  1
  Mg  Mg5  1  0.463603  0.131243  0.208239  1
  Mg  Mg6  1  0.038405  0.875011  0.712635  1
  Mg  Mg7  1  0.786397  0.958239  0.381243  1
  Mg  Mg8  1  0.125000  0.206148  0.456148  1
  Mg  Mg9  1  0.389406  0.794593  0.962268  1
  Mg  Mg10  1  0.860594  0.712268  0.044593  1
  Mg  Mg11  1  0.211595  0.462635  0.125011  1
  Os  Os12  1  0.677355  0.674059  0.673932  1
  Os  Os13  1  0.925220  0.570957  0.425559  1
  Os  Os14  1  0.572645  0.423932  0.924059  1
  Os  Os15  1  0.425214  0.923668  0.573971  1
  Os  Os16  1  0.173922  0.824796  0.324600  1
  Os  Os17  1  0.824786  0.323971  0.173668  1
  Os  Os18  1  0.324780  0.175559  0.820957  1
  Os  Os19  1  0.076078  0.074600  0.074796  1
