# generated using pymatgen
data_Si8AsP15
_symmetry_space_group_name_H-M   'P 1'
_cell_length_a   3.46981200
_cell_length_b   10.26166346
_cell_length_c   15.95643537
_cell_angle_alpha   90.09406585
_cell_angle_beta   90.00000000
_cell_angle_gamma   90.00000000
_symmetry_Int_Tables_number   1
_chemical_formula_structural   Si8AsP15
_chemical_formula_sum   'Si8 As1 P15'
_cell_volume   568.14475852
_cell_formula_units_Z   1
loop_
 _symmetry_equiv_pos_site_id
 _symmetry_equiv_pos_as_xyz
  1  'x, y, z'
loop_
 _atom_site_type_symbol
 _atom_site_label
 _atom_site_symmetry_multiplicity
 _atom_site_fract_x
 _atom_site_fract_y
 _atom_site_fract_z
 _atom_site_occupancy
  Si  Si0  1  0.000000  0.589492  0.833389  1
  Si  Si1  1  0.000000  0.411085  0.166892  1
  Si  Si2  1  0.000000  0.088220  0.665350  1
  Si  Si3  1  0.000000  0.910955  0.333257  1
  Si  Si4  1  0.500000  0.805323  0.729686  1
  Si  Si5  1  0.500000  0.194892  0.267787  1
  Si  Si6  1  0.500000  0.304580  0.767435  1
  Si  Si7  1  0.500000  0.694956  0.232246  1
  As  As8  1  0.500000  0.883568  0.876244  1
  P  P9  1  0.000000  0.669771  0.700767  1
  P  P10  1  0.000000  0.328923  0.298865  1
  P  P11  1  0.000000  0.170069  0.797743  1
  P  P12  1  0.000000  0.828850  0.201177  1
  P  P13  1  0.000000  0.751682  0.930747  1
  P  P14  1  0.000000  0.241775  0.074234  1
  P  P15  1  0.000000  0.258466  0.573748  1
  P  P16  1  0.000000  0.741821  0.425818  1
  P  P17  1  0.500000  0.126308  0.128238  1
  P  P18  1  0.500000  0.373662  0.628239  1
  P  P19  1  0.500000  0.626199  0.371637  1
  P  P20  1  0.500000  0.960238  0.627444  1
  P  P21  1  0.500000  0.039730  0.369770  1
  P  P22  1  0.500000  0.459807  0.869064  1
  P  P23  1  0.500000  0.539628  0.130223  1
