# generated using pymatgen
data_Cs4HoTaBr12
_symmetry_space_group_name_H-M   'P 1'
_cell_length_a   13.56090859
_cell_length_b   13.56090842
_cell_length_c   13.56090000
_cell_angle_alpha   131.65836523
_cell_angle_beta   131.65837026
_cell_angle_gamma   70.76930804
_symmetry_Int_Tables_number   1
_chemical_formula_structural   Cs4HoTaBr12
_chemical_formula_sum   'Cs8 Ho2 Ta2 Br24'
_cell_volume   1363.49630411
_cell_formula_units_Z   2
loop_
 _symmetry_equiv_pos_site_id
 _symmetry_equiv_pos_as_xyz
  1  'x, y, z'
loop_
 _atom_site_type_symbol
 _atom_site_label
 _atom_site_symmetry_multiplicity
 _atom_site_fract_x
 _atom_site_fract_y
 _atom_site_fract_z
 _atom_site_occupancy
  Cs  Cs0  1  0.374976  0.844406  0.969421  1
  Cs  Cs1  1  0.594406  0.624976  0.469421  1
  Cs  Cs2  1  0.874984  0.844472  0.469495  1
  Cs  Cs3  1  0.594472  0.124984  0.969495  1
  Cs  Cs4  1  0.875016  0.405528  0.030505  1
  Cs  Cs5  1  0.155528  0.125016  0.530505  1
  Cs  Cs6  1  0.375024  0.405594  0.530579  1
  Cs  Cs7  1  0.155594  0.625024  0.030579  1
  Ho  Ho8  1  0.500026  0.499974  0.000000  1
  Ho  Ho9  1  0.249974  0.750026  0.500000  1
  Ta  Ta10  1  0.000004  0.999996  0.000000  1
  Ta  Ta11  1  0.749996  0.250004  0.500000  1
  Br  Br12  1  0.745743  0.495255  0.250507  1
  Br  Br13  1  0.504745  0.254257  0.749493  1
  Br  Br14  1  0.374068  0.374096  0.999864  1
  Br  Br15  1  0.124096  0.624068  0.499864  1
  Br  Br16  1  0.375932  0.875904  0.500136  1
  Br  Br17  1  0.625904  0.625932  0.000136  1
  Br  Br18  1  0.114665  0.114675  0.000112  1
  Br  Br19  1  0.864675  0.364665  0.500112  1
  Br  Br20  1  0.635335  0.135325  0.499888  1
  Br  Br21  1  0.885325  0.885335  0.999888  1
  Br  Br22  1  0.230355  0.001577  0.228805  1
  Br  Br23  1  0.751490  0.022723  0.271203  1
  Br  Br24  1  0.504786  0.755297  0.250473  1
  Br  Br25  1  0.519645  0.248423  0.271195  1
  Br  Br26  1  0.977277  0.248510  0.728797  1
  Br  Br27  1  0.998510  0.227277  0.228797  1
  Br  Br28  1  0.998423  0.769645  0.771195  1
  Br  Br29  1  0.772723  0.001490  0.771203  1
  Br  Br30  1  0.751577  0.480355  0.728805  1
  Br  Br31  1  0.245214  0.494703  0.249527  1
  Br  Br32  1  0.245255  0.995743  0.750507  1
  Br  Br33  1  0.004257  0.754745  0.249493  1
  Br  Br34  1  0.505297  0.754786  0.750473  1
  Br  Br35  1  0.244703  0.495214  0.749527  1
