# generated using pymatgen
data_Er3Tl2InAg2Rh
_symmetry_space_group_name_H-M   'P 1'
_cell_length_a   7.99997090
_cell_length_b   7.97749508
_cell_length_c   3.74199500
_cell_angle_alpha   90.00000000
_cell_angle_beta   90.00000000
_cell_angle_gamma   120.04062088
_symmetry_Int_Tables_number   1
_chemical_formula_structural   Er3Tl2InAg2Rh
_chemical_formula_sum   'Er3 Tl2 In1 Ag2 Rh1'
_cell_volume   206.73350828
_cell_formula_units_Z   1
loop_
 _symmetry_equiv_pos_site_id
 _symmetry_equiv_pos_as_xyz
  1  'x, y, z'
loop_
 _atom_site_type_symbol
 _atom_site_label
 _atom_site_symmetry_multiplicity
 _atom_site_fract_x
 _atom_site_fract_y
 _atom_site_fract_z
 _atom_site_occupancy
  Er  Er0  1  0.031421  0.610422  0.500000  1
  Er  Er1  1  0.390161  0.421572  0.500000  1
  Er  Er2  1  0.575949  0.966804  0.500000  1
  Tl  Tl3  1  0.277413  0.008942  0.000000  1
  Tl  Tl4  1  0.729463  0.723893  0.000000  1
  In  In5  1  0.995894  0.269984  0.000000  1
  Ag  Ag6  1  0.673173  0.332337  0.000000  1
  Ag  Ag7  1  0.999264  0.006264  0.500000  1
  Rh  Rh8  1  0.327260  0.659783  0.000000  1
