# generated using pymatgen
data_CeY7(B6Ru)4
_symmetry_space_group_name_H-M   'P 1'
_cell_length_a   3.68168200
_cell_length_b   9.18312377
_cell_length_c   11.54937397
_cell_angle_alpha   90.04699443
_cell_angle_beta   90.00000000
_cell_angle_gamma   90.00000000
_symmetry_Int_Tables_number   1
_chemical_formula_structural   CeY7(B6Ru)4
_chemical_formula_sum   'Ce1 Y7 B24 Ru4'
_cell_volume   390.47659731
_cell_formula_units_Z   1
loop_
 _symmetry_equiv_pos_site_id
 _symmetry_equiv_pos_as_xyz
  1  'x, y, z'
loop_
 _atom_site_type_symbol
 _atom_site_label
 _atom_site_symmetry_multiplicity
 _atom_site_fract_x
 _atom_site_fract_y
 _atom_site_fract_z
 _atom_site_occupancy
  Ce  Ce0  1  0.000000  0.323898  0.413503  1
  Y  Y1  1  0.000000  0.678570  0.586991  1
  Y  Y2  1  0.000000  0.822406  0.085651  1
  Y  Y3  1  0.000000  0.177336  0.913667  1
  Y  Y4  1  0.000000  0.943269  0.373085  1
  Y  Y5  1  0.000000  0.055031  0.627367  1
  Y  Y6  1  0.000000  0.444066  0.126132  1
  Y  Y7  1  0.000000  0.556613  0.873545  1
  B  B8  1  0.500000  0.554486  0.432243  1
  B  B9  1  0.500000  0.446276  0.567987  1
  B  B10  1  0.500000  0.053706  0.067277  1
  B  B11  1  0.500000  0.946074  0.932778  1
  B  B12  1  0.500000  0.748016  0.419929  1
  B  B13  1  0.500000  0.252379  0.580891  1
  B  B14  1  0.500000  0.247350  0.079560  1
  B  B15  1  0.500000  0.752669  0.919954  1
  B  B16  1  0.500000  0.790891  0.266396  1
  B  B17  1  0.500000  0.209054  0.734262  1
  B  B18  1  0.500000  0.290442  0.232714  1
  B  B19  1  0.500000  0.709220  0.766830  1
  B  B20  1  0.500000  0.632653  0.184893  1
  B  B21  1  0.500000  0.367766  0.814814  1
  B  B22  1  0.500000  0.131735  0.314017  1
  B  B23  1  0.500000  0.867626  0.685678  1
  B  B24  1  0.500000  0.983124  0.212504  1
  B  B25  1  0.500000  0.016085  0.787133  1
  B  B26  1  0.500000  0.484938  0.286482  1
  B  B27  1  0.500000  0.516188  0.713609  1
  B  B28  1  0.500000  0.611457  0.030596  1
  B  B29  1  0.500000  0.388608  0.969106  1
  B  B30  1  0.500000  0.109283  0.469838  1
  B  B31  1  0.500000  0.888701  0.530616  1
  Ru  Ru32  1  0.000000  0.637875  0.321287  1
  Ru  Ru33  1  0.000000  0.361952  0.677951  1
  Ru  Ru34  1  0.000000  0.138074  0.179416  1
  Ru  Ru35  1  0.000000  0.862183  0.821299  1
