# generated using pymatgen
data_Tm4GaOsRu6
_symmetry_space_group_name_H-M   'P 1'
_cell_length_a   5.39377013
_cell_length_b   5.20764493
_cell_length_c   8.83278300
_cell_angle_alpha   90.00000000
_cell_angle_beta   90.00000000
_cell_angle_gamma   121.14177947
_symmetry_Int_Tables_number   1
_chemical_formula_structural   Tm4GaOsRu6
_chemical_formula_sum   'Tm4 Ga1 Os1 Ru6'
_cell_volume   212.34860728
_cell_formula_units_Z   1
loop_
 _symmetry_equiv_pos_site_id
 _symmetry_equiv_pos_as_xyz
  1  'x, y, z'
loop_
 _atom_site_type_symbol
 _atom_site_label
 _atom_site_symmetry_multiplicity
 _atom_site_fract_x
 _atom_site_fract_y
 _atom_site_fract_z
 _atom_site_occupancy
  Tm  Tm0  1  0.669823  0.339416  0.567610  1
  Tm  Tm1  1  0.333345  0.667009  0.435136  1
  Tm  Tm2  1  0.333345  0.667009  0.064864  1
  Tm  Tm3  1  0.669823  0.339416  0.932390  1
  Ga  Ga4  1  0.833376  0.666460  0.250000  1
  Os  Os5  1  0.157556  0.315347  0.750000  1
  Ru  Ru6  1  0.009866  0.019220  0.500929  1
  Ru  Ru7  1  0.009866  0.019220  0.999071  1
  Ru  Ru8  1  0.171277  0.815851  0.750000  1
  Ru  Ru9  1  0.643397  0.816090  0.750000  1
  Ru  Ru10  1  0.823102  0.167882  0.250000  1
  Ru  Ru11  1  0.345225  0.167079  0.250000  1
