# generated using pymatgen
data_La4PdPt3O14
_symmetry_space_group_name_H-M   'P 1'
_cell_length_a   7.50481226
_cell_length_b   7.50481216
_cell_length_c   7.50481400
_cell_angle_alpha   59.92573668
_cell_angle_beta   59.92573713
_cell_angle_gamma   59.92574440
_symmetry_Int_Tables_number   1
_chemical_formula_structural   La4PdPt3O14
_chemical_formula_sum   'La4 Pd1 Pt3 O14'
_cell_volume   298.38186685
_cell_formula_units_Z   1
loop_
 _symmetry_equiv_pos_site_id
 _symmetry_equiv_pos_as_xyz
  1  'x, y, z'
loop_
 _atom_site_type_symbol
 _atom_site_label
 _atom_site_symmetry_multiplicity
 _atom_site_fract_x
 _atom_site_fract_y
 _atom_site_fract_z
 _atom_site_occupancy
  La  La0  1  0.125000  0.125000  0.125000  1
  La  La1  1  0.625000  0.125000  0.125000  1
  La  La2  1  0.125000  0.625000  0.125000  1
  La  La3  1  0.125000  0.125000  0.625000  1
  Pd  Pd4  1  0.625000  0.625000  0.625000  1
  Pt  Pt5  1  0.625000  0.625000  0.125000  1
  Pt  Pt6  1  0.625000  0.125000  0.625000  1
  Pt  Pt7  1  0.125000  0.625000  0.625000  1
  O  O8  1  0.709132  0.291907  0.291907  1
  O  O9  1  0.708138  0.289623  0.708138  1
  O  O10  1  0.000015  0.000015  0.000015  1
  O  O11  1  0.291907  0.709132  0.291907  1
  O  O12  1  0.708138  0.708138  0.289623  1
  O  O13  1  0.960377  0.541862  0.541862  1
  O  O14  1  0.289623  0.708138  0.708138  1
  O  O15  1  0.249985  0.249985  0.249985  1
  O  O16  1  0.958093  0.540868  0.958093  1
  O  O17  1  0.541862  0.960377  0.541862  1
  O  O18  1  0.541862  0.541862  0.960377  1
  O  O19  1  0.958093  0.958093  0.540868  1
  O  O20  1  0.540868  0.958093  0.958093  1
  O  O21  1  0.291907  0.291907  0.709132  1
