# generated using pymatgen
data_Lu6ReP12Rh17
_symmetry_space_group_name_H-M   'P 1'
_cell_length_a   3.90563700
_cell_length_b   11.14406600
_cell_length_c   12.71692400
_cell_angle_alpha   90.00000000
_cell_angle_beta   90.00000000
_cell_angle_gamma   90.00000000
_symmetry_Int_Tables_number   1
_chemical_formula_structural   Lu6ReP12Rh17
_chemical_formula_sum   'Lu6 Re1 P12 Rh17'
_cell_volume   553.50000318
_cell_formula_units_Z   1
loop_
 _symmetry_equiv_pos_site_id
 _symmetry_equiv_pos_as_xyz
  1  'x, y, z'
loop_
 _atom_site_type_symbol
 _atom_site_label
 _atom_site_symmetry_multiplicity
 _atom_site_fract_x
 _atom_site_fract_y
 _atom_site_fract_z
 _atom_site_occupancy
  Lu  Lu0  1  0.000000  0.500000  0.521720  1
  Lu  Lu1  1  0.500000  0.000000  0.476642  1
  Lu  Lu2  1  0.500000  0.813016  0.206671  1
  Lu  Lu3  1  0.500000  0.186984  0.206671  1
  Lu  Lu4  1  0.000000  0.682416  0.795783  1
  Lu  Lu5  1  0.000000  0.317584  0.795783  1
  Re  Re6  1  0.500000  0.500000  0.159273  1
  P  P7  1  0.500000  0.500000  0.872855  1
  P  P8  1  0.000000  0.000000  0.124561  1
  P  P9  1  0.500000  0.500000  0.349285  1
  P  P10  1  0.000000  0.000000  0.648443  1
  P  P11  1  0.500000  0.315971  0.619679  1
  P  P12  1  0.500000  0.684029  0.619679  1
  P  P13  1  0.000000  0.184657  0.381175  1
  P  P14  1  0.000000  0.815343  0.381175  1
  P  P15  1  0.500000  0.849040  0.890268  1
  P  P16  1  0.500000  0.150960  0.890268  1
  P  P17  1  0.000000  0.653214  0.111202  1
  P  P18  1  0.000000  0.346786  0.111202  1
  Rh  Rh19  1  0.000000  0.000000  0.833702  1
  Rh  Rh20  1  0.500000  0.500000  0.696964  1
  Rh  Rh21  1  0.000000  0.000000  0.301200  1
  Rh  Rh22  1  0.000000  0.500000  0.988633  1
  Rh  Rh23  1  0.500000  0.000000  0.023155  1
  Rh  Rh24  1  0.500000  0.333115  0.983198  1
  Rh  Rh25  1  0.500000  0.666885  0.983198  1
  Rh  Rh26  1  0.000000  0.168217  0.013185  1
  Rh  Rh27  1  0.000000  0.831783  0.013185  1
  Rh  Rh28  1  0.500000  0.295062  0.432422  1
  Rh  Rh29  1  0.500000  0.704938  0.432422  1
  Rh  Rh30  1  0.000000  0.199745  0.567468  1
  Rh  Rh31  1  0.000000  0.800255  0.567468  1
  Rh  Rh32  1  0.500000  0.871520  0.710544  1
  Rh  Rh33  1  0.500000  0.128480  0.710544  1
  Rh  Rh34  1  0.000000  0.625254  0.290189  1
  Rh  Rh35  1  0.000000  0.374746  0.290189  1
