# generated using pymatgen
data_Dy3Er5(CdCo)2
_symmetry_space_group_name_H-M   'P 1'
_cell_length_a   9.44496284
_cell_length_b   9.44496305
_cell_length_c   9.44496200
_cell_angle_alpha   60.00000368
_cell_angle_beta   60.00000294
_cell_angle_gamma   59.99999664
_symmetry_Int_Tables_number   1
_chemical_formula_structural   Dy3Er5(CdCo)2
_chemical_formula_sum   'Dy6 Er10 Cd4 Co4'
_cell_volume   595.77975944
_cell_formula_units_Z   2
loop_
 _symmetry_equiv_pos_site_id
 _symmetry_equiv_pos_as_xyz
  1  'x, y, z'
loop_
 _atom_site_type_symbol
 _atom_site_label
 _atom_site_symmetry_multiplicity
 _atom_site_fract_x
 _atom_site_fract_y
 _atom_site_fract_z
 _atom_site_occupancy
  Dy  Dy0  1  0.188784  0.811216  0.811216  1
  Dy  Dy1  1  0.811216  0.188784  0.188784  1
  Dy  Dy2  1  0.811216  0.188784  0.811216  1
  Dy  Dy3  1  0.188784  0.811216  0.188784  1
  Dy  Dy4  1  0.811216  0.811216  0.188784  1
  Dy  Dy5  1  0.188784  0.188784  0.811216  1
  Er  Er6  1  0.596156  0.596156  0.596156  1
  Er  Er7  1  0.596156  0.596156  0.211533  1
  Er  Er8  1  0.596156  0.211533  0.596156  1
  Er  Er9  1  0.211533  0.596156  0.596156  1
  Er  Er10  1  0.062839  0.437161  0.437161  1
  Er  Er11  1  0.437161  0.062839  0.062839  1
  Er  Er12  1  0.437161  0.062839  0.437161  1
  Er  Er13  1  0.062839  0.437161  0.062839  1
  Er  Er14  1  0.437161  0.437161  0.062839  1
  Er  Er15  1  0.062839  0.062839  0.437161  1
  Cd  Cd16  1  0.830310  0.830310  0.830310  1
  Cd  Cd17  1  0.830310  0.830310  0.509068  1
  Cd  Cd18  1  0.830310  0.509068  0.830310  1
  Cd  Cd19  1  0.509068  0.830310  0.830310  1
  Co  Co20  1  0.391187  0.391187  0.391187  1
  Co  Co21  1  0.391187  0.391187  0.826438  1
  Co  Co22  1  0.391187  0.826438  0.391187  1
  Co  Co23  1  0.826438  0.391187  0.391187  1
