# generated using pymatgen
data_La4InMo3F28
_symmetry_space_group_name_H-M   'P 1'
_cell_length_a   5.83802403
_cell_length_b   9.38868584
_cell_length_c   12.52287400
_cell_angle_alpha   62.76828098
_cell_angle_beta   89.87000044
_cell_angle_gamma   90.16745209
_symmetry_Int_Tables_number   1
_chemical_formula_structural   La4InMo3F28
_chemical_formula_sum   'La4 In1 Mo3 F28'
_cell_volume   610.31036155
_cell_formula_units_Z   1
loop_
 _symmetry_equiv_pos_site_id
 _symmetry_equiv_pos_as_xyz
  1  'x, y, z'
loop_
 _atom_site_type_symbol
 _atom_site_label
 _atom_site_symmetry_multiplicity
 _atom_site_fract_x
 _atom_site_fract_y
 _atom_site_fract_z
 _atom_site_occupancy
  La  La0  1  0.756337  0.813892  0.269293  1
  La  La1  1  0.259277  0.180914  0.234569  1
  La  La2  1  0.237640  0.191922  0.739873  1
  La  La3  1  0.738497  0.801485  0.770804  1
  In  In4  1  0.244918  0.726266  0.542932  1
  Mo  Mo5  1  0.744467  0.270372  0.961083  1
  Mo  Mo6  1  0.755012  0.276064  0.453323  1
  Mo  Mo7  1  0.251438  0.720871  0.048079  1
  F  F8  1  0.954028  0.710487  0.449715  1
  F  F9  1  0.453142  0.283998  0.046566  1
  F  F10  1  0.033736  0.283318  0.535641  1
  F  F11  1  0.535745  0.709965  0.956554  1
  F  F12  1  0.046793  0.704583  0.928814  1
  F  F13  1  0.566491  0.295968  0.572619  1
  F  F14  1  0.944151  0.288491  0.081862  1
  F  F15  1  0.456804  0.709919  0.413037  1
  F  F16  1  0.739467  0.505199  0.865158  1
  F  F17  1  0.233783  0.473103  0.641183  1
  F  F18  1  0.258956  0.484071  0.145015  1
  F  F19  1  0.765844  0.500447  0.360966  1
  F  F20  1  0.734796  0.034744  0.051625  1
  F  F21  1  0.232448  0.980340  0.437372  1
  F  F22  1  0.255670  0.957028  0.953760  1
  F  F23  1  0.752883  0.052192  0.537574  1
  F  F24  1  0.042048  0.756406  0.670075  1
  F  F25  1  0.551222  0.252334  0.836899  1
  F  F26  1  0.940479  0.262919  0.328514  1
  F  F27  1  0.457494  0.738390  0.167383  1
  F  F28  1  0.028811  0.260792  0.870603  1
  F  F29  1  0.527576  0.738002  0.641273  1
  F  F30  1  0.971799  0.725249  0.144739  1
  F  F31  1  0.480639  0.276639  0.365519  1
  F  F32  1  0.091126  0.971307  0.221962  1
  F  F33  1  0.602061  0.043165  0.266940  1
  F  F34  1  0.919836  0.033297  0.759385  1
  F  F35  1  0.434586  0.985865  0.729290  1
