# generated using pymatgen
data_Pr20Ir4Ru3Rh5
_symmetry_space_group_name_H-M   'P 1'
_cell_length_a   11.31856701
_cell_length_b   11.32037201
_cell_length_c   6.64792200
_cell_angle_alpha   90.00000000
_cell_angle_beta   90.00000000
_cell_angle_gamma   89.99470546
_symmetry_Int_Tables_number   1
_chemical_formula_structural   Pr20Ir4Ru3Rh5
_chemical_formula_sum   'Pr20 Ir4 Ru3 Rh5'
_cell_volume   851.80082973
_cell_formula_units_Z   1
loop_
 _symmetry_equiv_pos_site_id
 _symmetry_equiv_pos_as_xyz
  1  'x, y, z'
loop_
 _atom_site_type_symbol
 _atom_site_label
 _atom_site_symmetry_multiplicity
 _atom_site_fract_x
 _atom_site_fract_y
 _atom_site_fract_z
 _atom_site_occupancy
  Pr  Pr0  1  0.294473  0.089412  0.381128  1
  Pr  Pr1  1  0.294530  0.911410  0.881518  1
  Pr  Pr2  1  0.705470  0.088590  0.881518  1
  Pr  Pr3  1  0.705527  0.910588  0.381128  1
  Pr  Pr4  1  0.586597  0.792843  0.883353  1
  Pr  Pr5  1  0.587436  0.207217  0.382908  1
  Pr  Pr6  1  0.412564  0.792783  0.382908  1
  Pr  Pr7  1  0.413403  0.207157  0.883353  1
  Pr  Pr8  1  0.208950  0.411518  0.619957  1
  Pr  Pr9  1  0.208841  0.588601  0.114802  1
  Pr  Pr10  1  0.791159  0.411399  0.114802  1
  Pr  Pr11  1  0.791050  0.588482  0.619957  1
  Pr  Pr12  1  0.909102  0.707524  0.115948  1
  Pr  Pr13  1  0.909283  0.292483  0.621601  1
  Pr  Pr14  1  0.090717  0.707517  0.621601  1
  Pr  Pr15  1  0.090898  0.292476  0.115948  1
  Pr  Pr16  1  0.000000  0.000000  0.497846  1
  Pr  Pr17  1  0.000000  0.000000  0.998509  1
  Pr  Pr18  1  0.500000  0.500000  0.998211  1
  Pr  Pr19  1  0.500000  0.500000  0.497495  1
  Ir  Ir20  1  0.654446  0.346492  0.749496  1
  Ir  Ir21  1  0.655119  0.652778  0.250121  1
  Ir  Ir22  1  0.344881  0.347222  0.250121  1
  Ir  Ir23  1  0.345554  0.653508  0.749496  1
  Ru  Ru24  1  0.500000  0.000000  0.119123  1
  Ru  Ru25  1  0.500000  0.000000  0.618203  1
  Ru  Ru26  1  0.000000  0.500000  0.884772  1
  Rh  Rh27  1  0.849030  0.153382  0.250413  1
  Rh  Rh28  1  0.848298  0.847199  0.749728  1
  Rh  Rh29  1  0.151702  0.152801  0.749728  1
  Rh  Rh30  1  0.150970  0.846618  0.250413  1
  Rh  Rh31  1  0.000000  0.500000  0.383894  1
