# generated using pymatgen
data_Th4Ga24IrPd
_symmetry_space_group_name_H-M   'P 1'
_cell_length_a   6.16027100
_cell_length_b   6.16027100
_cell_length_c   15.53621100
_cell_angle_alpha   90.00000000
_cell_angle_beta   90.00000000
_cell_angle_gamma   90.00000000
_symmetry_Int_Tables_number   1
_chemical_formula_structural   Th4Ga24IrPd
_chemical_formula_sum   'Th4 Ga24 Ir1 Pd1'
_cell_volume   589.58272032
_cell_formula_units_Z   1
loop_
 _symmetry_equiv_pos_site_id
 _symmetry_equiv_pos_as_xyz
  1  'x, y, z'
loop_
 _atom_site_type_symbol
 _atom_site_label
 _atom_site_symmetry_multiplicity
 _atom_site_fract_x
 _atom_site_fract_y
 _atom_site_fract_z
 _atom_site_occupancy
  Th  Th0  1  0.750000  0.250000  0.243913  1
  Th  Th1  1  0.250000  0.750000  0.241540  1
  Th  Th2  1  0.250000  0.750000  0.758460  1
  Th  Th3  1  0.750000  0.250000  0.756087  1
  Ga  Ga4  1  0.250000  0.250000  0.187844  1
  Ga  Ga5  1  0.750000  0.750000  0.187844  1
  Ga  Ga6  1  0.750000  0.750000  0.812156  1
  Ga  Ga7  1  0.250000  0.250000  0.812156  1
  Ga  Ga8  1  0.250000  0.250000  0.345193  1
  Ga  Ga9  1  0.750000  0.750000  0.345193  1
  Ga  Ga10  1  0.750000  0.750000  0.654807  1
  Ga  Ga11  1  0.250000  0.250000  0.654807  1
  Ga  Ga12  1  0.502219  0.002219  0.911447  1
  Ga  Ga13  1  0.998705  0.001295  0.911614  1
  Ga  Ga14  1  0.501295  0.498705  0.911614  1
  Ga  Ga15  1  0.997781  0.497781  0.911447  1
  Ga  Ga16  1  0.501295  0.001295  0.088386  1
  Ga  Ga17  1  0.997781  0.002219  0.088553  1
  Ga  Ga18  1  0.502219  0.497781  0.088553  1
  Ga  Ga19  1  0.998705  0.498705  0.088386  1
  Ga  Ga20  1  0.581257  0.081257  0.430613  1
  Ga  Ga21  1  0.082438  0.917562  0.429955  1
  Ga  Ga22  1  0.417562  0.582438  0.429955  1
  Ga  Ga23  1  0.918743  0.418743  0.430613  1
  Ga  Ga24  1  0.417562  0.917562  0.570045  1
  Ga  Ga25  1  0.918743  0.081257  0.569387  1
  Ga  Ga26  1  0.581257  0.418743  0.569387  1
  Ga  Ga27  1  0.082438  0.582438  0.570045  1
  Ir  Ir28  1  0.750000  0.250000  0.000000  1
  Pd  Pd29  1  0.250000  0.750000  0.000000  1
