# generated using pymatgen
data_Dy5Co16(MoAs4)3
_symmetry_space_group_name_H-M   'P 1'
_cell_length_a   12.53671500
_cell_length_b   12.53671454
_cell_length_c   3.83544000
_cell_angle_alpha   90.00000000
_cell_angle_beta   90.00000000
_cell_angle_gamma   119.99999331
_symmetry_Int_Tables_number   1
_chemical_formula_structural   Dy5Co16(MoAs4)3
_chemical_formula_sum   'Dy5 Co16 Mo3 As12'
_cell_volume   522.05149553
_cell_formula_units_Z   1
loop_
 _symmetry_equiv_pos_site_id
 _symmetry_equiv_pos_as_xyz
  1  'x, y, z'
loop_
 _atom_site_type_symbol
 _atom_site_label
 _atom_site_symmetry_multiplicity
 _atom_site_fract_x
 _atom_site_fract_y
 _atom_site_fract_z
 _atom_site_occupancy
  Dy  Dy0  1  0.666667  0.333333  0.000000  1
  Dy  Dy1  1  0.333333  0.666667  0.000000  1
  Dy  Dy2  1  0.184901  0.184901  0.500000  1
  Dy  Dy3  1  0.815099  0.000000  0.500000  1
  Dy  Dy4  1  0.000000  0.815099  0.500000  1
  Co  Co5  1  0.823389  0.199002  0.000000  1
  Co  Co6  1  0.800998  0.624388  0.000000  1
  Co  Co7  1  0.375612  0.176611  0.000000  1
  Co  Co8  1  0.199002  0.823389  0.000000  1
  Co  Co9  1  0.624388  0.800998  0.000000  1
  Co  Co10  1  0.176611  0.375612  0.000000  1
  Co  Co11  1  0.644528  0.125161  0.500000  1
  Co  Co12  1  0.874839  0.519368  0.500000  1
  Co  Co13  1  0.480632  0.355472  0.500000  1
  Co  Co14  1  0.125161  0.644528  0.500000  1
  Co  Co15  1  0.519368  0.874839  0.500000  1
  Co  Co16  1  0.355472  0.480632  0.500000  1
  Co  Co17  1  0.718161  0.718161  0.500000  1
  Co  Co18  1  0.281839  0.000000  0.500000  1
  Co  Co19  1  0.000000  0.281839  0.500000  1
  Co  Co20  1  0.000000  0.000000  0.000000  1
  Mo  Mo21  1  0.556224  0.556224  0.000000  1
  Mo  Mo22  1  0.443776  0.000000  0.000000  1
  Mo  Mo23  1  0.000000  0.443776  0.000000  1
  As  As24  1  0.359847  0.359847  0.000000  1
  As  As25  1  0.640153  0.000000  0.000000  1
  As  As26  1  0.000000  0.640153  0.000000  1
  As  As27  1  0.833217  0.315255  0.500000  1
  As  As28  1  0.684745  0.517962  0.500000  1
  As  As29  1  0.482038  0.166783  0.500000  1
  As  As30  1  0.315255  0.833217  0.500000  1
  As  As31  1  0.517962  0.684745  0.500000  1
  As  As32  1  0.166783  0.482038  0.500000  1
  As  As33  1  0.822184  0.822184  0.000000  1
  As  As34  1  0.177816  0.000000  0.000000  1
  As  As35  1  0.000000  0.177816  0.000000  1
