# generated using pymatgen
data_Bi6Sb2RhO18
_symmetry_space_group_name_H-M   'P 1'
_cell_length_a   9.34937800
_cell_length_b   9.34937776
_cell_length_c   5.25984200
_cell_angle_alpha   90.00000000
_cell_angle_beta   90.00000000
_cell_angle_gamma   120.00000181
_symmetry_Int_Tables_number   1
_chemical_formula_structural   Bi6Sb2RhO18
_chemical_formula_sum   'Bi6 Sb2 Rh1 O18'
_cell_volume   398.17019597
_cell_formula_units_Z   1
loop_
 _symmetry_equiv_pos_site_id
 _symmetry_equiv_pos_as_xyz
  1  'x, y, z'
loop_
 _atom_site_type_symbol
 _atom_site_label
 _atom_site_symmetry_multiplicity
 _atom_site_fract_x
 _atom_site_fract_y
 _atom_site_fract_z
 _atom_site_occupancy
  Bi  Bi0  1  0.998404  0.374737  0.499100  1
  Bi  Bi1  1  0.298053  0.292279  0.998211  1
  Bi  Bi2  1  0.994226  0.701947  0.998211  1
  Bi  Bi3  1  0.625263  0.623666  0.499100  1
  Bi  Bi4  1  0.376334  0.001596  0.499100  1
  Bi  Bi5  1  0.707721  0.005774  0.998211  1
  Sb  Sb6  1  0.000000  0.000000  0.505335  1
  Sb  Sb7  1  0.333333  0.666667  0.000958  1
  Rh  Rh8  1  0.666667  0.333333  0.994099  1
  O  O9  1  0.086301  0.206835  0.718391  1
  O  O10  1  0.230962  0.458939  0.218280  1
  O  O11  1  0.130987  0.595115  0.784904  1
  O  O12  1  0.404885  0.535873  0.784904  1
  O  O13  1  0.227979  0.769038  0.218280  1
  O  O14  1  0.120534  0.913699  0.718391  1
  O  O15  1  0.541061  0.772021  0.218280  1
  O  O16  1  0.205802  0.086799  0.294710  1
  O  O17  1  0.464127  0.869013  0.784904  1
  O  O18  1  0.793165  0.879466  0.718391  1
  O  O19  1  0.463634  0.223627  0.780097  1
  O  O20  1  0.592306  0.133232  0.206176  1
  O  O21  1  0.540926  0.407694  0.206176  1
  O  O22  1  0.776373  0.240008  0.780097  1
  O  O23  1  0.913201  0.119003  0.294710  1
  O  O24  1  0.759992  0.536366  0.780097  1
  O  O25  1  0.866768  0.459074  0.206176  1
  O  O26  1  0.880997  0.794198  0.294710  1
