# generated using pymatgen
data_Dy2Al3Re14C3
_symmetry_space_group_name_H-M   'P 1'
_cell_length_a   6.97670249
_cell_length_b   6.97670340
_cell_length_c   6.97670292
_cell_angle_alpha   82.35625652
_cell_angle_beta   82.35626282
_cell_angle_gamma   82.35624629
_symmetry_Int_Tables_number   1
_chemical_formula_structural   Dy2Al3Re14C3
_chemical_formula_sum   'Dy2 Al3 Re14 C3'
_cell_volume   331.27187866
_cell_formula_units_Z   1
loop_
 _symmetry_equiv_pos_site_id
 _symmetry_equiv_pos_as_xyz
  1  'x, y, z'
loop_
 _atom_site_type_symbol
 _atom_site_label
 _atom_site_symmetry_multiplicity
 _atom_site_fract_x
 _atom_site_fract_y
 _atom_site_fract_z
 _atom_site_occupancy
  Dy  Dy0  1  0.658417  0.658417  0.658417  1
  Dy  Dy1  1  0.341583  0.341583  0.341583  1
  Al  Al2  1  0.000000  0.000000  0.500000  1
  Al  Al3  1  0.500000  0.000000  0.000000  1
  Al  Al4  1  0.000000  0.500000  0.000000  1
  Re  Re5  1  0.721299  0.278701  0.000000  1
  Re  Re6  1  0.000000  0.721299  0.278701  1
  Re  Re7  1  0.278701  0.000000  0.721299  1
  Re  Re8  1  0.000000  0.278701  0.721299  1
  Re  Re9  1  0.721299  0.000000  0.278701  1
  Re  Re10  1  0.278701  0.721299  0.000000  1
  Re  Re11  1  0.350259  0.350259  0.848856  1
  Re  Re12  1  0.848856  0.350259  0.350259  1
  Re  Re13  1  0.350259  0.848856  0.350259  1
  Re  Re14  1  0.649741  0.649741  0.151144  1
  Re  Re15  1  0.151144  0.649741  0.649741  1
  Re  Re16  1  0.649741  0.151144  0.649741  1
  Re  Re17  1  0.903083  0.903083  0.903083  1
  Re  Re18  1  0.096917  0.096917  0.096917  1
  C  C19  1  0.500000  0.500000  0.000000  1
  C  C20  1  0.000000  0.500000  0.500000  1
  C  C21  1  0.500000  0.000000  0.500000  1
