# generated using pymatgen
data_K3SmIr2O9
_symmetry_space_group_name_H-M   'P 1'
_cell_length_a   6.05848562
_cell_length_b   6.05847851
_cell_length_c   14.83939304
_cell_angle_alpha   89.57619723
_cell_angle_beta   90.42411100
_cell_angle_gamma   59.97594771
_symmetry_Int_Tables_number   1
_chemical_formula_structural   K3SmIr2O9
_chemical_formula_sum   'K6 Sm2 Ir4 O18'
_cell_volume   471.54323372
_cell_formula_units_Z   2
loop_
 _symmetry_equiv_pos_site_id
 _symmetry_equiv_pos_as_xyz
  1  'x, y, z'
loop_
 _atom_site_type_symbol
 _atom_site_label
 _atom_site_symmetry_multiplicity
 _atom_site_fract_x
 _atom_site_fract_y
 _atom_site_fract_z
 _atom_site_occupancy
  K  K0  1  0.337857  0.329362  0.104435  1
  K  K1  1  0.329347  0.337856  0.395637  1
  K  K2  1  0.662242  0.670577  0.895268  1
  K  K3  1  0.670673  0.662117  0.604429  1
  K  K4  1  0.999408  0.999467  0.250052  1
  K  K5  1  0.000509  0.000483  0.749968  1
  Sm  Sm6  1  0.999976  0.000043  0.999873  1
  Sm  Sm7  1  0.000043  0.999932  0.500131  1
  Ir  Ir8  1  0.326334  0.339977  0.844560  1
  Ir  Ir9  1  0.339949  0.326353  0.655449  1
  Ir  Ir10  1  0.673637  0.660063  0.155425  1
  Ir  Ir11  1  0.660074  0.673622  0.344677  1
  O  O12  1  0.832513  0.347953  0.092007  1
  O  O13  1  0.347893  0.832503  0.408062  1
  O  O14  1  0.167356  0.652266  0.907873  1
  O  O15  1  0.652103  0.167473  0.592006  1
  O  O16  1  0.372872  0.808434  0.083006  1
  O  O17  1  0.808562  0.372654  0.417005  1
  O  O18  1  0.627297  0.191537  0.916867  1
  O  O19  1  0.191509  0.627257  0.583054  1
  O  O20  1  0.832338  0.808671  0.088042  1
  O  O21  1  0.808791  0.832359  0.412003  1
  O  O22  1  0.167523  0.191313  0.911852  1
  O  O23  1  0.191296  0.167642  0.588057  1
  O  O24  1  0.529202  0.941728  0.246404  1
  O  O25  1  0.941703  0.529220  0.253823  1
  O  O26  1  0.470751  0.058336  0.753691  1
  O  O27  1  0.058291  0.470791  0.746264  1
  O  O28  1  0.529267  0.529289  0.250104  1
  O  O29  1  0.470688  0.470731  0.749975  1
