# generated using pymatgen
data_K2CrSn11O24
_symmetry_space_group_name_H-M   'P 1'
_cell_length_a   8.93263385
_cell_length_b   8.93263395
_cell_length_c   10.72384700
_cell_angle_alpha   53.94724661
_cell_angle_beta   53.94725409
_cell_angle_gamma   64.81969984
_symmetry_Int_Tables_number   1
_chemical_formula_structural   K2CrSn11O24
_chemical_formula_sum   'K2 Cr1 Sn11 O24'
_cell_volume   555.18757299
_cell_formula_units_Z   1
loop_
 _symmetry_equiv_pos_site_id
 _symmetry_equiv_pos_as_xyz
  1  'x, y, z'
loop_
 _atom_site_type_symbol
 _atom_site_label
 _atom_site_symmetry_multiplicity
 _atom_site_fract_x
 _atom_site_fract_y
 _atom_site_fract_z
 _atom_site_occupancy
  K  K0  1  0.733656  0.268471  0.001020  1
  K  K1  1  0.268471  0.733656  0.001020  1
  Cr  Cr2  1  0.332123  0.332123  0.821020  1
  Sn  Sn3  1  0.005596  0.665520  0.815623  1
  Sn  Sn4  1  0.665520  0.005596  0.815623  1
  Sn  Sn5  1  0.003615  0.332925  0.177158  1
  Sn  Sn6  1  0.667399  0.667399  0.181254  1
  Sn  Sn7  1  0.332925  0.003615  0.177158  1
  Sn  Sn8  1  0.147806  0.147806  0.519141  1
  Sn  Sn9  1  0.477691  0.810721  0.521934  1
  Sn  Sn10  1  0.810721  0.477691  0.521934  1
  Sn  Sn11  1  0.851525  0.851525  0.478618  1
  Sn  Sn12  1  0.186189  0.515518  0.487389  1
  Sn  Sn13  1  0.515518  0.186189  0.487389  1
  O  O14  1  0.344883  0.344883  0.618693  1
  O  O15  1  0.005924  0.675297  0.617627  1
  O  O16  1  0.675297  0.005924  0.617627  1
  O  O17  1  0.991913  0.324895  0.381902  1
  O  O18  1  0.658741  0.658741  0.382194  1
  O  O19  1  0.324895  0.991913  0.381902  1
  O  O20  1  0.342589  0.342589  0.362730  1
  O  O21  1  0.011836  0.671837  0.361922  1
  O  O22  1  0.671837  0.011836  0.361922  1
  O  O23  1  0.986923  0.321360  0.643290  1
  O  O24  1  0.656337  0.656337  0.640390  1
  O  O25  1  0.321360  0.986923  0.643290  1
  O  O26  1  0.617290  0.292373  0.714290  1
  O  O27  1  0.292373  0.617290  0.714290  1
  O  O28  1  0.957226  0.957226  0.709043  1
  O  O29  1  0.711081  0.375749  0.284892  1
  O  O30  1  0.375749  0.711081  0.284892  1
  O  O31  1  0.041960  0.041960  0.289916  1
  O  O32  1  0.963857  0.629117  0.051624  1
  O  O33  1  0.629117  0.963857  0.051624  1
  O  O34  1  0.296622  0.296622  0.045803  1
  O  O35  1  0.371830  0.044541  0.943659  1
  O  O36  1  0.044541  0.371830  0.943659  1
  O  O37  1  0.707064  0.707064  0.946536  1
