# generated using pymatgen
data_Dy3CS2
_symmetry_space_group_name_H-M   'P 1'
_cell_length_a   6.71927260
_cell_length_b   6.71927238
_cell_length_c   6.71927236
_cell_angle_alpha   147.71432931
_cell_angle_beta   132.49554940
_cell_angle_gamma   58.60545360
_symmetry_Int_Tables_number   1
_chemical_formula_structural   Dy3CS2
_chemical_formula_sum   'Dy3 C1 S2'
_cell_volume   118.50388432
_cell_formula_units_Z   1
loop_
 _symmetry_equiv_pos_site_id
 _symmetry_equiv_pos_as_xyz
  1  'x, y, z'
loop_
 _atom_site_type_symbol
 _atom_site_label
 _atom_site_symmetry_multiplicity
 _atom_site_fract_x
 _atom_site_fract_y
 _atom_site_fract_z
 _atom_site_occupancy
  Dy  Dy0  1  0.858137  0.358137  0.500000  1
  Dy  Dy1  1  0.500000  0.000000  0.500000  1
  Dy  Dy2  1  0.141863  0.641863  0.500000  1
  C  C3  1  0.000000  0.000000  0.000000  1
  S  S4  1  0.672323  0.672323  0.000000  1
  S  S5  1  0.327677  0.327677  0.000000  1
