# generated using pymatgen
data_LaPr3NdIr3
_symmetry_space_group_name_H-M   'P 1'
_cell_length_a   11.33751700
_cell_length_b   11.33751700
_cell_length_c   6.63409300
_cell_angle_alpha   90.00000000
_cell_angle_beta   90.00000000
_cell_angle_gamma   90.00000000
_symmetry_Int_Tables_number   1
_chemical_formula_structural   LaPr3NdIr3
_chemical_formula_sum   'La4 Pr12 Nd4 Ir12'
_cell_volume   852.74161546
_cell_formula_units_Z   4
loop_
 _symmetry_equiv_pos_site_id
 _symmetry_equiv_pos_as_xyz
  1  'x, y, z'
loop_
 _atom_site_type_symbol
 _atom_site_label
 _atom_site_symmetry_multiplicity
 _atom_site_fract_x
 _atom_site_fract_y
 _atom_site_fract_z
 _atom_site_occupancy
  La  La0  1  0.090931  0.290727  0.115327  1
  La  La1  1  0.790727  0.409069  0.115327  1
  La  La2  1  0.209273  0.590931  0.115327  1
  La  La3  1  0.909069  0.709273  0.115327  1
  Pr  Pr4  1  0.410288  0.792031  0.384313  1
  Pr  Pr5  1  0.589712  0.207969  0.384313  1
  Pr  Pr6  1  0.292031  0.089712  0.384313  1
  Pr  Pr7  1  0.707969  0.910288  0.384313  1
  Pr  Pr8  1  0.410343  0.208329  0.883412  1
  Pr  Pr9  1  0.708329  0.089657  0.883412  1
  Pr  Pr10  1  0.291671  0.910343  0.883412  1
  Pr  Pr11  1  0.589657  0.791671  0.883412  1
  Pr  Pr12  1  0.089899  0.708754  0.615969  1
  Pr  Pr13  1  0.910101  0.291246  0.615969  1
  Pr  Pr14  1  0.208754  0.410101  0.615969  1
  Pr  Pr15  1  0.791246  0.589899  0.615969  1
  Nd  Nd16  1  0.000000  0.000000  0.999408  1
  Nd  Nd17  1  0.500000  0.500000  0.999408  1
  Nd  Nd18  1  0.500000  0.500000  0.500480  1
  Nd  Nd19  1  0.000000  0.000000  0.500480  1
  Ir  Ir20  1  0.152639  0.847118  0.250292  1
  Ir  Ir21  1  0.347118  0.347361  0.250292  1
  Ir  Ir22  1  0.652882  0.652639  0.250292  1
  Ir  Ir23  1  0.847361  0.152882  0.250292  1
  Ir  Ir24  1  0.346765  0.652335  0.750945  1
  Ir  Ir25  1  0.152335  0.153235  0.750945  1
  Ir  Ir26  1  0.847665  0.846765  0.750945  1
  Ir  Ir27  1  0.653235  0.347665  0.750945  1
  Ir  Ir28  1  0.000000  0.500000  0.377568  1
  Ir  Ir29  1  0.500000  0.000000  0.120364  1
  Ir  Ir30  1  0.500000  0.000000  0.619546  1
  Ir  Ir31  1  0.000000  0.500000  0.881718  1
