# generated using pymatgen
data_Np4Al18IrPd5
_symmetry_space_group_name_H-M   'P 1'
_cell_length_a   7.65372397
_cell_length_b   7.65372410
_cell_length_c   9.52896014
_cell_angle_alpha   90.01033127
_cell_angle_beta   90.01032514
_cell_angle_gamma   119.55734098
_symmetry_Int_Tables_number   1
_chemical_formula_structural   Np4Al18IrPd5
_chemical_formula_sum   'Np4 Al18 Ir1 Pd5'
_cell_volume   485.55861431
_cell_formula_units_Z   1
loop_
 _symmetry_equiv_pos_site_id
 _symmetry_equiv_pos_as_xyz
  1  'x, y, z'
loop_
 _atom_site_type_symbol
 _atom_site_label
 _atom_site_symmetry_multiplicity
 _atom_site_fract_x
 _atom_site_fract_y
 _atom_site_fract_z
 _atom_site_occupancy
  Np  Np0  1  0.995125  0.669673  0.252363  1
  Np  Np1  1  0.004875  0.330327  0.747637  1
  Np  Np2  1  0.669673  0.995125  0.252363  1
  Np  Np3  1  0.330327  0.004875  0.747637  1
  Al  Al4  1  0.128957  0.128957  0.251070  1
  Al  Al5  1  0.871043  0.871043  0.748930  1
  Al  Al6  1  0.999148  0.335297  0.075777  1
  Al  Al7  1  0.000852  0.664703  0.924223  1
  Al  Al8  1  0.000272  0.667867  0.575549  1
  Al  Al9  1  0.332133  0.999728  0.424451  1
  Al  Al10  1  0.999728  0.332133  0.424451  1
  Al  Al11  1  0.667867  0.000272  0.575549  1
  Al  Al12  1  0.664703  0.000852  0.924223  1
  Al  Al13  1  0.335297  0.999148  0.075777  1
  Al  Al14  1  0.329993  0.329993  0.554461  1
  Al  Al15  1  0.670007  0.670007  0.445539  1
  Al  Al16  1  0.668201  0.668201  0.056975  1
  Al  Al17  1  0.331799  0.331799  0.943025  1
  Al  Al18  1  0.341480  0.548511  0.250069  1
  Al  Al19  1  0.658520  0.451489  0.749931  1
  Al  Al20  1  0.548511  0.341480  0.250069  1
  Al  Al21  1  0.451489  0.658520  0.749931  1
  Ir  Ir22  1  0.000000  0.000000  0.500000  1
  Pd  Pd23  1  0.670237  0.329763  0.000000  1
  Pd  Pd24  1  0.329763  0.670237  0.000000  1
  Pd  Pd25  1  0.329568  0.670432  0.500000  1
  Pd  Pd26  1  0.670432  0.329568  0.500000  1
  Pd  Pd27  1  0.000000  0.000000  0.000000  1
