# generated using pymatgen
data_Ba2LiFeO4
_symmetry_space_group_name_H-M   'P 1'
_cell_length_a   5.92593600
_cell_length_b   6.53111283
_cell_length_c   7.58923000
_cell_angle_alpha   90.00000000
_cell_angle_beta   90.00000000
_cell_angle_gamma   63.02014902
_symmetry_Int_Tables_number   1
_chemical_formula_structural   Ba2LiFeO4
_chemical_formula_sum   'Ba4 Li2 Fe2 O8'
_cell_volume   261.75833950
_cell_formula_units_Z   2
loop_
 _symmetry_equiv_pos_site_id
 _symmetry_equiv_pos_as_xyz
  1  'x, y, z'
loop_
 _atom_site_type_symbol
 _atom_site_label
 _atom_site_symmetry_multiplicity
 _atom_site_fract_x
 _atom_site_fract_y
 _atom_site_fract_z
 _atom_site_occupancy
  Ba  Ba0  1  0.587747  0.824506  0.041688  1
  Ba  Ba1  1  0.062544  0.874915  0.404740  1
  Ba  Ba2  1  0.412253  0.175493  0.541688  1
  Ba  Ba3  1  0.937455  0.125086  0.904740  1
  Li  Li4  1  0.806521  0.386955  0.323832  1
  Li  Li5  1  0.193479  0.613044  0.823831  1
  Fe  Fe6  1  0.311556  0.376888  0.111625  1
  Fe  Fe7  1  0.688444  0.623111  0.611625  1
  O  O8  1  0.147676  0.704644  0.082738  1
  O  O9  1  0.136425  0.228311  0.219277  1
  O  O10  1  0.635260  0.228315  0.219278  1
  O  O11  1  0.631884  0.736232  0.375823  1
  O  O12  1  0.852323  0.295356  0.582738  1
  O  O13  1  0.364739  0.771686  0.719278  1
  O  O14  1  0.863574  0.771690  0.719277  1
  O  O15  1  0.368116  0.263767  0.875823  1
