# generated using pymatgen
data_Sr2CdBi(Pt2O7)2
_symmetry_space_group_name_H-M   'P 1'
_cell_length_a   7.30485522
_cell_length_b   7.34005162
_cell_length_c   7.47664185
_cell_angle_alpha   60.60251560
_cell_angle_beta   59.90721779
_cell_angle_gamma   59.84048663
_symmetry_Int_Tables_number   1
_chemical_formula_structural   Sr2CdBi(Pt2O7)2
_chemical_formula_sum   'Sr2 Cd1 Bi1 Pt4 O14'
_cell_volume   284.18571408
_cell_formula_units_Z   1
loop_
 _symmetry_equiv_pos_site_id
 _symmetry_equiv_pos_as_xyz
  1  'x, y, z'
loop_
 _atom_site_type_symbol
 _atom_site_label
 _atom_site_symmetry_multiplicity
 _atom_site_fract_x
 _atom_site_fract_y
 _atom_site_fract_z
 _atom_site_occupancy
  Sr  Sr0  1  0.125000  0.625000  0.125000  1
  Sr  Sr1  1  0.125000  0.125000  0.125000  1
  Cd  Cd2  1  0.625000  0.125000  0.125000  1
  Bi  Bi3  1  0.125000  0.125000  0.625000  1
  Pt  Pt4  1  0.625000  0.625000  0.125000  1
  Pt  Pt5  1  0.625000  0.125000  0.625000  1
  Pt  Pt6  1  0.125000  0.625000  0.625000  1
  Pt  Pt7  1  0.625000  0.625000  0.625000  1
  O  O8  1  0.259093  0.228649  0.283609  1
  O  O9  1  0.990907  0.021351  0.966391  1
  O  O10  1  0.537369  0.955874  0.550882  1
  O  O11  1  0.294008  0.703759  0.298474  1
  O  O12  1  0.553813  0.538465  0.951607  1
  O  O13  1  0.959433  0.531744  0.550296  1
  O  O14  1  0.553813  0.956116  0.951607  1
  O  O15  1  0.959433  0.958526  0.550296  1
  O  O16  1  0.955992  0.546241  0.951526  1
  O  O17  1  0.696187  0.293884  0.298393  1
  O  O18  1  0.290567  0.718256  0.699704  1
  O  O19  1  0.712631  0.294126  0.699118  1
  O  O20  1  0.290567  0.291474  0.699704  1
  O  O21  1  0.696187  0.711535  0.298393  1
