# generated using pymatgen
data_YbEr2Sc(Pt2O7)2
_symmetry_space_group_name_H-M   'P 1'
_cell_length_a   7.16047356
_cell_length_b   7.19756615
_cell_length_c   7.16047423
_cell_angle_alpha   60.36778787
_cell_angle_beta   60.36556620
_cell_angle_gamma   60.36778384
_symmetry_Int_Tables_number   1
_chemical_formula_structural   YbEr2Sc(Pt2O7)2
_chemical_formula_sum   'Yb1 Er2 Sc1 Pt4 O14'
_cell_volume   263.11462378
_cell_formula_units_Z   1
loop_
 _symmetry_equiv_pos_site_id
 _symmetry_equiv_pos_as_xyz
  1  'x, y, z'
loop_
 _atom_site_type_symbol
 _atom_site_label
 _atom_site_symmetry_multiplicity
 _atom_site_fract_x
 _atom_site_fract_y
 _atom_site_fract_z
 _atom_site_occupancy
  Yb  Yb0  1  0.625000  0.125000  0.625000  1
  Er  Er1  1  0.625000  0.625000  0.125000  1
  Er  Er2  1  0.125000  0.625000  0.625000  1
  Sc  Sc3  1  0.625000  0.625000  0.625000  1
  Pt  Pt4  1  0.625000  0.125000  0.125000  1
  Pt  Pt5  1  0.125000  0.125000  0.125000  1
  Pt  Pt6  1  0.125000  0.625000  0.125000  1
  Pt  Pt7  1  0.125000  0.125000  0.625000  1
  O  O8  1  0.028404  0.466973  0.466730  1
  O  O9  1  0.783270  0.783027  0.221596  1
  O  O10  1  0.784893  0.221577  0.208226  1
  O  O11  1  0.032084  0.467948  0.032084  1
  O  O12  1  0.463268  0.023784  0.463268  1
  O  O13  1  0.746827  0.737096  0.746827  1
  O  O14  1  0.041774  0.028423  0.465107  1
  O  O15  1  0.786732  0.226216  0.786732  1
  O  O16  1  0.503173  0.512904  0.503173  1
  O  O17  1  0.208226  0.221577  0.784893  1
  O  O18  1  0.217916  0.782052  0.217916  1
  O  O19  1  0.465107  0.028423  0.041774  1
  O  O20  1  0.466730  0.466973  0.028404  1
  O  O21  1  0.221596  0.783027  0.783270  1
