# generated using pymatgen
data_Er5P12IrRu5Rh13
_symmetry_space_group_name_H-M   'P 1'
_cell_length_a   12.62835289
_cell_length_b   12.61612429
_cell_length_c   3.93022300
_cell_angle_alpha   90.00000000
_cell_angle_beta   90.00000000
_cell_angle_gamma   119.84444789
_symmetry_Int_Tables_number   1
_chemical_formula_structural   Er5P12IrRu5Rh13
_chemical_formula_sum   'Er5 P12 Ir1 Ru5 Rh13'
_cell_volume   543.12412532
_cell_formula_units_Z   1
loop_
 _symmetry_equiv_pos_site_id
 _symmetry_equiv_pos_as_xyz
  1  'x, y, z'
loop_
 _atom_site_type_symbol
 _atom_site_label
 _atom_site_symmetry_multiplicity
 _atom_site_fract_x
 _atom_site_fract_y
 _atom_site_fract_z
 _atom_site_occupancy
  Er  Er0  1  0.667208  0.333619  0.000000  1
  Er  Er1  1  0.333314  0.665669  0.000000  1
  Er  Er2  1  0.817353  0.817180  0.500000  1
  Er  Er3  1  0.183983  0.000361  0.500000  1
  Er  Er4  1  0.999937  0.182751  0.500000  1
  P  P5  1  0.689023  0.171336  0.500000  1
  P  P6  1  0.829851  0.515953  0.500000  1
  P  P7  1  0.483387  0.317025  0.500000  1
  P  P8  1  0.167368  0.686869  0.500000  1
  P  P9  1  0.519026  0.832498  0.500000  1
  P  P10  1  0.313180  0.480710  0.500000  1
  P  P11  1  0.637359  0.633607  0.000000  1
  P  P12  1  0.363567  0.000515  0.000000  1
  P  P13  1  0.996201  0.362343  0.000000  1
  P  P14  1  0.181652  0.181881  0.000000  1
  P  P15  1  0.817631  0.999236  0.000000  1
  P  P16  1  0.000394  0.818162  0.000000  1
  Ir  Ir17  1  0.999959  0.000059  0.000000  1
  Ru  Ru18  1  0.282970  0.283095  0.500000  1
  Ru  Ru19  1  0.715329  0.999815  0.500000  1
  Ru  Ru20  1  0.999192  0.715315  0.500000  1
  Ru  Ru21  1  0.872499  0.359560  0.500000  1
  Ru  Ru22  1  0.641201  0.512892  0.500000  1
  Rh  Rh23  1  0.804795  0.180577  0.000000  1
  Rh  Rh24  1  0.819212  0.624438  0.000000  1
  Rh  Rh25  1  0.375999  0.194457  0.000000  1
  Rh  Rh26  1  0.181958  0.806044  0.000000  1
  Rh  Rh27  1  0.623624  0.816878  0.000000  1
  Rh  Rh28  1  0.192915  0.376322  0.000000  1
  Rh  Rh29  1  0.453274  0.454251  0.000000  1
  Rh  Rh30  1  0.545010  0.998452  0.000000  1
  Rh  Rh31  1  0.001682  0.547104  0.000000  1
  Rh  Rh32  1  0.490987  0.132529  0.500000  1
  Rh  Rh33  1  0.358435  0.867481  0.500000  1
  Rh  Rh34  1  0.509737  0.640189  0.500000  1
  Rh  Rh35  1  0.130786  0.490827  0.500000  1
