# generated using pymatgen
data_Mg2Zr(Co3B2)3
_symmetry_space_group_name_H-M   'P 1'
_cell_length_a   5.67626474
_cell_length_b   5.67626563
_cell_length_c   5.67626530
_cell_angle_alpha   95.60179367
_cell_angle_beta   95.60179919
_cell_angle_gamma   95.60180435
_symmetry_Int_Tables_number   1
_chemical_formula_structural   Mg2Zr(Co3B2)3
_chemical_formula_sum   'Mg2 Zr1 Co9 B6'
_cell_volume   180.08356685
_cell_formula_units_Z   1
loop_
 _symmetry_equiv_pos_site_id
 _symmetry_equiv_pos_as_xyz
  1  'x, y, z'
loop_
 _atom_site_type_symbol
 _atom_site_label
 _atom_site_symmetry_multiplicity
 _atom_site_fract_x
 _atom_site_fract_y
 _atom_site_fract_z
 _atom_site_occupancy
  Mg  Mg0  1  0.992773  0.992773  0.992773  1
  Mg  Mg1  1  0.675630  0.675630  0.675630  1
  Zr  Zr2  1  0.327298  0.327298  0.327298  1
  Co  Co3  1  0.996017  0.996017  0.497334  1
  Co  Co4  1  0.497334  0.996017  0.996017  1
  Co  Co5  1  0.996017  0.497334  0.996017  1
  Co  Co6  1  0.701540  0.206985  0.701540  1
  Co  Co7  1  0.701540  0.701540  0.206985  1
  Co  Co8  1  0.206985  0.701540  0.701540  1
  Co  Co9  1  0.296156  0.803897  0.296156  1
  Co  Co10  1  0.296156  0.296156  0.803897  1
  Co  Co11  1  0.803897  0.296156  0.296156  1
  B  B12  1  0.616836  0.387030  0.000462  1
  B  B13  1  0.000462  0.616836  0.387030  1
  B  B14  1  0.387030  0.000462  0.616836  1
  B  B15  1  0.000462  0.387030  0.616836  1
  B  B16  1  0.616836  0.000462  0.387030  1
  B  B17  1  0.387030  0.616836  0.000462  1
