# generated using pymatgen
data_Cs4Pr3Sm(SiSe4)4
_symmetry_space_group_name_H-M   'P 1'
_cell_length_a   7.14531278
_cell_length_b   9.97167545
_cell_length_c   13.64822316
_cell_angle_alpha   71.28446031
_cell_angle_beta   90.03109918
_cell_angle_gamma   90.03577383
_symmetry_Int_Tables_number   1
_chemical_formula_structural   Cs4Pr3Sm(SiSe4)4
_chemical_formula_sum   'Cs4 Pr3 Sm1 Si4 Se16'
_cell_volume   921.02601315
_cell_formula_units_Z   1
loop_
 _symmetry_equiv_pos_site_id
 _symmetry_equiv_pos_as_xyz
  1  'x, y, z'
loop_
 _atom_site_type_symbol
 _atom_site_label
 _atom_site_symmetry_multiplicity
 _atom_site_fract_x
 _atom_site_fract_y
 _atom_site_fract_z
 _atom_site_occupancy
  Cs  Cs0  1  0.253469  0.434607  0.386175  1
  Cs  Cs1  1  0.753457  0.565440  0.113773  1
  Cs  Cs2  1  0.746340  0.565268  0.614072  1
  Cs  Cs3  1  0.246572  0.434643  0.886085  1
  Pr  Pr4  1  0.196566  0.953488  0.365464  1
  Pr  Pr5  1  0.696456  0.046439  0.134414  1
  Pr  Pr6  1  0.803601  0.046369  0.634977  1
  Sm  Sm7  1  0.305822  0.953277  0.865669  1
  Si  Si8  1  0.743262  0.166801  0.354188  1
  Si  Si9  1  0.243268  0.833490  0.145252  1
  Si  Si10  1  0.256709  0.833605  0.646120  1
  Si  Si11  1  0.756870  0.166182  0.854375  1
  Se  Se12  1  0.029899  0.195968  0.760254  1
  Se  Se13  1  0.774786  0.934180  0.452996  1
  Se  Se14  1  0.524264  0.207197  0.731866  1
  Se  Se15  1  0.721913  0.933761  0.952798  1
  Se  Se16  1  0.758158  0.313442  0.451235  1
  Se  Se17  1  0.971917  0.801614  0.240782  1
  Se  Se18  1  0.258522  0.689483  0.046254  1
  Se  Se19  1  0.225103  0.065869  0.546739  1
  Se  Se20  1  0.742014  0.313388  0.951097  1
  Se  Se21  1  0.473861  0.790762  0.269020  1
  Se  Se22  1  0.027922  0.792225  0.770402  1
  Se  Se23  1  0.241785  0.686715  0.549106  1
  Se  Se24  1  0.471568  0.198360  0.258914  1
  Se  Se25  1  0.974155  0.209368  0.230789  1
  Se  Se26  1  0.526937  0.802864  0.742341  1
  Se  Se27  1  0.274801  0.065194  0.044843  1
