# generated using pymatgen
data_RbV3Ge2O9
_symmetry_space_group_name_H-M   'P 1'
_cell_length_a   5.99480812
_cell_length_b   5.99556926
_cell_length_c   13.91492889
_cell_angle_alpha   89.98211552
_cell_angle_beta   90.03589339
_cell_angle_gamma   119.99645975
_symmetry_Int_Tables_number   1
_chemical_formula_structural   RbV3Ge2O9
_chemical_formula_sum   'Rb2 V6 Ge4 O18'
_cell_volume   433.14443674
_cell_formula_units_Z   2
loop_
 _symmetry_equiv_pos_site_id
 _symmetry_equiv_pos_as_xyz
  1  'x, y, z'
loop_
 _atom_site_type_symbol
 _atom_site_label
 _atom_site_symmetry_multiplicity
 _atom_site_fract_x
 _atom_site_fract_y
 _atom_site_fract_z
 _atom_site_occupancy
  Rb  Rb0  1  0.333307  0.666565  0.750009  1
  Rb  Rb1  1  0.666697  0.333430  0.249989  1
  V  V2  1  0.499996  0.500004  0.499998  1
  V  V3  1  0.499989  0.999983  0.000002  1
  V  V4  1  0.499994  0.500004  0.000002  1
  V  V5  1  0.000012  0.500007  0.499999  1
  V  V6  1  0.499997  0.999992  0.499998  1
  V  V7  1  0.000011  0.500007  0.000003  1
  Ge  Ge8  1  0.000066  0.999718  0.622413  1
  Ge  Ge9  1  0.999936  0.000284  0.377593  1
  Ge  Ge10  1  0.000364  0.000254  0.122398  1
  Ge  Ge11  1  0.999627  0.999739  0.877598  1
  O  O12  1  0.999794  0.999465  0.750015  1
  O  O13  1  0.000203  0.000538  0.249983  1
  O  O14  1  0.666729  0.333260  0.566826  1
  O  O15  1  0.333275  0.666743  0.433176  1
  O  O16  1  0.333489  0.666759  0.066841  1
  O  O17  1  0.666507  0.333237  0.933158  1
  O  O18  1  0.164548  0.835418  0.584994  1
  O  O19  1  0.671210  0.835129  0.585112  1
  O  O20  1  0.164657  0.328678  0.585119  1
  O  O21  1  0.835462  0.164583  0.415007  1
  O  O22  1  0.328786  0.164869  0.414889  1
  O  O23  1  0.835351  0.671333  0.414882  1
  O  O24  1  0.836003  0.164776  0.085116  1
  O  O25  1  0.329102  0.164666  0.085018  1
  O  O26  1  0.836098  0.671389  0.085112  1
  O  O27  1  0.163994  0.835222  0.914882  1
  O  O28  1  0.670887  0.835329  0.914981  1
  O  O29  1  0.163904  0.328618  0.914888  1
