# generated using pymatgen
data_Dy11TmTc4
_symmetry_space_group_name_H-M   'P 1'
_cell_length_a   6.24526118
_cell_length_b   7.39520292
_cell_length_c   9.18330921
_cell_angle_alpha   89.95093458
_cell_angle_beta   90.00571388
_cell_angle_gamma   89.93944232
_symmetry_Int_Tables_number   1
_chemical_formula_structural   Dy11TmTc4
_chemical_formula_sum   'Dy11 Tm1 Tc4'
_cell_volume   424.13050013
_cell_formula_units_Z   1
loop_
 _symmetry_equiv_pos_site_id
 _symmetry_equiv_pos_as_xyz
  1  'x, y, z'
loop_
 _atom_site_type_symbol
 _atom_site_label
 _atom_site_symmetry_multiplicity
 _atom_site_fract_x
 _atom_site_fract_y
 _atom_site_fract_z
 _atom_site_occupancy
  Dy  Dy0  1  0.628016  0.042370  0.250655  1
  Dy  Dy1  1  0.372828  0.958668  0.749464  1
  Dy  Dy2  1  0.127807  0.457443  0.749108  1
  Dy  Dy3  1  0.871198  0.541663  0.250637  1
  Dy  Dy4  1  0.163396  0.174984  0.062724  1
  Dy  Dy5  1  0.837239  0.824814  0.936812  1
  Dy  Dy6  1  0.662863  0.324191  0.936334  1
  Dy  Dy7  1  0.836185  0.824281  0.562639  1
  Dy  Dy8  1  0.337016  0.675802  0.062535  1
  Dy  Dy9  1  0.162611  0.175472  0.437890  1
  Dy  Dy10  1  0.337487  0.675230  0.437791  1
  Tm  Tm11  1  0.662668  0.325142  0.563146  1
  Tc  Tc12  1  0.461842  0.387263  0.251926  1
  Tc  Tc13  1  0.540700  0.612393  0.749678  1
  Tc  Tc14  1  0.958595  0.113480  0.748967  1
  Tc  Tc15  1  0.039549  0.886802  0.249693  1
