# generated using pymatgen
data_ErNb9Se16
_symmetry_space_group_name_H-M   'P 1'
_cell_length_a   7.00804400
_cell_length_b   7.00804438
_cell_length_c   13.79240300
_cell_angle_alpha   90.00000000
_cell_angle_beta   90.00000000
_cell_angle_gamma   120.00000763
_symmetry_Int_Tables_number   1
_chemical_formula_structural   ErNb9Se16
_chemical_formula_sum   'Er1 Nb9 Se16'
_cell_volume   586.62990719
_cell_formula_units_Z   1
loop_
 _symmetry_equiv_pos_site_id
 _symmetry_equiv_pos_as_xyz
  1  'x, y, z'
loop_
 _atom_site_type_symbol
 _atom_site_label
 _atom_site_symmetry_multiplicity
 _atom_site_fract_x
 _atom_site_fract_y
 _atom_site_fract_z
 _atom_site_occupancy
  Er  Er0  1  0.000000  0.000000  0.000000  1
  Nb  Nb1  1  0.000000  0.000000  0.256871  1
  Nb  Nb2  1  0.000000  0.000000  0.743129  1
  Nb  Nb3  1  0.506883  0.013766  0.257665  1
  Nb  Nb4  1  0.493117  0.986234  0.742335  1
  Nb  Nb5  1  0.986234  0.493117  0.257665  1
  Nb  Nb6  1  0.013766  0.506883  0.742335  1
  Nb  Nb7  1  0.506883  0.493117  0.257665  1
  Nb  Nb8  1  0.493117  0.506883  0.742335  1
  Nb  Nb9  1  0.000000  0.000000  0.500000  1
  Se  Se10  1  0.333333  0.666667  0.617555  1
  Se  Se11  1  0.666667  0.333333  0.382445  1
  Se  Se12  1  0.666667  0.333333  0.131742  1
  Se  Se13  1  0.333333  0.666667  0.868258  1
  Se  Se14  1  0.170155  0.340310  0.136559  1
  Se  Se15  1  0.829845  0.659690  0.863441  1
  Se  Se16  1  0.659690  0.829845  0.136559  1
  Se  Se17  1  0.832304  0.664608  0.621771  1
  Se  Se18  1  0.340310  0.170155  0.863441  1
  Se  Se19  1  0.167696  0.335392  0.378229  1
  Se  Se20  1  0.170155  0.829845  0.136559  1
  Se  Se21  1  0.335392  0.167696  0.621771  1
  Se  Se22  1  0.829845  0.170155  0.863441  1
  Se  Se23  1  0.664608  0.832304  0.378229  1
  Se  Se24  1  0.832304  0.167696  0.621771  1
  Se  Se25  1  0.167696  0.832304  0.378229  1
