# generated using pymatgen
data_Dy3Sc3GaFeTe
_symmetry_space_group_name_H-M   'P 1'
_cell_length_a   7.83799000
_cell_length_b   7.83798774
_cell_length_c   3.99264800
_cell_angle_alpha   90.00000000
_cell_angle_beta   90.00000000
_cell_angle_gamma   119.99999266
_symmetry_Int_Tables_number   1
_chemical_formula_structural   Dy3Sc3GaFeTe
_chemical_formula_sum   'Dy3 Sc3 Ga1 Fe1 Te1'
_cell_volume   212.42272333
_cell_formula_units_Z   1
loop_
 _symmetry_equiv_pos_site_id
 _symmetry_equiv_pos_as_xyz
  1  'x, y, z'
loop_
 _atom_site_type_symbol
 _atom_site_label
 _atom_site_symmetry_multiplicity
 _atom_site_fract_x
 _atom_site_fract_y
 _atom_site_fract_z
 _atom_site_occupancy
  Dy  Dy0  1  0.595075  0.985361  0.000000  1
  Dy  Dy1  1  0.390286  0.404925  0.000000  1
  Dy  Dy2  1  0.014639  0.609714  0.000000  1
  Sc  Sc3  1  0.225658  0.995845  0.500000  1
  Sc  Sc4  1  0.770186  0.774342  0.500000  1
  Sc  Sc5  1  0.004155  0.229814  0.500000  1
  Ga  Ga6  1  0.333333  0.666667  0.500000  1
  Fe  Fe7  1  0.000000  0.000000  0.000000  1
  Te  Te8  1  0.666667  0.333333  0.500000  1
