# generated using pymatgen
data_La3Sb5AsRh9
_symmetry_space_group_name_H-M   'P 1'
_cell_length_a   4.22661300
_cell_length_b   8.85268684
_cell_length_c   10.36658686
_cell_angle_alpha   106.20896577
_cell_angle_beta   90.00000000
_cell_angle_gamma   103.81097004
_symmetry_Int_Tables_number   1
_chemical_formula_structural   La3Sb5AsRh9
_chemical_formula_sum   'La3 Sb5 As1 Rh9'
_cell_volume   360.77365205
_cell_formula_units_Z   1
loop_
 _symmetry_equiv_pos_site_id
 _symmetry_equiv_pos_as_xyz
  1  'x, y, z'
loop_
 _atom_site_type_symbol
 _atom_site_label
 _atom_site_symmetry_multiplicity
 _atom_site_fract_x
 _atom_site_fract_y
 _atom_site_fract_z
 _atom_site_occupancy
  La  La0  1  0.843608  0.687216  0.316508  1
  La  La1  1  0.161906  0.323813  0.705280  1
  La  La2  1  0.002169  0.004337  0.999671  1
  Sb  Sb3  1  0.807056  0.614110  0.873304  1
  Sb  Sb4  1  0.196859  0.393719  0.129392  1
  Sb  Sb5  1  0.534608  0.069216  0.773522  1
  Sb  Sb6  1  0.462712  0.925424  0.220747  1
  Sb  Sb7  1  0.638294  0.276588  0.456729  1
  As  As8  1  0.359044  0.718088  0.547410  1
  Rh  Rh9  1  0.951626  0.903252  0.659273  1
  Rh  Rh10  1  0.045693  0.091385  0.335904  1
  Rh  Rh11  1  0.785328  0.570657  0.605040  1
  Rh  Rh12  1  0.221729  0.443457  0.398708  1
  Rh  Rh13  1  0.375420  0.750840  0.785510  1
  Rh  Rh14  1  0.622006  0.244013  0.202702  1
  Rh  Rh15  1  0.492519  0.985038  0.496261  1
  Rh  Rh16  1  0.677051  0.354102  0.958517  1
  Rh  Rh17  1  0.322373  0.644746  0.035521  1
