# generated using pymatgen
data_YHo2Sn3Pd2Pt
_symmetry_space_group_name_H-M   'P 1'
_cell_length_a   7.62993518
_cell_length_b   7.63276507
_cell_length_c   3.91565300
_cell_angle_alpha   90.00000000
_cell_angle_beta   90.00000000
_cell_angle_gamma   120.13354252
_symmetry_Int_Tables_number   1
_chemical_formula_structural   YHo2Sn3Pd2Pt
_chemical_formula_sum   'Y1 Ho2 Sn3 Pd2 Pt1'
_cell_volume   197.22028666
_cell_formula_units_Z   1
loop_
 _symmetry_equiv_pos_site_id
 _symmetry_equiv_pos_as_xyz
  1  'x, y, z'
loop_
 _atom_site_type_symbol
 _atom_site_label
 _atom_site_symmetry_multiplicity
 _atom_site_fract_x
 _atom_site_fract_y
 _atom_site_fract_z
 _atom_site_occupancy
  Y  Y0  1  0.402850  0.406836  0.500000  1
  Ho  Ho1  1  0.592758  0.995622  0.500000  1
  Ho  Ho2  1  0.004353  0.597125  0.500000  1
  Sn  Sn3  1  0.995850  0.258400  0.000000  1
  Sn  Sn4  1  0.741837  0.737956  0.000000  1
  Sn  Sn5  1  0.262236  0.003585  0.000000  1
  Pd  Pd6  1  0.667814  0.333074  0.000000  1
  Pd  Pd7  1  0.999311  0.999312  0.500000  1
  Pt  Pt8  1  0.332989  0.668092  0.000000  1
