# generated using pymatgen
data_Ho3Er2TmNi2
_symmetry_space_group_name_H-M   'P 1'
_cell_length_a   6.30654286
_cell_length_b   6.78458300
_cell_length_c   9.47960625
_cell_angle_alpha   90.00000000
_cell_angle_beta   90.05715725
_cell_angle_gamma   90.00000000
_symmetry_Int_Tables_number   1
_chemical_formula_structural   Ho3Er2TmNi2
_chemical_formula_sum   'Ho6 Er4 Tm2 Ni4'
_cell_volume   405.60620828
_cell_formula_units_Z   2
loop_
 _symmetry_equiv_pos_site_id
 _symmetry_equiv_pos_as_xyz
  1  'x, y, z'
loop_
 _atom_site_type_symbol
 _atom_site_label
 _atom_site_symmetry_multiplicity
 _atom_site_fract_x
 _atom_site_fract_y
 _atom_site_fract_z
 _atom_site_occupancy
  Ho  Ho0  1  0.320592  0.678493  0.065178  1
  Ho  Ho1  1  0.179408  0.178493  0.434822  1
  Ho  Ho2  1  0.861262  0.531995  0.250164  1
  Ho  Ho3  1  0.638738  0.031995  0.249836  1
  Ho  Ho4  1  0.138387  0.467738  0.749864  1
  Ho  Ho5  1  0.361613  0.967738  0.750136  1
  Er  Er6  1  0.679417  0.321697  0.933981  1
  Er  Er7  1  0.820583  0.821697  0.566019  1
  Er  Er8  1  0.320989  0.678370  0.434784  1
  Er  Er9  1  0.179011  0.178370  0.065216  1
  Tm  Tm10  1  0.679035  0.321779  0.566082  1
  Tm  Tm11  1  0.820965  0.821779  0.933918  1
  Ni  Ni12  1  0.054828  0.891892  0.249916  1
  Ni  Ni13  1  0.445172  0.391892  0.250084  1
  Ni  Ni14  1  0.944429  0.108037  0.750177  1
  Ni  Ni15  1  0.555571  0.608037  0.749823  1
