# generated using pymatgen
data_Li2Tb3Hg3C
_symmetry_space_group_name_H-M   'P 1'
_cell_length_a   8.84953100
_cell_length_b   8.84953068
_cell_length_c   5.89104200
_cell_angle_alpha   90.00000000
_cell_angle_beta   90.00000000
_cell_angle_gamma   120.00000493
_symmetry_Int_Tables_number   1
_chemical_formula_structural   Li2Tb3Hg3C
_chemical_formula_sum   'Li4 Tb6 Hg6 C2'
_cell_volume   399.54272135
_cell_formula_units_Z   2
loop_
 _symmetry_equiv_pos_site_id
 _symmetry_equiv_pos_as_xyz
  1  'x, y, z'
loop_
 _atom_site_type_symbol
 _atom_site_label
 _atom_site_symmetry_multiplicity
 _atom_site_fract_x
 _atom_site_fract_y
 _atom_site_fract_z
 _atom_site_occupancy
  Li  Li0  1  0.666667  0.333333  0.000000  1
  Li  Li1  1  0.333333  0.666667  0.000000  1
  Li  Li2  1  0.333333  0.666667  0.500000  1
  Li  Li3  1  0.666667  0.333333  0.500000  1
  Tb  Tb4  1  0.778676  0.778676  0.750000  1
  Tb  Tb5  1  0.221324  0.000000  0.750000  1
  Tb  Tb6  1  0.000000  0.221324  0.750000  1
  Tb  Tb7  1  0.221324  0.221324  0.250000  1
  Tb  Tb8  1  0.778676  0.000000  0.250000  1
  Tb  Tb9  1  0.000000  0.778676  0.250000  1
  Hg  Hg10  1  0.412806  0.412806  0.750000  1
  Hg  Hg11  1  0.587194  0.000000  0.750000  1
  Hg  Hg12  1  0.000000  0.587194  0.750000  1
  Hg  Hg13  1  0.587194  0.587194  0.250000  1
  Hg  Hg14  1  0.412806  0.000000  0.250000  1
  Hg  Hg15  1  0.000000  0.412806  0.250000  1
  C  C16  1  0.000000  0.000000  0.000000  1
  C  C17  1  0.000000  0.000000  0.500000  1
