# generated using pymatgen
data_La2Ga12Co
_symmetry_space_group_name_H-M   'P 1'
_cell_length_a   6.09389600
_cell_length_b   6.09389600
_cell_length_c   15.75329500
_cell_angle_alpha   90.00000000
_cell_angle_beta   90.00000000
_cell_angle_gamma   90.00000000
_symmetry_Int_Tables_number   1
_chemical_formula_structural   La2Ga12Co
_chemical_formula_sum   'La4 Ga24 Co2'
_cell_volume   585.00756492
_cell_formula_units_Z   2
loop_
 _symmetry_equiv_pos_site_id
 _symmetry_equiv_pos_as_xyz
  1  'x, y, z'
loop_
 _atom_site_type_symbol
 _atom_site_label
 _atom_site_symmetry_multiplicity
 _atom_site_fract_x
 _atom_site_fract_y
 _atom_site_fract_z
 _atom_site_occupancy
  La  La0  1  0.750000  0.250000  0.241847  1
  La  La1  1  0.250000  0.750000  0.241847  1
  La  La2  1  0.250000  0.750000  0.758153  1
  La  La3  1  0.750000  0.250000  0.758153  1
  Ga  Ga4  1  0.250000  0.250000  0.183649  1
  Ga  Ga5  1  0.750000  0.750000  0.183649  1
  Ga  Ga6  1  0.750000  0.750000  0.816351  1
  Ga  Ga7  1  0.250000  0.250000  0.816351  1
  Ga  Ga8  1  0.250000  0.250000  0.342702  1
  Ga  Ga9  1  0.750000  0.750000  0.342702  1
  Ga  Ga10  1  0.750000  0.750000  0.657298  1
  Ga  Ga11  1  0.250000  0.250000  0.657298  1
  Ga  Ga12  1  0.500361  0.000361  0.917967  1
  Ga  Ga13  1  0.000361  0.999639  0.917967  1
  Ga  Ga14  1  0.499639  0.500361  0.917967  1
  Ga  Ga15  1  0.999639  0.499639  0.917967  1
  Ga  Ga16  1  0.499639  0.999639  0.082033  1
  Ga  Ga17  1  0.999639  0.000361  0.082033  1
  Ga  Ga18  1  0.500361  0.499639  0.082033  1
  Ga  Ga19  1  0.000361  0.500361  0.082033  1
  Ga  Ga20  1  0.579198  0.079198  0.430950  1
  Ga  Ga21  1  0.079198  0.920802  0.430950  1
  Ga  Ga22  1  0.420802  0.579198  0.430950  1
  Ga  Ga23  1  0.920802  0.420802  0.430950  1
  Ga  Ga24  1  0.420802  0.920802  0.569050  1
  Ga  Ga25  1  0.920802  0.079198  0.569050  1
  Ga  Ga26  1  0.579198  0.420802  0.569050  1
  Ga  Ga27  1  0.079198  0.579198  0.569050  1
  Co  Co28  1  0.750000  0.250000  0.000000  1
  Co  Co29  1  0.250000  0.750000  0.000000  1
