# generated using pymatgen
data_Er4MoOsC4
_symmetry_space_group_name_H-M   'P 1'
_cell_length_a   5.04604900
_cell_length_b   6.55046747
_cell_length_c   9.83103716
_cell_angle_alpha   89.17979506
_cell_angle_beta   90.00000000
_cell_angle_gamma   90.00000000
_symmetry_Int_Tables_number   1
_chemical_formula_structural   Er4MoOsC4
_chemical_formula_sum   'Er8 Mo2 Os2 C8'
_cell_volume   324.92160849
_cell_formula_units_Z   2
loop_
 _symmetry_equiv_pos_site_id
 _symmetry_equiv_pos_as_xyz
  1  'x, y, z'
loop_
 _atom_site_type_symbol
 _atom_site_label
 _atom_site_symmetry_multiplicity
 _atom_site_fract_x
 _atom_site_fract_y
 _atom_site_fract_z
 _atom_site_occupancy
  Er  Er0  1  0.250000  0.676750  0.558534  1
  Er  Er1  1  0.750000  0.323250  0.441466  1
  Er  Er2  1  0.750000  0.826282  0.058701  1
  Er  Er3  1  0.250000  0.173718  0.941299  1
  Er  Er4  1  0.250000  0.539977  0.219000  1
  Er  Er5  1  0.750000  0.460023  0.781000  1
  Er  Er6  1  0.750000  0.967107  0.716868  1
  Er  Er7  1  0.250000  0.032893  0.283132  1
  Mo  Mo8  1  0.250000  0.713311  0.869358  1
  Mo  Mo9  1  0.750000  0.286689  0.130642  1
  Os  Os10  1  0.750000  0.782966  0.367835  1
  Os  Os11  1  0.250000  0.217034  0.632165  1
  C  C12  1  0.250000  0.446274  0.757352  1
  C  C13  1  0.750000  0.553726  0.242648  1
  C  C14  1  0.750000  0.049773  0.260046  1
  C  C15  1  0.250000  0.950227  0.739954  1
  C  C16  1  0.250000  0.825699  0.054358  1
  C  C17  1  0.750000  0.174301  0.945642  1
  C  C18  1  0.750000  0.675669  0.550825  1
  C  C19  1  0.250000  0.324331  0.449175  1
