# generated using pymatgen
data_Tm4AlZn11
_symmetry_space_group_name_H-M   'P 1'
_cell_length_a   4.36525700
_cell_length_b   6.65262842
_cell_length_c   10.02795716
_cell_angle_alpha   90.03877712
_cell_angle_beta   90.00000000
_cell_angle_gamma   90.00000000
_symmetry_Int_Tables_number   1
_chemical_formula_structural   Tm4AlZn11
_chemical_formula_sum   'Tm4 Al1 Zn11'
_cell_volume   291.21614897
_cell_formula_units_Z   1
loop_
 _symmetry_equiv_pos_site_id
 _symmetry_equiv_pos_as_xyz
  1  'x, y, z'
loop_
 _atom_site_type_symbol
 _atom_site_label
 _atom_site_symmetry_multiplicity
 _atom_site_fract_x
 _atom_site_fract_y
 _atom_site_fract_z
 _atom_site_occupancy
  Tm  Tm0  1  0.250000  0.279818  0.662982  1
  Tm  Tm1  1  0.250000  0.780223  0.833876  1
  Tm  Tm2  1  0.750000  0.719260  0.335814  1
  Tm  Tm3  1  0.750000  0.218120  0.165311  1
  Al  Al4  1  0.250000  0.537777  0.103997  1
  Zn  Zn5  1  0.250000  0.036270  0.396623  1
  Zn  Zn6  1  0.750000  0.463313  0.896519  1
  Zn  Zn7  1  0.750000  0.963741  0.603074  1
  Zn  Zn8  1  0.250000  0.923049  0.148888  1
  Zn  Zn9  1  0.250000  0.420062  0.352577  1
  Zn  Zn10  1  0.750000  0.079801  0.851356  1
  Zn  Zn11  1  0.750000  0.580208  0.649066  1
  Zn  Zn12  1  0.250000  0.214540  0.957145  1
  Zn  Zn13  1  0.250000  0.716006  0.542504  1
  Zn  Zn14  1  0.750000  0.784115  0.042353  1
  Zn  Zn15  1  0.750000  0.283695  0.457916  1
