# generated using pymatgen
data_TbEuHo(Co3P2)3
_symmetry_space_group_name_H-M   'P 1'
_cell_length_a   3.70908100
_cell_length_b   10.54439300
_cell_length_c   12.18966000
_cell_angle_alpha   90.00000000
_cell_angle_beta   90.00000000
_cell_angle_gamma   90.00000000
_symmetry_Int_Tables_number   1
_chemical_formula_structural   TbEuHo(Co3P2)3
_chemical_formula_sum   'Tb2 Eu2 Ho2 Co18 P12'
_cell_volume   476.73769686
_cell_formula_units_Z   2
loop_
 _symmetry_equiv_pos_site_id
 _symmetry_equiv_pos_as_xyz
  1  'x, y, z'
loop_
 _atom_site_type_symbol
 _atom_site_label
 _atom_site_symmetry_multiplicity
 _atom_site_fract_x
 _atom_site_fract_y
 _atom_site_fract_z
 _atom_site_occupancy
  Tb  Tb0  1  0.500000  0.817209  0.204413  1
  Tb  Tb1  1  0.500000  0.182791  0.204413  1
  Eu  Eu2  1  0.000000  0.500000  0.523874  1
  Eu  Eu3  1  0.500000  0.000000  0.476440  1
  Ho  Ho4  1  0.000000  0.682533  0.795607  1
  Ho  Ho5  1  0.000000  0.317467  0.795607  1
  Co  Co6  1  0.000000  0.500000  0.985137  1
  Co  Co7  1  0.500000  0.000000  0.013384  1
  Co  Co8  1  0.500000  0.296609  0.429903  1
  Co  Co9  1  0.500000  0.703391  0.429903  1
  Co  Co10  1  0.000000  0.203628  0.571175  1
  Co  Co11  1  0.000000  0.796372  0.571175  1
  Co  Co12  1  0.500000  0.879515  0.712254  1
  Co  Co13  1  0.500000  0.120485  0.712254  1
  Co  Co14  1  0.000000  0.620032  0.288196  1
  Co  Co15  1  0.000000  0.379968  0.288196  1
  Co  Co16  1  0.500000  0.333703  0.993527  1
  Co  Co17  1  0.500000  0.666297  0.993527  1
  Co  Co18  1  0.000000  0.166879  0.005332  1
  Co  Co19  1  0.000000  0.833121  0.005332  1
  Co  Co20  1  0.500000  0.500000  0.156755  1
  Co  Co21  1  0.000000  0.000000  0.843109  1
  Co  Co22  1  0.500000  0.500000  0.704033  1
  Co  Co23  1  0.000000  0.000000  0.296333  1
  P  P24  1  0.500000  0.307377  0.617720  1
  P  P25  1  0.500000  0.692623  0.617720  1
  P  P26  1  0.000000  0.193049  0.383535  1
  P  P27  1  0.000000  0.806951  0.383535  1
  P  P28  1  0.500000  0.500000  0.882038  1
  P  P29  1  0.000000  0.000000  0.116654  1
  P  P30  1  0.500000  0.846741  0.894097  1
  P  P31  1  0.500000  0.153259  0.894097  1
  P  P32  1  0.000000  0.652217  0.105284  1
  P  P33  1  0.000000  0.347783  0.105284  1
  P  P34  1  0.500000  0.500000  0.340406  1
  P  P35  1  0.000000  0.000000  0.659751  1
