# generated using pymatgen
data_LaY5TcPd
_symmetry_space_group_name_H-M   'P 1'
_cell_length_a   6.54641212
_cell_length_b   7.34067377
_cell_length_c   9.42077200
_cell_angle_alpha   90.00000000
_cell_angle_beta   90.00000000
_cell_angle_gamma   90.05063743
_symmetry_Int_Tables_number   1
_chemical_formula_structural   LaY5TcPd
_chemical_formula_sum   'La2 Y10 Tc2 Pd2'
_cell_volume   452.71573539
_cell_formula_units_Z   2
loop_
 _symmetry_equiv_pos_site_id
 _symmetry_equiv_pos_as_xyz
  1  'x, y, z'
loop_
 _atom_site_type_symbol
 _atom_site_label
 _atom_site_symmetry_multiplicity
 _atom_site_fract_x
 _atom_site_fract_y
 _atom_site_fract_z
 _atom_site_occupancy
  La  La0  1  0.625870  0.055662  0.250000  1
  La  La1  1  0.374130  0.944338  0.750000  1
  Y  Y2  1  0.123759  0.468995  0.750000  1
  Y  Y3  1  0.876241  0.531005  0.250000  1
  Y  Y4  1  0.172287  0.186014  0.061966  1
  Y  Y5  1  0.827713  0.813986  0.938034  1
  Y  Y6  1  0.664155  0.329970  0.937584  1
  Y  Y7  1  0.827713  0.813986  0.561966  1
  Y  Y8  1  0.335845  0.670030  0.062416  1
  Y  Y9  1  0.172287  0.186014  0.438034  1
  Y  Y10  1  0.335845  0.670030  0.437584  1
  Y  Y11  1  0.664155  0.329970  0.562416  1
  Tc  Tc12  1  0.471445  0.374753  0.250000  1
  Tc  Tc13  1  0.528555  0.625247  0.750000  1
  Pd  Pd14  1  0.944533  0.114317  0.750000  1
  Pd  Pd15  1  0.055467  0.885683  0.250000  1
