# generated using pymatgen
data_SmY3Er4(WO6)4
_symmetry_space_group_name_H-M   'P 1'
_cell_length_a   5.41107000
_cell_length_b   7.71575052
_cell_length_c   11.44907935
_cell_angle_alpha   75.53903298
_cell_angle_beta   90.00000000
_cell_angle_gamma   90.00000000
_symmetry_Int_Tables_number   1
_chemical_formula_structural   SmY3Er4(WO6)4
_chemical_formula_sum   'Sm1 Y3 Er4 W4 O24'
_cell_volume   462.86025892
_cell_formula_units_Z   1
loop_
 _symmetry_equiv_pos_site_id
 _symmetry_equiv_pos_as_xyz
  1  'x, y, z'
loop_
 _atom_site_type_symbol
 _atom_site_label
 _atom_site_symmetry_multiplicity
 _atom_site_fract_x
 _atom_site_fract_y
 _atom_site_fract_z
 _atom_site_occupancy
  Sm  Sm0  1  0.684229  0.500000  0.250000  1
  Y  Y1  1  0.316086  0.500000  0.750000  1
  Y  Y2  1  0.742710  0.000000  0.250000  1
  Y  Y3  1  0.258210  0.000000  0.750000  1
  Er  Er4  1  0.183681  0.205145  0.422385  1
  Er  Er5  1  0.183681  0.794855  0.077615  1
  Er  Er6  1  0.816934  0.793451  0.578675  1
  Er  Er7  1  0.816934  0.206549  0.921325  1
  W  W8  1  0.255825  0.274813  0.114020  1
  W  W9  1  0.255825  0.725187  0.385980  1
  W  W10  1  0.744067  0.724479  0.884612  1
  W  W11  1  0.744067  0.275521  0.615388  1
  O  O12  1  0.454966  0.207103  0.273397  1
  O  O13  1  0.454966  0.792897  0.226603  1
  O  O14  1  0.543871  0.791515  0.726249  1
  O  O15  1  0.543871  0.208485  0.773751  1
  O  O16  1  0.046449  0.059779  0.102510  1
  O  O17  1  0.046449  0.940221  0.397490  1
  O  O18  1  0.952938  0.940896  0.895933  1
  O  O19  1  0.952938  0.059104  0.604067  1
  O  O20  1  0.984411  0.284582  0.229536  1
  O  O21  1  0.984411  0.715418  0.270464  1
  O  O22  1  0.018526  0.711611  0.770944  1
  O  O23  1  0.018526  0.288389  0.729056  1
  O  O24  1  0.852690  0.363750  0.453086  1
  O  O25  1  0.852690  0.636250  0.046914  1
  O  O26  1  0.149293  0.636570  0.549200  1
  O  O27  1  0.149293  0.363430  0.950800  1
  O  O28  1  0.641391  0.509724  0.614420  1
  O  O29  1  0.641391  0.490276  0.885580  1
  O  O30  1  0.353047  0.490151  0.387317  1
  O  O31  1  0.353047  0.509849  0.112683  1
  O  O32  1  0.463985  0.155962  0.568388  1
  O  O33  1  0.463985  0.844038  0.931612  1
  O  O34  1  0.537308  0.843735  0.431957  1
  O  O35  1  0.537308  0.156265  0.068043  1
