# generated using pymatgen
data_Ho5Tm5Si5Sn
_symmetry_space_group_name_H-M   'P 1'
_cell_length_a   8.46195273
_cell_length_b   8.46926316
_cell_length_c   6.30645600
_cell_angle_alpha   90.00000000
_cell_angle_beta   90.00000000
_cell_angle_gamma   120.20048832
_symmetry_Int_Tables_number   1
_chemical_formula_structural   Ho5Tm5Si5Sn
_chemical_formula_sum   'Ho5 Tm5 Si5 Sn1'
_cell_volume   390.61713470
_cell_formula_units_Z   1
loop_
 _symmetry_equiv_pos_site_id
 _symmetry_equiv_pos_as_xyz
  1  'x, y, z'
loop_
 _atom_site_type_symbol
 _atom_site_label
 _atom_site_symmetry_multiplicity
 _atom_site_fract_x
 _atom_site_fract_y
 _atom_site_fract_z
 _atom_site_occupancy
  Ho  Ho0  1  0.765366  0.765508  0.250000  1
  Ho  Ho1  1  0.240411  0.989621  0.250000  1
  Ho  Ho2  1  0.240818  0.240999  0.750000  1
  Ho  Ho3  1  0.756371  0.998874  0.750000  1
  Ho  Ho4  1  0.998713  0.755927  0.750000  1
  Tm  Tm5  1  0.673844  0.331460  0.502859  1
  Tm  Tm6  1  0.331425  0.673588  0.502916  1
  Tm  Tm7  1  0.331425  0.673588  0.997084  1
  Tm  Tm8  1  0.673844  0.331460  0.997141  1
  Tm  Tm9  1  0.989367  0.240569  0.250000  1
  Si  Si10  1  0.604394  0.999004  0.250000  1
  Si  Si11  1  0.998546  0.603339  0.250000  1
  Si  Si12  1  0.605105  0.605147  0.750000  1
  Si  Si13  1  0.394166  0.001427  0.750000  1
  Si  Si14  1  0.001379  0.394247  0.750000  1
  Sn  Sn15  1  0.394827  0.395243  0.250000  1
