# generated using pymatgen
data_Tm6Ga7Rh16
_symmetry_space_group_name_H-M   'P 1'
_cell_length_a   8.84297885
_cell_length_b   8.84297911
_cell_length_c   8.84297800
_cell_angle_alpha   59.99999667
_cell_angle_beta   59.99999571
_cell_angle_gamma   59.99999810
_symmetry_Int_Tables_number   1
_chemical_formula_structural   Tm6Ga7Rh16
_chemical_formula_sum   'Tm6 Ga7 Rh16'
_cell_volume   488.96829586
_cell_formula_units_Z   1
loop_
 _symmetry_equiv_pos_site_id
 _symmetry_equiv_pos_as_xyz
  1  'x, y, z'
loop_
 _atom_site_type_symbol
 _atom_site_label
 _atom_site_symmetry_multiplicity
 _atom_site_fract_x
 _atom_site_fract_y
 _atom_site_fract_z
 _atom_site_occupancy
  Tm  Tm0  1  0.718677  0.281323  0.281323  1
  Tm  Tm1  1  0.281323  0.718677  0.718677  1
  Tm  Tm2  1  0.281323  0.718677  0.281323  1
  Tm  Tm3  1  0.281323  0.281323  0.718677  1
  Tm  Tm4  1  0.718677  0.281323  0.718677  1
  Tm  Tm5  1  0.718677  0.718677  0.281323  1
  Ga  Ga6  1  0.500000  0.000000  0.000000  1
  Ga  Ga7  1  0.000000  0.500000  0.500000  1
  Ga  Ga8  1  0.000000  0.500000  0.000000  1
  Ga  Ga9  1  0.000000  0.000000  0.500000  1
  Ga  Ga10  1  0.500000  0.000000  0.500000  1
  Ga  Ga11  1  0.500000  0.500000  0.000000  1
  Ga  Ga12  1  0.000000  0.000000  0.000000  1
  Rh  Rh13  1  0.335441  0.335441  0.335441  1
  Rh  Rh14  1  0.335441  0.335441  0.993678  1
  Rh  Rh15  1  0.993678  0.335441  0.335441  1
  Rh  Rh16  1  0.335441  0.993678  0.335441  1
  Rh  Rh17  1  0.664559  0.664559  0.664559  1
  Rh  Rh18  1  0.664559  0.664559  0.006322  1
  Rh  Rh19  1  0.664559  0.006322  0.664559  1
  Rh  Rh20  1  0.006322  0.664559  0.664559  1
  Rh  Rh21  1  0.120653  0.120653  0.120653  1
  Rh  Rh22  1  0.120653  0.120653  0.638041  1
  Rh  Rh23  1  0.638041  0.120653  0.120653  1
  Rh  Rh24  1  0.120653  0.638041  0.120653  1
  Rh  Rh25  1  0.879347  0.879347  0.879347  1
  Rh  Rh26  1  0.879347  0.879347  0.361959  1
  Rh  Rh27  1  0.879347  0.361959  0.879347  1
  Rh  Rh28  1  0.361959  0.879347  0.879347  1
