# generated using pymatgen
data_Sr9Tm(Bi3S)2
_symmetry_space_group_name_H-M   'P 1'
_cell_length_a   9.70557600
_cell_length_b   9.61344733
_cell_length_c   7.56747900
_cell_angle_alpha   90.00000000
_cell_angle_beta   90.00000000
_cell_angle_gamma   119.68649223
_symmetry_Int_Tables_number   1
_chemical_formula_structural   Sr9Tm(Bi3S)2
_chemical_formula_sum   'Sr9 Tm1 Bi6 S2'
_cell_volume   613.40266267
_cell_formula_units_Z   1
loop_
 _symmetry_equiv_pos_site_id
 _symmetry_equiv_pos_as_xyz
  1  'x, y, z'
loop_
 _atom_site_type_symbol
 _atom_site_label
 _atom_site_symmetry_multiplicity
 _atom_site_fract_x
 _atom_site_fract_y
 _atom_site_fract_z
 _atom_site_occupancy
  Sr  Sr0  1  0.657902  0.328824  0.499000  1
  Sr  Sr1  1  0.342098  0.670922  0.499000  1
  Sr  Sr2  1  0.342098  0.670922  0.001000  1
  Sr  Sr3  1  0.657902  0.328824  0.001000  1
  Sr  Sr4  1  0.761886  0.754281  0.250000  1
  Sr  Sr5  1  0.238114  0.992395  0.250000  1
  Sr  Sr6  1  0.000000  0.227914  0.250000  1
  Sr  Sr7  1  0.241297  0.247161  0.750000  1
  Sr  Sr8  1  0.758703  0.005863  0.750000  1
  Tm  Tm9  1  0.000000  0.785329  0.750000  1
  Bi  Bi10  1  0.398464  0.397349  0.250000  1
  Bi  Bi11  1  0.601536  0.998884  0.250000  1
  Bi  Bi12  1  0.000000  0.580150  0.250000  1
  Bi  Bi13  1  0.617159  0.606009  0.750000  1
  Bi  Bi14  1  0.382841  0.988850  0.750000  1
  Bi  Bi15  1  0.000000  0.436689  0.750000  1
  S  S16  1  0.000000  0.989817  0.510423  1
  S  S17  1  0.000000  0.989817  0.989577  1
