# generated using pymatgen
data_Tb2Yb(Al3Pd2)3
_symmetry_space_group_name_H-M   'P 1'
_cell_length_a   9.43128300
_cell_length_b   9.43128217
_cell_length_c   4.20225200
_cell_angle_alpha   90.00000000
_cell_angle_beta   90.00000000
_cell_angle_gamma   119.99999940
_symmetry_Int_Tables_number   1
_chemical_formula_structural   Tb2Yb(Al3Pd2)3
_chemical_formula_sum   'Tb2 Yb1 Al9 Pd6'
_cell_volume   323.70860346
_cell_formula_units_Z   1
loop_
 _symmetry_equiv_pos_site_id
 _symmetry_equiv_pos_as_xyz
  1  'x, y, z'
loop_
 _atom_site_type_symbol
 _atom_site_label
 _atom_site_symmetry_multiplicity
 _atom_site_fract_x
 _atom_site_fract_y
 _atom_site_fract_z
 _atom_site_occupancy
  Tb  Tb0  1  0.333333  0.666667  0.500000  1
  Tb  Tb1  1  0.666667  0.333333  0.500000  1
  Yb  Yb2  1  0.000000  0.000000  0.000000  1
  Al  Al3  1  0.500000  0.000000  0.000000  1
  Al  Al4  1  0.000000  0.500000  0.000000  1
  Al  Al5  1  0.500000  0.500000  0.000000  1
  Al  Al6  1  0.305355  0.000000  0.500000  1
  Al  Al7  1  0.694645  0.000000  0.500000  1
  Al  Al8  1  0.000000  0.305355  0.500000  1
  Al  Al9  1  0.000000  0.694645  0.500000  1
  Al  Al10  1  0.694645  0.694645  0.500000  1
  Al  Al11  1  0.305355  0.305355  0.500000  1
  Pd  Pd12  1  0.183890  0.367781  0.000000  1
  Pd  Pd13  1  0.816110  0.632219  0.000000  1
  Pd  Pd14  1  0.632219  0.816110  0.000000  1
  Pd  Pd15  1  0.367781  0.183890  0.000000  1
  Pd  Pd16  1  0.183890  0.816110  0.000000  1
  Pd  Pd17  1  0.816110  0.183890  0.000000  1
