# generated using pymatgen
data_LiNd2Be2(AsPd5)4
_symmetry_space_group_name_H-M   'P 1'
_cell_length_a   8.79926741
_cell_length_b   8.70898313
_cell_length_c   8.70898257
_cell_angle_alpha   60.68706474
_cell_angle_beta   59.65646368
_cell_angle_gamma   59.65647349
_symmetry_Int_Tables_number   1
_chemical_formula_structural   LiNd2Be2(AsPd5)4
_chemical_formula_sum   'Li1 Nd2 Be2 As4 Pd20'
_cell_volume   471.81533786
_cell_formula_units_Z   1
loop_
 _symmetry_equiv_pos_site_id
 _symmetry_equiv_pos_as_xyz
  1  'x, y, z'
loop_
 _atom_site_type_symbol
 _atom_site_label
 _atom_site_symmetry_multiplicity
 _atom_site_fract_x
 _atom_site_fract_y
 _atom_site_fract_z
 _atom_site_occupancy
  Li  Li0  1  0.000000  0.000000  0.000000  1
  Nd  Nd1  1  0.250000  0.250000  0.250000  1
  Nd  Nd2  1  0.750000  0.750000  0.750000  1
  Be  Be3  1  0.733202  0.266798  0.266798  1
  Be  Be4  1  0.266798  0.733202  0.733202  1
  As  As5  1  0.264087  0.735913  0.264087  1
  As  As6  1  0.735913  0.264087  0.735913  1
  As  As7  1  0.264087  0.264087  0.735913  1
  As  As8  1  0.735913  0.735913  0.264087  1
  Pd  Pd9  1  0.393304  0.380148  0.380148  1
  Pd  Pd10  1  0.606696  0.619852  0.619852  1
  Pd  Pd11  1  0.380148  0.393304  0.846400  1
  Pd  Pd12  1  0.380148  0.846400  0.393304  1
  Pd  Pd13  1  0.619852  0.606696  0.153600  1
  Pd  Pd14  1  0.619852  0.153600  0.606696  1
  Pd  Pd15  1  0.846400  0.380148  0.380148  1
  Pd  Pd16  1  0.153600  0.619852  0.619852  1
  Pd  Pd17  1  0.346166  0.000000  0.000000  1
  Pd  Pd18  1  0.653834  0.000000  0.000000  1
  Pd  Pd19  1  0.000000  0.346166  0.653834  1
  Pd  Pd20  1  0.000000  0.653834  0.346166  1
  Pd  Pd21  1  0.989325  0.343537  0.010675  1
  Pd  Pd22  1  0.656463  0.010675  0.343537  1
  Pd  Pd23  1  0.010675  0.656463  0.989325  1
  Pd  Pd24  1  0.343537  0.989325  0.656463  1
  Pd  Pd25  1  0.989325  0.010675  0.343537  1
  Pd  Pd26  1  0.010675  0.989325  0.656463  1
  Pd  Pd27  1  0.656463  0.343537  0.010675  1
  Pd  Pd28  1  0.343537  0.656463  0.989325  1
