# generated using pymatgen
data_NaDyCr3Ni9As7
_symmetry_space_group_name_H-M   'P 1'
_cell_length_a   9.51055000
_cell_length_b   9.51055008
_cell_length_c   3.78271200
_cell_angle_alpha   90.00000000
_cell_angle_beta   90.00000000
_cell_angle_gamma   119.99999971
_symmetry_Int_Tables_number   1
_chemical_formula_structural   NaDyCr3Ni9As7
_chemical_formula_sum   'Na1 Dy1 Cr3 Ni9 As7'
_cell_volume   296.30923020
_cell_formula_units_Z   1
loop_
 _symmetry_equiv_pos_site_id
 _symmetry_equiv_pos_as_xyz
  1  'x, y, z'
loop_
 _atom_site_type_symbol
 _atom_site_label
 _atom_site_symmetry_multiplicity
 _atom_site_fract_x
 _atom_site_fract_y
 _atom_site_fract_z
 _atom_site_occupancy
  Na  Na0  1  0.666667  0.333333  0.500000  1
  Dy  Dy1  1  0.333333  0.666667  0.000000  1
  Cr  Cr2  1  0.223995  0.122027  0.500000  1
  Cr  Cr3  1  0.877973  0.101968  0.500000  1
  Cr  Cr4  1  0.898032  0.776005  0.500000  1
  Ni  Ni5  1  0.121626  0.280766  0.000000  1
  Ni  Ni6  1  0.719234  0.840859  0.000000  1
  Ni  Ni7  1  0.159141  0.878374  0.000000  1
  Ni  Ni8  1  0.428599  0.372899  0.000000  1
  Ni  Ni9  1  0.627101  0.055701  0.000000  1
  Ni  Ni10  1  0.944299  0.571401  0.000000  1
  Ni  Ni11  1  0.052501  0.433676  0.500000  1
  Ni  Ni12  1  0.566324  0.618825  0.500000  1
  Ni  Ni13  1  0.381175  0.947499  0.500000  1
  As  As14  1  0.292438  0.409683  0.500000  1
  As  As15  1  0.590317  0.882755  0.500000  1
  As  As16  1  0.117245  0.707562  0.500000  1
  As  As17  1  0.415811  0.118863  0.000000  1
  As  As18  1  0.881137  0.296948  0.000000  1
  As  As19  1  0.703052  0.584189  0.000000  1
  As  As20  1  0.000000  0.000000  0.000000  1
