# generated using pymatgen
data_TbYb2(YIr)2
_symmetry_space_group_name_H-M   'P 1'
_cell_length_a   6.55212150
_cell_length_b   7.28603216
_cell_length_c   8.53683169
_cell_angle_alpha   97.00245325
_cell_angle_beta   112.56652206
_cell_angle_gamma   89.99999775
_symmetry_Int_Tables_number   1
_chemical_formula_structural   TbYb2(YIr)2
_chemical_formula_sum   'Tb2 Yb4 Y4 Ir4'
_cell_volume   373.04205883
_cell_formula_units_Z   2
loop_
 _symmetry_equiv_pos_site_id
 _symmetry_equiv_pos_as_xyz
  1  'x, y, z'
loop_
 _atom_site_type_symbol
 _atom_site_label
 _atom_site_symmetry_multiplicity
 _atom_site_fract_x
 _atom_site_fract_y
 _atom_site_fract_z
 _atom_site_occupancy
  Tb  Tb0  1  0.431536  0.750000  0.000000  1
  Tb  Tb1  1  0.568464  0.250000  0.000000  1
  Yb  Yb2  1  0.975915  0.919423  0.182812  1
  Yb  Yb3  1  0.793103  0.580577  0.817188  1
  Yb  Yb4  1  0.024085  0.080577  0.817188  1
  Yb  Yb5  1  0.206897  0.419423  0.182812  1
  Y  Y6  1  0.651489  0.817559  0.440132  1
  Y  Y7  1  0.211357  0.682441  0.559868  1
  Y  Y8  1  0.348511  0.182441  0.559868  1
  Y  Y9  1  0.788643  0.317559  0.440132  1
  Ir  Ir10  1  0.816475  0.572378  0.225676  1
  Ir  Ir11  1  0.590799  0.927622  0.774324  1
  Ir  Ir12  1  0.183525  0.427622  0.774324  1
  Ir  Ir13  1  0.409201  0.072378  0.225676  1
