# generated using pymatgen
data_LaSm(NiSb)2
_symmetry_space_group_name_H-M   'P 1'
_cell_length_a   4.40362500
_cell_length_b   4.40362551
_cell_length_c   8.24806000
_cell_angle_alpha   90.00000000
_cell_angle_beta   90.00000000
_cell_angle_gamma   119.99998863
_symmetry_Int_Tables_number   1
_chemical_formula_structural   LaSm(NiSb)2
_chemical_formula_sum   'La1 Sm1 Ni2 Sb2'
_cell_volume   138.51703948
_cell_formula_units_Z   1
loop_
 _symmetry_equiv_pos_site_id
 _symmetry_equiv_pos_as_xyz
  1  'x, y, z'
loop_
 _atom_site_type_symbol
 _atom_site_label
 _atom_site_symmetry_multiplicity
 _atom_site_fract_x
 _atom_site_fract_y
 _atom_site_fract_z
 _atom_site_occupancy
  La  La0  1  0.000000  0.000000  0.000000  1
  Sm  Sm1  1  0.000000  0.000000  0.500000  1
  Ni  Ni2  1  0.666667  0.333333  0.741306  1
  Ni  Ni3  1  0.333333  0.666667  0.258694  1
  Sb  Sb4  1  0.333333  0.666667  0.741044  1
  Sb  Sb5  1  0.666667  0.333333  0.258956  1
