# generated using pymatgen
data_Tb4Lu4In3Fe
_symmetry_space_group_name_H-M   'P 1'
_cell_length_a   10.20730100
_cell_length_b   10.20730078
_cell_length_c   7.12957800
_cell_angle_alpha   90.00000000
_cell_angle_beta   90.00000000
_cell_angle_gamma   119.99999749
_symmetry_Int_Tables_number   1
_chemical_formula_structural   Tb4Lu4In3Fe
_chemical_formula_sum   'Tb8 Lu8 In6 Fe2'
_cell_volume   643.30407338
_cell_formula_units_Z   2
loop_
 _symmetry_equiv_pos_site_id
 _symmetry_equiv_pos_as_xyz
  1  'x, y, z'
loop_
 _atom_site_type_symbol
 _atom_site_label
 _atom_site_symmetry_multiplicity
 _atom_site_fract_x
 _atom_site_fract_y
 _atom_site_fract_z
 _atom_site_occupancy
  Tb  Tb0  1  0.535252  0.070504  0.785635  1
  Tb  Tb1  1  0.929496  0.464748  0.785635  1
  Tb  Tb2  1  0.535252  0.464748  0.785635  1
  Tb  Tb3  1  0.464748  0.929496  0.285635  1
  Tb  Tb4  1  0.070504  0.535252  0.285635  1
  Tb  Tb5  1  0.464748  0.535252  0.285635  1
  Tb  Tb6  1  0.000000  0.000000  0.772816  1
  Tb  Tb7  1  0.000000  0.000000  0.272816  1
  Lu  Lu8  1  0.820229  0.640460  0.489342  1
  Lu  Lu9  1  0.359540  0.179771  0.489342  1
  Lu  Lu10  1  0.820229  0.179771  0.489342  1
  Lu  Lu11  1  0.179771  0.359540  0.989342  1
  Lu  Lu12  1  0.640460  0.820229  0.989342  1
  Lu  Lu13  1  0.179771  0.820229  0.989342  1
  Lu  Lu14  1  0.666667  0.333333  0.181453  1
  Lu  Lu15  1  0.333333  0.666667  0.681453  1
  In  In16  1  0.836025  0.672051  0.041806  1
  In  In17  1  0.327949  0.163975  0.041806  1
  In  In18  1  0.836025  0.163975  0.041806  1
  In  In19  1  0.163975  0.327949  0.541806  1
  In  In20  1  0.672051  0.836025  0.541806  1
  In  In21  1  0.163975  0.836025  0.541806  1
  Fe  Fe22  1  0.666667  0.333333  0.558418  1
  Fe  Fe23  1  0.333333  0.666667  0.058418  1
