# generated using pymatgen
data_SmDy5NiCl10
_symmetry_space_group_name_H-M   'P 1'
_cell_length_a   7.06311155
_cell_length_b   8.81785800
_cell_length_c   8.91503995
_cell_angle_alpha   108.15724859
_cell_angle_beta   96.39586582
_cell_angle_gamma   105.82624913
_symmetry_Int_Tables_number   1
_chemical_formula_structural   SmDy5NiCl10
_chemical_formula_sum   'Sm1 Dy5 Ni1 Cl10'
_cell_volume   495.74406500
_cell_formula_units_Z   1
loop_
 _symmetry_equiv_pos_site_id
 _symmetry_equiv_pos_as_xyz
  1  'x, y, z'
loop_
 _atom_site_type_symbol
 _atom_site_label
 _atom_site_symmetry_multiplicity
 _atom_site_fract_x
 _atom_site_fract_y
 _atom_site_fract_z
 _atom_site_occupancy
  Sm  Sm0  1  0.135252  0.052750  0.749762  1
  Dy  Dy1  1  0.866658  0.948347  0.245390  1
  Dy  Dy2  1  0.968077  0.302513  0.097935  1
  Dy  Dy3  1  0.031746  0.698452  0.905110  1
  Dy  Dy4  1  0.361734  0.137672  0.181723  1
  Dy  Dy5  1  0.638687  0.862201  0.817516  1
  Ni  Ni6  1  0.000062  0.000590  0.999608  1
  Cl  Cl7  1  0.552567  0.175982  0.921624  1
  Cl  Cl8  1  0.453160  0.826052  0.081913  1
  Cl  Cl9  1  0.346639  0.450027  0.269166  1
  Cl  Cl10  1  0.653610  0.549798  0.732467  1
  Cl  Cl11  1  0.243533  0.077635  0.444856  1
  Cl  Cl12  1  0.749153  0.918976  0.545557  1
  Cl  Cl13  1  0.780241  0.249180  0.341267  1
  Cl  Cl14  1  0.220831  0.743606  0.660437  1
  Cl  Cl15  1  0.083113  0.374235  0.835120  1
  Cl  Cl16  1  0.914938  0.631984  0.170549  1
