# generated using pymatgen
data_Y10(GaSb)3
_symmetry_space_group_name_H-M   'P 1'
_cell_length_a   8.79102500
_cell_length_b   8.78984800
_cell_length_c   6.52349600
_cell_angle_alpha   90.00000000
_cell_angle_beta   90.00000000
_cell_angle_gamma   120.00444090
_symmetry_Int_Tables_number   1
_chemical_formula_structural   Y10(GaSb)3
_chemical_formula_sum   'Y10 Ga3 Sb3'
_cell_volume   436.52837246
_cell_formula_units_Z   1
loop_
 _symmetry_equiv_pos_site_id
 _symmetry_equiv_pos_as_xyz
  1  'x, y, z'
loop_
 _atom_site_type_symbol
 _atom_site_label
 _atom_site_symmetry_multiplicity
 _atom_site_fract_x
 _atom_site_fract_y
 _atom_site_fract_z
 _atom_site_occupancy
  Y  Y0  1  0.327384  0.666554  0.002883  1
  Y  Y1  1  0.660831  0.333446  0.497117  1
  Y  Y2  1  0.660831  0.333446  0.002883  1
  Y  Y3  1  0.327384  0.666554  0.497117  1
  Y  Y4  1  0.235367  0.000000  0.250000  1
  Y  Y5  1  0.243313  0.232100  0.750000  1
  Y  Y6  1  0.011213  0.767900  0.750000  1
  Y  Y7  1  0.012147  0.249300  0.250000  1
  Y  Y8  1  0.762846  0.750700  0.250000  1
  Y  Y9  1  0.753393  0.000000  0.750000  1
  Ga  Ga10  1  0.998649  0.602556  0.250000  1
  Ga  Ga11  1  0.396093  0.397444  0.250000  1
  Ga  Ga12  1  0.398541  0.000000  0.750000  1
  Sb  Sb13  1  0.609014  0.000000  0.250000  1
  Sb  Sb14  1  0.605101  0.607207  0.750000  1
  Sb  Sb15  1  0.997894  0.392793  0.750000  1
