# generated using pymatgen
data_Hf6Zn4AgAuC2
_symmetry_space_group_name_H-M   'P 1'
_cell_length_a   8.65586689
_cell_length_b   8.64214072
_cell_length_c   8.65586796
_cell_angle_alpha   60.05243320
_cell_angle_beta   60.06481389
_cell_angle_gamma   60.05243793
_symmetry_Int_Tables_number   1
_chemical_formula_structural   Hf6Zn4AgAuC2
_chemical_formula_sum   'Hf12 Zn8 Ag2 Au2 C4'
_cell_volume   458.44146868
_cell_formula_units_Z   2
loop_
 _symmetry_equiv_pos_site_id
 _symmetry_equiv_pos_as_xyz
  1  'x, y, z'
loop_
 _atom_site_type_symbol
 _atom_site_label
 _atom_site_symmetry_multiplicity
 _atom_site_fract_x
 _atom_site_fract_y
 _atom_site_fract_z
 _atom_site_occupancy
  Hf  Hf0  1  0.436644  0.436431  0.064619  1
  Hf  Hf1  1  0.062689  0.437311  0.062689  1
  Hf  Hf2  1  0.436644  0.062305  0.064619  1
  Hf  Hf3  1  0.064619  0.062305  0.436644  1
  Hf  Hf4  1  0.435892  0.064108  0.435892  1
  Hf  Hf5  1  0.064619  0.436431  0.436644  1
  Hf  Hf6  1  0.813356  0.813569  0.185381  1
  Hf  Hf7  1  0.187311  0.812689  0.187311  1
  Hf  Hf8  1  0.813356  0.187695  0.185381  1
  Hf  Hf9  1  0.185381  0.187695  0.813356  1
  Hf  Hf10  1  0.814108  0.185892  0.814108  1
  Hf  Hf11  1  0.185381  0.813569  0.813356  1
  Zn  Zn12  1  0.834039  0.834770  0.496420  1
  Zn  Zn13  1  0.834209  0.496514  0.834209  1
  Zn  Zn14  1  0.496420  0.834770  0.834039  1
  Zn  Zn15  1  0.834209  0.835066  0.834209  1
  Zn  Zn16  1  0.415961  0.415230  0.753580  1
  Zn  Zn17  1  0.415791  0.753486  0.415791  1
  Zn  Zn18  1  0.753580  0.415230  0.415961  1
  Zn  Zn19  1  0.415791  0.414934  0.415791  1
  Ag  Ag20  1  0.625000  0.125000  0.625000  1
  Ag  Ag21  1  0.625000  0.625000  0.625000  1
  Au  Au22  1  0.625000  0.625000  0.125000  1
  Au  Au23  1  0.125000  0.625000  0.625000  1
  C  C24  1  0.125000  0.125000  0.625000  1
  C  C25  1  0.125000  0.625000  0.125000  1
  C  C26  1  0.625000  0.125000  0.125000  1
  C  C27  1  0.125000  0.125000  0.125000  1
