# generated using pymatgen
data_Ca4LaNd3(SiPd)8
_symmetry_space_group_name_H-M   'P 1'
_cell_length_a   5.88913653
_cell_length_b   7.81923633
_cell_length_c   10.76254330
_cell_angle_alpha   88.78538343
_cell_angle_beta   90.04466962
_cell_angle_gamma   89.95496394
_symmetry_Int_Tables_number   1
_chemical_formula_structural   Ca4LaNd3(SiPd)8
_chemical_formula_sum   'Ca4 La1 Nd3 Si8 Pd8'
_cell_volume   495.48784976
_cell_formula_units_Z   1
loop_
 _symmetry_equiv_pos_site_id
 _symmetry_equiv_pos_as_xyz
  1  'x, y, z'
loop_
 _atom_site_type_symbol
 _atom_site_label
 _atom_site_symmetry_multiplicity
 _atom_site_fract_x
 _atom_site_fract_y
 _atom_site_fract_z
 _atom_site_occupancy
  Ca  Ca0  1  0.366566  0.968284  0.139547  1
  Ca  Ca1  1  0.632742  0.031312  0.860817  1
  Ca  Ca2  1  0.866849  0.531308  0.860442  1
  Ca  Ca3  1  0.132385  0.469302  0.138939  1
  La  La4  1  0.626858  0.326066  0.366207  1
  Nd  Nd5  1  0.871165  0.825936  0.367649  1
  Nd  Nd6  1  0.128738  0.174043  0.633276  1
  Nd  Nd7  1  0.371526  0.673851  0.634149  1
  Si  Si8  1  0.869588  0.537112  0.577900  1
  Si  Si9  1  0.130599  0.465151  0.424265  1
  Si  Si10  1  0.367119  0.961715  0.425285  1
  Si  Si11  1  0.630858  0.035046  0.577809  1
  Si  Si12  1  0.636672  0.628754  0.140736  1
  Si  Si13  1  0.362592  0.372815  0.857419  1
  Si  Si14  1  0.136998  0.872573  0.857867  1
  Si  Si15  1  0.865173  0.127217  0.140067  1
  Pd  Pd16  1  0.898343  0.840123  0.052478  1
  Pd  Pd17  1  0.103732  0.159633  0.945882  1
  Pd  Pd18  1  0.396958  0.659725  0.946397  1
  Pd  Pd19  1  0.603219  0.340544  0.052041  1
  Pd  Pd20  1  0.888929  0.822625  0.670806  1
  Pd  Pd21  1  0.111196  0.176854  0.329835  1
  Pd  Pd22  1  0.388799  0.677875  0.329556  1
  Pd  Pd23  1  0.612392  0.322133  0.670631  1
