# generated using pymatgen
data_LuHf15(Si4W)4
_symmetry_space_group_name_H-M   'P 1'
_cell_length_a   6.96554887
_cell_length_b   6.96000479
_cell_length_c   12.74530071
_cell_angle_alpha   89.97588066
_cell_angle_beta   90.02966806
_cell_angle_gamma   90.15821143
_symmetry_Int_Tables_number   1
_chemical_formula_structural   LuHf15(Si4W)4
_chemical_formula_sum   'Lu1 Hf15 Si16 W4'
_cell_volume   617.89291632
_cell_formula_units_Z   1
loop_
 _symmetry_equiv_pos_site_id
 _symmetry_equiv_pos_as_xyz
  1  'x, y, z'
loop_
 _atom_site_type_symbol
 _atom_site_label
 _atom_site_symmetry_multiplicity
 _atom_site_fract_x
 _atom_site_fract_y
 _atom_site_fract_z
 _atom_site_occupancy
  Lu  Lu0  1  0.495646  0.157032  0.531630  1
  Hf  Hf1  1  0.503979  0.845110  0.031218  1
  Hf  Hf2  1  0.656104  0.002543  0.279390  1
  Hf  Hf3  1  0.345212  0.997135  0.780945  1
  Hf  Hf4  1  0.845399  0.503746  0.968647  1
  Hf  Hf5  1  0.153347  0.498746  0.468394  1
  Hf  Hf6  1  0.003161  0.655348  0.720630  1
  Hf  Hf7  1  0.996702  0.344940  0.219278  1
  Hf  Hf8  1  0.497258  0.355093  0.124242  1
  Hf  Hf9  1  0.502630  0.644717  0.625402  1
  Hf  Hf10  1  0.856048  0.002645  0.875220  1
  Hf  Hf11  1  0.144273  0.995980  0.373603  1
  Hf  Hf12  1  0.646496  0.502444  0.373703  1
  Hf  Hf13  1  0.354835  0.498772  0.875617  1
  Hf  Hf14  1  0.001997  0.855205  0.125166  1
  Hf  Hf15  1  0.997645  0.143887  0.626026  1
  Si  Si16  1  0.796564  0.145557  0.071888  1
  Si  Si17  1  0.200967  0.852182  0.571320  1
  Si  Si18  1  0.646566  0.702819  0.821639  1
  Si  Si19  1  0.352529  0.298794  0.319484  1
  Si  Si20  1  0.857309  0.203503  0.427372  1
  Si  Si21  1  0.145623  0.797108  0.928011  1
  Si  Si22  1  0.702888  0.646186  0.178434  1
  Si  Si23  1  0.293588  0.356403  0.680778  1
  Si  Si24  1  0.546397  0.196993  0.933043  1
  Si  Si25  1  0.452914  0.800229  0.432191  1
  Si  Si26  1  0.698508  0.952019  0.684482  1
  Si  Si27  1  0.302972  0.045917  0.183216  1
  Si  Si28  1  0.803565  0.454577  0.567254  1
  Si  Si29  1  0.196717  0.546524  0.067142  1
  Si  Si30  1  0.953761  0.696997  0.316299  1
  Si  Si31  1  0.045873  0.303285  0.817084  1
  W  W32  1  0.672736  0.328146  0.751305  1
  W  W33  1  0.327228  0.671765  0.249370  1
  W  W34  1  0.828531  0.823451  0.500274  1
  W  W35  1  0.174036  0.174204  0.000306  1
