# generated using pymatgen
data_Be8Co3Cu4Rh
_symmetry_space_group_name_H-M   'P 1'
_cell_length_a   5.25329300
_cell_length_b   5.25340900
_cell_length_c   5.46691800
_cell_angle_alpha   90.00000000
_cell_angle_beta   89.99871848
_cell_angle_gamma   90.00000000
_symmetry_Int_Tables_number   1
_chemical_formula_structural   Be8Co3Cu4Rh
_chemical_formula_sum   'Be8 Co3 Cu4 Rh1'
_cell_volume   150.87434497
_cell_formula_units_Z   1
loop_
 _symmetry_equiv_pos_site_id
 _symmetry_equiv_pos_as_xyz
  1  'x, y, z'
loop_
 _atom_site_type_symbol
 _atom_site_label
 _atom_site_symmetry_multiplicity
 _atom_site_fract_x
 _atom_site_fract_y
 _atom_site_fract_z
 _atom_site_occupancy
  Be  Be0  1  0.006080  0.005976  0.241447  1
  Be  Be1  1  0.006080  0.494024  0.241447  1
  Be  Be2  1  0.493785  0.493673  0.243582  1
  Be  Be3  1  0.493785  0.006329  0.243582  1
  Be  Be4  1  0.493780  0.006334  0.756421  1
  Be  Be5  1  0.493780  0.493664  0.756421  1
  Be  Be6  1  0.006080  0.494010  0.758553  1
  Be  Be7  1  0.006080  0.005991  0.758553  1
  Co  Co8  1  0.250683  0.250000  0.999998  1
  Co  Co9  1  0.749421  0.750000  0.000008  1
  Co  Co10  1  0.249113  0.250000  0.500002  1
  Cu  Cu11  1  0.749209  0.250000  0.000002  1
  Cu  Cu12  1  0.250973  0.750000  0.999997  1
  Cu  Cu13  1  0.750840  0.250000  0.499995  1
  Cu  Cu14  1  0.249717  0.750000  0.500001  1
  Rh  Rh15  1  0.750601  0.750000  0.499993  1
