# generated using pymatgen
data_Rb4Zr6IrBr18
_symmetry_space_group_name_H-M   'P 1'
_cell_length_a   10.79357612
_cell_length_b   11.01310440
_cell_length_c   11.14259852
_cell_angle_alpha   118.25012490
_cell_angle_beta   100.63013655
_cell_angle_gamma   104.00602940
_symmetry_Int_Tables_number   1
_chemical_formula_structural   Rb4Zr6IrBr18
_chemical_formula_sum   'Rb4 Zr6 Ir1 Br18'
_cell_volume   1060.53280872
_cell_formula_units_Z   1
loop_
 _symmetry_equiv_pos_site_id
 _symmetry_equiv_pos_as_xyz
  1  'x, y, z'
loop_
 _atom_site_type_symbol
 _atom_site_label
 _atom_site_symmetry_multiplicity
 _atom_site_fract_x
 _atom_site_fract_y
 _atom_site_fract_z
 _atom_site_occupancy
  Rb  Rb0  1  0.658688  0.537961  0.229912  1
  Rb  Rb1  1  0.341312  0.462039  0.770088  1
  Rb  Rb2  1  0.694937  0.229498  0.566611  1
  Rb  Rb3  1  0.305063  0.770502  0.433389  1
  Zr  Zr4  1  0.160040  0.058878  0.240468  1
  Zr  Zr5  1  0.839960  0.941122  0.759532  1
  Zr  Zr6  1  0.854918  0.130715  0.137043  1
  Zr  Zr7  1  0.145082  0.869285  0.862957  1
  Zr  Zr8  1  0.152938  0.249583  0.046664  1
  Zr  Zr9  1  0.847062  0.750417  0.953336  1
  Ir  Ir10  1  0.000000  0.000000  0.000000  1
  Br  Br11  1  0.009987  0.406947  0.195765  1
  Br  Br12  1  0.990013  0.593053  0.804235  1
  Br  Br13  1  0.329613  0.332817  0.310279  1
  Br  Br14  1  0.670387  0.667183  0.689721  1
  Br  Br15  1  0.325333  0.518237  0.101038  1
  Br  Br16  1  0.674667  0.481763  0.898962  1
  Br  Br17  1  0.005792  0.797208  0.208856  1
  Br  Br18  1  0.994208  0.202792  0.791144  1
  Br  Br19  1  0.706325  0.272966  0.285931  1
  Br  Br20  1  0.293675  0.727034  0.714069  1
  Br  Br21  1  0.315993  0.127226  0.903678  1
  Br  Br22  1  0.684007  0.872774  0.096322  1
  Br  Br23  1  0.017210  0.202026  0.403705  1
  Br  Br24  1  0.982790  0.797974  0.596295  1
  Br  Br25  1  0.321306  0.922299  0.110101  1
  Br  Br26  1  0.678694  0.077701  0.889899  1
  Br  Br27  1  0.337366  0.122336  0.498768  1
  Br  Br28  1  0.662634  0.877664  0.501232  1
