# generated using pymatgen
data_Er2Tm4MgCo17P12
_symmetry_space_group_name_H-M   'P 1'
_cell_length_a   3.69772000
_cell_length_b   10.54069800
_cell_length_c   12.18708700
_cell_angle_alpha   90.00000000
_cell_angle_beta   90.00000000
_cell_angle_gamma   90.00000000
_symmetry_Int_Tables_number   1
_chemical_formula_structural   Er2Tm4MgCo17P12
_chemical_formula_sum   'Er2 Tm4 Mg1 Co17 P12'
_cell_volume   475.01060348
_cell_formula_units_Z   1
loop_
 _symmetry_equiv_pos_site_id
 _symmetry_equiv_pos_as_xyz
  1  'x, y, z'
loop_
 _atom_site_type_symbol
 _atom_site_label
 _atom_site_symmetry_multiplicity
 _atom_site_fract_x
 _atom_site_fract_y
 _atom_site_fract_z
 _atom_site_occupancy
  Er  Er0  1  0.000000  0.500000  0.525734  1
  Er  Er1  1  0.500000  0.000000  0.477481  1
  Tm  Tm2  1  0.500000  0.822270  0.207561  1
  Tm  Tm3  1  0.500000  0.177730  0.207561  1
  Tm  Tm4  1  0.000000  0.682062  0.794446  1
  Tm  Tm5  1  0.000000  0.317938  0.794446  1
  Mg  Mg6  1  0.500000  0.500000  0.154289  1
  Co  Co7  1  0.000000  0.000000  0.837579  1
  Co  Co8  1  0.500000  0.500000  0.704609  1
  Co  Co9  1  0.000000  0.000000  0.295954  1
  Co  Co10  1  0.000000  0.500000  0.986252  1
  Co  Co11  1  0.500000  0.000000  0.012226  1
  Co  Co12  1  0.500000  0.329087  0.992867  1
  Co  Co13  1  0.500000  0.670913  0.992867  1
  Co  Co14  1  0.000000  0.163349  0.001724  1
  Co  Co15  1  0.000000  0.836651  0.001724  1
  Co  Co16  1  0.500000  0.295792  0.433252  1
  Co  Co17  1  0.500000  0.704208  0.433252  1
  Co  Co18  1  0.000000  0.202137  0.570331  1
  Co  Co19  1  0.000000  0.797863  0.570331  1
  Co  Co20  1  0.500000  0.879300  0.708070  1
  Co  Co21  1  0.500000  0.120700  0.708070  1
  Co  Co22  1  0.000000  0.623593  0.293483  1
  Co  Co23  1  0.000000  0.376407  0.293483  1
  P  P24  1  0.500000  0.500000  0.882915  1
  P  P25  1  0.000000  0.000000  0.116853  1
  P  P26  1  0.500000  0.500000  0.355207  1
  P  P27  1  0.000000  0.000000  0.653710  1
  P  P28  1  0.500000  0.310703  0.617844  1
  P  P29  1  0.500000  0.689297  0.617844  1
  P  P30  1  0.000000  0.188220  0.385286  1
  P  P31  1  0.000000  0.811780  0.385286  1
  P  P32  1  0.500000  0.849019  0.889117  1
  P  P33  1  0.500000  0.150981  0.889117  1
  P  P34  1  0.000000  0.663681  0.104614  1
  P  P35  1  0.000000  0.336319  0.104614  1
