# generated using pymatgen
data_Dy8InHgRh2
_symmetry_space_group_name_H-M   'P 1'
_cell_length_a   9.63459221
_cell_length_b   9.63459157
_cell_length_c   9.63974900
_cell_angle_alpha   59.98229415
_cell_angle_beta   59.98229634
_cell_angle_gamma   59.93881208
_symmetry_Int_Tables_number   1
_chemical_formula_structural   Dy8InHgRh2
_chemical_formula_sum   'Dy16 In2 Hg2 Rh4'
_cell_volume   632.26621666
_cell_formula_units_Z   2
loop_
 _symmetry_equiv_pos_site_id
 _symmetry_equiv_pos_as_xyz
  1  'x, y, z'
loop_
 _atom_site_type_symbol
 _atom_site_label
 _atom_site_symmetry_multiplicity
 _atom_site_fract_x
 _atom_site_fract_y
 _atom_site_fract_z
 _atom_site_occupancy
  Dy  Dy0  1  0.187018  0.187018  0.812982  1
  Dy  Dy1  1  0.600262  0.600262  0.199853  1
  Dy  Dy2  1  0.438716  0.059664  0.441607  1
  Dy  Dy3  1  0.440836  0.440836  0.059164  1
  Dy  Dy4  1  0.812374  0.184827  0.813615  1
  Dy  Dy5  1  0.184827  0.812374  0.189183  1
  Dy  Dy6  1  0.438716  0.059664  0.060013  1
  Dy  Dy7  1  0.184827  0.812374  0.813615  1
  Dy  Dy8  1  0.059664  0.438716  0.060013  1
  Dy  Dy9  1  0.812896  0.812896  0.187104  1
  Dy  Dy10  1  0.197215  0.601890  0.600447  1
  Dy  Dy11  1  0.059664  0.438716  0.441607  1
  Dy  Dy12  1  0.060853  0.060853  0.439147  1
  Dy  Dy13  1  0.812374  0.184827  0.189183  1
  Dy  Dy14  1  0.601890  0.197215  0.600447  1
  Dy  Dy15  1  0.600262  0.600262  0.599624  1
  In  In16  1  0.503946  0.832035  0.832010  1
  In  In17  1  0.832035  0.503946  0.832010  1
  Hg  Hg18  1  0.835335  0.835335  0.835881  1
  Hg  Hg19  1  0.835335  0.835335  0.493450  1
  Rh  Rh20  1  0.392724  0.822788  0.392244  1
  Rh  Rh21  1  0.392722  0.392722  0.392610  1
  Rh  Rh22  1  0.822788  0.392724  0.392244  1
  Rh  Rh23  1  0.392722  0.392722  0.821947  1
