# generated using pymatgen
data_Ta13Ni8Mo2WN4
_symmetry_space_group_name_H-M   'P 1'
_cell_length_a   8.14989339
_cell_length_b   8.14964798
_cell_length_c   8.15128002
_cell_angle_alpha   60.27075771
_cell_angle_beta   60.27348368
_cell_angle_gamma   60.26731590
_symmetry_Int_Tables_number   1
_chemical_formula_structural   Ta13Ni8Mo2WN4
_chemical_formula_sum   'Ta13 Ni8 Mo2 W1 N4'
_cell_volume   385.17011200
_cell_formula_units_Z   1
loop_
 _symmetry_equiv_pos_site_id
 _symmetry_equiv_pos_as_xyz
  1  'x, y, z'
loop_
 _atom_site_type_symbol
 _atom_site_label
 _atom_site_symmetry_multiplicity
 _atom_site_fract_x
 _atom_site_fract_y
 _atom_site_fract_z
 _atom_site_occupancy
  Ta  Ta0  1  0.311748  0.688188  0.688312  1
  Ta  Ta1  1  0.561789  0.561807  0.938343  1
  Ta  Ta2  1  0.313361  0.685082  0.313151  1
  Ta  Ta3  1  0.313284  0.313287  0.685103  1
  Ta  Ta4  1  0.685071  0.313374  0.313160  1
  Ta  Ta5  1  0.936716  0.936713  0.564897  1
  Ta  Ta6  1  0.936639  0.564918  0.936849  1
  Ta  Ta7  1  0.938252  0.561812  0.561688  1
  Ta  Ta8  1  0.564929  0.936626  0.936840  1
  Ta  Ta9  1  0.125000  0.125000  0.125000  1
  Ta  Ta10  1  0.688211  0.688193  0.311657  1
  Ta  Ta11  1  0.688171  0.311773  0.688278  1
  Ta  Ta12  1  0.561829  0.938227  0.561722  1
  Ni  Ni13  1  0.006897  0.332004  0.332047  1
  Ni  Ni14  1  0.920685  0.920672  0.920670  1
  Ni  Ni15  1  0.332021  0.332024  0.006934  1
  Ni  Ni16  1  0.917979  0.917976  0.243066  1
  Ni  Ni17  1  0.243103  0.917996  0.917953  1
  Ni  Ni18  1  0.331993  0.006960  0.332038  1
  Ni  Ni19  1  0.918007  0.243040  0.917962  1
  Ni  Ni20  1  0.329315  0.329328  0.329330  1
  Mo  Mo21  1  0.625000  0.125000  0.125000  1
  Mo  Mo22  1  0.125000  0.625000  0.125000  1
  W  W23  1  0.125000  0.125000  0.625000  1
  N  N24  1  0.625000  0.125000  0.625000  1
  N  N25  1  0.625000  0.625000  0.125000  1
  N  N26  1  0.125000  0.625000  0.625000  1
  N  N27  1  0.625000  0.625000  0.625000  1
