# generated using pymatgen
data_Y2Ho2Al3(Ga5Ir2)3
_symmetry_space_group_name_H-M   'P 1'
_cell_length_a   7.57090002
_cell_length_b   7.57128504
_cell_length_c   9.50934600
_cell_angle_alpha   89.99578680
_cell_angle_beta   89.99577299
_cell_angle_gamma   119.69044894
_symmetry_Int_Tables_number   1
_chemical_formula_structural   Y2Ho2Al3(Ga5Ir2)3
_chemical_formula_sum   'Y2 Ho2 Al3 Ga15 Ir6'
_cell_volume   473.52686148
_cell_formula_units_Z   1
loop_
 _symmetry_equiv_pos_site_id
 _symmetry_equiv_pos_as_xyz
  1  'x, y, z'
loop_
 _atom_site_type_symbol
 _atom_site_label
 _atom_site_symmetry_multiplicity
 _atom_site_fract_x
 _atom_site_fract_y
 _atom_site_fract_z
 _atom_site_occupancy
  Y  Y0  1  0.000630  0.671532  0.250087  1
  Y  Y1  1  0.999433  0.329953  0.749321  1
  Ho  Ho2  1  0.671550  0.000670  0.250093  1
  Ho  Ho3  1  0.329944  0.999400  0.749318  1
  Al  Al4  1  0.663912  0.663943  0.448596  1
  Al  Al5  1  0.668536  0.668570  0.051531  1
  Al  Al6  1  0.331567  0.331534  0.947954  1
  Ga  Ga7  1  0.128366  0.128406  0.249065  1
  Ga  Ga8  1  0.872812  0.872771  0.749154  1
  Ga  Ga9  1  0.999967  0.335971  0.079876  1
  Ga  Ga10  1  0.000375  0.664807  0.920257  1
  Ga  Ga11  1  0.999422  0.664402  0.579768  1
  Ga  Ga12  1  0.336275  0.001669  0.418133  1
  Ga  Ga13  1  0.001616  0.336170  0.418098  1
  Ga  Ga14  1  0.664296  0.999371  0.579733  1
  Ga  Ga15  1  0.664703  0.000321  0.920293  1
  Ga  Ga16  1  0.336075  0.000020  0.079841  1
  Ga  Ga17  1  0.327694  0.327644  0.565570  1
  Ga  Ga18  1  0.348463  0.551507  0.249818  1
  Ga  Ga19  1  0.656113  0.450574  0.750078  1
  Ga  Ga20  1  0.551453  0.348375  0.249817  1
  Ga  Ga21  1  0.450625  0.656201  0.750078  1
  Ir  Ir22  1  0.668982  0.330113  0.999531  1
  Ir  Ir23  1  0.330170  0.669040  0.999522  1
  Ir  Ir24  1  0.329776  0.671963  0.499221  1
  Ir  Ir25  1  0.671904  0.329715  0.499208  1
  Ir  Ir26  1  0.000301  0.000301  0.999161  1
  Ir  Ir27  1  0.995040  0.995054  0.496878  1
