# generated using pymatgen
data_DyBiRu4O13
_symmetry_space_group_name_H-M   'P 1'
_cell_length_a   7.24816300
_cell_length_b   7.16635375
_cell_length_c   10.09136900
_cell_angle_alpha   88.96520075
_cell_angle_beta   90.00000000
_cell_angle_gamma   90.00000000
_symmetry_Int_Tables_number   1
_chemical_formula_structural   DyBiRu4O13
_chemical_formula_sum   'Dy2 Bi2 Ru8 O26'
_cell_volume   524.08948488
_cell_formula_units_Z   2
loop_
 _symmetry_equiv_pos_site_id
 _symmetry_equiv_pos_as_xyz
  1  'x, y, z'
loop_
 _atom_site_type_symbol
 _atom_site_label
 _atom_site_symmetry_multiplicity
 _atom_site_fract_x
 _atom_site_fract_y
 _atom_site_fract_z
 _atom_site_occupancy
  Dy  Dy0  1  0.500000  0.500000  0.000000  1
  Dy  Dy1  1  0.000000  0.500000  0.000000  1
  Bi  Bi2  1  0.250000  0.746940  0.736392  1
  Bi  Bi3  1  0.750000  0.253060  0.263608  1
  Ru  Ru4  1  0.500000  0.000000  0.000000  1
  Ru  Ru5  1  0.750000  0.759973  0.745122  1
  Ru  Ru6  1  0.250000  0.748411  0.246560  1
  Ru  Ru7  1  0.500000  0.500000  0.500000  1
  Ru  Ru8  1  0.000000  0.500000  0.500000  1
  Ru  Ru9  1  0.750000  0.251589  0.753440  1
  Ru  Ru10  1  0.250000  0.240027  0.254878  1
  Ru  Ru11  1  0.000000  0.000000  0.000000  1
  O  O12  1  0.433880  0.674104  0.372815  1
  O  O13  1  0.750000  0.473164  0.126129  1
  O  O14  1  0.250000  0.490723  0.161020  1
  O  O15  1  0.450930  0.301602  0.372592  1
  O  O16  1  0.556114  0.213516  0.885583  1
  O  O17  1  0.943886  0.213516  0.885583  1
  O  O18  1  0.457562  0.201601  0.128757  1
  O  O19  1  0.750000  0.000954  0.067965  1
  O  O20  1  0.250000  0.999046  0.932035  1
  O  O21  1  0.750000  0.006465  0.701419  1
  O  O22  1  0.542438  0.798399  0.871243  1
  O  O23  1  0.957562  0.798399  0.871243  1
  O  O24  1  0.443886  0.786484  0.114417  1
  O  O25  1  0.066120  0.674104  0.372815  1
  O  O26  1  0.549070  0.698398  0.627408  1
  O  O27  1  0.950930  0.698398  0.627408  1
  O  O28  1  0.250000  0.516162  0.578952  1
  O  O29  1  0.750000  0.509277  0.838980  1
  O  O30  1  0.750000  0.483838  0.421048  1
  O  O31  1  0.049070  0.301602  0.372592  1
  O  O32  1  0.566120  0.325896  0.627185  1
  O  O33  1  0.933880  0.325896  0.627185  1
  O  O34  1  0.042438  0.201601  0.128757  1
  O  O35  1  0.250000  0.993535  0.298581  1
  O  O36  1  0.056114  0.786484  0.114417  1
  O  O37  1  0.250000  0.526836  0.873871  1
