# generated using pymatgen
data_TbTm4Nb3(Co4P3)4
_symmetry_space_group_name_H-M   'P 1'
_cell_length_a   12.14473100
_cell_length_b   12.14473026
_cell_length_c   3.68072800
_cell_angle_alpha   90.00000000
_cell_angle_beta   90.00000000
_cell_angle_gamma   119.99999930
_symmetry_Int_Tables_number   1
_chemical_formula_structural   TbTm4Nb3(Co4P3)4
_chemical_formula_sum   'Tb1 Tm4 Nb3 Co16 P12'
_cell_volume   470.15399727
_cell_formula_units_Z   1
loop_
 _symmetry_equiv_pos_site_id
 _symmetry_equiv_pos_as_xyz
  1  'x, y, z'
loop_
 _atom_site_type_symbol
 _atom_site_label
 _atom_site_symmetry_multiplicity
 _atom_site_fract_x
 _atom_site_fract_y
 _atom_site_fract_z
 _atom_site_occupancy
  Tb  Tb0  1  0.666667  0.333333  0.000000  1
  Tm  Tm1  1  0.816292  0.000014  0.500000  1
  Tm  Tm2  1  0.999986  0.816278  0.500000  1
  Tm  Tm3  1  0.183722  0.183708  0.500000  1
  Tm  Tm4  1  0.333333  0.666667  0.000000  1
  Nb  Nb5  1  0.444074  0.999522  0.000000  1
  Nb  Nb6  1  0.000478  0.444552  0.000000  1
  Nb  Nb7  1  0.555448  0.555926  0.000000  1
  Co  Co8  1  0.277600  0.999509  0.500000  1
  Co  Co9  1  0.000491  0.278091  0.500000  1
  Co  Co10  1  0.721909  0.722400  0.500000  1
  Co  Co11  1  0.626717  0.804111  0.000000  1
  Co  Co12  1  0.195889  0.822606  0.000000  1
  Co  Co13  1  0.177394  0.373283  0.000000  1
  Co  Co14  1  0.372325  0.176678  0.000000  1
  Co  Co15  1  0.804353  0.627675  0.000000  1
  Co  Co16  1  0.823322  0.195647  0.000000  1
  Co  Co17  1  0.518525  0.872290  0.500000  1
  Co  Co18  1  0.127710  0.646235  0.500000  1
  Co  Co19  1  0.353765  0.481475  0.500000  1
  Co  Co20  1  0.479628  0.353619  0.500000  1
  Co  Co21  1  0.873992  0.520372  0.500000  1
  Co  Co22  1  0.646381  0.126008  0.500000  1
  Co  Co23  1  0.000000  0.000000  0.000000  1
  P  P24  1  0.177209  0.999742  0.000000  1
  P  P25  1  0.000258  0.177467  0.000000  1
  P  P26  1  0.822533  0.822791  0.000000  1
  P  P27  1  0.519842  0.688613  0.500000  1
  P  P28  1  0.311387  0.831229  0.500000  1
  P  P29  1  0.168771  0.480158  0.500000  1
  P  P30  1  0.478349  0.167244  0.500000  1
  P  P31  1  0.688895  0.521651  0.500000  1
  P  P32  1  0.832756  0.311105  0.500000  1
  P  P33  1  0.644513  0.000067  0.000000  1
  P  P34  1  0.999933  0.644446  0.000000  1
  P  P35  1  0.355554  0.355487  0.000000  1
