# generated using pymatgen
data_Th3AlHg2Au3
_symmetry_space_group_name_H-M   'P 1'
_cell_length_a   7.60774317
_cell_length_b   7.37041322
_cell_length_c   4.38697100
_cell_angle_alpha   90.00000000
_cell_angle_beta   90.00000000
_cell_angle_gamma   118.97330311
_symmetry_Int_Tables_number   1
_chemical_formula_structural   Th3AlHg2Au3
_chemical_formula_sum   'Th3 Al1 Hg2 Au3'
_cell_volume   215.20076473
_cell_formula_units_Z   1
loop_
 _symmetry_equiv_pos_site_id
 _symmetry_equiv_pos_as_xyz
  1  'x, y, z'
loop_
 _atom_site_type_symbol
 _atom_site_label
 _atom_site_symmetry_multiplicity
 _atom_site_fract_x
 _atom_site_fract_y
 _atom_site_fract_z
 _atom_site_occupancy
  Th  Th0  1  0.424538  0.417311  0.500000  1
  Th  Th1  1  0.575462  0.992773  0.500000  1
  Th  Th2  1  0.000000  0.588256  0.500000  1
  Al  Al3  1  0.000000  0.237873  0.000000  1
  Hg  Hg4  1  0.745879  0.753060  0.000000  1
  Hg  Hg5  1  0.254121  0.007181  0.000000  1
  Au  Au6  1  0.689455  0.328906  0.000000  1
  Au  Au7  1  0.310545  0.639451  0.000000  1
  Au  Au8  1  0.000000  0.035186  0.500000  1
