# generated using pymatgen
data_K2Zr3(ScS5)2
_symmetry_space_group_name_H-M   'P 1'
_cell_length_a   6.32418218
_cell_length_b   10.74813490
_cell_length_c   8.63244700
_cell_angle_alpha   58.96207309
_cell_angle_beta   68.52754947
_cell_angle_gamma   89.97246292
_symmetry_Int_Tables_number   1
_chemical_formula_structural   K2Zr3(ScS5)2
_chemical_formula_sum   'K2 Zr3 Sc2 S10'
_cell_volume   454.64133937
_cell_formula_units_Z   1
loop_
 _symmetry_equiv_pos_site_id
 _symmetry_equiv_pos_as_xyz
  1  'x, y, z'
loop_
 _atom_site_type_symbol
 _atom_site_label
 _atom_site_symmetry_multiplicity
 _atom_site_fract_x
 _atom_site_fract_y
 _atom_site_fract_z
 _atom_site_occupancy
  K  K0  1  0.787581  0.075585  0.425417  1
  K  K1  1  0.012777  0.524978  0.974716  1
  Zr  Zr2  1  0.395576  0.792641  0.207077  1
  Zr  Zr3  1  0.602564  0.207721  0.798397  1
  Zr  Zr4  1  0.999576  0.999226  0.998127  1
  Sc  Sc5  1  0.799511  0.598458  0.403042  1
  Sc  Sc6  1  0.202297  0.401352  0.593599  1
  S  S7  1  0.992651  0.837338  0.349370  1
  S  S8  1  0.590694  0.037007  0.151552  1
  S  S9  1  0.188025  0.237356  0.952573  1
  S  S10  1  0.790469  0.436702  0.751721  1
  S  S11  1  0.392911  0.637545  0.547542  1
  S  S12  1  0.406620  0.963453  0.851793  1
  S  S13  1  0.006895  0.161345  0.650894  1
  S  S14  1  0.612326  0.359831  0.450077  1
  S  S15  1  0.211267  0.564099  0.246620  1
  S  S16  1  0.808262  0.765365  0.047482  1
