# generated using pymatgen
data_DyY3Cd2Cu3Ru
_symmetry_space_group_name_H-M   'P 1'
_cell_length_a   7.50583906
_cell_length_b   7.51728488
_cell_length_c   3.81168300
_cell_angle_alpha   90.00000000
_cell_angle_beta   90.00000000
_cell_angle_gamma   89.33713519
_symmetry_Int_Tables_number   1
_chemical_formula_structural   DyY3Cd2Cu3Ru
_chemical_formula_sum   'Dy1 Y3 Cd2 Cu3 Ru1'
_cell_volume   215.05421918
_cell_formula_units_Z   1
loop_
 _symmetry_equiv_pos_site_id
 _symmetry_equiv_pos_as_xyz
  1  'x, y, z'
loop_
 _atom_site_type_symbol
 _atom_site_label
 _atom_site_symmetry_multiplicity
 _atom_site_fract_x
 _atom_site_fract_y
 _atom_site_fract_z
 _atom_site_occupancy
  Dy  Dy0  1  0.841344  0.682448  0.500000  1
  Y  Y1  1  0.671932  0.171903  0.500000  1
  Y  Y2  1  0.314170  0.813536  0.500000  1
  Y  Y3  1  0.182705  0.340415  0.500000  1
  Cd  Cd4  1  0.999545  0.006661  0.000000  1
  Cd  Cd5  1  0.506700  0.499375  0.000000  1
  Cu  Cu6  1  0.874908  0.375974  0.000000  1
  Cu  Cu7  1  0.616971  0.876397  0.000000  1
  Cu  Cu8  1  0.377389  0.115506  0.000000  1
  Ru  Ru9  1  0.114337  0.617786  0.000000  1
