# generated using pymatgen
data_Zr14Pd17Au3
_symmetry_space_group_name_H-M   'P 1'
_cell_length_a   8.22594457
_cell_length_b   8.22595291
_cell_length_c   9.77557605
_cell_angle_alpha   90.03139671
_cell_angle_beta   90.03140103
_cell_angle_gamma   107.16908451
_symmetry_Int_Tables_number   1
_chemical_formula_structural   Zr14Pd17Au3
_chemical_formula_sum   'Zr14 Pd17 Au3'
_cell_volume   631.99927754
_cell_formula_units_Z   1
loop_
 _symmetry_equiv_pos_site_id
 _symmetry_equiv_pos_as_xyz
  1  'x, y, z'
loop_
 _atom_site_type_symbol
 _atom_site_label
 _atom_site_symmetry_multiplicity
 _atom_site_fract_x
 _atom_site_fract_y
 _atom_site_fract_z
 _atom_site_occupancy
  Zr  Zr0  1  0.695924  0.303947  0.000061  1
  Zr  Zr1  1  0.303948  0.695925  0.000061  1
  Zr  Zr2  1  0.807985  0.195183  0.498427  1
  Zr  Zr3  1  0.195182  0.807984  0.498427  1
  Zr  Zr4  1  0.000274  0.000274  0.999844  1
  Zr  Zr5  1  0.500296  0.500296  0.499589  1
  Zr  Zr6  1  0.000346  0.501018  0.250046  1
  Zr  Zr7  1  0.999910  0.499270  0.749656  1
  Zr  Zr8  1  0.499270  0.999910  0.749656  1
  Zr  Zr9  1  0.501018  0.000346  0.250046  1
  Zr  Zr10  1  0.309837  0.309837  0.190241  1
  Zr  Zr11  1  0.684466  0.684466  0.815020  1
  Zr  Zr12  1  0.184478  0.184478  0.681320  1
  Zr  Zr13  1  0.818808  0.818808  0.315141  1
  Pd  Pd14  1  0.856599  0.148653  0.207012  1
  Pd  Pd15  1  0.145369  0.852196  0.793193  1
  Pd  Pd16  1  0.645683  0.351869  0.706451  1
  Pd  Pd17  1  0.647940  0.353964  0.293286  1
  Pd  Pd18  1  0.353964  0.647940  0.293286  1
  Pd  Pd19  1  0.351869  0.645683  0.706451  1
  Pd  Pd20  1  0.852196  0.145369  0.793193  1
  Pd  Pd21  1  0.148653  0.856599  0.207012  1
  Pd  Pd22  1  0.938680  0.645895  0.001258  1
  Pd  Pd23  1  0.060653  0.354405  0.999297  1
  Pd  Pd24  1  0.561029  0.854345  0.501449  1
  Pd  Pd25  1  0.146463  0.438729  0.497351  1
  Pd  Pd26  1  0.438729  0.146462  0.497350  1
  Pd  Pd27  1  0.854344  0.561029  0.501448  1
  Pd  Pd28  1  0.354404  0.060653  0.999298  1
  Pd  Pd29  1  0.645896  0.938680  0.001257  1
  Pd  Pd30  1  0.103755  0.103755  0.396690  1
  Au  Au31  1  0.893707  0.893707  0.606010  1
  Au  Au32  1  0.392582  0.392582  0.893348  1
  Au  Au33  1  0.605747  0.605747  0.107821  1
