# generated using pymatgen
data_Np(Cr3S4)2
_symmetry_space_group_name_H-M   'P 1'
_cell_length_a   6.18643928
_cell_length_b   6.18053027
_cell_length_c   6.18005686
_cell_angle_alpha   88.75563921
_cell_angle_beta   88.92530171
_cell_angle_gamma   88.68661946
_symmetry_Int_Tables_number   1
_chemical_formula_structural   Np(Cr3S4)2
_chemical_formula_sum   'Np1 Cr6 S8'
_cell_volume   236.14021131
_cell_formula_units_Z   1
loop_
 _symmetry_equiv_pos_site_id
 _symmetry_equiv_pos_as_xyz
  1  'x, y, z'
loop_
 _atom_site_type_symbol
 _atom_site_label
 _atom_site_symmetry_multiplicity
 _atom_site_fract_x
 _atom_site_fract_y
 _atom_site_fract_z
 _atom_site_occupancy
  Np  Np0  1  0.000000  0.000000  0.000000  1
  Cr  Cr1  1  0.770725  0.579897  0.437116  1
  Cr  Cr2  1  0.436983  0.770911  0.579776  1
  Cr  Cr3  1  0.580253  0.436741  0.770880  1
  Cr  Cr4  1  0.229275  0.420103  0.562884  1
  Cr  Cr5  1  0.563017  0.229089  0.420224  1
  Cr  Cr6  1  0.419747  0.563259  0.229120  1
  S  S7  1  0.752746  0.752337  0.752871  1
  S  S8  1  0.247254  0.247663  0.247129  1
  S  S9  1  0.252786  0.622405  0.872442  1
  S  S10  1  0.873285  0.252139  0.622384  1
  S  S11  1  0.621677  0.873086  0.252253  1
  S  S12  1  0.747214  0.377595  0.127558  1
  S  S13  1  0.126715  0.747861  0.377616  1
  S  S14  1  0.378323  0.126914  0.747747  1
