# generated using pymatgen
data_RbZrIO6
_symmetry_space_group_name_H-M   'P 1'
_cell_length_a   5.49076600
_cell_length_b   5.49076664
_cell_length_c   12.61662500
_cell_angle_alpha   90.00000000
_cell_angle_beta   90.00000000
_cell_angle_gamma   120.00000821
_symmetry_Int_Tables_number   1
_chemical_formula_structural   RbZrIO6
_chemical_formula_sum   'Rb2 Zr2 I2 O12'
_cell_volume   329.41222502
_cell_formula_units_Z   2
loop_
 _symmetry_equiv_pos_site_id
 _symmetry_equiv_pos_as_xyz
  1  'x, y, z'
loop_
 _atom_site_type_symbol
 _atom_site_label
 _atom_site_symmetry_multiplicity
 _atom_site_fract_x
 _atom_site_fract_y
 _atom_site_fract_z
 _atom_site_occupancy
  Rb  Rb0  1  0.000000  0.000000  0.000000  1
  Rb  Rb1  1  0.000000  0.000000  0.500000  1
  Zr  Zr2  1  0.666667  0.333333  0.250000  1
  Zr  Zr3  1  0.333333  0.666667  0.750000  1
  I  I4  1  0.333333  0.666667  0.250000  1
  I  I5  1  0.666667  0.333333  0.750000  1
  O  O6  1  0.030010  0.401704  0.336791  1
  O  O7  1  0.371694  0.401704  0.163209  1
  O  O8  1  0.628306  0.030010  0.836791  1
  O  O9  1  0.969990  0.598296  0.836791  1
  O  O10  1  0.598296  0.969990  0.163209  1
  O  O11  1  0.401704  0.371694  0.836791  1
  O  O12  1  0.401704  0.030010  0.663209  1
  O  O13  1  0.030010  0.628306  0.163209  1
  O  O14  1  0.598296  0.628306  0.336791  1
  O  O15  1  0.969990  0.371694  0.663209  1
  O  O16  1  0.628306  0.598296  0.663209  1
  O  O17  1  0.371694  0.969990  0.336791  1
