# generated using pymatgen
data_Lu(ScNi6)2
_symmetry_space_group_name_H-M   'P 1'
_cell_length_a   4.75756605
_cell_length_b   4.76203019
_cell_length_c   10.03469638
_cell_angle_alpha   85.29364902
_cell_angle_beta   80.54621916
_cell_angle_gamma   60.03100557
_symmetry_Int_Tables_number   1
_chemical_formula_structural   Lu(ScNi6)2
_chemical_formula_sum   'Lu1 Sc2 Ni12'
_cell_volume   194.27128651
_cell_formula_units_Z   1
loop_
 _symmetry_equiv_pos_site_id
 _symmetry_equiv_pos_as_xyz
  1  'x, y, z'
loop_
 _atom_site_type_symbol
 _atom_site_label
 _atom_site_symmetry_multiplicity
 _atom_site_fract_x
 _atom_site_fract_y
 _atom_site_fract_z
 _atom_site_occupancy
  Lu  Lu0  1  0.000000  0.000000  0.000000  1
  Sc  Sc1  1  0.870850  0.000000  0.356726  1
  Sc  Sc2  1  0.129150  0.000000  0.643274  1
  Ni  Ni3  1  0.333525  0.332952  0.000000  1
  Ni  Ni4  1  0.666475  0.667048  0.000000  1
  Ni  Ni5  1  0.425421  0.000000  0.202438  1
  Ni  Ni6  1  0.574579  0.000000  0.797562  1
  Ni  Ni7  1  0.929502  0.501608  0.201835  1
  Ni  Ni8  1  0.431110  0.498392  0.201835  1
  Ni  Ni9  1  0.070498  0.498392  0.798165  1
  Ni  Ni10  1  0.568890  0.501608  0.798165  1
  Ni  Ni11  1  0.190900  0.334374  0.407123  1
  Ni  Ni12  1  0.525274  0.665626  0.407123  1
  Ni  Ni13  1  0.809100  0.665626  0.592877  1
  Ni  Ni14  1  0.474726  0.334374  0.592877  1
