# generated using pymatgen
data_Dy3In4HgRu
_symmetry_space_group_name_H-M   'P 1'
_cell_length_a   8.06954500
_cell_length_b   8.06954441
_cell_length_c   3.86891600
_cell_angle_alpha   90.00000000
_cell_angle_beta   90.00000000
_cell_angle_gamma   120.00000651
_symmetry_Int_Tables_number   1
_chemical_formula_structural   Dy3In4HgRu
_chemical_formula_sum   'Dy3 In4 Hg1 Ru1'
_cell_volume   218.18152241
_cell_formula_units_Z   1
loop_
 _symmetry_equiv_pos_site_id
 _symmetry_equiv_pos_as_xyz
  1  'x, y, z'
loop_
 _atom_site_type_symbol
 _atom_site_label
 _atom_site_symmetry_multiplicity
 _atom_site_fract_x
 _atom_site_fract_y
 _atom_site_fract_z
 _atom_site_occupancy
  Dy  Dy0  1  0.040829  0.292439  0.500000  1
  Dy  Dy1  1  0.707561  0.748389  0.500000  1
  Dy  Dy2  1  0.251611  0.959171  0.500000  1
  In  In3  1  0.671605  0.053367  0.000000  1
  In  In4  1  0.946633  0.618240  0.000000  1
  In  In5  1  0.381760  0.328395  0.000000  1
  In  In6  1  0.333333  0.666667  0.000000  1
  Hg  Hg7  1  0.666667  0.333333  0.500000  1
  Ru  Ru8  1  0.000000  0.000000  0.000000  1
