# generated using pymatgen
data_V4ReAs4
_symmetry_space_group_name_H-M   'P 1'
_cell_length_a   6.84735774
_cell_length_b   6.84735725
_cell_length_c   6.84735717
_cell_angle_alpha   93.12214171
_cell_angle_beta   93.12213318
_cell_angle_gamma   153.00810601
_symmetry_Int_Tables_number   1
_chemical_formula_structural   V4ReAs4
_chemical_formula_sum   'V4 Re1 As4'
_cell_volume   141.68831626
_cell_formula_units_Z   1
loop_
 _symmetry_equiv_pos_site_id
 _symmetry_equiv_pos_as_xyz
  1  'x, y, z'
loop_
 _atom_site_type_symbol
 _atom_site_label
 _atom_site_symmetry_multiplicity
 _atom_site_fract_x
 _atom_site_fract_y
 _atom_site_fract_z
 _atom_site_occupancy
  V  V0  1  0.374943  0.695262  0.070208  1
  V  V1  1  0.695262  0.625054  0.320319  1
  V  V2  1  0.304737  0.374945  0.679682  1
  V  V3  1  0.625056  0.304737  0.929793  1
  Re  Re4  1  0.000000  0.000000  0.000000  1
  As  As5  1  0.285568  0.942820  0.228391  1
  As  As6  1  0.057179  0.285570  0.342749  1
  As  As7  1  0.942820  0.714429  0.657252  1
  As  As8  1  0.714431  0.057179  0.771610  1
