# generated using pymatgen
data_NdY(AlNi4)2
_symmetry_space_group_name_H-M   'P 1'
_cell_length_a   4.03516400
_cell_length_b   5.09978400
_cell_length_c   8.48997100
_cell_angle_alpha   90.00000000
_cell_angle_beta   90.00000000
_cell_angle_gamma   90.00000000
_symmetry_Int_Tables_number   1
_chemical_formula_structural   NdY(AlNi4)2
_chemical_formula_sum   'Nd1 Y1 Al2 Ni8'
_cell_volume   174.71056942
_cell_formula_units_Z   1
loop_
 _symmetry_equiv_pos_site_id
 _symmetry_equiv_pos_as_xyz
  1  'x, y, z'
loop_
 _atom_site_type_symbol
 _atom_site_label
 _atom_site_symmetry_multiplicity
 _atom_site_fract_x
 _atom_site_fract_y
 _atom_site_fract_z
 _atom_site_occupancy
  Nd  Nd0  1  0.000000  0.500000  0.500000  1
  Y  Y1  1  0.000000  0.000000  0.000000  1
  Al  Al2  1  0.500000  0.500000  0.000000  1
  Al  Al3  1  0.500000  0.000000  0.500000  1
  Ni  Ni4  1  0.000000  0.000000  0.329954  1
  Ni  Ni5  1  0.000000  0.500000  0.834559  1
  Ni  Ni6  1  0.000000  0.500000  0.165441  1
  Ni  Ni7  1  0.000000  0.000000  0.670046  1
  Ni  Ni8  1  0.500000  0.247804  0.247534  1
  Ni  Ni9  1  0.500000  0.752196  0.752466  1
  Ni  Ni10  1  0.500000  0.752196  0.247534  1
  Ni  Ni11  1  0.500000  0.247804  0.752466  1
