# generated using pymatgen
data_Pr3Sb(TePt)3
_symmetry_space_group_name_H-M   'P 1'
_cell_length_a   8.74590502
_cell_length_b   8.72507723
_cell_length_c   8.72507600
_cell_angle_alpha   109.37137076
_cell_angle_beta   109.48957507
_cell_angle_gamma   109.45601743
_symmetry_Int_Tables_number   1
_chemical_formula_structural   Pr3Sb(TePt)3
_chemical_formula_sum   'Pr6 Sb2 Te6 Pt6'
_cell_volume   513.14275157
_cell_formula_units_Z   2
loop_
 _symmetry_equiv_pos_site_id
 _symmetry_equiv_pos_as_xyz
  1  'x, y, z'
loop_
 _atom_site_type_symbol
 _atom_site_label
 _atom_site_symmetry_multiplicity
 _atom_site_fract_x
 _atom_site_fract_y
 _atom_site_fract_z
 _atom_site_occupancy
  Pr  Pr0  1  0.125964  0.872726  0.255732  1
  Pr  Pr1  1  0.374036  0.629769  0.746761  1
  Pr  Pr2  1  0.870222  0.250043  0.122772  1
  Pr  Pr3  1  0.629778  0.752548  0.379820  1
  Pr  Pr4  1  0.250000  0.118174  0.868174  1
  Pr  Pr5  1  0.750000  0.375843  0.625843  1
  Sb  Sb6  1  0.500370  0.998910  0.667423  1
  Sb  Sb7  1  0.999630  0.667054  0.498539  1
  Te  Te8  1  0.335178  0.336115  0.334620  1
  Te  Te9  1  0.164822  0.499442  0.000937  1
  Te  Te10  1  0.001255  0.164108  0.500477  1
  Te  Te11  1  0.840988  0.839029  0.840116  1
  Te  Te12  1  0.498745  0.999222  0.162853  1
  Te  Te13  1  0.659012  0.499129  0.998042  1
  Pt  Pt14  1  0.631815  0.378547  0.258401  1
  Pt  Pt15  1  0.868185  0.126586  0.746731  1
  Pt  Pt16  1  0.375259  0.243566  0.620655  1
  Pt  Pt17  1  0.124741  0.745397  0.868307  1
  Pt  Pt18  1  0.250000  0.628100  0.378100  1
  Pt  Pt19  1  0.750000  0.875696  0.125696  1
