# generated using pymatgen
data_TbHo15In2(AgIr2)2
_symmetry_space_group_name_H-M   'P 1'
_cell_length_a   9.57138459
_cell_length_b   9.57138461
_cell_length_c   9.58245100
_cell_angle_alpha   59.96175635
_cell_angle_beta   59.96175629
_cell_angle_gamma   60.00004699
_symmetry_Int_Tables_number   1
_chemical_formula_structural   TbHo15In2(AgIr2)2
_chemical_formula_sum   'Tb1 Ho15 In2 Ag2 Ir4'
_cell_volume   620.38317470
_cell_formula_units_Z   1
loop_
 _symmetry_equiv_pos_site_id
 _symmetry_equiv_pos_as_xyz
  1  'x, y, z'
loop_
 _atom_site_type_symbol
 _atom_site_label
 _atom_site_symmetry_multiplicity
 _atom_site_fract_x
 _atom_site_fract_y
 _atom_site_fract_z
 _atom_site_occupancy
  Tb  Tb0  1  0.439794  0.439794  0.060206  1
  Ho  Ho1  1  0.650231  0.650231  0.049657  1
  Ho  Ho2  1  0.190220  0.810663  0.190526  1
  Ho  Ho3  1  0.064611  0.439642  0.058303  1
  Ho  Ho4  1  0.190220  0.810663  0.808592  1
  Ho  Ho5  1  0.064611  0.439642  0.437444  1
  Ho  Ho6  1  0.810663  0.190220  0.190526  1
  Ho  Ho7  1  0.650231  0.650231  0.649882  1
  Ho  Ho8  1  0.810663  0.190220  0.808592  1
  Ho  Ho9  1  0.189492  0.189492  0.810508  1
  Ho  Ho10  1  0.050618  0.649359  0.650012  1
  Ho  Ho11  1  0.439642  0.064611  0.058303  1
  Ho  Ho12  1  0.062589  0.062589  0.437411  1
  Ho  Ho13  1  0.649359  0.050618  0.650012  1
  Ho  Ho14  1  0.808001  0.808001  0.191999  1
  Ho  Ho15  1  0.439642  0.064611  0.437444  1
  In  In16  1  0.416362  0.742560  0.420540  1
  In  In17  1  0.742560  0.416362  0.420540  1
  Ag  Ag18  1  0.416253  0.416253  0.418392  1
  Ag  Ag19  1  0.416253  0.416253  0.749103  1
  Ir  Ir20  1  0.425005  0.858028  0.858482  1
  Ir  Ir21  1  0.857475  0.857475  0.859789  1
  Ir  Ir22  1  0.858028  0.425005  0.858482  1
  Ir  Ir23  1  0.857475  0.857475  0.425261  1
