# generated using pymatgen
data_Hf9MnReMo3
_symmetry_space_group_name_H-M   'P 1'
_cell_length_a   8.62858070
_cell_length_b   8.62858036
_cell_length_c   8.53101400
_cell_angle_alpha   90.00000000
_cell_angle_beta   90.00000000
_cell_angle_gamma   120.07196439
_symmetry_Int_Tables_number   1
_chemical_formula_structural   Hf9MnReMo3
_chemical_formula_sum   'Hf18 Mn2 Re2 Mo6'
_cell_volume   549.66060228
_cell_formula_units_Z   2
loop_
 _symmetry_equiv_pos_site_id
 _symmetry_equiv_pos_as_xyz
  1  'x, y, z'
loop_
 _atom_site_type_symbol
 _atom_site_label
 _atom_site_symmetry_multiplicity
 _atom_site_fract_x
 _atom_site_fract_y
 _atom_site_fract_z
 _atom_site_occupancy
  Hf  Hf0  1  0.202679  0.797321  0.443141  1
  Hf  Hf1  1  0.202368  0.404588  0.444558  1
  Hf  Hf2  1  0.595412  0.797632  0.444558  1
  Hf  Hf3  1  0.798645  0.201355  0.560060  1
  Hf  Hf4  1  0.797738  0.596284  0.558414  1
  Hf  Hf5  1  0.403716  0.202262  0.558414  1
  Hf  Hf6  1  0.798645  0.201355  0.939940  1
  Hf  Hf7  1  0.797738  0.596284  0.941586  1
  Hf  Hf8  1  0.403716  0.202262  0.941586  1
  Hf  Hf9  1  0.202679  0.797321  0.056859  1
  Hf  Hf10  1  0.202368  0.404588  0.055442  1
  Hf  Hf11  1  0.595412  0.797632  0.055442  1
  Hf  Hf12  1  0.539634  0.460366  0.250000  1
  Hf  Hf13  1  0.539907  0.079465  0.250000  1
  Hf  Hf14  1  0.920535  0.460093  0.250000  1
  Hf  Hf15  1  0.459867  0.540133  0.750000  1
  Hf  Hf16  1  0.461369  0.919244  0.750000  1
  Hf  Hf17  1  0.080756  0.538631  0.750000  1
  Mn  Mn18  1  0.333726  0.666274  0.250000  1
  Mn  Mn19  1  0.666431  0.333569  0.750000  1
  Re  Re20  1  0.111342  0.224998  0.750000  1
  Re  Re21  1  0.775002  0.888658  0.750000  1
  Mo  Mo22  1  0.888011  0.111989  0.250000  1
  Mo  Mo23  1  0.887004  0.774898  0.250000  1
  Mo  Mo24  1  0.225102  0.112996  0.250000  1
  Mo  Mo25  1  0.111134  0.888866  0.750000  1
  Mo  Mo26  1  0.999533  0.000467  0.500304  1
  Mo  Mo27  1  0.999533  0.000467  0.999696  1
