# generated using pymatgen
data_Tm20Co3Bi8Os
_symmetry_space_group_name_H-M   'P 1'
_cell_length_a   7.87009642
_cell_length_b   8.87034000
_cell_length_c   12.28506805
_cell_angle_alpha   90.00000000
_cell_angle_beta   89.75937981
_cell_angle_gamma   90.00000000
_symmetry_Int_Tables_number   1
_chemical_formula_structural   Tm20Co3Bi8Os
_chemical_formula_sum   'Tm20 Co3 Bi8 Os1'
_cell_volume   857.61833383
_cell_formula_units_Z   1
loop_
 _symmetry_equiv_pos_site_id
 _symmetry_equiv_pos_as_xyz
  1  'x, y, z'
loop_
 _atom_site_type_symbol
 _atom_site_label
 _atom_site_symmetry_multiplicity
 _atom_site_fract_x
 _atom_site_fract_y
 _atom_site_fract_z
 _atom_site_occupancy
  Tm  Tm0  1  0.346050  0.750000  0.700485  1
  Tm  Tm1  1  0.653161  0.250000  0.301098  1
  Tm  Tm2  1  0.847198  0.250000  0.800166  1
  Tm  Tm3  1  0.155244  0.750000  0.206310  1
  Tm  Tm4  1  0.881563  0.750000  0.806230  1
  Tm  Tm5  1  0.113606  0.250000  0.188229  1
  Tm  Tm6  1  0.385988  0.250000  0.687222  1
  Tm  Tm7  1  0.614021  0.750000  0.313840  1
  Tm  Tm8  1  0.673530  0.537403  0.562865  1
  Tm  Tm9  1  0.325723  0.461194  0.437175  1
  Tm  Tm10  1  0.175082  0.456779  0.935689  1
  Tm  Tm11  1  0.325723  0.038806  0.437175  1
  Tm  Tm12  1  0.825688  0.537613  0.063486  1
  Tm  Tm13  1  0.673530  0.962597  0.562865  1
  Tm  Tm14  1  0.825688  0.962387  0.063486  1
  Tm  Tm15  1  0.175082  0.043221  0.935689  1
  Tm  Tm16  1  0.054645  0.750000  0.498130  1
  Tm  Tm17  1  0.945157  0.250000  0.502373  1
  Tm  Tm18  1  0.556571  0.250000  0.002749  1
  Tm  Tm19  1  0.442844  0.750000  0.996727  1
  Co  Co20  1  0.930567  0.250000  0.008776  1
  Co  Co21  1  0.565301  0.250000  0.507646  1
  Co  Co22  1  0.433387  0.750000  0.492642  1
  Bi  Bi23  1  0.571102  0.508792  0.826486  1
  Bi  Bi24  1  0.430235  0.490828  0.173140  1
  Bi  Bi25  1  0.071080  0.490254  0.672072  1
  Bi  Bi26  1  0.430235  0.009172  0.173140  1
  Bi  Bi27  1  0.928725  0.509021  0.327611  1
  Bi  Bi28  1  0.571102  0.991208  0.826486  1
  Bi  Bi29  1  0.928725  0.990979  0.327611  1
  Bi  Bi30  1  0.071080  0.009746  0.672072  1
  Os  Os31  1  0.072368  0.750000  0.990327  1
