# generated using pymatgen
data_HoTmPa2(B4Os)4
_symmetry_space_group_name_H-M   'P 1'
_cell_length_a   3.57636200
_cell_length_b   5.97272945
_cell_length_c   11.57733900
_cell_angle_alpha   90.17542499
_cell_angle_beta   90.00000000
_cell_angle_gamma   90.00000000
_symmetry_Int_Tables_number   1
_chemical_formula_structural   HoTmPa2(B4Os)4
_chemical_formula_sum   'Ho1 Tm1 Pa2 B16 Os4'
_cell_volume   247.29824207
_cell_formula_units_Z   1
loop_
 _symmetry_equiv_pos_site_id
 _symmetry_equiv_pos_as_xyz
  1  'x, y, z'
loop_
 _atom_site_type_symbol
 _atom_site_label
 _atom_site_symmetry_multiplicity
 _atom_site_fract_x
 _atom_site_fract_y
 _atom_site_fract_z
 _atom_site_occupancy
  Ho  Ho0  1  0.500000  0.629283  0.852402  1
  Tm  Tm1  1  0.500000  0.370709  0.147644  1
  Pa  Pa2  1  0.500000  0.129247  0.651210  1
  Pa  Pa3  1  0.500000  0.870726  0.348705  1
  B  B4  1  0.000000  0.473851  0.692502  1
  B  B5  1  0.000000  0.525963  0.307197  1
  B  B6  1  0.000000  0.971277  0.810430  1
  B  B7  1  0.000000  0.029207  0.189587  1
  B  B8  1  0.000000  0.291071  0.814424  1
  B  B9  1  0.000000  0.708289  0.185586  1
  B  B10  1  0.000000  0.790815  0.688028  1
  B  B11  1  0.000000  0.209309  0.311731  1
  B  B12  1  0.000000  0.364049  0.969459  1
  B  B13  1  0.000000  0.635740  0.030970  1
  B  B14  1  0.000000  0.865887  0.532568  1
  B  B15  1  0.000000  0.134133  0.467383  1
  B  B16  1  0.000000  0.387541  0.546665  1
  B  B17  1  0.000000  0.612439  0.453246  1
  B  B18  1  0.000000  0.886236  0.954675  1
  B  B19  1  0.000000  0.114383  0.045690  1
  Os  Os20  1  0.500000  0.140979  0.905149  1
  Os  Os21  1  0.500000  0.858892  0.095213  1
  Os  Os22  1  0.500000  0.641545  0.595818  1
  Os  Os23  1  0.500000  0.358428  0.403718  1
