# generated using pymatgen
data_Ho7LuTi11Si16Au
_symmetry_space_group_name_H-M   'P 1'
_cell_length_a   7.04724037
_cell_length_b   7.04898685
_cell_length_c   12.85292701
_cell_angle_alpha   90.11186885
_cell_angle_beta   89.90934704
_cell_angle_gamma   89.63834358
_symmetry_Int_Tables_number   1
_chemical_formula_structural   Ho7LuTi11Si16Au
_chemical_formula_sum   'Ho7 Lu1 Ti11 Si16 Au1'
_cell_volume   638.46602934
_cell_formula_units_Z   1
loop_
 _symmetry_equiv_pos_site_id
 _symmetry_equiv_pos_as_xyz
  1  'x, y, z'
loop_
 _atom_site_type_symbol
 _atom_site_label
 _atom_site_symmetry_multiplicity
 _atom_site_fract_x
 _atom_site_fract_y
 _atom_site_fract_z
 _atom_site_occupancy
  Ho  Ho0  1  0.496928  0.841325  0.716594  1
  Ho  Ho1  1  0.501332  0.157211  0.214544  1
  Ho  Ho2  1  0.841072  0.497109  0.283220  1
  Ho  Ho3  1  0.157365  0.501451  0.785596  1
  Ho  Ho4  1  0.656304  0.000876  0.968679  1
  Ho  Ho5  1  0.002566  0.340601  0.533201  1
  Ho  Ho6  1  0.000917  0.656303  0.031335  1
  Lu  Lu7  1  0.341330  0.001378  0.466576  1
  Ti  Ti8  1  0.175018  0.826101  0.249795  1
  Ti  Ti9  1  0.826041  0.174783  0.750340  1
  Ti  Ti10  1  0.672400  0.673095  0.499981  1
  Ti  Ti11  1  0.147805  0.007431  0.876958  1
  Ti  Ti12  1  0.495170  0.651049  0.123146  1
  Ti  Ti13  1  0.506658  0.350615  0.625342  1
  Ti  Ti14  1  0.650921  0.495153  0.876913  1
  Ti  Ti15  1  0.350761  0.507004  0.374589  1
  Ti  Ti16  1  0.850563  0.991944  0.374488  1
  Ti  Ti17  1  0.007622  0.147607  0.123020  1
  Ti  Ti18  1  0.992164  0.850481  0.625404  1
  Si  Si19  1  0.201811  0.132615  0.684160  1
  Si  Si20  1  0.373872  0.719961  0.928739  1
  Si  Si21  1  0.630636  0.293244  0.432458  1
  Si  Si22  1  0.719866  0.373874  0.071304  1
  Si  Si23  1  0.294090  0.632422  0.567295  1
  Si  Si24  1  0.798038  0.866963  0.182723  1
  Si  Si25  1  0.133517  0.200795  0.316163  1
  Si  Si26  1  0.866935  0.798090  0.817241  1
  Si  Si27  1  0.286229  0.937820  0.065916  1
  Si  Si28  1  0.546403  0.791672  0.314992  1
  Si  Si29  1  0.454077  0.207997  0.809745  1
  Si  Si30  1  0.790997  0.547166  0.685487  1
  Si  Si31  1  0.208085  0.454201  0.190247  1
  Si  Si32  1  0.707413  0.047651  0.564212  1
  Si  Si33  1  0.937889  0.286192  0.934054  1
  Si  Si34  1  0.048544  0.709152  0.435487  1
  Au  Au35  1  0.328659  0.328668  0.000057  1
