# generated using pymatgen
data_BiPdF7
_symmetry_space_group_name_H-M   'P 1'
_cell_length_a   5.59177300
_cell_length_b   9.01742317
_cell_length_c   12.10954700
_cell_angle_alpha   62.13153713
_cell_angle_beta   90.00000000
_cell_angle_gamma   90.00000000
_symmetry_Int_Tables_number   1
_chemical_formula_structural   BiPdF7
_chemical_formula_sum   'Bi4 Pd4 F28'
_cell_volume   539.78830780
_cell_formula_units_Z   4
loop_
 _symmetry_equiv_pos_site_id
 _symmetry_equiv_pos_as_xyz
  1  'x, y, z'
loop_
 _atom_site_type_symbol
 _atom_site_label
 _atom_site_symmetry_multiplicity
 _atom_site_fract_x
 _atom_site_fract_y
 _atom_site_fract_z
 _atom_site_occupancy
  Bi  Bi0  1  0.762798  0.812584  0.762247  1
  Bi  Bi1  1  0.262798  0.187416  0.737753  1
  Bi  Bi2  1  0.237202  0.187416  0.237753  1
  Bi  Bi3  1  0.737202  0.812584  0.262247  1
  Pd  Pd4  1  0.757799  0.270598  0.959371  1
  Pd  Pd5  1  0.257799  0.729402  0.540629  1
  Pd  Pd6  1  0.242201  0.729402  0.040629  1
  Pd  Pd7  1  0.742201  0.270598  0.459371  1
  F  F8  1  0.431260  0.705686  0.914151  1
  F  F9  1  0.931260  0.294314  0.585849  1
  F  F10  1  0.568740  0.294314  0.085849  1
  F  F11  1  0.068740  0.705686  0.414151  1
  F  F12  1  0.442899  0.278793  0.540849  1
  F  F13  1  0.942899  0.721207  0.959151  1
  F  F14  1  0.557101  0.721207  0.459151  1
  F  F15  1  0.057101  0.278793  0.040849  1
  F  F16  1  0.770271  0.513324  0.860854  1
  F  F17  1  0.270271  0.486676  0.639146  1
  F  F18  1  0.229729  0.486676  0.139146  1
  F  F19  1  0.729729  0.513324  0.360854  1
  F  F20  1  0.756152  0.024183  0.051969  1
  F  F21  1  0.256152  0.975817  0.448031  1
  F  F22  1  0.243848  0.975817  0.948031  1
  F  F23  1  0.743848  0.024183  0.551969  1
  F  F24  1  0.966279  0.725962  0.630464  1
  F  F25  1  0.466279  0.274038  0.869536  1
  F  F26  1  0.033721  0.274038  0.369536  1
  F  F27  1  0.533721  0.725962  0.130464  1
  F  F28  1  0.061414  0.743441  0.174047  1
  F  F29  1  0.561414  0.256559  0.325953  1
  F  F30  1  0.938586  0.256559  0.825953  1
  F  F31  1  0.438586  0.743441  0.674047  1
  F  F32  1  0.399347  0.966862  0.228675  1
  F  F33  1  0.899347  0.033138  0.271325  1
  F  F34  1  0.600653  0.033138  0.771325  1
  F  F35  1  0.100653  0.966862  0.728675  1
