# generated using pymatgen
data_VGaAg(P2O7)2
_symmetry_space_group_name_H-M   'P 1'
_cell_length_a   4.85743527
_cell_length_b   7.03508963
_cell_length_c   7.96122233
_cell_angle_alpha   90.97813939
_cell_angle_beta   93.99158449
_cell_angle_gamma   104.73439600
_symmetry_Int_Tables_number   1
_chemical_formula_structural   VGaAg(P2O7)2
_chemical_formula_sum   'V1 Ga1 Ag1 P4 O14'
_cell_volume   262.29956326
_cell_formula_units_Z   1
loop_
 _symmetry_equiv_pos_site_id
 _symmetry_equiv_pos_as_xyz
  1  'x, y, z'
loop_
 _atom_site_type_symbol
 _atom_site_label
 _atom_site_symmetry_multiplicity
 _atom_site_fract_x
 _atom_site_fract_y
 _atom_site_fract_z
 _atom_site_occupancy
  V  V0  1  0.500000  0.500000  0.500000  1
  Ga  Ga1  1  0.000000  0.000000  0.000000  1
  Ag  Ag2  1  0.000000  0.000000  0.500000  1
  P  P3  1  0.007831  0.624900  0.252103  1
  P  P4  1  0.992169  0.375100  0.747897  1
  P  P5  1  0.620075  0.233331  0.195858  1
  P  P6  1  0.379925  0.766669  0.804142  1
  O  O7  1  0.797093  0.451486  0.140270  1
  O  O8  1  0.202907  0.548514  0.859730  1
  O  O9  1  0.543019  0.262716  0.379460  1
  O  O10  1  0.456981  0.737284  0.620540  1
  O  O11  1  0.269067  0.551020  0.313625  1
  O  O12  1  0.730933  0.448980  0.686375  1
  O  O13  1  0.845922  0.665996  0.405459  1
  O  O14  1  0.176930  0.901218  0.803284  1
  O  O15  1  0.823070  0.098782  0.196716  1
  O  O16  1  0.900081  0.197264  0.851525  1
  O  O17  1  0.099919  0.802736  0.148475  1
  O  O18  1  0.633583  0.816973  0.931696  1
  O  O19  1  0.366417  0.183027  0.068304  1
  O  O20  1  0.154078  0.334004  0.594541  1
