# generated using pymatgen
data_Y2CoSi5Pt2
_symmetry_space_group_name_H-M   'P 1'
_cell_length_a   8.08730571
_cell_length_b   8.08730588
_cell_length_c   5.88879494
_cell_angle_alpha   68.82440851
_cell_angle_beta   68.82440657
_cell_angle_gamma   89.27674305
_symmetry_Int_Tables_number   1
_chemical_formula_structural   Y2CoSi5Pt2
_chemical_formula_sum   'Y4 Co2 Si10 Pt4'
_cell_volume   331.80599538
_cell_formula_units_Z   2
loop_
 _symmetry_equiv_pos_site_id
 _symmetry_equiv_pos_as_xyz
  1  'x, y, z'
loop_
 _atom_site_type_symbol
 _atom_site_label
 _atom_site_symmetry_multiplicity
 _atom_site_fract_x
 _atom_site_fract_y
 _atom_site_fract_z
 _atom_site_occupancy
  Y  Y0  1  0.861237  0.598714  0.771527  1
  Y  Y1  1  0.401286  0.138763  0.728473  1
  Y  Y2  1  0.138763  0.401286  0.228473  1
  Y  Y3  1  0.598714  0.861237  0.271527  1
  Co  Co4  1  0.000625  0.999375  0.750000  1
  Co  Co5  1  0.999375  0.000625  0.250000  1
  Si  Si6  1  0.046685  0.242148  0.854382  1
  Si  Si7  1  0.757852  0.953315  0.645618  1
  Si  Si8  1  0.953315  0.757852  0.145618  1
  Si  Si9  1  0.242148  0.046685  0.354382  1
  Si  Si10  1  0.217937  0.782063  0.750000  1
  Si  Si11  1  0.782063  0.217937  0.250000  1
  Si  Si12  1  0.501174  0.498826  0.750000  1
  Si  Si13  1  0.498826  0.501174  0.250000  1
  Si  Si14  1  0.781083  0.218917  0.750000  1
  Si  Si15  1  0.218917  0.781083  0.250000  1
  Pt  Pt16  1  0.244762  0.523926  0.616649  1
  Pt  Pt17  1  0.476074  0.755238  0.883351  1
  Pt  Pt18  1  0.755238  0.476074  0.383351  1
  Pt  Pt19  1  0.523926  0.244762  0.116649  1
