# generated using pymatgen
data_Tb2AlGaPt2
_symmetry_space_group_name_H-M   'P 1'
_cell_length_a   4.45143600
_cell_length_b   6.95781551
_cell_length_c   7.73959299
_cell_angle_alpha   88.13646011
_cell_angle_beta   90.00000000
_cell_angle_gamma   90.00000000
_symmetry_Int_Tables_number   1
_chemical_formula_structural   Tb2AlGaPt2
_chemical_formula_sum   'Tb4 Al2 Ga2 Pt4'
_cell_volume   239.58598624
_cell_formula_units_Z   2
loop_
 _symmetry_equiv_pos_site_id
 _symmetry_equiv_pos_as_xyz
  1  'x, y, z'
loop_
 _atom_site_type_symbol
 _atom_site_label
 _atom_site_symmetry_multiplicity
 _atom_site_fract_x
 _atom_site_fract_y
 _atom_site_fract_z
 _atom_site_occupancy
  Tb  Tb0  1  0.750000  0.521092  0.812462  1
  Tb  Tb1  1  0.250000  0.976556  0.304939  1
  Tb  Tb2  1  0.250000  0.478908  0.187538  1
  Tb  Tb3  1  0.750000  0.023444  0.695061  1
  Al  Al4  1  0.750000  0.655843  0.431109  1
  Al  Al5  1  0.250000  0.344157  0.568891  1
  Ga  Ga6  1  0.750000  0.165384  0.073327  1
  Ga  Ga7  1  0.250000  0.834616  0.926673  1
  Pt  Pt8  1  0.250000  0.720283  0.601374  1
  Pt  Pt9  1  0.250000  0.225953  0.892664  1
  Pt  Pt10  1  0.750000  0.774047  0.107336  1
  Pt  Pt11  1  0.750000  0.279717  0.398626  1
