# generated using pymatgen
data_Sm2Pa(GaNi)3
_symmetry_space_group_name_H-M   'P 1'
_cell_length_a   7.03145437
_cell_length_b   7.09365749
_cell_length_c   3.84866500
_cell_angle_alpha   90.00000000
_cell_angle_beta   90.00000000
_cell_angle_gamma   120.29306082
_symmetry_Int_Tables_number   1
_chemical_formula_structural   Sm2Pa(GaNi)3
_chemical_formula_sum   'Sm2 Pa1 Ga3 Ni3'
_cell_volume   165.75476657
_cell_formula_units_Z   1
loop_
 _symmetry_equiv_pos_site_id
 _symmetry_equiv_pos_as_xyz
  1  'x, y, z'
loop_
 _atom_site_type_symbol
 _atom_site_label
 _atom_site_symmetry_multiplicity
 _atom_site_fract_x
 _atom_site_fract_y
 _atom_site_fract_z
 _atom_site_occupancy
  Sm  Sm0  1  0.414902  0.416946  0.500000  1
  Sm  Sm1  1  0.585098  0.002045  0.500000  1
  Pa  Pa2  1  0.000000  0.580508  0.500000  1
  Ga  Ga3  1  0.242513  0.000902  0.000000  1
  Ga  Ga4  1  0.757487  0.758389  0.000000  1
  Ga  Ga5  1  0.000000  0.235616  0.000000  1
  Ni  Ni6  1  0.698170  0.360913  0.000000  1
  Ni  Ni7  1  0.301830  0.662744  0.000000  1
  Ni  Ni8  1  0.000000  0.981935  0.500000  1
