# generated using pymatgen
data_Si3Ni5Mo4
_symmetry_space_group_name_H-M   'P 1'
_cell_length_a   4.74426013
_cell_length_b   4.74425961
_cell_length_c   7.60436100
_cell_angle_alpha   90.00000000
_cell_angle_beta   90.00000000
_cell_angle_gamma   120.01049714
_symmetry_Int_Tables_number   1
_chemical_formula_structural   Si3Ni5Mo4
_chemical_formula_sum   'Si3 Ni5 Mo4'
_cell_volume   148.21233494
_cell_formula_units_Z   1
loop_
 _symmetry_equiv_pos_site_id
 _symmetry_equiv_pos_as_xyz
  1  'x, y, z'
loop_
 _atom_site_type_symbol
 _atom_site_label
 _atom_site_symmetry_multiplicity
 _atom_site_fract_x
 _atom_site_fract_y
 _atom_site_fract_z
 _atom_site_occupancy
  Si  Si0  1  0.991784  0.008216  0.242393  1
  Si  Si1  1  0.991784  0.008216  0.757607  1
  Si  Si2  1  0.186740  0.813260  0.500000  1
  Ni  Ni3  1  0.677622  0.823635  0.500000  1
  Ni  Ni4  1  0.176365  0.322378  0.500000  1
  Ni  Ni5  1  0.823907  0.176093  0.000000  1
  Ni  Ni6  1  0.334954  0.175605  0.000000  1
  Ni  Ni7  1  0.824395  0.665046  0.000000  1
  Mo  Mo8  1  0.326980  0.673020  0.815657  1
  Mo  Mo9  1  0.669257  0.330743  0.686046  1
  Mo  Mo10  1  0.669257  0.330743  0.313954  1
  Mo  Mo11  1  0.326980  0.673020  0.184343  1
