# generated using pymatgen
data_Er2B2Ir5
_symmetry_space_group_name_H-M   'P 1'
_cell_length_a   11.00102988
_cell_length_b   11.00102970
_cell_length_c   11.00102993
_cell_angle_alpha   28.74158296
_cell_angle_beta   28.74158678
_cell_angle_gamma   28.74158381
_symmetry_Int_Tables_number   1
_chemical_formula_structural   Er2B2Ir5
_chemical_formula_sum   'Er4 B4 Ir10'
_cell_volume   272.18860600
_cell_formula_units_Z   2
loop_
 _symmetry_equiv_pos_site_id
 _symmetry_equiv_pos_as_xyz
  1  'x, y, z'
loop_
 _atom_site_type_symbol
 _atom_site_label
 _atom_site_symmetry_multiplicity
 _atom_site_fract_x
 _atom_site_fract_y
 _atom_site_fract_z
 _atom_site_occupancy
  Er  Er0  1  0.151931  0.151931  0.151931  1
  Er  Er1  1  0.950206  0.950206  0.950206  1
  Er  Er2  1  0.848069  0.848069  0.848069  1
  Er  Er3  1  0.049794  0.049794  0.049794  1
  B  B4  1  0.617299  0.617299  0.617299  1
  B  B5  1  0.716113  0.716113  0.716113  1
  B  B6  1  0.382701  0.382701  0.382701  1
  B  B7  1  0.283887  0.283887  0.283887  1
  Ir  Ir8  1  0.405194  0.899862  0.405194  1
  Ir  Ir9  1  0.899862  0.405194  0.405194  1
  Ir  Ir10  1  0.500000  0.500000  0.000000  1
  Ir  Ir11  1  0.500000  0.000000  0.500000  1
  Ir  Ir12  1  0.000000  0.500000  0.500000  1
  Ir  Ir13  1  0.500000  0.500000  0.500000  1
  Ir  Ir14  1  0.594806  0.100138  0.594806  1
  Ir  Ir15  1  0.594806  0.594806  0.100138  1
  Ir  Ir16  1  0.100138  0.594806  0.594806  1
  Ir  Ir17  1  0.405194  0.405194  0.899862  1
