# generated using pymatgen
data_Ca4Al19Ir5
_symmetry_space_group_name_H-M   'P 1'
_cell_length_a   7.61107617
_cell_length_b   7.61107838
_cell_length_c   9.61039847
_cell_angle_alpha   89.98195733
_cell_angle_beta   89.98195097
_cell_angle_gamma   119.33175260
_symmetry_Int_Tables_number   1
_chemical_formula_structural   Ca4Al19Ir5
_chemical_formula_sum   'Ca4 Al19 Ir5'
_cell_volume   485.34371131
_cell_formula_units_Z   1
loop_
 _symmetry_equiv_pos_site_id
 _symmetry_equiv_pos_as_xyz
  1  'x, y, z'
loop_
 _atom_site_type_symbol
 _atom_site_label
 _atom_site_symmetry_multiplicity
 _atom_site_fract_x
 _atom_site_fract_y
 _atom_site_fract_z
 _atom_site_occupancy
  Ca  Ca0  1  0.996917  0.678434  0.249644  1
  Ca  Ca1  1  0.003083  0.321566  0.750356  1
  Ca  Ca2  1  0.678434  0.996917  0.249644  1
  Ca  Ca3  1  0.321566  0.003083  0.750356  1
  Al  Al4  1  0.141081  0.141081  0.261208  1
  Al  Al5  1  0.858919  0.858919  0.738792  1
  Al  Al6  1  0.003735  0.348851  0.078564  1
  Al  Al7  1  0.996265  0.651149  0.921436  1
  Al  Al8  1  0.001232  0.663434  0.567910  1
  Al  Al9  1  0.336566  0.998768  0.432090  1
  Al  Al10  1  0.998768  0.336566  0.432090  1
  Al  Al11  1  0.663434  0.001232  0.567910  1
  Al  Al12  1  0.651149  0.996265  0.921436  1
  Al  Al13  1  0.348851  0.003735  0.078564  1
  Al  Al14  1  0.332893  0.332893  0.546242  1
  Al  Al15  1  0.667107  0.667107  0.453758  1
  Al  Al16  1  0.653165  0.653165  0.059048  1
  Al  Al17  1  0.346835  0.346835  0.940952  1
  Al  Al18  1  0.338537  0.551583  0.251947  1
  Al  Al19  1  0.661463  0.448417  0.748053  1
  Al  Al20  1  0.551583  0.338537  0.251947  1
  Al  Al21  1  0.448417  0.661463  0.748053  1
  Al  Al22  1  0.000000  0.000000  0.000000  1
  Ir  Ir23  1  0.670825  0.329175  0.000000  1
  Ir  Ir24  1  0.329175  0.670825  0.000000  1
  Ir  Ir25  1  0.330003  0.669997  0.500000  1
  Ir  Ir26  1  0.669997  0.330003  0.500000  1
  Ir  Ir27  1  0.000000  0.000000  0.500000  1
