# generated using pymatgen
data_PrSO4F
_symmetry_space_group_name_H-M   'P 1'
_cell_length_a   6.62347100
_cell_length_b   7.28154600
_cell_length_c   8.77443000
_cell_angle_alpha   90.00000000
_cell_angle_beta   90.00000000
_cell_angle_gamma   90.00000000
_symmetry_Int_Tables_number   1
_chemical_formula_structural   PrSO4F
_chemical_formula_sum   'Pr4 S4 O16 F4'
_cell_volume   423.18293883
_cell_formula_units_Z   4
loop_
 _symmetry_equiv_pos_site_id
 _symmetry_equiv_pos_as_xyz
  1  'x, y, z'
loop_
 _atom_site_type_symbol
 _atom_site_label
 _atom_site_symmetry_multiplicity
 _atom_site_fract_x
 _atom_site_fract_y
 _atom_site_fract_z
 _atom_site_occupancy
  Pr  Pr0  1  0.649559  0.750000  0.444893  1
  Pr  Pr1  1  0.149559  0.250000  0.055107  1
  Pr  Pr2  1  0.350441  0.250000  0.555107  1
  Pr  Pr3  1  0.850441  0.750000  0.944893  1
  S  S4  1  0.188545  0.750000  0.591531  1
  S  S5  1  0.688545  0.250000  0.908469  1
  S  S6  1  0.811455  0.250000  0.408469  1
  S  S7  1  0.311455  0.750000  0.091531  1
  O  O8  1  0.017404  0.750000  0.485282  1
  O  O9  1  0.517404  0.250000  0.014718  1
  O  O10  1  0.982596  0.250000  0.514718  1
  O  O11  1  0.482596  0.750000  0.985282  1
  O  O12  1  0.375372  0.750000  0.251267  1
  O  O13  1  0.875372  0.250000  0.248733  1
  O  O14  1  0.624628  0.250000  0.748733  1
  O  O15  1  0.124628  0.750000  0.751267  1
  O  O16  1  0.324306  0.912519  0.559730  1
  O  O17  1  0.824306  0.087481  0.940270  1
  O  O18  1  0.675694  0.412519  0.440270  1
  O  O19  1  0.175694  0.587481  0.059730  1
  O  O20  1  0.824306  0.412519  0.940270  1
  O  O21  1  0.324306  0.587481  0.559730  1
  O  O22  1  0.175694  0.912519  0.059730  1
  O  O23  1  0.675694  0.087481  0.440270  1
  F  F24  1  0.699695  0.750000  0.706673  1
  F  F25  1  0.199695  0.250000  0.793327  1
  F  F26  1  0.300305  0.250000  0.293327  1
  F  F27  1  0.800305  0.750000  0.206673  1
