# generated using pymatgen
data_Y9Ho(In3Cl)2
_symmetry_space_group_name_H-M   'P 1'
_cell_length_a   9.13448700
_cell_length_b   9.13445978
_cell_length_c   6.71197700
_cell_angle_alpha   89.99998746
_cell_angle_beta   89.99981810
_cell_angle_gamma   120.00001529
_symmetry_Int_Tables_number   1
_chemical_formula_structural   Y9Ho(In3Cl)2
_chemical_formula_sum   'Y9 Ho1 In6 Cl2'
_cell_volume   485.00705315
_cell_formula_units_Z   1
loop_
 _symmetry_equiv_pos_site_id
 _symmetry_equiv_pos_as_xyz
  1  'x, y, z'
loop_
 _atom_site_type_symbol
 _atom_site_label
 _atom_site_symmetry_multiplicity
 _atom_site_fract_x
 _atom_site_fract_y
 _atom_site_fract_z
 _atom_site_occupancy
  Y  Y0  1  0.333448  0.666735  0.999901  1
  Y  Y1  1  0.742410  0.742028  0.249787  1
  Y  Y2  1  0.258068  0.000425  0.249797  1
  Y  Y3  1  0.999571  0.257518  0.249781  1
  Y  Y4  1  0.666519  0.333189  0.500018  1
  Y  Y5  1  0.333463  0.666800  0.500039  1
  Y  Y6  1  0.257984  0.257565  0.750211  1
  Y  Y7  1  0.742328  0.000381  0.750230  1
  Y  Y8  1  0.999586  0.742035  0.750218  1
  Ho  Ho9  1  0.666696  0.333348  0.000014  1
  In  In10  1  0.604000  0.000384  0.249252  1
  In  In11  1  0.999618  0.603627  0.249247  1
  In  In12  1  0.396381  0.395996  0.249246  1
  In  In13  1  0.396368  0.000369  0.750753  1
  In  In14  1  0.999605  0.395992  0.750751  1
  In  In15  1  0.603993  0.603602  0.750761  1
  Cl  Cl16  1  0.999976  0.000010  0.000008  1
  Cl  Cl17  1  0.999988  0.999997  0.499987  1
