# generated using pymatgen
data_Zr4Ta4SiP3
_symmetry_space_group_name_H-M   'P 1'
_cell_length_a   3.57328300
_cell_length_b   6.94829809
_cell_length_c   8.39741678
_cell_angle_alpha   89.78252933
_cell_angle_beta   90.00000000
_cell_angle_gamma   90.00000000
_symmetry_Int_Tables_number   1
_chemical_formula_structural   Zr4Ta4SiP3
_chemical_formula_sum   'Zr4 Ta4 Si1 P3'
_cell_volume   208.49153905
_cell_formula_units_Z   1
loop_
 _symmetry_equiv_pos_site_id
 _symmetry_equiv_pos_as_xyz
  1  'x, y, z'
loop_
 _atom_site_type_symbol
 _atom_site_label
 _atom_site_symmetry_multiplicity
 _atom_site_fract_x
 _atom_site_fract_y
 _atom_site_fract_z
 _atom_site_occupancy
  Zr  Zr0  1  0.250000  0.033497  0.668523  1
  Zr  Zr1  1  0.250000  0.531682  0.830019  1
  Zr  Zr2  1  0.750000  0.468969  0.165878  1
  Zr  Zr3  1  0.750000  0.963609  0.331414  1
  Ta  Ta4  1  0.750000  0.858761  0.939708  1
  Ta  Ta5  1  0.250000  0.640561  0.440892  1
  Ta  Ta6  1  0.750000  0.364696  0.563769  1
  Ta  Ta7  1  0.250000  0.137004  0.057426  1
  Si  Si8  1  0.250000  0.262587  0.358364  1
  P  P9  1  0.250000  0.764093  0.143570  1
  P  P10  1  0.750000  0.739139  0.642802  1
  P  P11  1  0.750000  0.235402  0.857635  1
