# generated using pymatgen
data_LiFePbF6
_symmetry_space_group_name_H-M   'P 1'
_cell_length_a   9.03273700
_cell_length_b   5.37961589
_cell_length_c   10.53340515
_cell_angle_alpha   88.36718349
_cell_angle_beta   90.00000000
_cell_angle_gamma   90.00000000
_symmetry_Int_Tables_number   1
_chemical_formula_structural   LiFePbF6
_chemical_formula_sum   'Li4 Fe4 Pb4 F24'
_cell_volume   511.63829656
_cell_formula_units_Z   4
loop_
 _symmetry_equiv_pos_site_id
 _symmetry_equiv_pos_as_xyz
  1  'x, y, z'
loop_
 _atom_site_type_symbol
 _atom_site_label
 _atom_site_symmetry_multiplicity
 _atom_site_fract_x
 _atom_site_fract_y
 _atom_site_fract_z
 _atom_site_occupancy
  Li  Li0  1  0.080828  0.714499  0.743394  1
  Li  Li1  1  0.580828  0.285501  0.756606  1
  Li  Li2  1  0.919172  0.285501  0.256606  1
  Li  Li3  1  0.419172  0.714499  0.243394  1
  Fe  Fe4  1  0.915972  0.217819  0.742145  1
  Fe  Fe5  1  0.415972  0.782181  0.757855  1
  Fe  Fe6  1  0.584028  0.217819  0.242145  1
  Fe  Fe7  1  0.084028  0.782181  0.257855  1
  Pb  Pb8  1  0.718735  0.753918  0.496842  1
  Pb  Pb9  1  0.218735  0.246082  0.003158  1
  Pb  Pb10  1  0.781265  0.753918  0.996842  1
  Pb  Pb11  1  0.281265  0.246082  0.503158  1
  F  F12  1  0.264951  0.612399  0.859163  1
  F  F13  1  0.254918  0.880700  0.150539  1
  F  F14  1  0.089192  0.082765  0.358510  1
  F  F15  1  0.745082  0.119300  0.849461  1
  F  F16  1  0.949272  0.500737  0.853693  1
  F  F17  1  0.422342  0.376962  0.144929  1
  F  F18  1  0.922342  0.623038  0.355071  1
  F  F19  1  0.077658  0.376962  0.644929  1
  F  F20  1  0.050728  0.499263  0.146307  1
  F  F21  1  0.041859  0.012139  0.855622  1
  F  F22  1  0.410808  0.082765  0.858510  1
  F  F23  1  0.754918  0.119300  0.349461  1
  F  F24  1  0.910808  0.917235  0.641490  1
  F  F25  1  0.458141  0.012139  0.355622  1
  F  F26  1  0.577658  0.623038  0.855071  1
  F  F27  1  0.958141  0.987861  0.144378  1
  F  F28  1  0.764951  0.387601  0.640837  1
  F  F29  1  0.589192  0.917235  0.141490  1
  F  F30  1  0.541859  0.987861  0.644378  1
  F  F31  1  0.550728  0.500737  0.353693  1
  F  F32  1  0.235049  0.612399  0.359163  1
  F  F33  1  0.449272  0.499263  0.646307  1
  F  F34  1  0.245082  0.880700  0.650539  1
  F  F35  1  0.735049  0.387601  0.140837  1
