# generated using pymatgen
data_KNi9As2P3
_symmetry_space_group_name_H-M   'P 1'
_cell_length_a   6.62934200
_cell_length_b   6.63956555
_cell_length_c   11.05329300
_cell_angle_alpha   90.00000000
_cell_angle_beta   90.00000000
_cell_angle_gamma   119.95315119
_symmetry_Int_Tables_number   1
_chemical_formula_structural   KNi9As2P3
_chemical_formula_sum   'K2 Ni18 As4 P6'
_cell_volume   421.53848451
_cell_formula_units_Z   2
loop_
 _symmetry_equiv_pos_site_id
 _symmetry_equiv_pos_as_xyz
  1  'x, y, z'
loop_
 _atom_site_type_symbol
 _atom_site_label
 _atom_site_symmetry_multiplicity
 _atom_site_fract_x
 _atom_site_fract_y
 _atom_site_fract_z
 _atom_site_occupancy
  K  K0  1  0.000000  0.000000  0.000000  1
  K  K1  1  0.000000  0.000000  0.500000  1
  Ni  Ni2  1  0.537891  0.462069  0.114027  1
  Ni  Ni3  1  0.075731  0.537859  0.614038  1
  Ni  Ni4  1  0.462065  0.924060  0.614130  1
  Ni  Ni5  1  0.537935  0.075940  0.114130  1
  Ni  Ni6  1  0.924269  0.462141  0.114038  1
  Ni  Ni7  1  0.075731  0.537859  0.885962  1
  Ni  Ni8  1  0.462065  0.924060  0.885870  1
  Ni  Ni9  1  0.462109  0.537931  0.614027  1
  Ni  Ni10  1  0.462109  0.537931  0.885973  1
  Ni  Ni11  1  0.537891  0.462069  0.385973  1
  Ni  Ni12  1  0.924269  0.462141  0.385962  1
  Ni  Ni13  1  0.537935  0.075940  0.385870  1
  Ni  Ni14  1  0.199881  0.800153  0.250000  1
  Ni  Ni15  1  0.399619  0.199860  0.750000  1
  Ni  Ni16  1  0.800039  0.600170  0.750000  1
  Ni  Ni17  1  0.199961  0.399830  0.250000  1
  Ni  Ni18  1  0.600381  0.800140  0.250000  1
  Ni  Ni19  1  0.800119  0.199847  0.750000  1
  As  As20  1  0.333475  0.666740  0.062076  1
  As  As21  1  0.666525  0.333260  0.562076  1
  As  As22  1  0.666525  0.333260  0.937924  1
  As  As23  1  0.333475  0.666740  0.437924  1
  P  P24  1  0.826782  0.173160  0.250000  1
  P  P25  1  0.653710  0.826896  0.750000  1
  P  P26  1  0.173179  0.346388  0.750000  1
  P  P27  1  0.826821  0.653612  0.250000  1
  P  P28  1  0.346290  0.173104  0.250000  1
  P  P29  1  0.173218  0.826840  0.750000  1
