# generated using pymatgen
data_Li12Sm12Te7OsO48
_symmetry_space_group_name_H-M   'P 1'
_cell_length_a   10.89131590
_cell_length_b   10.88014902
_cell_length_c   10.89131600
_cell_angle_alpha   109.45044750
_cell_angle_beta   109.49198086
_cell_angle_gamma   109.45045222
_symmetry_Int_Tables_number   1
_chemical_formula_structural   Li12Sm12Te7OsO48
_chemical_formula_sum   'Li12 Sm12 Te7 Os1 O48'
_cell_volume   993.76785080
_cell_formula_units_Z   1
loop_
 _symmetry_equiv_pos_site_id
 _symmetry_equiv_pos_as_xyz
  1  'x, y, z'
loop_
 _atom_site_type_symbol
 _atom_site_label
 _atom_site_symmetry_multiplicity
 _atom_site_fract_x
 _atom_site_fract_y
 _atom_site_fract_z
 _atom_site_occupancy
  Li  Li0  1  0.751744  0.377388  0.125820  1
  Li  Li1  1  0.875228  0.750568  0.125347  1
  Li  Li2  1  0.125398  0.373741  0.248171  1
  Li  Li3  1  0.625936  0.875430  0.250647  1
  Li  Li4  1  0.622784  0.247512  0.373786  1
  Li  Li5  1  0.249850  0.125664  0.375766  1
  Li  Li6  1  0.750150  0.874336  0.624234  1
  Li  Li7  1  0.377216  0.752488  0.626215  1
  Li  Li8  1  0.374064  0.124569  0.749353  1
  Li  Li9  1  0.874602  0.626259  0.751829  1
  Li  Li10  1  0.248256  0.622612  0.874179  1
  Li  Li11  1  0.124772  0.249433  0.874653  1
  Sm  Sm12  1  0.250124  0.874921  0.125655  1
  Sm  Sm13  1  0.374844  0.250007  0.124764  1
  Sm  Sm14  1  0.375684  0.625354  0.250434  1
  Sm  Sm15  1  0.875496  0.128257  0.251274  1
  Sm  Sm16  1  0.751094  0.623342  0.373334  1
  Sm  Sm17  1  0.121808  0.746078  0.373816  1
  Sm  Sm18  1  0.878191  0.253922  0.626184  1
  Sm  Sm19  1  0.248906  0.376659  0.626666  1
  Sm  Sm20  1  0.124504  0.871743  0.748727  1
  Sm  Sm21  1  0.624317  0.374646  0.749566  1
  Sm  Sm22  1  0.749877  0.125079  0.874345  1
  Sm  Sm23  1  0.625156  0.749993  0.875236  1
  Te  Te24  1  0.000000  0.000000  0.000000  1
  Te  Te25  1  0.500000  0.000000  0.000000  1
  Te  Te26  1  0.000000  0.500000  0.000000  1
  Te  Te27  1  0.500000  0.500000  0.000000  1
  Te  Te28  1  0.000000  0.000000  0.500000  1
  Te  Te29  1  0.500000  0.500000  0.500000  1
  Te  Te30  1  0.500000  0.000000  0.500000  1
  Os  Os31  1  0.000000  0.500000  0.500000  1
  O  O32  1  0.196019  0.618361  0.025110  1
  O  O33  1  0.328359  0.406477  0.024288  1
  O  O34  1  0.695705  0.172285  0.078105  1
  O  O35  1  0.881860  0.907561  0.078543  1
  O  O36  1  0.619537  0.923654  0.094542  1
  O  O37  1  0.975201  0.171668  0.093580  1
  O  O38  1  0.024660  0.695997  0.118464  1
  O  O39  1  0.592230  0.420501  0.116772  1
  O  O40  1  0.195526  0.077711  0.171351  1
  O  O41  1  0.474919  0.093154  0.170906  1
  O  O42  1  0.117934  0.523562  0.195429  1
  O  O43  1  0.578394  0.671208  0.196193  1
  O  O44  1  0.475943  0.882094  0.304225  1
  O  O45  1  0.328731  0.421699  0.303651  1
  O  O46  1  0.908222  0.531478  0.328718  1
  O  O47  1  0.922612  0.805351  0.328115  1
  O  O48  1  0.304530  0.975951  0.381716  1
  O  O49  1  0.578640  0.406141  0.382586  1
  O  O50  1  0.829307  0.026356  0.406745  1
  O  O51  1  0.079521  0.386928  0.408358  1
  O  O52  1  0.829046  0.307051  0.421099  1
  O  O53  1  0.093653  0.119992  0.423273  1
  O  O54  1  0.380983  0.803293  0.474722  1
  O  O55  1  0.593449  0.670794  0.475135  1
  O  O56  1  0.619016  0.196707  0.525277  1
  O  O57  1  0.406551  0.329205  0.524866  1
  O  O58  1  0.170953  0.692949  0.578899  1
  O  O59  1  0.906347  0.880008  0.576728  1
  O  O60  1  0.170693  0.973644  0.593254  1
  O  O61  1  0.920478  0.613071  0.591643  1
  O  O62  1  0.421361  0.593859  0.617414  1
  O  O63  1  0.695470  0.024049  0.618283  1
  O  O64  1  0.077388  0.194648  0.671884  1
  O  O65  1  0.091778  0.468522  0.671282  1
  O  O66  1  0.671268  0.578302  0.696349  1
  O  O67  1  0.524057  0.117907  0.695775  1
  O  O68  1  0.882066  0.476439  0.804570  1
  O  O69  1  0.421607  0.328792  0.803807  1
  O  O70  1  0.804474  0.922288  0.828648  1
  O  O71  1  0.525082  0.906846  0.829094  1
  O  O72  1  0.975340  0.304003  0.881535  1
  O  O73  1  0.407771  0.579500  0.883229  1
  O  O74  1  0.380462  0.076346  0.905458  1
  O  O75  1  0.024799  0.828333  0.906421  1
  O  O76  1  0.118139  0.092440  0.921456  1
  O  O77  1  0.304295  0.827714  0.921895  1
  O  O78  1  0.803980  0.381639  0.974890  1
  O  O79  1  0.671641  0.593524  0.975712  1
