# generated using pymatgen
data_LaHo2Be2Co9B4
_symmetry_space_group_name_H-M   'P 1'
_cell_length_a   5.04242000
_cell_length_b   5.04232552
_cell_length_c   9.37922600
_cell_angle_alpha   90.00004428
_cell_angle_beta   90.00024020
_cell_angle_gamma   119.99229498
_symmetry_Int_Tables_number   1
_chemical_formula_structural   LaHo2Be2Co9B4
_chemical_formula_sum   'La1 Ho2 Be2 Co9 B4'
_cell_volume   206.53860615
_cell_formula_units_Z   1
loop_
 _symmetry_equiv_pos_site_id
 _symmetry_equiv_pos_as_xyz
  1  'x, y, z'
loop_
 _atom_site_type_symbol
 _atom_site_label
 _atom_site_symmetry_multiplicity
 _atom_site_fract_x
 _atom_site_fract_y
 _atom_site_fract_z
 _atom_site_occupancy
  La  La0  1  0.999992  0.999984  0.000070  1
  Ho  Ho1  1  0.999996  0.000003  0.339443  1
  Ho  Ho2  1  0.999996  0.000001  0.660423  1
  Be  Be3  1  0.333382  0.666570  0.000133  1
  Be  Be4  1  0.666614  0.333428  0.000134  1
  Co  Co5  1  0.499996  0.000004  0.499895  1
  Co  Co6  1  0.499995  0.500000  0.499922  1
  Co  Co7  1  0.999992  0.500000  0.499917  1
  Co  Co8  1  0.499989  0.000000  0.194650  1
  Co  Co9  1  0.499992  0.500000  0.194623  1
  Co  Co10  1  0.999998  0.500003  0.194631  1
  Co  Co11  1  0.499998  0.000000  0.805421  1
  Co  Co12  1  0.499996  0.500003  0.805411  1
  Co  Co13  1  0.999992  0.499999  0.805424  1
  B  B14  1  0.333317  0.666630  0.344559  1
  B  B15  1  0.666669  0.333375  0.344561  1
  B  B16  1  0.666700  0.333289  0.655392  1
  B  B17  1  0.333283  0.666711  0.655390  1
