# generated using pymatgen
data_Hf8Co9(P4Pd)3
_symmetry_space_group_name_H-M   'P 1'
_cell_length_a   3.63307400
_cell_length_b   9.92132953
_cell_length_c   12.54755249
_cell_angle_alpha   89.89160541
_cell_angle_beta   90.00000000
_cell_angle_gamma   90.00000000
_symmetry_Int_Tables_number   1
_chemical_formula_structural   Hf8Co9(P4Pd)3
_chemical_formula_sum   'Hf8 Co9 P12 Pd3'
_cell_volume   452.27477139
_cell_formula_units_Z   1
loop_
 _symmetry_equiv_pos_site_id
 _symmetry_equiv_pos_as_xyz
  1  'x, y, z'
loop_
 _atom_site_type_symbol
 _atom_site_label
 _atom_site_symmetry_multiplicity
 _atom_site_fract_x
 _atom_site_fract_y
 _atom_site_fract_z
 _atom_site_occupancy
  Hf  Hf0  1  0.250000  0.340160  0.998296  1
  Hf  Hf1  1  0.250000  0.161183  0.497338  1
  Hf  Hf2  1  0.750000  0.658791  0.002704  1
  Hf  Hf3  1  0.750000  0.837159  0.504125  1
  Hf  Hf4  1  0.250000  0.425249  0.714350  1
  Hf  Hf5  1  0.250000  0.080065  0.223799  1
  Hf  Hf6  1  0.750000  0.576530  0.281512  1
  Hf  Hf7  1  0.750000  0.921276  0.776016  1
  Co  Co8  1  0.750000  0.400009  0.526872  1
  Co  Co9  1  0.250000  0.134753  0.709249  1
  Co  Co10  1  0.250000  0.370543  0.219486  1
  Co  Co11  1  0.750000  0.868411  0.286874  1
  Co  Co12  1  0.750000  0.628662  0.783654  1
  Co  Co13  1  0.250000  0.774375  0.166327  1
  Co  Co14  1  0.250000  0.724047  0.665628  1
  Co  Co15  1  0.750000  0.227931  0.829495  1
  Co  Co16  1  0.750000  0.274503  0.338408  1
  P  P17  1  0.250000  0.113691  0.880937  1
  P  P18  1  0.250000  0.387035  0.393865  1
  P  P19  1  0.750000  0.888102  0.116127  1
  P  P20  1  0.750000  0.599999  0.612300  1
  P  P21  1  0.250000  0.720264  0.846461  1
  P  P22  1  0.250000  0.775746  0.348916  1
  P  P23  1  0.750000  0.280569  0.155079  1
  P  P24  1  0.750000  0.236067  0.647396  1
  P  P25  1  0.250000  0.555628  0.126000  1
  P  P26  1  0.250000  0.943629  0.623013  1
  P  P27  1  0.750000  0.443379  0.875157  1
  P  P28  1  0.750000  0.054775  0.377698  1
  Pd  Pd29  1  0.250000  0.902424  0.967248  1
  Pd  Pd30  1  0.250000  0.595289  0.474175  1
  Pd  Pd31  1  0.750000  0.099757  0.031495  1
