# generated using pymatgen
data_Ti4B4As2Ru9Rh
_symmetry_space_group_name_H-M   'P 1'
_cell_length_a   2.99481900
_cell_length_b   9.21440941
_cell_length_c   9.23294740
_cell_angle_alpha   89.96609582
_cell_angle_beta   90.00000000
_cell_angle_gamma   90.00000000
_symmetry_Int_Tables_number   1
_chemical_formula_structural   Ti4B4As2Ru9Rh
_chemical_formula_sum   'Ti4 B4 As2 Ru9 Rh1'
_cell_volume   254.78764796
_cell_formula_units_Z   1
loop_
 _symmetry_equiv_pos_site_id
 _symmetry_equiv_pos_as_xyz
  1  'x, y, z'
loop_
 _atom_site_type_symbol
 _atom_site_label
 _atom_site_symmetry_multiplicity
 _atom_site_fract_x
 _atom_site_fract_y
 _atom_site_fract_z
 _atom_site_occupancy
  Ti  Ti0  1  0.000000  0.828702  0.179943  1
  Ti  Ti1  1  0.000000  0.324845  0.325540  1
  Ti  Ti2  1  0.000000  0.674998  0.669019  1
  Ti  Ti3  1  0.000000  0.175146  0.825543  1
  B  B4  1  0.000000  0.123116  0.125297  1
  B  B5  1  0.000000  0.623981  0.375473  1
  B  B6  1  0.000000  0.375234  0.623802  1
  B  B7  1  0.000000  0.878890  0.874451  1
  As  As8  1  0.000000  0.495393  0.001181  1
  As  As9  1  0.000000  0.000257  0.499846  1
  Ru  Ru10  1  0.500000  0.998497  0.000712  1
  Ru  Ru11  1  0.500000  0.286774  0.072479  1
  Ru  Ru12  1  0.500000  0.574940  0.209587  1
  Ru  Ru13  1  0.500000  0.072596  0.288773  1
  Ru  Ru14  1  0.500000  0.788198  0.427929  1
  Ru  Ru15  1  0.500000  0.499473  0.498995  1
  Ru  Ru16  1  0.500000  0.211207  0.574285  1
  Ru  Ru17  1  0.500000  0.925341  0.712063  1
  Ru  Ru18  1  0.500000  0.429786  0.788597  1
  Rh  Rh19  1  0.500000  0.712634  0.926494  1
