# generated using pymatgen
data_Nd3U5(ReB6)4
_symmetry_space_group_name_H-M   'P 1'
_cell_length_a   3.68031300
_cell_length_b   9.37225572
_cell_length_c   11.48711208
_cell_angle_alpha   90.07628395
_cell_angle_beta   90.00000000
_cell_angle_gamma   90.00000000
_symmetry_Int_Tables_number   1
_chemical_formula_structural   Nd3U5(ReB6)4
_chemical_formula_sum   'Nd3 U5 Re4 B24'
_cell_volume   396.22270525
_cell_formula_units_Z   1
loop_
 _symmetry_equiv_pos_site_id
 _symmetry_equiv_pos_as_xyz
  1  'x, y, z'
loop_
 _atom_site_type_symbol
 _atom_site_label
 _atom_site_symmetry_multiplicity
 _atom_site_fract_x
 _atom_site_fract_y
 _atom_site_fract_z
 _atom_site_occupancy
  Nd  Nd0  1  0.000000  0.337058  0.408136  1
  Nd  Nd1  1  0.000000  0.662808  0.592116  1
  Nd  Nd2  1  0.000000  0.836317  0.092076  1
  U  U3  1  0.000000  0.163305  0.907518  1
  U  U4  1  0.000000  0.957041  0.397004  1
  U  U5  1  0.000000  0.042143  0.603658  1
  U  U6  1  0.000000  0.457481  0.103077  1
  U  U7  1  0.000000  0.541897  0.897131  1
  Re  Re8  1  0.000000  0.647577  0.317370  1
  Re  Re9  1  0.000000  0.349034  0.686589  1
  Re  Re10  1  0.000000  0.148371  0.177811  1
  Re  Re11  1  0.000000  0.857958  0.818813  1
  B  B12  1  0.500000  0.555006  0.428535  1
  B  B13  1  0.500000  0.443530  0.573091  1
  B  B14  1  0.500000  0.055918  0.067680  1
  B  B15  1  0.500000  0.950383  0.928933  1
  B  B16  1  0.500000  0.745468  0.421427  1
  B  B17  1  0.500000  0.253932  0.579591  1
  B  B18  1  0.500000  0.244060  0.075849  1
  B  B19  1  0.500000  0.755511  0.921067  1
  B  B20  1  0.500000  0.802744  0.275015  1
  B  B21  1  0.500000  0.195022  0.727713  1
  B  B22  1  0.500000  0.302525  0.223750  1
  B  B23  1  0.500000  0.698472  0.775574  1
  B  B24  1  0.500000  0.643537  0.187828  1
  B  B25  1  0.500000  0.352982  0.813477  1
  B  B26  1  0.500000  0.144303  0.310895  1
  B  B27  1  0.500000  0.856711  0.688710  1
  B  B28  1  0.500000  0.992595  0.219924  1
  B  B29  1  0.500000  0.012545  0.781147  1
  B  B30  1  0.500000  0.491502  0.278963  1
  B  B31  1  0.500000  0.507502  0.721722  1
  B  B32  1  0.500000  0.637153  0.036944  1
  B  B33  1  0.500000  0.357229  0.960888  1
  B  B34  1  0.500000  0.136453  0.462273  1
  B  B35  1  0.500000  0.863926  0.537708  1
