# generated using pymatgen
data_Er7Tm13Rh12
_symmetry_space_group_name_H-M   'P 1'
_cell_length_a   10.83853901
_cell_length_b   10.83746628
_cell_length_c   6.31825500
_cell_angle_alpha   90.01264608
_cell_angle_beta   90.00289689
_cell_angle_gamma   89.99712862
_symmetry_Int_Tables_number   1
_chemical_formula_structural   Er7Tm13Rh12
_chemical_formula_sum   'Er7 Tm13 Rh12'
_cell_volume   742.15675103
_cell_formula_units_Z   1
loop_
 _symmetry_equiv_pos_site_id
 _symmetry_equiv_pos_as_xyz
  1  'x, y, z'
loop_
 _atom_site_type_symbol
 _atom_site_label
 _atom_site_symmetry_multiplicity
 _atom_site_fract_x
 _atom_site_fract_y
 _atom_site_fract_z
 _atom_site_occupancy
  Er  Er0  1  0.290694  0.089931  0.377334  1
  Er  Er1  1  0.290591  0.911013  0.877358  1
  Er  Er2  1  0.709182  0.089668  0.877401  1
  Er  Er3  1  0.709208  0.910761  0.377480  1
  Er  Er4  1  0.589312  0.790683  0.877346  1
  Er  Er5  1  0.589093  0.209621  0.377280  1
  Er  Er6  1  0.410507  0.790881  0.377290  1
  Tm  Tm7  1  0.410825  0.208788  0.878073  1
  Tm  Tm8  1  0.208826  0.412225  0.620965  1
  Tm  Tm9  1  0.208323  0.587124  0.120964  1
  Tm  Tm10  1  0.791636  0.412832  0.120347  1
  Tm  Tm11  1  0.791711  0.587144  0.620621  1
  Tm  Tm12  1  0.912843  0.708288  0.120782  1
  Tm  Tm13  1  0.912994  0.291731  0.620741  1
  Tm  Tm14  1  0.087359  0.708120  0.620569  1
  Tm  Tm15  1  0.087092  0.291751  0.120459  1
  Tm  Tm16  1  0.000152  0.000073  0.502705  1
  Tm  Tm17  1  0.999856  0.000123  0.002680  1
  Tm  Tm18  1  0.499761  0.499669  0.002296  1
  Tm  Tm19  1  0.499924  0.500104  0.502384  1
  Rh  Rh20  1  0.848381  0.155337  0.251084  1
  Rh  Rh21  1  0.848340  0.844599  0.750717  1
  Rh  Rh22  1  0.152640  0.155223  0.751668  1
  Rh  Rh23  1  0.151691  0.844727  0.250870  1
  Rh  Rh24  1  0.654311  0.347759  0.751377  1
  Rh  Rh25  1  0.655176  0.651693  0.250974  1
  Rh  Rh26  1  0.344958  0.347673  0.248867  1
  Rh  Rh27  1  0.344785  0.651697  0.750797  1
  Rh  Rh28  1  0.499804  0.000527  0.122966  1
  Rh  Rh29  1  0.499748  0.000503  0.623254  1
  Rh  Rh30  1  0.000154  0.499950  0.876038  1
  Rh  Rh31  1  0.000121  0.499784  0.376312  1
