# generated using pymatgen
data_Ba2PrSc3O8
_symmetry_space_group_name_H-M   'P 1'
_cell_length_a   4.12239400
_cell_length_b   24.87239900
_cell_length_c   4.12242100
_cell_angle_alpha   90.00006734
_cell_angle_beta   89.99988881
_cell_angle_gamma   90.00026814
_symmetry_Int_Tables_number   1
_chemical_formula_structural   Ba2PrSc3O8
_chemical_formula_sum   'Ba4 Pr2 Sc6 O16'
_cell_volume   422.68760742
_cell_formula_units_Z   2
loop_
 _symmetry_equiv_pos_site_id
 _symmetry_equiv_pos_as_xyz
  1  'x, y, z'
loop_
 _atom_site_type_symbol
 _atom_site_label
 _atom_site_symmetry_multiplicity
 _atom_site_fract_x
 _atom_site_fract_y
 _atom_site_fract_z
 _atom_site_occupancy
  Ba  Ba0  1  0.500008  0.077421  0.500006  1
  Ba  Ba1  1  0.500004  0.577424  0.500006  1
  Ba  Ba2  1  0.500003  0.422586  0.500003  1
  Ba  Ba3  1  0.499999  0.922583  0.500014  1
  Pr  Pr4  1  0.500005  0.250000  0.499990  1
  Pr  Pr5  1  0.499996  0.750000  0.500010  1
  Sc  Sc6  1  0.000028  0.499989  0.999973  1
  Sc  Sc7  1  0.000011  0.668265  0.000010  1
  Sc  Sc8  1  0.999987  0.331733  0.999996  1
  Sc  Sc9  1  0.999943  0.999991  0.999941  1
  Sc  Sc10  1  0.000041  0.168270  0.999972  1
  Sc  Sc11  1  0.999954  0.831736  0.000036  1
  O  O12  1  0.000001  0.000000  0.500011  1
  O  O13  1  0.000005  0.500005  0.500011  1
  O  O14  1  0.500006  0.000001  0.000010  1
  O  O15  1  0.499996  0.500006  0.000001  1
  O  O16  1  0.000004  0.090169  0.999999  1
  O  O17  1  0.000004  0.590169  0.000002  1
  O  O18  1  0.000004  0.409832  0.999996  1
  O  O19  1  0.999997  0.909831  0.000009  1
  O  O20  1  0.500008  0.190655  0.999989  1
  O  O21  1  0.500003  0.690655  0.000008  1
  O  O22  1  0.000002  0.190654  0.499986  1
  O  O23  1  0.999997  0.690654  0.500009  1
  O  O24  1  0.500003  0.309343  0.999996  1
  O  O25  1  0.499988  0.809342  0.000008  1
  O  O26  1  0.000005  0.309343  0.499995  1
  O  O27  1  0.999993  0.809342  0.500013  1
