# generated using pymatgen
data_Sr10Hg2Pd3Au
_symmetry_space_group_name_H-M   'P 1'
_cell_length_a   9.83590753
_cell_length_b   9.83590773
_cell_length_c   9.83273600
_cell_angle_alpha   129.19852744
_cell_angle_beta   129.19852838
_cell_angle_gamma   74.71557067
_symmetry_Int_Tables_number   1
_chemical_formula_structural   Sr10Hg2Pd3Au
_chemical_formula_sum   'Sr10 Hg2 Pd3 Au1'
_cell_volume   556.49539240
_cell_formula_units_Z   1
loop_
 _symmetry_equiv_pos_site_id
 _symmetry_equiv_pos_as_xyz
  1  'x, y, z'
loop_
 _atom_site_type_symbol
 _atom_site_label
 _atom_site_symmetry_multiplicity
 _atom_site_fract_x
 _atom_site_fract_y
 _atom_site_fract_z
 _atom_site_occupancy
  Sr  Sr0  1  0.533403  0.037026  0.840163  1
  Sr  Sr1  1  0.193238  0.696861  0.159837  1
  Sr  Sr2  1  0.033135  0.198281  0.500000  1
  Sr  Sr3  1  0.701685  0.528145  0.500000  1
  Sr  Sr4  1  0.462974  0.966597  0.159837  1
  Sr  Sr5  1  0.803139  0.306762  0.840163  1
  Sr  Sr6  1  0.971855  0.798315  0.500000  1
  Sr  Sr7  1  0.301719  0.466865  0.500000  1
  Sr  Sr8  1  0.498270  0.497414  0.995685  1
  Sr  Sr9  1  0.002586  0.001730  0.004315  1
  Hg  Hg10  1  0.249337  0.250663  0.000000  1
  Hg  Hg11  1  0.749337  0.750663  0.000000  1
  Pd  Pd12  1  0.375303  0.124697  0.500000  1
  Pd  Pd13  1  0.124200  0.624978  0.749177  1
  Pd  Pd14  1  0.875022  0.375800  0.250823  1
  Au  Au15  1  0.624796  0.875204  0.500000  1
