# generated using pymatgen
data_HoEr7Si12Ir3Pd
_symmetry_space_group_name_H-M   'P 1'
_cell_length_a   8.14322000
_cell_length_b   8.14320920
_cell_length_c   7.84482200
_cell_angle_alpha   90.00002111
_cell_angle_beta   90.00001407
_cell_angle_gamma   119.99993013
_symmetry_Int_Tables_number   1
_chemical_formula_structural   HoEr7Si12Ir3Pd
_chemical_formula_sum   'Ho1 Er7 Si12 Ir3 Pd1'
_cell_volume   450.51140641
_cell_formula_units_Z   1
loop_
 _symmetry_equiv_pos_site_id
 _symmetry_equiv_pos_as_xyz
  1  'x, y, z'
loop_
 _atom_site_type_symbol
 _atom_site_label
 _atom_site_symmetry_multiplicity
 _atom_site_fract_x
 _atom_site_fract_y
 _atom_site_fract_z
 _atom_site_occupancy
  Ho  Ho0  1  0.000001  0.000000  0.750757  1
  Er  Er1  1  0.512838  0.025677  0.246968  1
  Er  Er2  1  0.490482  0.980965  0.752225  1
  Er  Er3  1  0.974323  0.487161  0.246967  1
  Er  Er4  1  0.019034  0.509517  0.752225  1
  Er  Er5  1  0.512838  0.487161  0.246967  1
  Er  Er6  1  0.490483  0.509518  0.752226  1
  Er  Er7  1  0.000001  0.999999  0.251721  1
  Si  Si8  1  0.166761  0.333521  0.004167  1
  Si  Si9  1  0.833653  0.667306  0.997001  1
  Si  Si10  1  0.666479  0.833239  0.004167  1
  Si  Si11  1  0.832593  0.665187  0.501353  1
  Si  Si12  1  0.332695  0.166348  0.997001  1
  Si  Si13  1  0.164767  0.329536  0.500186  1
  Si  Si14  1  0.166761  0.833240  0.004167  1
  Si  Si15  1  0.334814  0.167407  0.501353  1
  Si  Si16  1  0.833653  0.166347  0.997001  1
  Si  Si17  1  0.670464  0.835233  0.500186  1
  Si  Si18  1  0.832593  0.167407  0.501353  1
  Si  Si19  1  0.164767  0.835233  0.500186  1
  Ir  Ir20  1  0.333334  0.666667  0.032179  1
  Ir  Ir21  1  0.666667  0.333334  0.962129  1
  Ir  Ir22  1  0.666666  0.333333  0.540782  1
  Pd  Pd23  1  0.333333  0.666667  0.456737  1
