# generated using pymatgen
data_K5LiTi2O7
_symmetry_space_group_name_H-M   'P 1'
_cell_length_a   6.37082297
_cell_length_b   16.19789700
_cell_length_c   10.80842400
_cell_angle_alpha   90.00000000
_cell_angle_beta   109.55701191
_cell_angle_gamma   90.00000000
_symmetry_Int_Tables_number   1
_chemical_formula_structural   K5LiTi2O7
_chemical_formula_sum   'K20 Li4 Ti8 O28'
_cell_volume   1051.01719919
_cell_formula_units_Z   4
loop_
 _symmetry_equiv_pos_site_id
 _symmetry_equiv_pos_as_xyz
  1  'x, y, z'
loop_
 _atom_site_type_symbol
 _atom_site_label
 _atom_site_symmetry_multiplicity
 _atom_site_fract_x
 _atom_site_fract_y
 _atom_site_fract_z
 _atom_site_occupancy
  K  K0  1  0.259595  0.557353  0.077865  1
  K  K1  1  0.753306  0.066804  0.085515  1
  K  K2  1  0.300604  0.165735  0.089091  1
  K  K3  1  0.780692  0.654065  0.106788  1
  K  K4  1  0.233277  0.370697  0.236690  1
  K  K5  1  0.766733  0.870706  0.263314  1
  K  K6  1  0.219298  0.154062  0.393220  1
  K  K7  1  0.699395  0.665744  0.410907  1
  K  K8  1  0.246724  0.566801  0.414485  1
  K  K9  1  0.740402  0.057351  0.422134  1
  K  K10  1  0.259597  0.942650  0.577875  1
  K  K11  1  0.753280  0.433197  0.585515  1
  K  K12  1  0.300601  0.334267  0.589089  1
  K  K13  1  0.780690  0.845928  0.606786  1
  K  K14  1  0.233293  0.129296  0.736697  1
  K  K15  1  0.766706  0.629299  0.763304  1
  K  K16  1  0.219318  0.345944  0.893223  1
  K  K17  1  0.699383  0.834269  0.910916  1
  K  K18  1  0.246710  0.933199  0.914492  1
  K  K19  1  0.740381  0.442651  0.922126  1
  Li  Li20  1  0.699238  0.279972  0.102341  1
  Li  Li21  1  0.300783  0.779981  0.397636  1
  Li  Li22  1  0.699234  0.220032  0.602354  1
  Li  Li23  1  0.300748  0.720026  0.897627  1
  Ti  Ti24  1  0.226654  0.766477  0.112318  1
  Ti  Ti25  1  0.743237  0.446963  0.248189  1
  Ti  Ti26  1  0.256803  0.946974  0.251844  1
  Ti  Ti27  1  0.773295  0.266474  0.387672  1
  Ti  Ti28  1  0.226714  0.733510  0.612323  1
  Ti  Ti29  1  0.743242  0.053043  0.748181  1
  Ti  Ti30  1  0.256743  0.553042  0.751812  1
  Ti  Ti31  1  0.773326  0.233524  0.887684  1
  O  O32  1  0.958894  0.286257  0.030439  1
  O  O33  1  0.479398  0.779586  0.071027  1
  O  O34  1  0.551906  0.387855  0.114133  1
  O  O35  1  0.084480  0.869669  0.122827  1
  O  O36  1  0.413517  0.011799  0.176963  1
  O  O37  1  0.934066  0.504330  0.187296  1
  O  O38  1  0.733984  0.201475  0.245619  1
  O  O39  1  0.266008  0.701485  0.254375  1
  O  O40  1  0.065909  0.004337  0.312728  1
  O  O41  1  0.586509  0.511793  0.323041  1
  O  O42  1  0.915501  0.369652  0.377207  1
  O  O43  1  0.448115  0.887861  0.385907  1
  O  O44  1  0.520568  0.279578  0.428970  1
  O  O45  1  0.041143  0.786237  0.469543  1
  O  O46  1  0.958877  0.213750  0.530436  1
  O  O47  1  0.479447  0.720413  0.571013  1
  O  O48  1  0.551905  0.112146  0.614115  1
  O  O49  1  0.084473  0.630325  0.622767  1
  O  O50  1  0.413434  0.488207  0.676941  1
  O  O51  1  0.934095  0.995663  0.687308  1
  O  O52  1  0.734004  0.298509  0.745653  1
  O  O53  1  0.266026  0.798501  0.754351  1
  O  O54  1  0.065892  0.495666  0.812683  1
  O  O55  1  0.586561  0.988211  0.823056  1
  O  O56  1  0.915537  0.130335  0.877206  1
  O  O57  1  0.448073  0.612148  0.885871  1
  O  O58  1  0.520585  0.220423  0.928966  1
  O  O59  1  0.041085  0.713754  0.969546  1
