# generated using pymatgen
data_Dy20Ir5Rh7
_symmetry_space_group_name_H-M   'P 1'
_cell_length_a   10.88564842
_cell_length_b   10.88564842
_cell_length_c   6.37356702
_cell_angle_alpha   89.99313362
_cell_angle_beta   89.99313362
_cell_angle_gamma   90.03109610
_symmetry_Int_Tables_number   1
_chemical_formula_structural   Dy20Ir5Rh7
_chemical_formula_sum   'Dy20 Ir5 Rh7'
_cell_volume   755.25062620
_cell_formula_units_Z   1
loop_
 _symmetry_equiv_pos_site_id
 _symmetry_equiv_pos_as_xyz
  1  'x, y, z'
loop_
 _atom_site_type_symbol
 _atom_site_label
 _atom_site_symmetry_multiplicity
 _atom_site_fract_x
 _atom_site_fract_y
 _atom_site_fract_z
 _atom_site_occupancy
  Dy  Dy0  1  0.290906  0.088722  0.378145  1
  Dy  Dy1  1  0.290797  0.909811  0.879291  1
  Dy  Dy2  1  0.708575  0.089867  0.878746  1
  Dy  Dy3  1  0.708510  0.910102  0.378326  1
  Dy  Dy4  1  0.588030  0.790207  0.879405  1
  Dy  Dy5  1  0.587896  0.209735  0.379291  1
  Dy  Dy6  1  0.410834  0.790498  0.379188  1
  Dy  Dy7  1  0.411961  0.209718  0.879239  1
  Dy  Dy8  1  0.209793  0.411970  0.620595  1
  Dy  Dy9  1  0.209502  0.589166  0.120812  1
  Dy  Dy10  1  0.790265  0.412104  0.120709  1
  Dy  Dy11  1  0.790282  0.588039  0.620761  1
  Dy  Dy12  1  0.911278  0.709094  0.121855  1
  Dy  Dy13  1  0.910133  0.291425  0.621254  1
  Dy  Dy14  1  0.090189  0.709203  0.620709  1
  Dy  Dy15  1  0.089898  0.291490  0.121674  1
  Dy  Dy16  1  0.000151  0.999775  0.500046  1
  Dy  Dy17  1  0.000225  0.999849  0.999954  1
  Dy  Dy18  1  0.499951  0.499876  0.000052  1
  Dy  Dy19  1  0.500124  0.500049  0.499948  1
  Ir  Ir20  1  0.153322  0.846678  0.250000  1
  Ir  Ir21  1  0.654560  0.345440  0.750000  1
  Ir  Ir22  1  0.654618  0.654442  0.249903  1
  Ir  Ir23  1  0.345558  0.345382  0.250097  1
  Ir  Ir24  1  0.345979  0.654021  0.750000  1
  Rh  Rh25  1  0.846704  0.153296  0.250000  1
  Rh  Rh26  1  0.846208  0.846702  0.749885  1
  Rh  Rh27  1  0.153298  0.153792  0.750115  1
  Rh  Rh28  1  0.500510  0.000220  0.123906  1
  Rh  Rh29  1  0.500373  0.000210  0.624308  1
  Rh  Rh30  1  0.999790  0.499627  0.875692  1
  Rh  Rh31  1  0.999780  0.499490  0.376094  1
