# generated using pymatgen
data_Er4Al17GaIr6
_symmetry_space_group_name_H-M   'P 1'
_cell_length_a   7.52207757
_cell_length_b   7.52207918
_cell_length_c   9.45644000
_cell_angle_alpha   90.00000000
_cell_angle_beta   90.00000000
_cell_angle_gamma   119.47127114
_symmetry_Int_Tables_number   1
_chemical_formula_structural   Er4Al17GaIr6
_chemical_formula_sum   'Er4 Al17 Ga1 Ir6'
_cell_volume   465.82552996
_cell_formula_units_Z   1
loop_
 _symmetry_equiv_pos_site_id
 _symmetry_equiv_pos_as_xyz
  1  'x, y, z'
loop_
 _atom_site_type_symbol
 _atom_site_label
 _atom_site_symmetry_multiplicity
 _atom_site_fract_x
 _atom_site_fract_y
 _atom_site_fract_z
 _atom_site_occupancy
  Er  Er0  1  0.994558  0.673395  0.250000  1
  Er  Er1  1  0.004578  0.328319  0.750000  1
  Er  Er2  1  0.673395  0.994558  0.250000  1
  Er  Er3  1  0.328319  0.004578  0.750000  1
  Al  Al4  1  0.870910  0.870910  0.750000  1
  Al  Al5  1  0.001275  0.335556  0.073854  1
  Al  Al6  1  0.998800  0.664516  0.925461  1
  Al  Al7  1  0.998800  0.664516  0.574539  1
  Al  Al8  1  0.335556  0.001275  0.426146  1
  Al  Al9  1  0.001275  0.335556  0.426146  1
  Al  Al10  1  0.664516  0.998800  0.574539  1
  Al  Al11  1  0.664516  0.998800  0.925461  1
  Al  Al12  1  0.335556  0.001275  0.073854  1
  Al  Al13  1  0.333246  0.333246  0.555223  1
  Al  Al14  1  0.666101  0.666101  0.447270  1
  Al  Al15  1  0.666101  0.666101  0.052730  1
  Al  Al16  1  0.333246  0.333246  0.944777  1
  Al  Al17  1  0.338219  0.549303  0.250000  1
  Al  Al18  1  0.661273  0.451313  0.750000  1
  Al  Al19  1  0.549303  0.338219  0.250000  1
  Al  Al20  1  0.451313  0.661273  0.750000  1
  Ga  Ga21  1  0.132449  0.132449  0.250000  1
  Ir  Ir22  1  0.671540  0.327517  0.000232  1
  Ir  Ir23  1  0.327517  0.671540  0.000232  1
  Ir  Ir24  1  0.327517  0.671540  0.499768  1
  Ir  Ir25  1  0.671540  0.327517  0.499768  1
  Ir  Ir26  1  0.999290  0.999290  0.997670  1
  Ir  Ir27  1  0.999290  0.999290  0.502330  1
