# generated using pymatgen
data_Y2Tm8Bi5Sb
_symmetry_space_group_name_H-M   'P 1'
_cell_length_a   8.13909100
_cell_length_b   9.41327100
_cell_length_c   11.86087200
_cell_angle_alpha   90.00000000
_cell_angle_beta   90.00000000
_cell_angle_gamma   90.00000000
_symmetry_Int_Tables_number   1
_chemical_formula_structural   Y2Tm8Bi5Sb
_chemical_formula_sum   'Y4 Tm16 Bi10 Sb2'
_cell_volume   908.72627431
_cell_formula_units_Z   2
loop_
 _symmetry_equiv_pos_site_id
 _symmetry_equiv_pos_as_xyz
  1  'x, y, z'
loop_
 _atom_site_type_symbol
 _atom_site_label
 _atom_site_symmetry_multiplicity
 _atom_site_fract_x
 _atom_site_fract_y
 _atom_site_fract_z
 _atom_site_occupancy
  Y  Y0  1  0.313640  0.250000  0.218027  1
  Y  Y1  1  0.813640  0.250000  0.281973  1
  Y  Y2  1  0.683724  0.750000  0.782886  1
  Y  Y3  1  0.183724  0.750000  0.717114  1
  Tm  Tm4  1  0.352998  0.750000  0.214658  1
  Tm  Tm5  1  0.852998  0.750000  0.285342  1
  Tm  Tm6  1  0.648107  0.250000  0.782253  1
  Tm  Tm7  1  0.148107  0.250000  0.717747  1
  Tm  Tm8  1  0.689217  0.568368  0.058430  1
  Tm  Tm9  1  0.189217  0.931632  0.441570  1
  Tm  Tm10  1  0.309483  0.062209  0.940709  1
  Tm  Tm11  1  0.809483  0.437791  0.559291  1
  Tm  Tm12  1  0.309483  0.437791  0.940709  1
  Tm  Tm13  1  0.809483  0.062209  0.559291  1
  Tm  Tm14  1  0.689217  0.931632  0.058430  1
  Tm  Tm15  1  0.189217  0.568368  0.441570  1
  Tm  Tm16  1  0.477644  0.250000  0.489604  1
  Tm  Tm17  1  0.977644  0.250000  0.010396  1
  Tm  Tm18  1  0.526749  0.750000  0.510996  1
  Tm  Tm19  1  0.026749  0.750000  0.989004  1
  Bi  Bi20  1  0.596770  0.250000  0.041354  1
  Bi  Bi21  1  0.096770  0.250000  0.458646  1
  Bi  Bi22  1  0.565003  0.994732  0.325846  1
  Bi  Bi23  1  0.065003  0.505268  0.174154  1
  Bi  Bi24  1  0.434473  0.495052  0.674150  1
  Bi  Bi25  1  0.934473  0.004948  0.825850  1
  Bi  Bi26  1  0.434473  0.004948  0.674150  1
  Bi  Bi27  1  0.934473  0.495052  0.825850  1
  Bi  Bi28  1  0.565003  0.505268  0.325846  1
  Bi  Bi29  1  0.065003  0.994732  0.174154  1
  Sb  Sb30  1  0.404017  0.750000  0.959312  1
  Sb  Sb31  1  0.904017  0.750000  0.540688  1
