# generated using pymatgen
data_Eu8Sc11AlSi16
_symmetry_space_group_name_H-M   'P 1'
_cell_length_a   7.27722411
_cell_length_b   7.67301461
_cell_length_c   14.62160700
_cell_angle_alpha   90.00000000
_cell_angle_beta   90.00000000
_cell_angle_gamma   89.80920849
_symmetry_Int_Tables_number   1
_chemical_formula_structural   Eu8Sc11AlSi16
_chemical_formula_sum   'Eu8 Sc11 Al1 Si16'
_cell_volume   816.44037548
_cell_formula_units_Z   1
loop_
 _symmetry_equiv_pos_site_id
 _symmetry_equiv_pos_as_xyz
  1  'x, y, z'
loop_
 _atom_site_type_symbol
 _atom_site_label
 _atom_site_symmetry_multiplicity
 _atom_site_fract_x
 _atom_site_fract_y
 _atom_site_fract_z
 _atom_site_occupancy
  Eu  Eu0  1  0.009990  0.171616  0.095506  1
  Eu  Eu1  1  0.991524  0.824124  0.901753  1
  Eu  Eu2  1  0.485243  0.670498  0.901591  1
  Eu  Eu3  1  0.991524  0.824124  0.598247  1
  Eu  Eu4  1  0.510822  0.327623  0.095205  1
  Eu  Eu5  1  0.009990  0.171616  0.404494  1
  Eu  Eu6  1  0.510822  0.327623  0.404795  1
  Eu  Eu7  1  0.485243  0.670498  0.598409  1
  Sc  Sc8  1  0.841005  0.493144  0.250000  1
  Sc  Sc9  1  0.341602  0.006807  0.250000  1
  Sc  Sc10  1  0.656869  0.996427  0.750000  1
  Sc  Sc11  1  0.323749  0.181042  0.625356  1
  Sc  Sc12  1  0.673710  0.823009  0.376145  1
  Sc  Sc13  1  0.173936  0.677767  0.376716  1
  Sc  Sc14  1  0.673710  0.823009  0.123855  1
  Sc  Sc15  1  0.829691  0.326361  0.625470  1
  Sc  Sc16  1  0.323749  0.181042  0.874644  1
  Sc  Sc17  1  0.829691  0.326361  0.874530  1
  Sc  Sc18  1  0.173936  0.677767  0.123284  1
  Al  Al19  1  0.154654  0.502765  0.750000  1
  Si  Si20  1  0.029824  0.116632  0.750000  1
  Si  Si21  1  0.968136  0.878095  0.250000  1
  Si  Si22  1  0.467801  0.624402  0.250000  1
  Si  Si23  1  0.534782  0.374757  0.750000  1
  Si  Si24  1  0.286324  0.892820  0.750000  1
  Si  Si25  1  0.719207  0.110956  0.250000  1
  Si  Si26  1  0.219446  0.388555  0.250000  1
  Si  Si27  1  0.780520  0.615109  0.750000  1
  Si  Si28  1  0.149566  0.460512  0.536784  1
  Si  Si29  1  0.851208  0.537689  0.459775  1
  Si  Si30  1  0.350839  0.962437  0.459517  1
  Si  Si31  1  0.851208  0.537689  0.040225  1
  Si  Si32  1  0.649638  0.037086  0.540395  1
  Si  Si33  1  0.149566  0.460512  0.963216  1
  Si  Si34  1  0.649638  0.037086  0.959605  1
  Si  Si35  1  0.350839  0.962437  0.040483  1
