# generated using pymatgen
data_Zr2Fe2Si4Tc
_symmetry_space_group_name_H-M   'P 1'
_cell_length_a   9.75332819
_cell_length_b   9.73927558
_cell_length_c   13.04383200
_cell_angle_alpha   53.67756868
_cell_angle_beta   53.70018823
_cell_angle_gamma   31.09490675
_symmetry_Int_Tables_number   1
_chemical_formula_structural   Zr2Fe2Si4Tc
_chemical_formula_sum   'Zr8 Fe8 Si16 Tc4'
_cell_volume   504.75562646
_cell_formula_units_Z   4
loop_
 _symmetry_equiv_pos_site_id
 _symmetry_equiv_pos_as_xyz
  1  'x, y, z'
loop_
 _atom_site_type_symbol
 _atom_site_label
 _atom_site_symmetry_multiplicity
 _atom_site_fract_x
 _atom_site_fract_y
 _atom_site_fract_z
 _atom_site_occupancy
  Zr  Zr0  1  0.291225  0.567121  0.643274  1
  Zr  Zr1  1  0.431346  0.713246  0.853977  1
  Zr  Zr2  1  0.706843  0.435307  0.357326  1
  Zr  Zr3  1  0.564956  0.293968  0.142237  1
  Zr  Zr4  1  0.039270  0.296249  0.636583  1
  Zr  Zr5  1  0.703279  0.960873  0.860807  1
  Zr  Zr6  1  0.962430  0.707437  0.358535  1
  Zr  Zr7  1  0.294817  0.038914  0.140952  1
  Fe  Fe8  1  0.651914  0.827266  0.275162  1
  Fe  Fe9  1  0.172504  0.349520  0.222427  1
  Fe  Fe10  1  0.764296  0.477090  0.067586  1
  Fe  Fe11  1  0.826740  0.646200  0.783770  1
  Fe  Fe12  1  0.900074  0.146197  0.582166  1
  Fe  Fe13  1  0.852645  0.104301  0.918518  1
  Fe  Fe14  1  0.101381  0.858943  0.414658  1
  Fe  Fe15  1  0.138539  0.898837  0.085617  1
  Si  Si16  1  0.885424  0.120671  0.245801  1
  Si  Si17  1  0.112417  0.887449  0.750701  1
  Si  Si18  1  0.382065  0.625172  0.245092  1
  Si  Si19  1  0.622301  0.376726  0.750692  1
  Si  Si20  1  0.962466  0.259759  0.898738  1
  Si  Si21  1  0.750485  0.035261  0.601935  1
  Si  Si22  1  0.031328  0.741876  0.106388  1
  Si  Si23  1  0.257819  0.969291  0.392244  1
  Si  Si24  1  0.581468  0.075884  0.068494  1
  Si  Si25  1  0.924237  0.421281  0.429083  1
  Si  Si26  1  0.431700  0.899236  0.942974  1
  Si  Si27  1  0.070504  0.588978  0.567488  1
  Si  Si28  1  0.392351  0.138145  0.390685  1
  Si  Si29  1  0.859357  0.606625  0.108189  1
  Si  Si30  1  0.610949  0.857675  0.602010  1
  Si  Si31  1  0.131649  0.389897  0.899097  1
  Tc  Tc32  1  0.240837  0.512059  0.939812  1
  Tc  Tc33  1  0.486022  0.754585  0.560011  1
  Tc  Tc34  1  0.513271  0.248305  0.433041  1
  Tc  Tc35  1  0.351090  0.169658  0.723935  1
