# generated using pymatgen
data_Er19Tm(Ga2Pb)4
_symmetry_space_group_name_H-M   'P 1'
_cell_length_a   7.82209424
_cell_length_b   7.82233428
_cell_length_c   13.76544600
_cell_angle_alpha   89.98475742
_cell_angle_beta   89.98588499
_cell_angle_gamma   90.00011344
_symmetry_Int_Tables_number   1
_chemical_formula_structural   Er19Tm(Ga2Pb)4
_chemical_formula_sum   'Er19 Tm1 Ga8 Pb4'
_cell_volume   842.26678280
_cell_formula_units_Z   1
loop_
 _symmetry_equiv_pos_site_id
 _symmetry_equiv_pos_as_xyz
  1  'x, y, z'
loop_
 _atom_site_type_symbol
 _atom_site_label
 _atom_site_symmetry_multiplicity
 _atom_site_fract_x
 _atom_site_fract_y
 _atom_site_fract_z
 _atom_site_occupancy
  Er  Er0  1  0.839910  0.838815  0.892920  1
  Er  Er1  1  0.161163  0.160089  0.607123  1
  Er  Er2  1  0.839824  0.161118  0.392848  1
  Er  Er3  1  0.160048  0.838785  0.392833  1
  Er  Er4  1  0.338887  0.339910  0.392792  1
  Er  Er5  1  0.838841  0.160281  0.107341  1
  Er  Er6  1  0.338757  0.660361  0.892782  1
  Er  Er7  1  0.161343  0.839856  0.107334  1
  Er  Er8  1  0.500027  0.999928  0.751423  1
  Er  Er9  1  0.999884  0.500051  0.248870  1
  Er  Er10  1  0.339832  0.661269  0.607217  1
  Er  Er11  1  0.660351  0.661404  0.107378  1
  Er  Er12  1  0.660170  0.338748  0.607207  1
  Er  Er13  1  0.999942  0.500016  0.748687  1
  Er  Er14  1  0.838914  0.839988  0.607113  1
  Er  Er15  1  0.661440  0.339856  0.892770  1
  Er  Er16  1  0.159779  0.160860  0.892671  1
  Er  Er17  1  0.500041  0.999900  0.251582  1
  Er  Er18  1  0.661164  0.660120  0.392866  1
  Tm  Tm19  1  0.339799  0.338889  0.106196  1
  Ga  Ga20  1  0.632186  0.367594  0.249941  1
  Ga  Ga21  1  0.367612  0.632236  0.249985  1
  Ga  Ga22  1  0.132585  0.132602  0.249960  1
  Ga  Ga23  1  0.367430  0.367378  0.750045  1
  Ga  Ga24  1  0.132538  0.867447  0.750064  1
  Ga  Ga25  1  0.867572  0.867533  0.250022  1
  Ga  Ga26  1  0.632503  0.632553  0.750015  1
  Ga  Ga27  1  0.867436  0.132537  0.750059  1
  Pb  Pb28  1  0.999730  0.500230  0.999982  1
  Pb  Pb29  1  0.500249  0.999666  0.000210  1
  Pb  Pb30  1  0.500015  0.000015  0.499972  1
  Pb  Pb31  1  0.000025  0.499964  0.499794  1
