# generated using pymatgen
data_Sc2Be2NbRh5
_symmetry_space_group_name_H-M   'P 1'
_cell_length_a   9.53122300
_cell_length_b   9.53122300
_cell_length_c   3.19709100
_cell_angle_alpha   90.00000000
_cell_angle_beta   90.00000000
_cell_angle_gamma   90.00000000
_symmetry_Int_Tables_number   1
_chemical_formula_structural   Sc2Be2NbRh5
_chemical_formula_sum   'Sc4 Be4 Nb2 Rh10'
_cell_volume   290.43721219
_cell_formula_units_Z   2
loop_
 _symmetry_equiv_pos_site_id
 _symmetry_equiv_pos_as_xyz
  1  'x, y, z'
loop_
 _atom_site_type_symbol
 _atom_site_label
 _atom_site_symmetry_multiplicity
 _atom_site_fract_x
 _atom_site_fract_y
 _atom_site_fract_z
 _atom_site_occupancy
  Sc  Sc0  1  0.826098  0.326098  0.000000  1
  Sc  Sc1  1  0.326098  0.173902  0.000000  1
  Sc  Sc2  1  0.673902  0.826098  0.000000  1
  Sc  Sc3  1  0.173902  0.673902  0.000000  1
  Be  Be4  1  0.621643  0.121643  0.000000  1
  Be  Be5  1  0.121643  0.378357  0.000000  1
  Be  Be6  1  0.878357  0.621643  0.000000  1
  Be  Be7  1  0.378357  0.878357  0.000000  1
  Nb  Nb8  1  0.000000  0.000000  0.000000  1
  Nb  Nb9  1  0.500000  0.500000  0.000000  1
  Rh  Rh10  1  0.070530  0.211862  0.500000  1
  Rh  Rh11  1  0.211862  0.929470  0.500000  1
  Rh  Rh12  1  0.788138  0.070530  0.500000  1
  Rh  Rh13  1  0.929470  0.788138  0.500000  1
  Rh  Rh14  1  0.429470  0.711862  0.500000  1
  Rh  Rh15  1  0.570530  0.288138  0.500000  1
  Rh  Rh16  1  0.711862  0.570530  0.500000  1
  Rh  Rh17  1  0.288138  0.429470  0.500000  1
  Rh  Rh18  1  0.500000  0.000000  0.500000  1
  Rh  Rh19  1  0.000000  0.500000  0.500000  1
