# generated using pymatgen
data_Gd3Cd3Pt2
_symmetry_space_group_name_H-M   'P 1'
_cell_length_a   7.82477700
_cell_length_b   7.82477618
_cell_length_c   3.76926100
_cell_angle_alpha   90.00000000
_cell_angle_beta   90.00000000
_cell_angle_gamma   119.99999925
_symmetry_Int_Tables_number   1
_chemical_formula_structural   Gd3Cd3Pt2
_chemical_formula_sum   'Gd3 Cd3 Pt2'
_cell_volume   199.86223466
_cell_formula_units_Z   1
loop_
 _symmetry_equiv_pos_site_id
 _symmetry_equiv_pos_as_xyz
  1  'x, y, z'
loop_
 _atom_site_type_symbol
 _atom_site_label
 _atom_site_symmetry_multiplicity
 _atom_site_fract_x
 _atom_site_fract_y
 _atom_site_fract_z
 _atom_site_occupancy
  Gd  Gd0  1  0.574006  0.000000  0.500000  1
  Gd  Gd1  1  0.425995  0.425995  0.500000  1
  Gd  Gd2  1  0.000000  0.574006  0.500000  1
  Cd  Cd3  1  0.227688  0.000000  0.000000  1
  Cd  Cd4  1  0.000000  0.227687  0.000000  1
  Cd  Cd5  1  0.772312  0.772312  0.000000  1
  Pt  Pt6  1  0.666667  0.333333  0.000000  1
  Pt  Pt7  1  0.333333  0.666667  0.000000  1
