# generated using pymatgen
data_Nb7Re4
_symmetry_space_group_name_H-M   'P 1'
_cell_length_a   3.21605290
_cell_length_b   3.21605217
_cell_length_c   18.19584285
_cell_angle_alpha   84.92505419
_cell_angle_beta   84.92505706
_cell_angle_gamma   90.01791287
_symmetry_Int_Tables_number   1
_chemical_formula_structural   Nb7Re4
_chemical_formula_sum   'Nb7 Re4'
_cell_volume   186.72056084
_cell_formula_units_Z   1
loop_
 _symmetry_equiv_pos_site_id
 _symmetry_equiv_pos_as_xyz
  1  'x, y, z'
loop_
 _atom_site_type_symbol
 _atom_site_label
 _atom_site_symmetry_multiplicity
 _atom_site_fract_x
 _atom_site_fract_y
 _atom_site_fract_z
 _atom_site_occupancy
  Nb  Nb0  1  0.116056  0.116056  0.138990  1
  Nb  Nb1  1  0.865022  0.865022  0.686547  1
  Nb  Nb2  1  0.667173  0.667173  0.041752  1
  Nb  Nb3  1  0.413915  0.413915  0.589344  1
  Nb  Nb4  1  0.034214  0.034214  0.315761  1
  Nb  Nb5  1  0.767354  0.767354  0.864165  1
  Nb  Nb6  1  0.492913  0.492913  0.412526  1
  Re  Re7  1  0.572750  0.572750  0.227586  1
  Re  Re8  1  0.318235  0.318235  0.773955  1
  Re  Re9  1  0.215940  0.215940  0.954390  1
  Re  Re10  1  0.954969  0.954969  0.500884  1
