# generated using pymatgen
data_Ac2ZnRuI
_symmetry_space_group_name_H-M   'P 1'
_cell_length_a   4.45190200
_cell_length_b   4.45190267
_cell_length_c   18.53394000
_cell_angle_alpha   90.00000000
_cell_angle_beta   90.00000000
_cell_angle_gamma   119.99999503
_symmetry_Int_Tables_number   1
_chemical_formula_structural   Ac2ZnRuI
_chemical_formula_sum   'Ac4 Zn2 Ru2 I2'
_cell_volume   318.11903966
_cell_formula_units_Z   2
loop_
 _symmetry_equiv_pos_site_id
 _symmetry_equiv_pos_as_xyz
  1  'x, y, z'
loop_
 _atom_site_type_symbol
 _atom_site_label
 _atom_site_symmetry_multiplicity
 _atom_site_fract_x
 _atom_site_fract_y
 _atom_site_fract_z
 _atom_site_occupancy
  Ac  Ac0  1  0.000000  0.000000  0.605218  1
  Ac  Ac1  1  0.000000  0.000000  0.395693  1
  Ac  Ac2  1  0.000000  0.000000  0.105218  1
  Ac  Ac3  1  0.000000  0.000000  0.895693  1
  Zn  Zn4  1  0.666667  0.333333  0.500532  1
  Zn  Zn5  1  0.333333  0.666667  0.000532  1
  Ru  Ru6  1  0.666667  0.333333  0.999230  1
  Ru  Ru7  1  0.333333  0.666667  0.499230  1
  I  I8  1  0.666667  0.333333  0.249328  1
  I  I9  1  0.333333  0.666667  0.749328  1
