# generated using pymatgen
data_Sm12Si(GeBr4)3
_symmetry_space_group_name_H-M   'P 1'
_cell_length_a   10.29437333
_cell_length_b   10.29437327
_cell_length_c   10.29437329
_cell_angle_alpha   109.43427826
_cell_angle_beta   109.43427023
_cell_angle_gamma   109.43427654
_symmetry_Int_Tables_number   1
_chemical_formula_structural   Sm12Si(GeBr4)3
_chemical_formula_sum   'Sm12 Si1 Ge3 Br12'
_cell_volume   840.95060958
_cell_formula_units_Z   1
loop_
 _symmetry_equiv_pos_site_id
 _symmetry_equiv_pos_as_xyz
  1  'x, y, z'
loop_
 _atom_site_type_symbol
 _atom_site_label
 _atom_site_symmetry_multiplicity
 _atom_site_fract_x
 _atom_site_fract_y
 _atom_site_fract_z
 _atom_site_occupancy
  Sm  Sm0  1  0.476446  0.486378  0.239867  1
  Sm  Sm1  1  0.750000  0.238971  0.261029  1
  Sm  Sm2  1  0.750000  0.011072  0.488928  1
  Sm  Sm3  1  0.239867  0.476446  0.486378  1
  Sm  Sm4  1  0.261029  0.750000  0.238971  1
  Sm  Sm5  1  0.023554  0.260133  0.013622  1
  Sm  Sm6  1  0.013622  0.023554  0.260133  1
  Sm  Sm7  1  0.488928  0.750000  0.011072  1
  Sm  Sm8  1  0.486378  0.239867  0.476446  1
  Sm  Sm9  1  0.011072  0.488928  0.750000  1
  Sm  Sm10  1  0.260133  0.013622  0.023554  1
  Sm  Sm11  1  0.238971  0.261029  0.750000  1
  Si  Si12  1  0.250000  0.250000  0.250000  1
  Ge  Ge13  1  0.499858  0.000142  0.250000  1
  Ge  Ge14  1  0.000142  0.250000  0.499858  1
  Ge  Ge15  1  0.250000  0.499858  0.000142  1
  Br  Br16  1  0.250000  0.754240  0.745760  1
  Br  Br17  1  0.509146  0.504725  0.754974  1
  Br  Br18  1  0.990854  0.745026  0.995275  1
  Br  Br19  1  0.745760  0.250000  0.754240  1
  Br  Br20  1  0.995275  0.990854  0.745026  1
  Br  Br21  1  0.250000  0.995197  0.504803  1
  Br  Br22  1  0.754974  0.509146  0.504725  1
  Br  Br23  1  0.504803  0.250000  0.995197  1
  Br  Br24  1  0.754240  0.745760  0.250000  1
  Br  Br25  1  0.745026  0.995275  0.990854  1
  Br  Br26  1  0.995197  0.504803  0.250000  1
  Br  Br27  1  0.504725  0.754974  0.509146  1
