# generated using pymatgen
data_Yb2HoTm3(Si3Ru)8
_symmetry_space_group_name_H-M   'P 1'
_cell_length_a   10.12778237
_cell_length_b   10.12778248
_cell_length_c   8.12700600
_cell_angle_alpha   89.97609693
_cell_angle_beta   90.02390565
_cell_angle_gamma   132.68028580
_symmetry_Int_Tables_number   1
_chemical_formula_structural   Yb2HoTm3(Si3Ru)8
_chemical_formula_sum   'Yb2 Ho1 Tm3 Si24 Ru8'
_cell_volume   612.82147653
_cell_formula_units_Z   1
loop_
 _symmetry_equiv_pos_site_id
 _symmetry_equiv_pos_as_xyz
  1  'x, y, z'
loop_
 _atom_site_type_symbol
 _atom_site_label
 _atom_site_symmetry_multiplicity
 _atom_site_fract_x
 _atom_site_fract_y
 _atom_site_fract_z
 _atom_site_occupancy
  Yb  Yb0  1  0.997739  0.497739  0.250000  1
  Yb  Yb1  1  0.497187  0.997187  0.250000  1
  Ho  Ho2  1  0.001874  0.501874  0.750000  1
  Tm  Tm3  1  0.499271  0.499274  0.499345  1
  Tm  Tm4  1  0.999274  0.999271  0.000655  1
  Tm  Tm5  1  0.501673  0.001673  0.750000  1
  Si  Si6  1  0.793449  0.204755  0.498823  1
  Si  Si7  1  0.294269  0.705785  0.000883  1
  Si  Si8  1  0.205785  0.794269  0.499117  1
  Si  Si9  1  0.704755  0.293449  0.001177  1
  Si  Si10  1  0.331958  0.332786  0.833522  1
  Si  Si11  1  0.665054  0.667141  0.167118  1
  Si  Si12  1  0.167141  0.165054  0.332882  1
  Si  Si13  1  0.832786  0.831958  0.666478  1
  Si  Si14  1  0.123105  0.890154  0.727481  1
  Si  Si15  1  0.111953  0.876821  0.271266  1
  Si  Si16  1  0.611895  0.377174  0.228702  1
  Si  Si17  1  0.622856  0.390023  0.772590  1
  Si  Si18  1  0.877174  0.111895  0.271298  1
  Si  Si19  1  0.890023  0.122856  0.727410  1
  Si  Si20  1  0.390154  0.623105  0.772519  1
  Si  Si21  1  0.376821  0.611953  0.228734  1
  Si  Si22  1  0.345365  0.111272  0.505692  1
  Si  Si23  1  0.888255  0.655280  0.496164  1
  Si  Si24  1  0.388504  0.155692  0.004155  1
  Si  Si25  1  0.845270  0.611628  0.994570  1
  Si  Si26  1  0.655692  0.888504  0.495845  1
  Si  Si27  1  0.111628  0.345270  0.505430  1
  Si  Si28  1  0.611272  0.845365  0.994308  1
  Si  Si29  1  0.155280  0.388255  0.003836  1
  Ru  Ru30  1  0.669622  0.331010  0.503241  1
  Ru  Ru31  1  0.170294  0.831982  0.996861  1
  Ru  Ru32  1  0.331982  0.670294  0.503139  1
  Ru  Ru33  1  0.831010  0.169622  0.996759  1
  Ru  Ru34  1  0.126604  0.126613  0.626335  1
  Ru  Ru35  1  0.873155  0.873258  0.372569  1
  Ru  Ru36  1  0.373258  0.373155  0.127431  1
  Ru  Ru37  1  0.626613  0.626604  0.873665  1
