# generated using pymatgen
data_Yb4Co3SiI2
_symmetry_space_group_name_H-M   'P 1'
_cell_length_a   3.98298900
_cell_length_b   3.98298868
_cell_length_c   17.09019800
_cell_angle_alpha   90.00000000
_cell_angle_beta   90.00000000
_cell_angle_gamma   120.00001095
_symmetry_Int_Tables_number   1
_chemical_formula_structural   Yb4Co3SiI2
_chemical_formula_sum   'Yb4 Co3 Si1 I2'
_cell_volume   234.79879150
_cell_formula_units_Z   1
loop_
 _symmetry_equiv_pos_site_id
 _symmetry_equiv_pos_as_xyz
  1  'x, y, z'
loop_
 _atom_site_type_symbol
 _atom_site_label
 _atom_site_symmetry_multiplicity
 _atom_site_fract_x
 _atom_site_fract_y
 _atom_site_fract_z
 _atom_site_occupancy
  Yb  Yb0  1  0.000000  0.000000  0.106771  1
  Yb  Yb1  1  0.000000  0.000000  0.893504  1
  Yb  Yb2  1  0.000000  0.000000  0.611479  1
  Yb  Yb3  1  0.000000  0.000000  0.388469  1
  Co  Co4  1  0.666667  0.333333  0.499026  1
  Co  Co5  1  0.666667  0.333333  0.001221  1
  Co  Co6  1  0.333333  0.666667  0.998902  1
  Si  Si7  1  0.333333  0.666667  0.500849  1
  I  I8  1  0.333333  0.666667  0.250771  1
  I  I9  1  0.666667  0.333333  0.749006  1
