# generated using pymatgen
data_Nd(TmCu6)2
_symmetry_space_group_name_H-M   'P 1'
_cell_length_a   5.02182134
_cell_length_b   5.02182155
_cell_length_c   10.58937491
_cell_angle_alpha   94.83788452
_cell_angle_beta   94.83788091
_cell_angle_gamma   119.77766608
_symmetry_Int_Tables_number   1
_chemical_formula_structural   Nd(TmCu6)2
_chemical_formula_sum   'Nd1 Tm2 Cu12'
_cell_volume   228.48991776
_cell_formula_units_Z   1
loop_
 _symmetry_equiv_pos_site_id
 _symmetry_equiv_pos_as_xyz
  1  'x, y, z'
loop_
 _atom_site_type_symbol
 _atom_site_label
 _atom_site_symmetry_multiplicity
 _atom_site_fract_x
 _atom_site_fract_y
 _atom_site_fract_z
 _atom_site_occupancy
  Nd  Nd0  1  0.000000  0.000000  0.000000  1
  Tm  Tm1  1  0.136254  0.136254  0.360921  1
  Tm  Tm2  1  0.863746  0.863746  0.639079  1
  Cu  Cu3  1  0.663626  0.336375  0.000000  1
  Cu  Cu4  1  0.336375  0.663626  0.000000  1
  Cu  Cu5  1  0.570365  0.069032  0.199327  1
  Cu  Cu6  1  0.069032  0.570365  0.199327  1
  Cu  Cu7  1  0.571371  0.571371  0.204729  1
  Cu  Cu8  1  0.808790  0.474125  0.406948  1
  Cu  Cu9  1  0.474125  0.808790  0.406948  1
  Cu  Cu10  1  0.525877  0.191211  0.593052  1
  Cu  Cu11  1  0.191211  0.525877  0.593052  1
  Cu  Cu12  1  0.428628  0.428628  0.795271  1
  Cu  Cu13  1  0.930967  0.429634  0.800674  1
  Cu  Cu14  1  0.429634  0.930967  0.800674  1
