# generated using pymatgen
data_Ta8CuSi2As
_symmetry_space_group_name_H-M   'P 1'
_cell_length_a   6.24241800
_cell_length_b   6.24241800
_cell_length_c   5.05583000
_cell_angle_alpha   90.00000000
_cell_angle_beta   90.00000000
_cell_angle_gamma   90.00000000
_symmetry_Int_Tables_number   1
_chemical_formula_structural   Ta8CuSi2As
_chemical_formula_sum   'Ta8 Cu1 Si2 As1'
_cell_volume   197.01448373
_cell_formula_units_Z   1
loop_
 _symmetry_equiv_pos_site_id
 _symmetry_equiv_pos_as_xyz
  1  'x, y, z'
loop_
 _atom_site_type_symbol
 _atom_site_label
 _atom_site_symmetry_multiplicity
 _atom_site_fract_x
 _atom_site_fract_y
 _atom_site_fract_z
 _atom_site_occupancy
  Ta  Ta0  1  0.342113  0.163163  0.497160  1
  Ta  Ta1  1  0.657887  0.836837  0.497160  1
  Ta  Ta2  1  0.163163  0.657887  0.497160  1
  Ta  Ta3  1  0.836837  0.342113  0.497160  1
  Ta  Ta4  1  0.342113  0.836837  0.002840  1
  Ta  Ta5  1  0.836837  0.657887  0.002840  1
  Ta  Ta6  1  0.163163  0.342113  0.002840  1
  Ta  Ta7  1  0.657887  0.163163  0.002840  1
  Cu  Cu8  1  0.000000  0.000000  0.250000  1
  Si  Si9  1  0.500000  0.500000  0.750000  1
  Si  Si10  1  0.500000  0.500000  0.250000  1
  As  As11  1  0.000000  0.000000  0.750000  1
