# generated using pymatgen
data_LiTbPr(Si3Pd10)2
_symmetry_space_group_name_H-M   'P 1'
_cell_length_a   8.70694873
_cell_length_b   8.70694877
_cell_length_c   8.70694800
_cell_angle_alpha   60.00000293
_cell_angle_beta   60.00000277
_cell_angle_gamma   59.99999981
_symmetry_Int_Tables_number   1
_chemical_formula_structural   LiTbPr(Si3Pd10)2
_chemical_formula_sum   'Li1 Tb1 Pr1 Si6 Pd20'
_cell_volume   466.74851773
_cell_formula_units_Z   1
loop_
 _symmetry_equiv_pos_site_id
 _symmetry_equiv_pos_as_xyz
  1  'x, y, z'
loop_
 _atom_site_type_symbol
 _atom_site_label
 _atom_site_symmetry_multiplicity
 _atom_site_fract_x
 _atom_site_fract_y
 _atom_site_fract_z
 _atom_site_occupancy
  Li  Li0  1  0.000000  0.000000  0.000000  1
  Tb  Tb1  1  0.250000  0.250000  0.250000  1
  Pr  Pr2  1  0.750000  0.750000  0.750000  1
  Si  Si3  1  0.735113  0.264887  0.264887  1
  Si  Si4  1  0.264887  0.735113  0.735113  1
  Si  Si5  1  0.264887  0.735113  0.264887  1
  Si  Si6  1  0.735113  0.264887  0.735113  1
  Si  Si7  1  0.264887  0.264887  0.735113  1
  Si  Si8  1  0.735113  0.735113  0.264887  1
  Pd  Pd9  1  0.383084  0.383084  0.383084  1
  Pd  Pd10  1  0.613957  0.613957  0.613957  1
  Pd  Pd11  1  0.383084  0.383084  0.850750  1
  Pd  Pd12  1  0.383084  0.850750  0.383084  1
  Pd  Pd13  1  0.613957  0.613957  0.158127  1
  Pd  Pd14  1  0.613957  0.158127  0.613957  1
  Pd  Pd15  1  0.850750  0.383084  0.383084  1
  Pd  Pd16  1  0.158127  0.613957  0.613957  1
  Pd  Pd17  1  0.343270  0.001133  0.001133  1
  Pd  Pd18  1  0.654464  0.001133  0.001133  1
  Pd  Pd19  1  0.001133  0.343270  0.654464  1
  Pd  Pd20  1  0.001133  0.654464  0.343270  1
  Pd  Pd21  1  0.001133  0.343270  0.001133  1
  Pd  Pd22  1  0.654464  0.001133  0.343270  1
  Pd  Pd23  1  0.001133  0.654464  0.001133  1
  Pd  Pd24  1  0.343270  0.001133  0.654464  1
  Pd  Pd25  1  0.001133  0.001133  0.343270  1
  Pd  Pd26  1  0.001133  0.001133  0.654464  1
  Pd  Pd27  1  0.654464  0.343270  0.001133  1
  Pd  Pd28  1  0.343270  0.654464  0.001133  1
