# generated using pymatgen
data_UTe14
_symmetry_space_group_name_H-M   'P 1'
_cell_length_a   4.29893648
_cell_length_b   4.29893668
_cell_length_c   32.53001862
_cell_angle_alpha   89.68835477
_cell_angle_beta   89.68835562
_cell_angle_gamma   60.14311018
_symmetry_Int_Tables_number   1
_chemical_formula_structural   UTe14
_chemical_formula_sum   'U1 Te14'
_cell_volume   521.37826382
_cell_formula_units_Z   1
loop_
 _symmetry_equiv_pos_site_id
 _symmetry_equiv_pos_as_xyz
  1  'x, y, z'
loop_
 _atom_site_type_symbol
 _atom_site_label
 _atom_site_symmetry_multiplicity
 _atom_site_fract_x
 _atom_site_fract_y
 _atom_site_fract_z
 _atom_site_occupancy
  U  U0  1  0.000000  0.000000  0.800000  1
  Te  Te1  1  0.660584  0.660584  0.067376  1
  Te  Te2  1  0.663705  0.663705  0.259920  1
  Te  Te3  1  0.666824  0.666824  0.453916  1
  Te  Te4  1  0.669452  0.669452  0.644271  1
  Te  Te5  1  0.664573  0.664573  0.854816  1
  Te  Te6  1  0.333176  0.333176  0.146084  1
  Te  Te7  1  0.336295  0.336295  0.340080  1
  Te  Te8  1  0.339416  0.339416  0.532624  1
  Te  Te9  1  0.335427  0.335427  0.745184  1
  Te  Te10  1  0.330548  0.330548  0.955729  1
  Te  Te11  1  0.994322  0.994322  0.011263  1
  Te  Te12  1  0.998638  0.998638  0.202969  1
  Te  Te13  1  0.001362  0.001362  0.397031  1
  Te  Te14  1  0.005678  0.005678  0.588737  1
