# generated using pymatgen
data_Tb4Al18Fe3Cu2Pd
_symmetry_space_group_name_H-M   'P 1'
_cell_length_a   7.49593199
_cell_length_b   7.49593194
_cell_length_c   9.40109971
_cell_angle_alpha   89.98359262
_cell_angle_beta   89.98359225
_cell_angle_gamma   119.49789817
_symmetry_Int_Tables_number   1
_chemical_formula_structural   Tb4Al18Fe3Cu2Pd
_chemical_formula_sum   'Tb4 Al18 Fe3 Cu2 Pd1'
_cell_volume   459.76472865
_cell_formula_units_Z   1
loop_
 _symmetry_equiv_pos_site_id
 _symmetry_equiv_pos_as_xyz
  1  'x, y, z'
loop_
 _atom_site_type_symbol
 _atom_site_label
 _atom_site_symmetry_multiplicity
 _atom_site_fract_x
 _atom_site_fract_y
 _atom_site_fract_z
 _atom_site_occupancy
  Tb  Tb0  1  0.996392  0.669110  0.248206  1
  Tb  Tb1  1  0.009418  0.334863  0.751134  1
  Tb  Tb2  1  0.665137  0.990582  0.248866  1
  Tb  Tb3  1  0.330890  0.003608  0.751794  1
  Al  Al4  1  0.116494  0.118741  0.248093  1
  Al  Al5  1  0.881259  0.883506  0.751907  1
  Al  Al6  1  0.988574  0.324613  0.070835  1
  Al  Al7  1  0.993454  0.665164  0.928812  1
  Al  Al8  1  0.999338  0.676264  0.574920  1
  Al  Al9  1  0.323736  0.000662  0.425080  1
  Al  Al10  1  0.000178  0.324984  0.426090  1
  Al  Al11  1  0.675016  0.999822  0.573910  1
  Al  Al12  1  0.675387  0.011426  0.929165  1
  Al  Al13  1  0.334836  0.006546  0.071188  1
  Al  Al14  1  0.324311  0.325735  0.551323  1
  Al  Al15  1  0.674265  0.675689  0.448677  1
  Al  Al16  1  0.675629  0.668412  0.043632  1
  Al  Al17  1  0.331588  0.324371  0.956368  1
  Al  Al18  1  0.339678  0.543555  0.248814  1
  Al  Al19  1  0.658672  0.448461  0.759934  1
  Al  Al20  1  0.551539  0.341328  0.240066  1
  Al  Al21  1  0.456445  0.660322  0.751186  1
  Fe  Fe22  1  0.671001  0.328999  0.000000  1
  Fe  Fe23  1  0.000522  0.999478  0.000000  1
  Fe  Fe24  1  0.999860  0.000140  0.500000  1
  Cu  Cu25  1  0.327619  0.672381  0.000000  1
  Cu  Cu26  1  0.327476  0.672524  0.500000  1
  Pd  Pd27  1  0.671285  0.328715  0.500000  1
