# generated using pymatgen
data_Pr6Sm4Sn20Pd3Rh5
_symmetry_space_group_name_H-M   'P 1'
_cell_length_a   14.25052721
_cell_length_b   14.23286422
_cell_length_c   4.64404500
_cell_angle_alpha   90.00000000
_cell_angle_beta   90.00000000
_cell_angle_gamma   90.09076111
_symmetry_Int_Tables_number   1
_chemical_formula_structural   Pr6Sm4Sn20Pd3Rh5
_chemical_formula_sum   'Pr6 Sm4 Sn20 Pd3 Rh5'
_cell_volume   941.93104811
_cell_formula_units_Z   1
loop_
 _symmetry_equiv_pos_site_id
 _symmetry_equiv_pos_as_xyz
  1  'x, y, z'
loop_
 _atom_site_type_symbol
 _atom_site_label
 _atom_site_symmetry_multiplicity
 _atom_site_fract_x
 _atom_site_fract_y
 _atom_site_fract_z
 _atom_site_occupancy
  Pr  Pr0  1  0.500390  0.501124  0.000000  1
  Pr  Pr1  1  0.997513  0.001349  0.000000  1
  Pr  Pr2  1  0.891256  0.388650  0.500000  1
  Pr  Pr3  1  0.108630  0.610365  0.500000  1
  Pr  Pr4  1  0.389417  0.110177  0.500000  1
  Pr  Pr5  1  0.610059  0.890041  0.500000  1
  Sm  Sm6  1  0.678913  0.178600  0.500000  1
  Sm  Sm7  1  0.322991  0.820525  0.500000  1
  Sm  Sm8  1  0.176130  0.319615  0.500000  1
  Sm  Sm9  1  0.823264  0.679884  0.500000  1
  Sn  Sn10  1  0.570325  0.071310  0.000000  1
  Sn  Sn11  1  0.433491  0.929199  0.000000  1
  Sn  Sn12  1  0.067492  0.428860  0.000000  1
  Sn  Sn13  1  0.933090  0.571634  0.000000  1
  Sn  Sn14  1  0.653680  0.701798  0.000000  1
  Sn  Sn15  1  0.346742  0.297959  0.000000  1
  Sn  Sn16  1  0.152874  0.798472  0.000000  1
  Sn  Sn17  1  0.846858  0.199107  0.000000  1
  Sn  Sn18  1  0.301778  0.654541  0.000000  1
  Sn  Sn19  1  0.698834  0.344810  0.000000  1
  Sn  Sn20  1  0.197679  0.153602  0.000000  1
  Sn  Sn21  1  0.800979  0.847450  0.000000  1
  Sn  Sn22  1  0.663470  0.503356  0.500000  1
  Sn  Sn23  1  0.336290  0.496643  0.500000  1
  Sn  Sn24  1  0.162341  0.995636  0.500000  1
  Sn  Sn25  1  0.835507  0.006182  0.500000  1
  Sn  Sn26  1  0.496404  0.663355  0.500000  1
  Sn  Sn27  1  0.504396  0.335656  0.500000  1
  Sn  Sn28  1  0.002356  0.164185  0.500000  1
  Sn  Sn29  1  0.995436  0.836406  0.500000  1
  Pd  Pd30  1  0.746848  0.530208  0.000000  1
  Pd  Pd31  1  0.253510  0.469585  0.000000  1
  Pd  Pd32  1  0.247330  0.969344  0.000000  1
  Rh  Rh33  1  0.753938  0.030020  0.000000  1
  Rh  Rh34  1  0.469971  0.744180  0.000000  1
  Rh  Rh35  1  0.530177  0.255640  0.000000  1
  Rh  Rh36  1  0.030795  0.243982  0.000000  1
  Rh  Rh37  1  0.968845  0.756548  0.000000  1
