# generated using pymatgen
data_Lu10Al5SiC8
_symmetry_space_group_name_H-M   'P 1'
_cell_length_a   10.60381300
_cell_length_b   10.60381300
_cell_length_c   3.43927200
_cell_angle_alpha   90.00000000
_cell_angle_beta   90.00000000
_cell_angle_gamma   90.00000000
_symmetry_Int_Tables_number   1
_chemical_formula_structural   Lu10Al5SiC8
_chemical_formula_sum   'Lu10 Al5 Si1 C8'
_cell_volume   386.71466754
_cell_formula_units_Z   1
loop_
 _symmetry_equiv_pos_site_id
 _symmetry_equiv_pos_as_xyz
  1  'x, y, z'
loop_
 _atom_site_type_symbol
 _atom_site_label
 _atom_site_symmetry_multiplicity
 _atom_site_fract_x
 _atom_site_fract_y
 _atom_site_fract_z
 _atom_site_occupancy
  Lu  Lu0  1  0.549328  0.727388  0.500000  1
  Lu  Lu1  1  0.450672  0.272612  0.500000  1
  Lu  Lu2  1  0.051243  0.767454  0.500000  1
  Lu  Lu3  1  0.948757  0.232546  0.500000  1
  Lu  Lu4  1  0.272612  0.549328  0.500000  1
  Lu  Lu5  1  0.727388  0.450672  0.500000  1
  Lu  Lu6  1  0.232546  0.051243  0.500000  1
  Lu  Lu7  1  0.767454  0.948757  0.500000  1
  Lu  Lu8  1  0.500000  0.000000  0.000000  1
  Lu  Lu9  1  0.000000  0.500000  0.000000  1
  Al  Al10  1  0.709570  0.196650  0.000000  1
  Al  Al11  1  0.290430  0.803350  0.000000  1
  Al  Al12  1  0.196650  0.290430  0.000000  1
  Al  Al13  1  0.803350  0.709570  0.000000  1
  Al  Al14  1  0.000000  0.000000  0.000000  1
  Si  Si15  1  0.500000  0.500000  0.000000  1
  C  C16  1  0.627013  0.130457  0.500000  1
  C  C17  1  0.372987  0.869543  0.500000  1
  C  C18  1  0.130457  0.372987  0.500000  1
  C  C19  1  0.869543  0.627013  0.500000  1
  C  C20  1  0.163731  0.659671  0.000000  1
  C  C21  1  0.836269  0.340329  0.000000  1
  C  C22  1  0.659671  0.836269  0.000000  1
  C  C23  1  0.340329  0.163731  0.000000  1
