# generated using pymatgen
data_DyTm2(Ga2Ni3)3
_symmetry_space_group_name_H-M   'P 1'
_cell_length_a   4.08556400
_cell_length_b   8.71133826
_cell_length_c   8.71011065
_cell_angle_alpha   60.09373107
_cell_angle_beta   90.00000000
_cell_angle_gamma   90.00000000
_symmetry_Int_Tables_number   1
_chemical_formula_structural   DyTm2(Ga2Ni3)3
_chemical_formula_sum   'Dy1 Tm2 Ga6 Ni9'
_cell_volume   268.72038611
_cell_formula_units_Z   1
loop_
 _symmetry_equiv_pos_site_id
 _symmetry_equiv_pos_as_xyz
  1  'x, y, z'
loop_
 _atom_site_type_symbol
 _atom_site_label
 _atom_site_symmetry_multiplicity
 _atom_site_fract_x
 _atom_site_fract_y
 _atom_site_fract_z
 _atom_site_occupancy
  Dy  Dy0  1  0.500000  0.666631  0.666586  1
  Tm  Tm1  1  0.500000  0.333450  0.333395  1
  Tm  Tm2  1  0.000000  0.000116  0.000079  1
  Ga  Ga3  1  0.000000  0.517364  0.482384  1
  Ga  Ga4  1  0.000000  0.482476  0.000181  1
  Ga  Ga5  1  0.000000  0.000146  0.517286  1
  Ga  Ga6  1  0.500000  0.269787  0.729891  1
  Ga  Ga7  1  0.500000  0.729906  0.000158  1
  Ga  Ga8  1  0.500000  0.000283  0.269905  1
  Ni  Ni9  1  0.000000  0.174818  0.198085  1
  Ni  Ni10  1  0.000000  0.198087  0.626780  1
  Ni  Ni11  1  0.000000  0.627358  0.174377  1
  Ni  Ni12  1  0.000000  0.803071  0.826094  1
  Ni  Ni13  1  0.000000  0.370702  0.803556  1
  Ni  Ni14  1  0.000000  0.826179  0.371411  1
  Ni  Ni15  1  0.500000  0.704459  0.294773  1
  Ni  Ni16  1  0.500000  0.294853  0.000377  1
  Ni  Ni17  1  0.500000  0.000214  0.704783  1
