# generated using pymatgen
data_Tb9Y3Co4CuBi
_symmetry_space_group_name_H-M   'P 1'
_cell_length_a   8.39958188
_cell_length_b   8.39958284
_cell_length_c   8.37982079
_cell_angle_alpha   111.52222185
_cell_angle_beta   109.61390291
_cell_angle_gamma   107.40419821
_symmetry_Int_Tables_number   1
_chemical_formula_structural   Tb9Y3Co4CuBi
_chemical_formula_sum   'Tb9 Y3 Co4 Cu1 Bi1'
_cell_volume   453.96942565
_cell_formula_units_Z   1
loop_
 _symmetry_equiv_pos_site_id
 _symmetry_equiv_pos_as_xyz
  1  'x, y, z'
loop_
 _atom_site_type_symbol
 _atom_site_label
 _atom_site_symmetry_multiplicity
 _atom_site_fract_x
 _atom_site_fract_y
 _atom_site_fract_z
 _atom_site_occupancy
  Tb  Tb0  1  0.817618  0.290791  0.108408  1
  Tb  Tb1  1  0.686703  0.378153  0.691471  1
  Tb  Tb2  1  0.313343  0.621891  0.308518  1
  Tb  Tb3  1  0.686628  0.995176  0.308518  1
  Tb  Tb4  1  0.313318  0.004768  0.691471  1
  Tb  Tb5  1  0.589508  0.790350  0.799295  1
  Tb  Tb6  1  0.410605  0.209731  0.200856  1
  Tb  Tb7  1  0.991125  0.790252  0.200856  1
  Tb  Tb8  1  0.008946  0.209786  0.799295  1
  Y  Y9  1  0.816856  0.710029  0.526883  1
  Y  Y10  1  0.183343  0.289978  0.473322  1
  Y  Y11  1  0.183179  0.709865  0.893045  1
  Co  Co12  1  0.622899  0.999511  0.622410  1
  Co  Co13  1  0.377087  0.000227  0.377314  1
  Co  Co14  1  0.111790  0.612002  0.499203  1
  Co  Co15  1  0.887201  0.387414  0.499203  1
  Cu  Cu16  1  0.000001  0.999961  0.999962  1
  Bi  Bi17  1  0.499851  0.500117  0.999968  1
