# generated using pymatgen
data_Tb2PaZn2Ga6Co7
_symmetry_space_group_name_H-M   'P 1'
_cell_length_a   4.19090100
_cell_length_b   8.69843448
_cell_length_c   8.75796827
_cell_angle_alpha   59.79934070
_cell_angle_beta   90.00000000
_cell_angle_gamma   90.00000000
_symmetry_Int_Tables_number   1
_chemical_formula_structural   Tb2PaZn2Ga6Co7
_chemical_formula_sum   'Tb2 Pa1 Zn2 Ga6 Co7'
_cell_volume   275.93119908
_cell_formula_units_Z   1
loop_
 _symmetry_equiv_pos_site_id
 _symmetry_equiv_pos_as_xyz
  1  'x, y, z'
loop_
 _atom_site_type_symbol
 _atom_site_label
 _atom_site_symmetry_multiplicity
 _atom_site_fract_x
 _atom_site_fract_y
 _atom_site_fract_z
 _atom_site_occupancy
  Tb  Tb0  1  0.500000  0.325504  0.333380  1
  Tb  Tb1  1  0.500000  0.674410  0.658874  1
  Pa  Pa2  1  0.000000  0.000135  0.004296  1
  Zn  Zn3  1  0.500000  0.302234  0.699995  1
  Zn  Zn4  1  0.500000  0.697685  0.002259  1
  Ga  Ga5  1  0.000000  0.496838  0.502924  1
  Ga  Ga6  1  0.000000  0.503155  0.999715  1
  Ga  Ga7  1  0.000000  0.999970  0.492814  1
  Ga  Ga8  1  0.500000  0.719893  0.288432  1
  Ga  Ga9  1  0.500000  0.280093  0.008265  1
  Ga  Ga10  1  0.500000  0.000000  0.713323  1
  Co  Co11  1  0.000000  0.173124  0.173171  1
  Co  Co12  1  0.000000  0.172150  0.649880  1
  Co  Co13  1  0.000000  0.654764  0.175049  1
  Co  Co14  1  0.000000  0.827835  0.821995  1
  Co  Co15  1  0.000000  0.345297  0.829774  1
  Co  Co16  1  0.000000  0.826868  0.346245  1
  Co  Co17  1  0.500000  0.999945  0.299709  1
