# generated using pymatgen
data_LuZr2ScSb2
_symmetry_space_group_name_H-M   'P 1'
_cell_length_a   4.28804100
_cell_length_b   4.28804100
_cell_length_c   7.90075900
_cell_angle_alpha   90.00000000
_cell_angle_beta   90.00000000
_cell_angle_gamma   90.00000000
_symmetry_Int_Tables_number   1
_chemical_formula_structural   LuZr2ScSb2
_chemical_formula_sum   'Lu1 Zr2 Sc1 Sb2'
_cell_volume   145.27359134
_cell_formula_units_Z   1
loop_
 _symmetry_equiv_pos_site_id
 _symmetry_equiv_pos_as_xyz
  1  'x, y, z'
loop_
 _atom_site_type_symbol
 _atom_site_label
 _atom_site_symmetry_multiplicity
 _atom_site_fract_x
 _atom_site_fract_y
 _atom_site_fract_z
 _atom_site_occupancy
  Lu  Lu0  1  0.500000  0.000000  0.344936  1
  Zr  Zr1  1  0.000000  0.000000  0.997868  1
  Zr  Zr2  1  0.500000  0.500000  0.997868  1
  Sc  Sc3  1  0.000000  0.500000  0.657959  1
  Sb  Sb4  1  0.500000  0.000000  0.724866  1
  Sb  Sb5  1  0.000000  0.500000  0.276503  1
