# generated using pymatgen
data_Sm10Tl7In(PtRh)2
_symmetry_space_group_name_H-M   'P 1'
_cell_length_a   3.68781000
_cell_length_b   8.37057464
_cell_length_c   18.76809400
_cell_angle_alpha   90.04548439
_cell_angle_beta   90.00000000
_cell_angle_gamma   90.00000000
_symmetry_Int_Tables_number   1
_chemical_formula_structural   Sm10Tl7In(PtRh)2
_chemical_formula_sum   'Sm10 Tl7 In1 Pt2 Rh2'
_cell_volume   579.35377875
_cell_formula_units_Z   1
loop_
 _symmetry_equiv_pos_site_id
 _symmetry_equiv_pos_as_xyz
  1  'x, y, z'
loop_
 _atom_site_type_symbol
 _atom_site_label
 _atom_site_symmetry_multiplicity
 _atom_site_fract_x
 _atom_site_fract_y
 _atom_site_fract_z
 _atom_site_occupancy
  Sm  Sm0  1  0.000000  0.112735  0.410842  1
  Sm  Sm1  1  0.000000  0.888363  0.588392  1
  Sm  Sm2  1  0.000000  0.384773  0.910538  1
  Sm  Sm3  1  0.000000  0.614371  0.089495  1
  Sm  Sm4  1  0.000000  0.237953  0.221375  1
  Sm  Sm5  1  0.000000  0.761963  0.778855  1
  Sm  Sm6  1  0.000000  0.251653  0.719083  1
  Sm  Sm7  1  0.000000  0.746869  0.280929  1
  Sm  Sm8  1  0.000000  0.999585  0.000091  1
  Sm  Sm9  1  0.000000  0.503249  0.499667  1
  Tl  Tl10  1  0.500000  0.422170  0.353156  1
  Tl  Tl11  1  0.500000  0.582132  0.647198  1
  Tl  Tl12  1  0.500000  0.073686  0.850212  1
  Tl  Tl13  1  0.500000  0.925501  0.150290  1
  Tl  Tl14  1  0.500000  0.291470  0.064832  1
  Tl  Tl15  1  0.500000  0.707345  0.935447  1
  Tl  Tl16  1  0.500000  0.207938  0.566280  1
  In  In17  1  0.500000  0.795010  0.431952  1
  Pt  Pt18  1  0.500000  0.478387  0.801035  1
  Pt  Pt19  1  0.500000  0.519526  0.198785  1
  Rh  Rh20  1  0.500000  0.013525  0.306406  1
  Rh  Rh21  1  0.500000  0.981795  0.695139  1
