# generated using pymatgen
data_Sr2ZnAu3
_symmetry_space_group_name_H-M   'P 1'
_cell_length_a   6.13450366
_cell_length_b   6.07753673
_cell_length_c   6.07753690
_cell_angle_alpha   134.23687149
_cell_angle_beta   102.21605009
_cell_angle_gamma   95.04667002
_symmetry_Int_Tables_number   1
_chemical_formula_structural   Sr2ZnAu3
_chemical_formula_sum   'Sr2 Zn1 Au3'
_cell_volume   149.41583325
_cell_formula_units_Z   1
loop_
 _symmetry_equiv_pos_site_id
 _symmetry_equiv_pos_as_xyz
  1  'x, y, z'
loop_
 _atom_site_type_symbol
 _atom_site_label
 _atom_site_symmetry_multiplicity
 _atom_site_fract_x
 _atom_site_fract_y
 _atom_site_fract_z
 _atom_site_occupancy
  Sr  Sr0  1  0.295212  0.047556  0.247655  1
  Sr  Sr1  1  0.700488  0.958433  0.742055  1
  Zn  Zn2  1  0.895966  0.331090  0.564876  1
  Au  Au3  1  0.726017  0.681625  0.044393  1
  Au  Au4  1  0.281929  0.341239  0.940690  1
  Au  Au5  1  0.100388  0.640057  0.460331  1
