# generated using pymatgen
data_Eu3AlAu5
_symmetry_space_group_name_H-M   'P 1'
_cell_length_a   8.87072236
_cell_length_b   8.87072273
_cell_length_c   8.87072200
_cell_angle_alpha   128.21522808
_cell_angle_beta   126.53167401
_cell_angle_gamma   77.64992022
_symmetry_Int_Tables_number   1
_chemical_formula_structural   Eu3AlAu5
_chemical_formula_sum   'Eu6 Al2 Au10'
_cell_volume   427.31230551
_cell_formula_units_Z   2
loop_
 _symmetry_equiv_pos_site_id
 _symmetry_equiv_pos_as_xyz
  1  'x, y, z'
loop_
 _atom_site_type_symbol
 _atom_site_label
 _atom_site_symmetry_multiplicity
 _atom_site_fract_x
 _atom_site_fract_y
 _atom_site_fract_z
 _atom_site_occupancy
  Eu  Eu0  1  0.832667  0.052189  0.780479  1
  Eu  Eu1  1  0.228289  0.447811  0.780479  1
  Eu  Eu2  1  0.167333  0.947811  0.219521  1
  Eu  Eu3  1  0.377945  0.250000  0.127945  1
  Eu  Eu4  1  0.771711  0.552189  0.219521  1
  Eu  Eu5  1  0.622055  0.750000  0.872055  1
  Al  Al6  1  0.215130  0.750000  0.465130  1
  Al  Al7  1  0.784870  0.250000  0.534870  1
  Au  Au8  1  0.833874  0.597498  0.635101  1
  Au  Au9  1  0.537603  0.301227  0.635101  1
  Au  Au10  1  0.462397  0.097498  0.763624  1
  Au  Au11  1  0.833874  0.198773  0.236376  1
  Au  Au12  1  0.166126  0.402502  0.364899  1
  Au  Au13  1  0.462397  0.698773  0.364899  1
  Au  Au14  1  0.537603  0.902502  0.236376  1
  Au  Au15  1  0.166126  0.801227  0.763624  1
  Au  Au16  1  0.000000  0.000000  0.500000  1
  Au  Au17  1  0.000000  0.500000  0.000000  1
