# generated using pymatgen
data_Li3Y3SiHgP
_symmetry_space_group_name_H-M   'P 1'
_cell_length_a   7.16979700
_cell_length_b   7.16979595
_cell_length_c   4.12318200
_cell_angle_alpha   90.00000000
_cell_angle_beta   90.00000000
_cell_angle_gamma   119.99999099
_symmetry_Int_Tables_number   1
_chemical_formula_structural   Li3Y3SiHgP
_chemical_formula_sum   'Li3 Y3 Si1 Hg1 P1'
_cell_volume   183.55948569
_cell_formula_units_Z   1
loop_
 _symmetry_equiv_pos_site_id
 _symmetry_equiv_pos_as_xyz
  1  'x, y, z'
loop_
 _atom_site_type_symbol
 _atom_site_label
 _atom_site_symmetry_multiplicity
 _atom_site_fract_x
 _atom_site_fract_y
 _atom_site_fract_z
 _atom_site_occupancy
  Li  Li0  1  0.251406  0.998662  0.500000  1
  Li  Li1  1  0.747255  0.748594  0.500000  1
  Li  Li2  1  0.001338  0.252745  0.500000  1
  Y  Y3  1  0.999497  0.567237  0.000000  1
  Y  Y4  1  0.567741  0.000503  0.000000  1
  Y  Y5  1  0.432763  0.432259  0.000000  1
  Si  Si6  1  0.666667  0.333333  0.500000  1
  Hg  Hg7  1  0.000000  0.000000  0.000000  1
  P  P8  1  0.333333  0.666667  0.500000  1
