# generated using pymatgen
data_PrTlCr2(TeO6)2
_symmetry_space_group_name_H-M   'P 1'
_cell_length_a   5.23510315
_cell_length_b   5.23612457
_cell_length_c   9.95072001
_cell_angle_alpha   90.00264582
_cell_angle_beta   90.00221951
_cell_angle_gamma   120.00240932
_symmetry_Int_Tables_number   1
_chemical_formula_structural   PrTlCr2(TeO6)2
_chemical_formula_sum   'Pr1 Tl1 Cr2 Te2 O12'
_cell_volume   236.21626885
_cell_formula_units_Z   1
loop_
 _symmetry_equiv_pos_site_id
 _symmetry_equiv_pos_as_xyz
  1  'x, y, z'
loop_
 _atom_site_type_symbol
 _atom_site_label
 _atom_site_symmetry_multiplicity
 _atom_site_fract_x
 _atom_site_fract_y
 _atom_site_fract_z
 _atom_site_occupancy
  Pr  Pr0  1  0.000000  0.000000  0.000000  1
  Tl  Tl1  1  0.000001  0.999999  0.500000  1
  Cr  Cr2  1  0.666595  0.333309  0.742628  1
  Cr  Cr3  1  0.333404  0.666691  0.257372  1
  Te  Te4  1  0.666706  0.333360  0.258039  1
  Te  Te5  1  0.333293  0.666640  0.741961  1
  O  O6  1  0.622914  0.991076  0.852840  1
  O  O7  1  0.368131  0.377052  0.852854  1
  O  O8  1  0.008825  0.631805  0.852832  1
  O  O9  1  0.377089  0.008924  0.147160  1
  O  O10  1  0.631870  0.622948  0.147147  1
  O  O11  1  0.991176  0.368195  0.147168  1
  O  O12  1  0.356581  0.991800  0.634854  1
  O  O13  1  0.635171  0.643302  0.634875  1
  O  O14  1  0.008020  0.364702  0.634866  1
  O  O15  1  0.643419  0.008198  0.365147  1
  O  O16  1  0.364830  0.356698  0.365126  1
  O  O17  1  0.991979  0.635298  0.365134  1
