# generated using pymatgen
data_Dy7ZrGaPd24
_symmetry_space_group_name_H-M   'P 1'
_cell_length_a   8.31562923
_cell_length_b   8.31562956
_cell_length_c   8.31563000
_cell_angle_alpha   90.27420760
_cell_angle_beta   90.27420761
_cell_angle_gamma   89.72579235
_symmetry_Int_Tables_number   1
_chemical_formula_structural   Dy7ZrGaPd24
_chemical_formula_sum   'Dy7 Zr1 Ga1 Pd24'
_cell_volume   575.00356225
_cell_formula_units_Z   1
loop_
 _symmetry_equiv_pos_site_id
 _symmetry_equiv_pos_as_xyz
  1  'x, y, z'
loop_
 _atom_site_type_symbol
 _atom_site_label
 _atom_site_symmetry_multiplicity
 _atom_site_fract_x
 _atom_site_fract_y
 _atom_site_fract_z
 _atom_site_occupancy
  Dy  Dy0  1  0.251749  0.748180  0.251820  1
  Dy  Dy1  1  0.748180  0.251749  0.251820  1
  Dy  Dy2  1  0.748180  0.748180  0.748251  1
  Dy  Dy3  1  0.747195  0.747195  0.252805  1
  Dy  Dy4  1  0.748871  0.252244  0.747756  1
  Dy  Dy5  1  0.252244  0.748871  0.747756  1
  Dy  Dy6  1  0.252244  0.252244  0.251129  1
  Zr  Zr7  1  0.254918  0.254918  0.745082  1
  Ga  Ga8  1  0.997777  0.997777  0.002223  1
  Pd  Pd9  1  0.496870  0.496870  0.746678  1
  Pd  Pd10  1  0.496870  0.253322  0.503130  1
  Pd  Pd11  1  0.253322  0.496870  0.503130  1
  Pd  Pd12  1  0.499039  0.499039  0.252625  1
  Pd  Pd13  1  0.499039  0.747375  0.500961  1
  Pd  Pd14  1  0.747375  0.499039  0.500961  1
  Pd  Pd15  1  0.004208  0.004208  0.711280  1
  Pd  Pd16  1  0.004208  0.288720  0.995792  1
  Pd  Pd17  1  0.288720  0.004208  0.995792  1
  Pd  Pd18  1  0.999699  0.999699  0.293058  1
  Pd  Pd19  1  0.999699  0.706942  0.000301  1
  Pd  Pd20  1  0.706942  0.999699  0.000301  1
  Pd  Pd21  1  0.005330  0.497110  0.740031  1
  Pd  Pd22  1  0.497110  0.259969  0.994670  1
  Pd  Pd23  1  0.259969  0.005330  0.502890  1
  Pd  Pd24  1  0.005330  0.259969  0.502890  1
  Pd  Pd25  1  0.497110  0.005330  0.740031  1
  Pd  Pd26  1  0.259969  0.497110  0.994670  1
  Pd  Pd27  1  0.000361  0.498430  0.259873  1
  Pd  Pd28  1  0.498430  0.740127  0.999639  1
  Pd  Pd29  1  0.000361  0.740127  0.501570  1
  Pd  Pd30  1  0.498430  0.000361  0.259873  1
  Pd  Pd31  1  0.740127  0.000361  0.501570  1
  Pd  Pd32  1  0.740127  0.498430  0.999639  1
