# generated using pymatgen
data_Th4ZnIn2Rh3
_symmetry_space_group_name_H-M   'P 1'
_cell_length_a   7.88089722
_cell_length_b   7.88089662
_cell_length_c   3.83360500
_cell_angle_alpha   90.00000000
_cell_angle_beta   90.00000000
_cell_angle_gamma   89.18865429
_symmetry_Int_Tables_number   1
_chemical_formula_structural   Th4ZnIn2Rh3
_chemical_formula_sum   'Th4 Zn1 In2 Rh3'
_cell_volume   238.07572340
_cell_formula_units_Z   1
loop_
 _symmetry_equiv_pos_site_id
 _symmetry_equiv_pos_as_xyz
  1  'x, y, z'
loop_
 _atom_site_type_symbol
 _atom_site_label
 _atom_site_symmetry_multiplicity
 _atom_site_fract_x
 _atom_site_fract_y
 _atom_site_fract_z
 _atom_site_occupancy
  Th  Th0  1  0.675400  0.175400  0.500000  1
  Th  Th1  1  0.341274  0.841274  0.500000  1
  Th  Th2  1  0.166412  0.310501  0.500000  1
  Th  Th3  1  0.810501  0.666412  0.500000  1
  Zn  Zn4  1  0.126676  0.626676  0.000000  1
  In  In5  1  0.997844  0.991939  0.000000  1
  In  In6  1  0.491939  0.497844  0.000000  1
  Rh  Rh7  1  0.883583  0.383583  0.000000  1
  Rh  Rh8  1  0.636952  0.869418  0.000000  1
  Rh  Rh9  1  0.369418  0.136952  0.000000  1
