# generated using pymatgen
data_Tm10Ga2Si3Bi
_symmetry_space_group_name_H-M   'P 1'
_cell_length_a   8.48951975
_cell_length_b   8.47775485
_cell_length_c   6.34659000
_cell_angle_alpha   90.00000000
_cell_angle_beta   90.00000000
_cell_angle_gamma   120.21530727
_symmetry_Int_Tables_number   1
_chemical_formula_structural   Tm10Ga2Si3Bi
_chemical_formula_sum   'Tm10 Ga2 Si3 Bi1'
_cell_volume   394.71962673
_cell_formula_units_Z   1
loop_
 _symmetry_equiv_pos_site_id
 _symmetry_equiv_pos_as_xyz
  1  'x, y, z'
loop_
 _atom_site_type_symbol
 _atom_site_label
 _atom_site_symmetry_multiplicity
 _atom_site_fract_x
 _atom_site_fract_y
 _atom_site_fract_z
 _atom_site_occupancy
  Tm  Tm0  1  0.680031  0.330902  0.505293  1
  Tm  Tm1  1  0.327927  0.677908  0.505390  1
  Tm  Tm2  1  0.327927  0.677908  0.994610  1
  Tm  Tm3  1  0.680031  0.330902  0.994707  1
  Tm  Tm4  1  0.771471  0.770691  0.250000  1
  Tm  Tm5  1  0.236097  0.984037  0.250000  1
  Tm  Tm6  1  0.984602  0.239084  0.250000  1
  Tm  Tm7  1  0.237588  0.236816  0.750000  1
  Tm  Tm8  1  0.757746  0.999306  0.750000  1
  Tm  Tm9  1  0.999307  0.756347  0.750000  1
  Ga  Ga10  1  0.600533  0.997900  0.250000  1
  Ga  Ga11  1  0.603422  0.602541  0.750000  1
  Si  Si12  1  0.998393  0.602125  0.250000  1
  Si  Si13  1  0.394716  0.003072  0.750000  1
  Si  Si14  1  0.004447  0.394935  0.750000  1
  Bi  Bi15  1  0.395763  0.395527  0.250000  1
