# generated using pymatgen
data_NaSrHo(B3Rh4)2
_symmetry_space_group_name_H-M   'P 1'
_cell_length_a   9.88935025
_cell_length_b   9.02164358
_cell_length_c   5.63301980
_cell_angle_alpha   81.32976696
_cell_angle_beta   64.40010698
_cell_angle_gamma   34.27011763
_symmetry_Int_Tables_number   1
_chemical_formula_structural   NaSrHo(B3Rh4)2
_chemical_formula_sum   'Na1 Sr1 Ho1 B6 Rh8'
_cell_volume   233.19887055
_cell_formula_units_Z   1
loop_
 _symmetry_equiv_pos_site_id
 _symmetry_equiv_pos_as_xyz
  1  'x, y, z'
loop_
 _atom_site_type_symbol
 _atom_site_label
 _atom_site_symmetry_multiplicity
 _atom_site_fract_x
 _atom_site_fract_y
 _atom_site_fract_z
 _atom_site_occupancy
  Na  Na0  1  0.312174  0.312174  0.687826  1
  Sr  Sr1  1  0.685726  0.685726  0.314274  1
  Ho  Ho2  1  0.492694  0.492694  0.507306  1
  B  B3  1  0.668222  0.992741  0.007259  1
  B  B4  1  0.992741  0.668222  0.331778  1
  B  B5  1  0.332990  0.011739  0.988261  1
  B  B6  1  0.011739  0.332990  0.667010  1
  B  B7  1  0.166385  0.834429  0.165571  1
  B  B8  1  0.834429  0.166385  0.833615  1
  Rh  Rh9  1  0.584463  0.584463  0.915537  1
  Rh  Rh10  1  0.913372  0.913372  0.086628  1
  Rh  Rh11  1  0.415836  0.415836  0.084164  1
  Rh  Rh12  1  0.084463  0.084463  0.415537  1
  Rh  Rh13  1  0.915836  0.915836  0.584164  1
  Rh  Rh14  1  0.251944  0.251944  0.248056  1
  Rh  Rh15  1  0.085038  0.085038  0.914962  1
  Rh  Rh16  1  0.751944  0.751944  0.748056  1
