# generated using pymatgen
data_YNp7F30
_symmetry_space_group_name_H-M   'P 1'
_cell_length_a   8.65222942
_cell_length_b   8.66335232
_cell_length_c   8.65223000
_cell_angle_alpha   100.57899224
_cell_angle_beta   100.14729524
_cell_angle_gamma   100.57899042
_symmetry_Int_Tables_number   1
_chemical_formula_structural   YNp7F30
_chemical_formula_sum   'Y1 Np7 F30'
_cell_volume   611.72649766
_cell_formula_units_Z   1
loop_
 _symmetry_equiv_pos_site_id
 _symmetry_equiv_pos_as_xyz
  1  'x, y, z'
loop_
 _atom_site_type_symbol
 _atom_site_label
 _atom_site_symmetry_multiplicity
 _atom_site_fract_x
 _atom_site_fract_y
 _atom_site_fract_z
 _atom_site_occupancy
  Y  Y0  1  0.823529  0.250000  0.676471  1
  Np  Np1  1  0.250710  0.250000  0.249290  1
  Np  Np2  1  0.177678  0.750000  0.322322  1
  Np  Np3  1  0.246733  0.676067  0.822447  1
  Np  Np4  1  0.677553  0.823933  0.253267  1
  Np  Np5  1  0.749769  0.750000  0.750231  1
  Np  Np6  1  0.323773  0.179305  0.747547  1
  Np  Np7  1  0.752453  0.320695  0.176227  1
  F  F8  1  0.968908  0.530351  0.251925  1
  F  F9  1  0.816057  0.336536  0.441976  1
  F  F10  1  0.486875  0.716494  0.717176  1
  F  F11  1  0.343974  0.449503  0.826580  1
  F  F12  1  0.013282  0.785386  0.784251  1
  F  F13  1  0.752539  0.030106  0.465839  1
  F  F14  1  0.946557  0.838982  0.323119  1
  F  F15  1  0.218138  0.219136  0.989066  1
  F  F16  1  0.780818  0.008010  0.777896  1
  F  F17  1  0.324351  0.947044  0.838757  1
  F  F18  1  0.282661  0.286781  0.512706  1
  F  F19  1  0.447120  0.825540  0.343793  1
  F  F20  1  0.529321  0.250000  0.970679  1
  F  F21  1  0.284139  0.513037  0.280874  1
  F  F22  1  0.156207  0.674460  0.052880  1
  F  F23  1  0.839501  0.319544  0.947465  1
  F  F24  1  0.722104  0.491990  0.719182  1
  F  F25  1  0.464985  0.750000  0.035015  1
  F  F26  1  0.552535  0.180456  0.660499  1
  F  F27  1  0.715749  0.714614  0.486718  1
  F  F28  1  0.673420  0.050497  0.156026  1
  F  F29  1  0.219126  0.986963  0.215861  1
  F  F30  1  0.782824  0.783506  0.013125  1
  F  F31  1  0.058024  0.163464  0.683943  1
  F  F32  1  0.248075  0.969649  0.531092  1
  F  F33  1  0.987294  0.213219  0.217339  1
  F  F34  1  0.661243  0.552956  0.175649  1
  F  F35  1  0.510934  0.280864  0.281862  1
  F  F36  1  0.176881  0.661018  0.553443  1
  F  F37  1  0.034161  0.469894  0.747461  1
