# generated using pymatgen
data_Tb6Y6Co5Sn
_symmetry_space_group_name_H-M   'P 1'
_cell_length_a   8.31453343
_cell_length_b   8.32528505
_cell_length_c   8.31453361
_cell_angle_alpha   110.76510608
_cell_angle_beta   110.59257903
_cell_angle_gamma   107.03194469
_symmetry_Int_Tables_number   1
_chemical_formula_structural   Tb6Y6Co5Sn
_chemical_formula_sum   'Tb6 Y6 Co5 Sn1'
_cell_volume   442.73639172
_cell_formula_units_Z   1
loop_
 _symmetry_equiv_pos_site_id
 _symmetry_equiv_pos_as_xyz
  1  'x, y, z'
loop_
 _atom_site_type_symbol
 _atom_site_label
 _atom_site_symmetry_multiplicity
 _atom_site_fract_x
 _atom_site_fract_y
 _atom_site_fract_z
 _atom_site_occupancy
  Tb  Tb0  1  0.686905  0.993769  0.306865  1
  Tb  Tb1  1  0.313095  0.006231  0.693135  1
  Tb  Tb2  1  0.601245  0.794029  0.807926  1
  Tb  Tb3  1  0.398755  0.205971  0.192074  1
  Tb  Tb4  1  0.986103  0.794029  0.192782  1
  Tb  Tb5  1  0.013897  0.205971  0.807218  1
  Y  Y6  1  0.812902  0.706294  0.519616  1
  Y  Y7  1  0.187098  0.293706  0.480384  1
  Y  Y8  1  0.186677  0.706294  0.893393  1
  Y  Y9  1  0.813323  0.293706  0.106607  1
  Y  Y10  1  0.686630  0.381623  0.694994  1
  Y  Y11  1  0.313370  0.618377  0.305006  1
  Co  Co12  1  0.621029  0.000000  0.621029  1
  Co  Co13  1  0.378971  0.000000  0.378971  1
  Co  Co14  1  0.111329  0.611972  0.500644  1
  Co  Co15  1  0.888671  0.388028  0.499356  1
  Co  Co16  1  0.000000  0.000000  0.000000  1
  Sn  Sn17  1  0.500000  0.500000  0.000000  1
