# generated using pymatgen
data_La5Y(CBr5)2
_symmetry_space_group_name_H-M   'P 1'
_cell_length_a   7.72314249
_cell_length_b   9.31492445
_cell_length_c   9.38449921
_cell_angle_alpha   108.33412860
_cell_angle_beta   96.68625983
_cell_angle_gamma   105.67034804
_symmetry_Int_Tables_number   1
_chemical_formula_structural   La5Y(CBr5)2
_chemical_formula_sum   'La5 Y1 C2 Br10'
_cell_volume   601.86846150
_cell_formula_units_Z   1
loop_
 _symmetry_equiv_pos_site_id
 _symmetry_equiv_pos_as_xyz
  1  'x, y, z'
loop_
 _atom_site_type_symbol
 _atom_site_label
 _atom_site_symmetry_multiplicity
 _atom_site_fract_x
 _atom_site_fract_y
 _atom_site_fract_z
 _atom_site_occupancy
  La  La0  1  0.886999  0.958334  0.233609  1
  La  La1  1  0.117895  0.045762  0.768466  1
  La  La2  1  0.029541  0.717785  0.915829  1
  La  La3  1  0.974200  0.283458  0.087243  1
  La  La4  1  0.611080  0.848538  0.800586  1
  Y  Y5  1  0.377945  0.143730  0.190402  1
  C  C6  1  0.910519  0.967448  0.954950  1
  C  C7  1  0.092532  0.033464  0.044742  1
  Br  Br8  1  0.751417  0.916226  0.535651  1
  Br  Br9  1  0.262408  0.090276  0.455278  1
  Br  Br10  1  0.454069  0.830632  0.091079  1
  Br  Br11  1  0.541568  0.181890  0.926386  1
  Br  Br12  1  0.795289  0.263437  0.352622  1
  Br  Br13  1  0.181898  0.731072  0.638024  1
  Br  Br14  1  0.910234  0.628753  0.177932  1
  Br  Br15  1  0.092675  0.373977  0.825142  1
  Br  Br16  1  0.650698  0.531692  0.723343  1
  Br  Br17  1  0.359034  0.453526  0.278717  1
