# generated using pymatgen
data_Nd2ThZn3PdPt2
_symmetry_space_group_name_H-M   'P 1'
_cell_length_a   7.56263526
_cell_length_b   7.56263473
_cell_length_c   3.89877100
_cell_angle_alpha   90.00000000
_cell_angle_beta   90.00000000
_cell_angle_gamma   119.91091123
_symmetry_Int_Tables_number   1
_chemical_formula_structural   Nd2ThZn3PdPt2
_chemical_formula_sum   'Nd2 Th1 Zn3 Pd1 Pt2'
_cell_volume   193.28306916
_cell_formula_units_Z   1
loop_
 _symmetry_equiv_pos_site_id
 _symmetry_equiv_pos_as_xyz
  1  'x, y, z'
loop_
 _atom_site_type_symbol
 _atom_site_label
 _atom_site_symmetry_multiplicity
 _atom_site_fract_x
 _atom_site_fract_y
 _atom_site_fract_z
 _atom_site_occupancy
  Nd  Nd0  1  0.590885  0.998133  0.000000  1
  Nd  Nd1  1  0.998133  0.590885  0.000000  1
  Th  Th2  1  0.411575  0.411575  0.000000  1
  Zn  Zn3  1  0.760294  0.760294  0.500000  1
  Zn  Zn4  1  0.247489  0.994440  0.500000  1
  Zn  Zn5  1  0.994440  0.247489  0.500000  1
  Pd  Pd6  1  0.008841  0.008841  0.000000  1
  Pt  Pt7  1  0.654424  0.333918  0.500000  1
  Pt  Pt8  1  0.333918  0.654424  0.500000  1
