# generated using pymatgen
data_Tb2NdSm(ReB6)2
_symmetry_space_group_name_H-M   'P 1'
_cell_length_a   3.73595200
_cell_length_b   9.26183620
_cell_length_c   11.70155825
_cell_angle_alpha   89.97630894
_cell_angle_beta   90.00000000
_cell_angle_gamma   90.00000000
_symmetry_Int_Tables_number   1
_chemical_formula_structural   Tb2NdSm(ReB6)2
_chemical_formula_sum   'Tb4 Nd2 Sm2 Re4 B24'
_cell_volume   404.89465657
_cell_formula_units_Z   2
loop_
 _symmetry_equiv_pos_site_id
 _symmetry_equiv_pos_as_xyz
  1  'x, y, z'
loop_
 _atom_site_type_symbol
 _atom_site_label
 _atom_site_symmetry_multiplicity
 _atom_site_fract_x
 _atom_site_fract_y
 _atom_site_fract_z
 _atom_site_occupancy
  Tb  Tb0  1  0.000000  0.942710  0.368986  1
  Tb  Tb1  1  0.000000  0.057290  0.631014  1
  Tb  Tb2  1  0.000000  0.442726  0.130085  1
  Tb  Tb3  1  0.000000  0.557274  0.869915  1
  Nd  Nd4  1  0.000000  0.322684  0.413861  1
  Nd  Nd5  1  0.000000  0.677316  0.586139  1
  Sm  Sm6  1  0.000000  0.823297  0.085788  1
  Sm  Sm7  1  0.000000  0.176703  0.914212  1
  Re  Re8  1  0.000000  0.639228  0.319409  1
  Re  Re9  1  0.000000  0.360772  0.680591  1
  Re  Re10  1  0.000000  0.138415  0.179453  1
  Re  Re11  1  0.000000  0.861585  0.820547  1
  B  B12  1  0.500000  0.554873  0.430479  1
  B  B13  1  0.500000  0.445127  0.569521  1
  B  B14  1  0.500000  0.054021  0.068222  1
  B  B15  1  0.500000  0.945979  0.931778  1
  B  B16  1  0.500000  0.748783  0.415543  1
  B  B17  1  0.500000  0.251217  0.584457  1
  B  B18  1  0.500000  0.248338  0.082926  1
  B  B19  1  0.500000  0.751662  0.917074  1
  B  B20  1  0.500000  0.791262  0.265331  1
  B  B21  1  0.500000  0.208738  0.734669  1
  B  B22  1  0.500000  0.290431  0.233070  1
  B  B23  1  0.500000  0.709569  0.766930  1
  B  B24  1  0.500000  0.630629  0.185925  1
  B  B25  1  0.500000  0.369371  0.814075  1
  B  B26  1  0.500000  0.129632  0.312509  1
  B  B27  1  0.500000  0.870368  0.687491  1
  B  B28  1  0.500000  0.983502  0.211876  1
  B  B29  1  0.500000  0.016498  0.788124  1
  B  B30  1  0.500000  0.484597  0.286816  1
  B  B31  1  0.500000  0.515403  0.713184  1
  B  B32  1  0.500000  0.598614  0.027454  1
  B  B33  1  0.500000  0.401386  0.972546  1
  B  B34  1  0.500000  0.096650  0.472982  1
  B  B35  1  0.500000  0.903350  0.527018  1
