# generated using pymatgen
data_La5Pr3(GeI6)2
_symmetry_space_group_name_H-M   'P 1'
_cell_length_a   4.42926300
_cell_length_b   14.63844658
_cell_length_c   15.46433600
_cell_angle_alpha   89.83246619
_cell_angle_beta   90.00000000
_cell_angle_gamma   90.00000000
_symmetry_Int_Tables_number   1
_chemical_formula_structural   La5Pr3(GeI6)2
_chemical_formula_sum   'La5 Pr3 Ge2 I12'
_cell_volume   1002.66506000
_cell_formula_units_Z   1
loop_
 _symmetry_equiv_pos_site_id
 _symmetry_equiv_pos_as_xyz
  1  'x, y, z'
loop_
 _atom_site_type_symbol
 _atom_site_label
 _atom_site_symmetry_multiplicity
 _atom_site_fract_x
 _atom_site_fract_y
 _atom_site_fract_z
 _atom_site_occupancy
  La  La0  1  0.500000  0.116774  0.342238  1
  La  La1  1  0.500000  0.881859  0.656876  1
  La  La2  1  0.500000  0.617022  0.156933  1
  La  La3  1  0.500000  0.383445  0.843575  1
  La  La4  1  0.000000  0.114833  0.576819  1
  Pr  Pr5  1  0.000000  0.886278  0.423938  1
  Pr  Pr6  1  0.000000  0.612970  0.924350  1
  Pr  Pr7  1  0.000000  0.386970  0.075749  1
  Ge  Ge8  1  0.500000  0.999530  0.499780  1
  Ge  Ge9  1  0.500000  0.500186  0.000279  1
  I  I10  1  0.500000  0.245401  0.161493  1
  I  I11  1  0.500000  0.754480  0.838472  1
  I  I12  1  0.500000  0.745015  0.338173  1
  I  I13  1  0.500000  0.256902  0.662450  1
  I  I14  1  0.000000  0.259706  0.414178  1
  I  I15  1  0.000000  0.740499  0.583958  1
  I  I16  1  0.000000  0.758891  0.083811  1
  I  I17  1  0.000000  0.241115  0.916073  1
  I  I18  1  0.000000  0.996791  0.240393  1
  I  I19  1  0.000000  0.001248  0.760472  1
  I  I20  1  0.000000  0.496807  0.259198  1
  I  I21  1  0.000000  0.503279  0.740791  1
