# generated using pymatgen
data_Yb4UGa3Ru4
_symmetry_space_group_name_H-M   'P 1'
_cell_length_a   5.67035133
_cell_length_b   5.31789424
_cell_length_c   8.81134500
_cell_angle_alpha   90.00000000
_cell_angle_beta   90.00000000
_cell_angle_gamma   120.38467919
_symmetry_Int_Tables_number   1
_chemical_formula_structural   Yb4UGa3Ru4
_chemical_formula_sum   'Yb4 U1 Ga3 Ru4'
_cell_volume   229.20599281
_cell_formula_units_Z   1
loop_
 _symmetry_equiv_pos_site_id
 _symmetry_equiv_pos_as_xyz
  1  'x, y, z'
loop_
 _atom_site_type_symbol
 _atom_site_label
 _atom_site_symmetry_multiplicity
 _atom_site_fract_x
 _atom_site_fract_y
 _atom_site_fract_z
 _atom_site_occupancy
  Yb  Yb0  1  0.663810  0.344895  0.549708  1
  Yb  Yb1  1  0.345009  0.691735  0.436699  1
  Yb  Yb2  1  0.345009  0.691735  0.063301  1
  Yb  Yb3  1  0.663810  0.344895  0.950292  1
  U  U4  1  0.103981  0.266593  0.750000  1
  Ga  Ga5  1  0.839295  0.681677  0.250000  1
  Ga  Ga6  1  0.859077  0.192215  0.250000  1
  Ga  Ga7  1  0.335431  0.190975  0.250000  1
  Ru  Ru8  1  0.019460  0.021610  0.500544  1
  Ru  Ru9  1  0.019460  0.021610  0.999456  1
  Ru  Ru10  1  0.159883  0.747437  0.750000  1
  Ru  Ru11  1  0.645775  0.804624  0.750000  1
