# generated using pymatgen
data_Zr2NbSiGeMo
_symmetry_space_group_name_H-M   'P 1'
_cell_length_a   3.60163600
_cell_length_b   7.06589200
_cell_length_c   8.47046700
_cell_angle_alpha   90.00000000
_cell_angle_beta   90.00000000
_cell_angle_gamma   90.00000000
_symmetry_Int_Tables_number   1
_chemical_formula_structural   Zr2NbSiGeMo
_chemical_formula_sum   'Zr4 Nb2 Si2 Ge2 Mo2'
_cell_volume   215.56297494
_cell_formula_units_Z   2
loop_
 _symmetry_equiv_pos_site_id
 _symmetry_equiv_pos_as_xyz
  1  'x, y, z'
loop_
 _atom_site_type_symbol
 _atom_site_label
 _atom_site_symmetry_multiplicity
 _atom_site_fract_x
 _atom_site_fract_y
 _atom_site_fract_z
 _atom_site_occupancy
  Zr  Zr0  1  0.250000  0.047908  0.336704  1
  Zr  Zr1  1  0.250000  0.547908  0.163296  1
  Zr  Zr2  1  0.750000  0.958527  0.669964  1
  Zr  Zr3  1  0.750000  0.458527  0.830036  1
  Nb  Nb4  1  0.250000  0.126239  0.937125  1
  Nb  Nb5  1  0.250000  0.626239  0.562875  1
  Si  Si6  1  0.250000  0.253941  0.636048  1
  Si  Si7  1  0.250000  0.753941  0.863952  1
  Ge  Ge8  1  0.750000  0.746619  0.358108  1
  Ge  Ge9  1  0.750000  0.246619  0.141892  1
  Mo  Mo10  1  0.750000  0.866767  0.057157  1
  Mo  Mo11  1  0.750000  0.366767  0.442843  1
