# generated using pymatgen
data_ErPa(GeRu)2
_symmetry_space_group_name_H-M   'P 1'
_cell_length_a   4.54732400
_cell_length_b   6.95560690
_cell_length_c   7.27495218
_cell_angle_alpha   94.76222294
_cell_angle_beta   90.00000000
_cell_angle_gamma   90.00000000
_symmetry_Int_Tables_number   1
_chemical_formula_structural   ErPa(GeRu)2
_chemical_formula_sum   'Er2 Pa2 Ge4 Ru4'
_cell_volume   229.30800349
_cell_formula_units_Z   2
loop_
 _symmetry_equiv_pos_site_id
 _symmetry_equiv_pos_as_xyz
  1  'x, y, z'
loop_
 _atom_site_type_symbol
 _atom_site_label
 _atom_site_symmetry_multiplicity
 _atom_site_fract_x
 _atom_site_fract_y
 _atom_site_fract_z
 _atom_site_occupancy
  Er  Er0  1  0.250000  0.981358  0.288074  1
  Er  Er1  1  0.750000  0.018642  0.711926  1
  Pa  Pa2  1  0.250000  0.484991  0.198381  1
  Pa  Pa3  1  0.750000  0.515009  0.801619  1
  Ge  Ge4  1  0.250000  0.823137  0.895055  1
  Ge  Ge5  1  0.750000  0.176863  0.104945  1
  Ge  Ge6  1  0.250000  0.285142  0.595349  1
  Ge  Ge7  1  0.750000  0.714858  0.404651  1
  Ru  Ru8  1  0.750000  0.762598  0.054630  1
  Ru  Ru9  1  0.250000  0.237402  0.945370  1
  Ru  Ru10  1  0.750000  0.347191  0.455382  1
  Ru  Ru11  1  0.250000  0.652809  0.544618  1
