# generated using pymatgen
data_Sr6ErTm(BO3)6
_symmetry_space_group_name_H-M   'P 1'
_cell_length_a   7.89108511
_cell_length_b   7.89108523
_cell_length_c   7.89108489
_cell_angle_alpha   105.00235445
_cell_angle_beta   105.00235565
_cell_angle_gamma   105.00236770
_symmetry_Int_Tables_number   1
_chemical_formula_structural   Sr6ErTm(BO3)6
_chemical_formula_sum   'Sr6 Er1 Tm1 B6 O18'
_cell_volume   429.57390642
_cell_formula_units_Z   1
loop_
 _symmetry_equiv_pos_site_id
 _symmetry_equiv_pos_as_xyz
  1  'x, y, z'
loop_
 _atom_site_type_symbol
 _atom_site_label
 _atom_site_symmetry_multiplicity
 _atom_site_fract_x
 _atom_site_fract_y
 _atom_site_fract_z
 _atom_site_occupancy
  Sr  Sr0  1  0.359286  0.735229  0.858694  1
  Sr  Sr1  1  0.858694  0.359286  0.735229  1
  Sr  Sr2  1  0.735229  0.858694  0.359286  1
  Sr  Sr3  1  0.640714  0.264771  0.141306  1
  Sr  Sr4  1  0.141306  0.640714  0.264771  1
  Sr  Sr5  1  0.264771  0.141306  0.640714  1
  Er  Er6  1  0.000000  0.000000  0.000000  1
  Tm  Tm7  1  0.500000  0.500000  0.500000  1
  B  B8  1  0.708008  0.612323  0.958529  1
  B  B9  1  0.958529  0.708008  0.612323  1
  B  B10  1  0.612323  0.958529  0.708008  1
  B  B11  1  0.041471  0.291992  0.387677  1
  B  B12  1  0.387677  0.041471  0.291992  1
  B  B13  1  0.291992  0.387677  0.041471  1
  O  O14  1  0.046066  0.811193  0.523075  1
  O  O15  1  0.523075  0.046066  0.811193  1
  O  O16  1  0.444178  0.492237  0.208300  1
  O  O17  1  0.492237  0.208300  0.444178  1
  O  O18  1  0.208300  0.444178  0.492237  1
  O  O19  1  0.791700  0.555822  0.507763  1
  O  O20  1  0.555822  0.507763  0.791700  1
  O  O21  1  0.507763  0.791700  0.555822  1
  O  O22  1  0.250994  0.194951  0.969504  1
  O  O23  1  0.194951  0.969504  0.250994  1
  O  O24  1  0.969504  0.250994  0.194951  1
  O  O25  1  0.749006  0.805049  0.030496  1
  O  O26  1  0.805049  0.030496  0.749006  1
  O  O27  1  0.030496  0.749006  0.805049  1
  O  O28  1  0.188807  0.476925  0.953934  1
  O  O29  1  0.476925  0.953934  0.188807  1
  O  O30  1  0.953934  0.188807  0.476925  1
  O  O31  1  0.811193  0.523075  0.046066  1
