# generated using pymatgen
data_Tb11YCo5Sn
_symmetry_space_group_name_H-M   'P 1'
_cell_length_a   8.32382618
_cell_length_b   8.32382512
_cell_length_c   8.32409117
_cell_angle_alpha   107.10133780
_cell_angle_beta   110.58697443
_cell_angle_gamma   110.74980988
_symmetry_Int_Tables_number   1
_chemical_formula_structural   Tb11YCo5Sn
_chemical_formula_sum   'Tb11 Y1 Co5 Sn1'
_cell_volume   443.41681140
_cell_formula_units_Z   1
loop_
 _symmetry_equiv_pos_site_id
 _symmetry_equiv_pos_as_xyz
  1  'x, y, z'
loop_
 _atom_site_type_symbol
 _atom_site_label
 _atom_site_symmetry_multiplicity
 _atom_site_fract_x
 _atom_site_fract_y
 _atom_site_fract_z
 _atom_site_occupancy
  Tb  Tb0  1  0.480392  0.294293  0.186453  1
  Tb  Tb1  1  0.108135  0.294237  0.813764  1
  Tb  Tb2  1  0.892161  0.706062  0.186453  1
  Tb  Tb3  1  0.519526  0.705628  0.813764  1
  Tb  Tb4  1  0.306278  0.619860  0.313623  1
  Tb  Tb5  1  0.306363  0.992590  0.686476  1
  Tb  Tb6  1  0.693887  0.380113  0.686476  1
  Tb  Tb7  1  0.693763  0.007345  0.313623  1
  Tb  Tb8  1  0.192249  0.205880  0.398129  1
  Tb  Tb9  1  0.807582  0.794765  0.602347  1
  Tb  Tb10  1  0.192526  0.793696  0.986221  1
  Y  Y11  1  0.807473  0.207277  0.014751  1
  Co  Co12  1  0.499764  0.611525  0.111290  1
  Co  Co13  1  0.501076  0.387886  0.888962  1
  Co  Co14  1  0.378366  0.999825  0.378191  1
  Co  Co15  1  0.620136  0.999747  0.619882  1
  Co  Co16  1  0.000464  0.999786  0.000251  1
  Sn  Sn17  1  0.999857  0.499487  0.499345  1
