# generated using pymatgen
data_NaTb3Hg4
_symmetry_space_group_name_H-M   'P 1'
_cell_length_a   6.43032174
_cell_length_b   6.43032138
_cell_length_c   5.26935900
_cell_angle_alpha   90.00000000
_cell_angle_beta   90.00000000
_cell_angle_gamma   71.28187129
_symmetry_Int_Tables_number   1
_chemical_formula_structural   NaTb3Hg4
_chemical_formula_sum   'Na1 Tb3 Hg4'
_cell_volume   206.35882000
_cell_formula_units_Z   1
loop_
 _symmetry_equiv_pos_site_id
 _symmetry_equiv_pos_as_xyz
  1  'x, y, z'
loop_
 _atom_site_type_symbol
 _atom_site_label
 _atom_site_symmetry_multiplicity
 _atom_site_fract_x
 _atom_site_fract_y
 _atom_site_fract_z
 _atom_site_occupancy
  Na  Na0  1  0.872682  0.872682  0.249998  1
  Tb  Tb1  1  0.641609  0.641609  0.749999  1
  Tb  Tb2  1  0.372946  0.372946  0.249998  1
  Tb  Tb3  1  0.114693  0.114693  0.749999  1
  Hg  Hg4  1  0.871112  0.368098  0.249998  1
  Hg  Hg5  1  0.147503  0.611359  0.749999  1
  Hg  Hg6  1  0.611359  0.147503  0.749999  1
  Hg  Hg7  1  0.368098  0.871112  0.249998  1
