# generated using pymatgen
data_Dy3YLu4(ReC2)4
_symmetry_space_group_name_H-M   'P 1'
_cell_length_a   5.05036800
_cell_length_b   6.55713000
_cell_length_c   9.74908700
_cell_angle_alpha   90.00260666
_cell_angle_beta   90.00000000
_cell_angle_gamma   90.00000000
_symmetry_Int_Tables_number   1
_chemical_formula_structural   Dy3YLu4(ReC2)4
_chemical_formula_sum   'Dy3 Y1 Lu4 Re4 C8'
_cell_volume   322.84998036
_cell_formula_units_Z   1
loop_
 _symmetry_equiv_pos_site_id
 _symmetry_equiv_pos_as_xyz
  1  'x, y, z'
loop_
 _atom_site_type_symbol
 _atom_site_label
 _atom_site_symmetry_multiplicity
 _atom_site_fract_x
 _atom_site_fract_y
 _atom_site_fract_z
 _atom_site_occupancy
  Dy  Dy0  1  0.250000  0.965733  0.285056  1
  Dy  Dy1  1  0.750000  0.534260  0.785035  1
  Dy  Dy2  1  0.750000  0.034261  0.714952  1
  Y  Y3  1  0.250000  0.465738  0.214958  1
  Lu  Lu4  1  0.250000  0.825568  0.941693  1
  Lu  Lu5  1  0.250000  0.325440  0.558358  1
  Lu  Lu6  1  0.750000  0.174546  0.058321  1
  Lu  Lu7  1  0.750000  0.674498  0.441681  1
  Re  Re8  1  0.250000  0.279314  0.867695  1
  Re  Re9  1  0.250000  0.779307  0.632295  1
  Re  Re10  1  0.750000  0.720839  0.132200  1
  Re  Re11  1  0.750000  0.220625  0.367790  1
  C  C12  1  0.250000  0.047969  0.739798  1
  C  C13  1  0.250000  0.548007  0.760210  1
  C  C14  1  0.750000  0.951978  0.260193  1
  C  C15  1  0.750000  0.451995  0.239791  1
  C  C16  1  0.250000  0.670480  0.448827  1
  C  C17  1  0.250000  0.170145  0.051115  1
  C  C18  1  0.750000  0.329631  0.551302  1
  C  C19  1  0.750000  0.829666  0.948730  1
