# generated using pymatgen
data_YEr5Zr4(Si5Ir2)4
_symmetry_space_group_name_H-M   'P 1'
_cell_length_a   12.50024800
_cell_length_b   12.50024800
_cell_length_c   4.17504600
_cell_angle_alpha   90.00000000
_cell_angle_beta   90.00000000
_cell_angle_gamma   90.00000000
_symmetry_Int_Tables_number   1
_chemical_formula_structural   YEr5Zr4(Si5Ir2)4
_chemical_formula_sum   'Y1 Er5 Zr4 Si20 Ir8'
_cell_volume   652.37682304
_cell_formula_units_Z   1
loop_
 _symmetry_equiv_pos_site_id
 _symmetry_equiv_pos_as_xyz
  1  'x, y, z'
loop_
 _atom_site_type_symbol
 _atom_site_label
 _atom_site_symmetry_multiplicity
 _atom_site_fract_x
 _atom_site_fract_y
 _atom_site_fract_z
 _atom_site_occupancy
  Y  Y0  1  0.500000  0.500000  0.000000  1
  Er  Er1  1  0.000000  0.000000  0.000000  1
  Er  Er2  1  0.884352  0.384241  0.500000  1
  Er  Er3  1  0.115648  0.615759  0.500000  1
  Er  Er4  1  0.384241  0.115648  0.500000  1
  Er  Er5  1  0.615759  0.884352  0.500000  1
  Zr  Zr6  1  0.673902  0.173882  0.500000  1
  Zr  Zr7  1  0.326098  0.826118  0.500000  1
  Zr  Zr8  1  0.173882  0.326098  0.500000  1
  Zr  Zr9  1  0.826118  0.673902  0.500000  1
  Si  Si10  1  0.566547  0.066171  0.000000  1
  Si  Si11  1  0.433453  0.933829  0.000000  1
  Si  Si12  1  0.066171  0.433453  0.000000  1
  Si  Si13  1  0.933829  0.566547  0.000000  1
  Si  Si14  1  0.665311  0.699679  0.000000  1
  Si  Si15  1  0.334689  0.300321  0.000000  1
  Si  Si16  1  0.165141  0.800746  0.000000  1
  Si  Si17  1  0.834859  0.199254  0.000000  1
  Si  Si18  1  0.300321  0.665311  0.000000  1
  Si  Si19  1  0.699679  0.334689  0.000000  1
  Si  Si20  1  0.199254  0.165141  0.000000  1
  Si  Si21  1  0.800746  0.834859  0.000000  1
  Si  Si22  1  0.657224  0.507614  0.500000  1
  Si  Si23  1  0.342776  0.492386  0.500000  1
  Si  Si24  1  0.156193  0.992480  0.500000  1
  Si  Si25  1  0.843807  0.007520  0.500000  1
  Si  Si26  1  0.492386  0.657224  0.500000  1
  Si  Si27  1  0.507614  0.342776  0.500000  1
  Si  Si28  1  0.007520  0.156193  0.500000  1
  Si  Si29  1  0.992480  0.843807  0.500000  1
  Ir  Ir30  1  0.746470  0.520148  0.000000  1
  Ir  Ir31  1  0.253530  0.479852  0.000000  1
  Ir  Ir32  1  0.245816  0.979929  0.000000  1
  Ir  Ir33  1  0.754184  0.020071  0.000000  1
  Ir  Ir34  1  0.479852  0.746470  0.000000  1
  Ir  Ir35  1  0.520148  0.253530  0.000000  1
  Ir  Ir36  1  0.020071  0.245816  0.000000  1
  Ir  Ir37  1  0.979929  0.754184  0.000000  1
