# generated using pymatgen
data_NaHfH9W
_symmetry_space_group_name_H-M   'P 1'
_cell_length_a   7.98545600
_cell_length_b   7.98545448
_cell_length_c   4.86328100
_cell_angle_alpha   90.00000000
_cell_angle_beta   90.00000000
_cell_angle_gamma   120.00000630
_symmetry_Int_Tables_number   1
_chemical_formula_structural   NaHfH9W
_chemical_formula_sum   'Na3 Hf3 H27 W3'
_cell_volume   268.57113051
_cell_formula_units_Z   3
loop_
 _symmetry_equiv_pos_site_id
 _symmetry_equiv_pos_as_xyz
  1  'x, y, z'
loop_
 _atom_site_type_symbol
 _atom_site_label
 _atom_site_symmetry_multiplicity
 _atom_site_fract_x
 _atom_site_fract_y
 _atom_site_fract_z
 _atom_site_occupancy
  Na  Na0  1  0.000000  0.603509  0.000000  1
  Na  Na1  1  0.396491  0.396491  0.000000  1
  Na  Na2  1  0.603509  0.000000  0.000000  1
  Hf  Hf3  1  0.000000  0.250720  0.500000  1
  Hf  Hf4  1  0.749280  0.749280  0.500000  1
  Hf  Hf5  1  0.250720  0.000000  0.500000  1
  H  H6  1  0.835037  0.341115  0.749889  1
  H  H7  1  0.658885  0.493921  0.749889  1
  H  H8  1  0.506079  0.164963  0.749889  1
  H  H9  1  0.164963  0.506079  0.250111  1
  H  H10  1  0.506079  0.164963  0.250111  1
  H  H11  1  0.835037  0.341115  0.250111  1
  H  H12  1  0.658885  0.493921  0.250111  1
  H  H13  1  0.341115  0.835037  0.749889  1
  H  H14  1  0.493921  0.658885  0.749889  1
  H  H15  1  0.224092  0.000000  0.000000  1
  H  H16  1  0.775908  0.775908  0.000000  1
  H  H17  1  0.000000  0.224092  0.000000  1
  H  H18  1  0.834332  0.000000  0.279929  1
  H  H19  1  0.165668  0.165668  0.720071  1
  H  H20  1  0.000000  0.834332  0.720071  1
  H  H21  1  0.000000  0.834332  0.279929  1
  H  H22  1  0.165668  0.165668  0.279929  1
  H  H23  1  0.834332  0.000000  0.720071  1
  H  H24  1  0.126428  0.697058  0.500000  1
  H  H25  1  0.570630  0.873572  0.500000  1
  H  H26  1  0.302942  0.429370  0.500000  1
  H  H27  1  0.429370  0.302942  0.500000  1
  H  H28  1  0.873572  0.570630  0.500000  1
  H  H29  1  0.697058  0.126428  0.500000  1
  H  H30  1  0.164963  0.506079  0.749889  1
  H  H31  1  0.341115  0.835037  0.250111  1
  H  H32  1  0.493921  0.658885  0.250111  1
  W  W33  1  0.666667  0.333333  0.500000  1
  W  W34  1  0.333333  0.666667  0.500000  1
  W  W35  1  0.000000  0.000000  0.000000  1
