# generated using pymatgen
data_Tb4Sc4Ga3Ir
_symmetry_space_group_name_H-M   'P 1'
_cell_length_a   9.63405000
_cell_length_b   9.63404910
_cell_length_c   7.03604400
_cell_angle_alpha   90.00000000
_cell_angle_beta   90.00000000
_cell_angle_gamma   120.00000310
_symmetry_Int_Tables_number   1
_chemical_formula_structural   Tb4Sc4Ga3Ir
_chemical_formula_sum   'Tb8 Sc8 Ga6 Ir2'
_cell_volume   565.55769532
_cell_formula_units_Z   2
loop_
 _symmetry_equiv_pos_site_id
 _symmetry_equiv_pos_as_xyz
  1  'x, y, z'
loop_
 _atom_site_type_symbol
 _atom_site_label
 _atom_site_symmetry_multiplicity
 _atom_site_fract_x
 _atom_site_fract_y
 _atom_site_fract_z
 _atom_site_occupancy
  Tb  Tb0  1  0.532107  0.064212  0.790559  1
  Tb  Tb1  1  0.935788  0.467893  0.790559  1
  Tb  Tb2  1  0.532107  0.467893  0.790559  1
  Tb  Tb3  1  0.467893  0.935788  0.290559  1
  Tb  Tb4  1  0.064212  0.532107  0.290559  1
  Tb  Tb5  1  0.467893  0.532107  0.290559  1
  Tb  Tb6  1  0.000000  0.000000  0.769740  1
  Tb  Tb7  1  0.000000  0.000000  0.269740  1
  Sc  Sc8  1  0.828149  0.656299  0.486887  1
  Sc  Sc9  1  0.343701  0.171851  0.486887  1
  Sc  Sc10  1  0.828149  0.171851  0.486887  1
  Sc  Sc11  1  0.171851  0.343701  0.986887  1
  Sc  Sc12  1  0.656299  0.828149  0.986887  1
  Sc  Sc13  1  0.171851  0.828149  0.986887  1
  Sc  Sc14  1  0.666667  0.333333  0.166500  1
  Sc  Sc15  1  0.333333  0.666667  0.666500  1
  Ga  Ga16  1  0.835850  0.671703  0.052121  1
  Ga  Ga17  1  0.328297  0.164150  0.052121  1
  Ga  Ga18  1  0.835850  0.164150  0.052121  1
  Ga  Ga19  1  0.164150  0.328297  0.552121  1
  Ga  Ga20  1  0.671703  0.835850  0.552121  1
  Ga  Ga21  1  0.164150  0.835850  0.552121  1
  Ir  Ir22  1  0.666667  0.333333  0.538091  1
  Ir  Ir23  1  0.333333  0.666667  0.038091  1
