# generated using pymatgen
data_Nd2Ga8Ni9
_symmetry_space_group_name_H-M   'P 1'
_cell_length_a   6.51141973
_cell_length_b   6.51142001
_cell_length_c   6.51141961
_cell_angle_alpha   85.41309157
_cell_angle_beta   94.58691047
_cell_angle_gamma   94.58690713
_symmetry_Int_Tables_number   1
_chemical_formula_structural   Nd2Ga8Ni9
_chemical_formula_sum   'Nd2 Ga8 Ni9'
_cell_volume   273.55629994
_cell_formula_units_Z   1
loop_
 _symmetry_equiv_pos_site_id
 _symmetry_equiv_pos_as_xyz
  1  'x, y, z'
loop_
 _atom_site_type_symbol
 _atom_site_label
 _atom_site_symmetry_multiplicity
 _atom_site_fract_x
 _atom_site_fract_y
 _atom_site_fract_z
 _atom_site_occupancy
  Nd  Nd0  1  0.640221  0.359780  0.359779  1
  Nd  Nd1  1  0.359779  0.640221  0.640221  1
  Ga  Ga2  1  0.313072  0.313072  0.000000  1
  Ga  Ga3  1  0.686928  0.686928  0.000000  1
  Ga  Ga4  1  0.886626  0.113374  0.113374  1
  Ga  Ga5  1  0.313071  0.000000  0.313071  1
  Ga  Ga6  1  0.000000  0.686929  0.313072  1
  Ga  Ga7  1  0.686929  0.000000  0.686928  1
  Ga  Ga8  1  0.000000  0.313072  0.686929  1
  Ga  Ga9  1  0.113374  0.886626  0.886625  1
  Ni  Ni10  1  0.499999  0.000000  0.000000  1
  Ni  Ni11  1  0.000000  0.499999  0.000000  1
  Ni  Ni12  1  0.340871  0.659130  0.155859  1
  Ni  Ni13  1  0.155859  0.340869  0.340870  1
  Ni  Ni14  1  0.659130  0.844141  0.340870  1
  Ni  Ni15  1  0.000000  0.000000  0.499999  1
  Ni  Ni16  1  0.340870  0.155858  0.659130  1
  Ni  Ni17  1  0.844142  0.659129  0.659130  1
  Ni  Ni18  1  0.659131  0.340870  0.844142  1
