# generated using pymatgen
data_Li3Ho3HgGeP
_symmetry_space_group_name_H-M   'P 1'
_cell_length_a   7.11683100
_cell_length_b   7.11683073
_cell_length_c   4.13092600
_cell_angle_alpha   90.00000000
_cell_angle_beta   90.00000000
_cell_angle_gamma   119.99998729
_symmetry_Int_Tables_number   1
_chemical_formula_structural   Li3Ho3HgGeP
_chemical_formula_sum   'Li3 Ho3 Hg1 Ge1 P1'
_cell_volume   181.19716243
_cell_formula_units_Z   1
loop_
 _symmetry_equiv_pos_site_id
 _symmetry_equiv_pos_as_xyz
  1  'x, y, z'
loop_
 _atom_site_type_symbol
 _atom_site_label
 _atom_site_symmetry_multiplicity
 _atom_site_fract_x
 _atom_site_fract_y
 _atom_site_fract_z
 _atom_site_occupancy
  Li  Li0  1  0.250282  0.996709  0.500000  1
  Li  Li1  1  0.746427  0.749718  0.500000  1
  Li  Li2  1  0.003291  0.253573  0.500000  1
  Ho  Ho3  1  0.001203  0.567741  0.000000  1
  Ho  Ho4  1  0.566538  0.998797  0.000000  1
  Ho  Ho5  1  0.432259  0.433462  0.000000  1
  Hg  Hg6  1  0.000000  0.000000  0.000000  1
  Ge  Ge7  1  0.666667  0.333333  0.500000  1
  P  P8  1  0.333333  0.666667  0.500000  1
