# generated using pymatgen
data_LiLa6(DyPt3)2
_symmetry_space_group_name_H-M   'P 1'
_cell_length_a   7.78370035
_cell_length_b   7.78370001
_cell_length_c   7.78370046
_cell_angle_alpha   69.61546940
_cell_angle_beta   69.61547353
_cell_angle_gamma   69.61546821
_symmetry_Int_Tables_number   1
_chemical_formula_structural   LiLa6(DyPt3)2
_chemical_formula_sum   'Li1 La6 Dy2 Pt6'
_cell_volume   400.30220575
_cell_formula_units_Z   1
loop_
 _symmetry_equiv_pos_site_id
 _symmetry_equiv_pos_as_xyz
  1  'x, y, z'
loop_
 _atom_site_type_symbol
 _atom_site_label
 _atom_site_symmetry_multiplicity
 _atom_site_fract_x
 _atom_site_fract_y
 _atom_site_fract_z
 _atom_site_occupancy
  Li  Li0  1  0.000000  0.000000  0.000000  1
  La  La1  1  0.317438  0.612201  0.858717  1
  La  La2  1  0.858717  0.317438  0.612201  1
  La  La3  1  0.612201  0.858717  0.317438  1
  La  La4  1  0.682562  0.387799  0.141283  1
  La  La5  1  0.141283  0.682562  0.387799  1
  La  La6  1  0.387799  0.141283  0.682562  1
  Dy  Dy7  1  0.817416  0.817416  0.817416  1
  Dy  Dy8  1  0.182584  0.182584  0.182584  1
  Pt  Pt9  1  0.175543  0.957543  0.573784  1
  Pt  Pt10  1  0.573784  0.175543  0.957543  1
  Pt  Pt11  1  0.957543  0.573784  0.175543  1
  Pt  Pt12  1  0.824457  0.042457  0.426216  1
  Pt  Pt13  1  0.426216  0.824457  0.042457  1
  Pt  Pt14  1  0.042457  0.426216  0.824457  1
