# generated using pymatgen
data_TbPrTmGa8Ag3
_symmetry_space_group_name_H-M   'P 1'
_cell_length_a   4.35858841
_cell_length_b   8.41853567
_cell_length_c   8.41853453
_cell_angle_alpha   68.98724513
_cell_angle_beta   74.99706301
_cell_angle_gamma   74.99706342
_symmetry_Int_Tables_number   1
_chemical_formula_structural   TbPrTmGa8Ag3
_chemical_formula_sum   'Tb1 Pr1 Tm1 Ga8 Ag3'
_cell_volume   273.76620797
_cell_formula_units_Z   1
loop_
 _symmetry_equiv_pos_site_id
 _symmetry_equiv_pos_as_xyz
  1  'x, y, z'
loop_
 _atom_site_type_symbol
 _atom_site_label
 _atom_site_symmetry_multiplicity
 _atom_site_fract_x
 _atom_site_fract_y
 _atom_site_fract_z
 _atom_site_occupancy
  Tb  Tb0  1  0.199887  0.800113  0.800113  1
  Pr  Pr1  1  0.500275  0.499725  0.499725  1
  Tm  Tm2  1  0.800580  0.199420  0.199420  1
  Ga  Ga3  1  0.355499  0.360300  0.928701  1
  Ga  Ga4  1  0.644287  0.638829  0.072597  1
  Ga  Ga5  1  0.355499  0.928701  0.360300  1
  Ga  Ga6  1  0.644287  0.072597  0.638829  1
  Ga  Ga7  1  0.161443  0.470644  0.206470  1
  Ga  Ga8  1  0.839322  0.528228  0.793128  1
  Ga  Ga9  1  0.161443  0.206470  0.470644  1
  Ga  Ga10  1  0.839322  0.793128  0.528228  1
  Ag  Ag11  1  0.499401  0.000599  0.000599  1
  Ag  Ag12  1  0.999378  0.806694  0.194551  1
  Ag  Ag13  1  0.999378  0.194551  0.806694  1
