# generated using pymatgen
data_La3Pr13MgCd3Ir4
_symmetry_space_group_name_H-M   'P 1'
_cell_length_a   10.06351343
_cell_length_b   10.07463353
_cell_length_c   10.07463946
_cell_angle_alpha   60.17805079
_cell_angle_beta   60.16342212
_cell_angle_gamma   60.16347776
_symmetry_Int_Tables_number   1
_chemical_formula_structural   La3Pr13MgCd3Ir4
_chemical_formula_sum   'La3 Pr13 Mg1 Cd3 Ir4'
_cell_volume   725.01302449
_cell_formula_units_Z   1
loop_
 _symmetry_equiv_pos_site_id
 _symmetry_equiv_pos_as_xyz
  1  'x, y, z'
loop_
 _atom_site_type_symbol
 _atom_site_label
 _atom_site_symmetry_multiplicity
 _atom_site_fract_x
 _atom_site_fract_y
 _atom_site_fract_z
 _atom_site_occupancy
  La  La0  1  0.346617  0.347421  0.347421  1
  La  La1  1  0.346539  0.347448  0.959320  1
  La  La2  1  0.346539  0.959320  0.347448  1
  Pr  Pr3  1  0.954059  0.348671  0.348671  1
  Pr  Pr4  1  0.810402  0.190113  0.190113  1
  Pr  Pr5  1  0.188331  0.810552  0.810554  1
  Pr  Pr6  1  0.190133  0.810087  0.190144  1
  Pr  Pr7  1  0.811061  0.188314  0.810168  1
  Pr  Pr8  1  0.190132  0.190144  0.810087  1
  Pr  Pr9  1  0.811061  0.810169  0.188313  1
  Pr  Pr10  1  0.939152  0.561979  0.561980  1
  Pr  Pr11  1  0.560349  0.938943  0.938944  1
  Pr  Pr12  1  0.562624  0.938417  0.562633  1
  Pr  Pr13  1  0.939167  0.560394  0.939240  1
  Pr  Pr14  1  0.562624  0.562633  0.938417  1
  Pr  Pr15  1  0.939168  0.939240  0.560394  1
  Mg  Mg16  1  0.576074  0.574714  0.574714  1
  Cd  Cd17  1  0.581525  0.580295  0.258192  1
  Cd  Cd18  1  0.581525  0.258192  0.580295  1
  Cd  Cd19  1  0.257938  0.580845  0.580845  1
  Ir  Ir20  1  0.143069  0.141781  0.141781  1
  Ir  Ir21  1  0.143873  0.142631  0.574609  1
  Ir  Ir22  1  0.143873  0.574609  0.142631  1
  Ir  Ir23  1  0.574163  0.143083  0.143083  1
