# generated using pymatgen
data_HfSc7(Fe3Si4)4
_symmetry_space_group_name_H-M   'P 1'
_cell_length_a   9.66724678
_cell_length_b   9.66721488
_cell_length_c   12.92841186
_cell_angle_alpha   53.06104889
_cell_angle_beta   53.02906221
_cell_angle_gamma   30.68961767
_symmetry_Int_Tables_number   1
_chemical_formula_structural   HfSc7(Fe3Si4)4
_chemical_formula_sum   'Hf1 Sc7 Fe12 Si16'
_cell_volume   482.16633636
_cell_formula_units_Z   1
loop_
 _symmetry_equiv_pos_site_id
 _symmetry_equiv_pos_as_xyz
  1  'x, y, z'
loop_
 _atom_site_type_symbol
 _atom_site_label
 _atom_site_symmetry_multiplicity
 _atom_site_fract_x
 _atom_site_fract_y
 _atom_site_fract_z
 _atom_site_occupancy
  Hf  Hf0  1  0.292980  0.038177  0.141048  1
  Sc  Sc1  1  0.294358  0.565680  0.642409  1
  Sc  Sc2  1  0.432915  0.707133  0.858167  1
  Sc  Sc3  1  0.705541  0.434976  0.357156  1
  Sc  Sc4  1  0.567885  0.292272  0.142169  1
  Sc  Sc5  1  0.035576  0.291708  0.643605  1
  Sc  Sc6  1  0.707443  0.963352  0.857438  1
  Sc  Sc7  1  0.964540  0.707873  0.356264  1
  Fe  Fe8  1  0.647112  0.832297  0.277820  1
  Fe  Fe9  1  0.166306  0.351841  0.221059  1
  Fe  Fe10  1  0.756860  0.485692  0.068025  1
  Fe  Fe11  1  0.832881  0.647495  0.778296  1
  Fe  Fe12  1  0.896429  0.141503  0.586049  1
  Fe  Fe13  1  0.859466  0.103705  0.913413  1
  Fe  Fe14  1  0.104695  0.858504  0.413717  1
  Fe  Fe15  1  0.142103  0.896166  0.086885  1
  Fe  Fe16  1  0.240677  0.512940  0.934625  1
  Fe  Fe17  1  0.493237  0.752456  0.565234  1
  Fe  Fe18  1  0.506710  0.247064  0.434847  1
  Fe  Fe19  1  0.352459  0.168167  0.721978  1
  Si  Si20  1  0.877490  0.121877  0.250917  1
  Si  Si21  1  0.122318  0.877262  0.750078  1
  Si  Si22  1  0.381697  0.618596  0.250027  1
  Si  Si23  1  0.618201  0.379912  0.751206  1
  Si  Si24  1  0.970212  0.256470  0.896067  1
  Si  Si25  1  0.743882  0.030507  0.604365  1
  Si  Si26  1  0.030567  0.742805  0.104157  1
  Si  Si27  1  0.255985  0.970412  0.395333  1
  Si  Si28  1  0.569443  0.093550  0.064525  1
  Si  Si29  1  0.908817  0.430946  0.433286  1
  Si  Si30  1  0.433296  0.906934  0.934045  1
  Si  Si31  1  0.090583  0.569996  0.566453  1
  Si  Si32  1  0.392458  0.134922  0.395411  1
  Si  Si33  1  0.860415  0.611289  0.104227  1
  Si  Si34  1  0.607282  0.865204  0.604015  1
  Si  Si35  1  0.137183  0.390319  0.895682  1
