# generated using pymatgen
data_TlCdPS4
_symmetry_space_group_name_H-M   'P 1'
_cell_length_a   12.16277700
_cell_length_b   6.57531426
_cell_length_c   12.12627500
_cell_angle_alpha   56.90734347
_cell_angle_beta   90.00000000
_cell_angle_gamma   90.00000000
_symmetry_Int_Tables_number   1
_chemical_formula_structural   TlCdPS4
_chemical_formula_sum   'Tl4 Cd4 P4 S16'
_cell_volume   812.47717826
_cell_formula_units_Z   4
loop_
 _symmetry_equiv_pos_site_id
 _symmetry_equiv_pos_as_xyz
  1  'x, y, z'
loop_
 _atom_site_type_symbol
 _atom_site_label
 _atom_site_symmetry_multiplicity
 _atom_site_fract_x
 _atom_site_fract_y
 _atom_site_fract_z
 _atom_site_occupancy
  Tl  Tl0  1  0.355256  0.460642  0.763475  1
  Tl  Tl1  1  0.855256  0.539358  0.736525  1
  Tl  Tl2  1  0.644744  0.539358  0.236525  1
  Tl  Tl3  1  0.144744  0.460642  0.263475  1
  Cd  Cd4  1  0.121005  0.910314  0.852589  1
  Cd  Cd5  1  0.621005  0.089686  0.647411  1
  Cd  Cd6  1  0.878995  0.089686  0.147411  1
  Cd  Cd7  1  0.378995  0.910314  0.352589  1
  P  P8  1  0.311971  0.180704  0.556355  1
  P  P9  1  0.811971  0.819296  0.943645  1
  P  P10  1  0.688029  0.819296  0.443645  1
  P  P11  1  0.188029  0.180704  0.056355  1
  S  S12  1  0.417885  0.004412  0.714420  1
  S  S13  1  0.917885  0.995588  0.785580  1
  S  S14  1  0.582115  0.995588  0.285580  1
  S  S15  1  0.082115  0.004412  0.214420  1
  S  S16  1  0.121361  0.473120  0.887276  1
  S  S17  1  0.621361  0.526880  0.612724  1
  S  S18  1  0.878639  0.526880  0.112724  1
  S  S19  1  0.378639  0.473120  0.387276  1
  S  S20  1  0.177536  0.286066  0.614672  1
  S  S21  1  0.677536  0.713934  0.885328  1
  S  S22  1  0.822464  0.713934  0.385328  1
  S  S23  1  0.322464  0.286066  0.114672  1
  S  S24  1  0.252954  0.935525  0.511846  1
  S  S25  1  0.752954  0.064475  0.988154  1
  S  S26  1  0.747046  0.064475  0.488154  1
  S  S27  1  0.247046  0.935525  0.011846  1
