# generated using pymatgen
data_ZrBeCu3Au
_symmetry_space_group_name_H-M   'P 1'
_cell_length_a   4.91442484
_cell_length_b   4.91442560
_cell_length_c   4.80572674
_cell_angle_alpha   59.24892994
_cell_angle_beta   59.24892771
_cell_angle_gamma   60.00000110
_symmetry_Int_Tables_number   1
_chemical_formula_structural   ZrBeCu3Au
_chemical_formula_sum   'Zr1 Be1 Cu3 Au1'
_cell_volume   81.12688540
_cell_formula_units_Z   1
loop_
 _symmetry_equiv_pos_site_id
 _symmetry_equiv_pos_as_xyz
  1  'x, y, z'
loop_
 _atom_site_type_symbol
 _atom_site_label
 _atom_site_symmetry_multiplicity
 _atom_site_fract_x
 _atom_site_fract_y
 _atom_site_fract_z
 _atom_site_occupancy
  Zr  Zr0  1  0.000028  0.000028  0.999915  1
  Be  Be1  1  0.623219  0.623219  0.130341  1
  Cu  Cu2  1  0.624606  0.124974  0.625813  1
  Cu  Cu3  1  0.124974  0.624606  0.625813  1
  Cu  Cu4  1  0.624606  0.624606  0.625813  1
  Au  Au5  1  0.252566  0.252566  0.242303  1
