# generated using pymatgen
data_Er12Ni4AgBi
_symmetry_space_group_name_H-M   'P 1'
_cell_length_a   8.34051347
_cell_length_b   8.34051217
_cell_length_c   8.34051276
_cell_angle_alpha   112.17968148
_cell_angle_beta   108.97371450
_cell_angle_gamma   107.29870068
_symmetry_Int_Tables_number   1
_chemical_formula_structural   Er12Ni4AgBi
_chemical_formula_sum   'Er12 Ni4 Ag1 Bi1'
_cell_volume   445.79561609
_cell_formula_units_Z   1
loop_
 _symmetry_equiv_pos_site_id
 _symmetry_equiv_pos_as_xyz
  1  'x, y, z'
loop_
 _atom_site_type_symbol
 _atom_site_label
 _atom_site_symmetry_multiplicity
 _atom_site_fract_x
 _atom_site_fract_y
 _atom_site_fract_z
 _atom_site_occupancy
  Er  Er0  1  0.321478  0.129032  0.807554  1
  Er  Er1  1  0.678522  0.486077  0.807554  1
  Er  Er2  1  0.423259  0.719411  0.703848  1
  Er  Er3  1  0.576741  0.280589  0.296152  1
  Er  Er4  1  0.984435  0.280589  0.703848  1
  Er  Er5  1  0.015565  0.719411  0.296152  1
  Er  Er6  1  0.321478  0.513923  0.192446  1
  Er  Er7  1  0.678522  0.870968  0.192446  1
  Er  Er8  1  0.178546  0.793029  0.971576  1
  Er  Er9  1  0.821454  0.793029  0.614484  1
  Er  Er10  1  0.178546  0.206971  0.385516  1
  Er  Er11  1  0.821454  0.206971  0.028424  1
  Ni  Ni12  1  0.874222  0.874222  0.000000  1
  Ni  Ni13  1  0.125778  0.125778  0.000000  1
  Ni  Ni14  1  0.637530  0.500000  0.137530  1
  Ni  Ni15  1  0.362470  0.500000  0.862470  1
  Ag  Ag16  1  0.000000  0.500000  0.500000  1
  Bi  Bi17  1  0.500000  0.000000  0.500000  1
