# generated using pymatgen
data_Ba2YUSe6
_symmetry_space_group_name_H-M   'P 1'
_cell_length_a   7.47341647
_cell_length_b   7.86174339
_cell_length_c   13.12749322
_cell_angle_alpha   90.03823681
_cell_angle_beta   124.57819204
_cell_angle_gamma   89.99273465
_symmetry_Int_Tables_number   1
_chemical_formula_structural   Ba2YUSe6
_chemical_formula_sum   'Ba4 Y2 U2 Se12'
_cell_volume   635.04647872
_cell_formula_units_Z   2
loop_
 _symmetry_equiv_pos_site_id
 _symmetry_equiv_pos_as_xyz
  1  'x, y, z'
loop_
 _atom_site_type_symbol
 _atom_site_label
 _atom_site_symmetry_multiplicity
 _atom_site_fract_x
 _atom_site_fract_y
 _atom_site_fract_z
 _atom_site_occupancy
  Ba  Ba0  1  0.769621  0.928469  0.249493  1
  Ba  Ba1  1  0.230642  0.428508  0.250740  1
  Ba  Ba2  1  0.769358  0.571493  0.749260  1
  Ba  Ba3  1  0.230379  0.071531  0.750507  1
  Y  Y4  1  0.500000  0.500001  0.000000  1
  Y  Y5  1  0.500000  0.000000  0.500000  1
  U  U6  1  0.000000  0.000000  0.000000  1
  U  U7  1  0.000000  0.500001  0.500000  1
  Se  Se8  1  0.852724  0.705635  0.045759  1
  Se  Se9  1  0.747489  0.196212  0.044746  1
  Se  Se10  1  0.332658  0.017827  0.245669  1
  Se  Se11  1  0.667250  0.517758  0.254233  1
  Se  Se12  1  0.252652  0.696321  0.455336  1
  Se  Se13  1  0.147370  0.205489  0.454305  1
  Se  Se14  1  0.852631  0.794510  0.545695  1
  Se  Se15  1  0.747348  0.303679  0.544665  1
  Se  Se16  1  0.332750  0.482242  0.745767  1
  Se  Se17  1  0.667342  0.982173  0.754330  1
  Se  Se18  1  0.252510  0.803788  0.955254  1
  Se  Se19  1  0.147275  0.294366  0.954241  1
