# generated using pymatgen
data_RbNb(AgSe2)2
_symmetry_space_group_name_H-M   'P 1'
_cell_length_a   10.43862426
_cell_length_b   10.43862385
_cell_length_c   8.39516600
_cell_angle_alpha   90.00000000
_cell_angle_beta   90.00000000
_cell_angle_gamma   145.61771569
_symmetry_Int_Tables_number   1
_chemical_formula_structural   RbNb(AgSe2)2
_chemical_formula_sum   'Rb2 Nb2 Ag4 Se8'
_cell_volume   516.58608746
_cell_formula_units_Z   2
loop_
 _symmetry_equiv_pos_site_id
 _symmetry_equiv_pos_as_xyz
  1  'x, y, z'
loop_
 _atom_site_type_symbol
 _atom_site_label
 _atom_site_symmetry_multiplicity
 _atom_site_fract_x
 _atom_site_fract_y
 _atom_site_fract_z
 _atom_site_occupancy
  Rb  Rb0  1  0.453256  0.821607  0.750000  1
  Rb  Rb1  1  0.821607  0.453256  0.250000  1
  Nb  Nb2  1  0.522861  0.297302  0.750000  1
  Nb  Nb3  1  0.297302  0.522861  0.250000  1
  Ag  Ag4  1  0.373817  0.373817  0.000000  1
  Ag  Ag5  1  0.373817  0.373817  0.500000  1
  Ag  Ag6  1  0.024783  0.795419  0.750000  1
  Ag  Ag7  1  0.795419  0.024783  0.250000  1
  Se  Se8  1  0.650914  0.631282  0.750000  1
  Se  Se9  1  0.631282  0.650914  0.250000  1
  Se  Se10  1  0.305907  0.067343  0.993713  1
  Se  Se11  1  0.067343  0.305907  0.493713  1
  Se  Se12  1  0.411466  0.840398  0.250000  1
  Se  Se13  1  0.067343  0.305907  0.006287  1
  Se  Se14  1  0.305907  0.067343  0.506287  1
  Se  Se15  1  0.840398  0.411466  0.750000  1
