# generated using pymatgen
data_Ho6Sc4AlSb5
_symmetry_space_group_name_H-M   'P 1'
_cell_length_a   8.72577500
_cell_length_b   8.73551307
_cell_length_c   6.13135800
_cell_angle_alpha   90.00000000
_cell_angle_beta   90.00000000
_cell_angle_gamma   119.96313439
_symmetry_Int_Tables_number   1
_chemical_formula_structural   Ho6Sc4AlSb5
_chemical_formula_sum   'Ho6 Sc4 Al1 Sb5'
_cell_volume   404.89363295
_cell_formula_units_Z   1
loop_
 _symmetry_equiv_pos_site_id
 _symmetry_equiv_pos_as_xyz
  1  'x, y, z'
loop_
 _atom_site_type_symbol
 _atom_site_label
 _atom_site_symmetry_multiplicity
 _atom_site_fract_x
 _atom_site_fract_y
 _atom_site_fract_z
 _atom_site_occupancy
  Ho  Ho0  1  0.752823  0.000000  0.750000  1
  Ho  Ho1  1  0.754809  0.756193  0.250000  1
  Ho  Ho2  1  0.998616  0.243807  0.250000  1
  Ho  Ho3  1  0.009381  0.762513  0.750000  1
  Ho  Ho4  1  0.246867  0.237487  0.750000  1
  Ho  Ho5  1  0.242062  0.000000  0.250000  1
  Sc  Sc6  1  0.334670  0.672350  0.997897  1
  Sc  Sc7  1  0.662321  0.327650  0.502103  1
  Sc  Sc8  1  0.662321  0.327650  0.997897  1
  Sc  Sc9  1  0.334670  0.672350  0.502103  1
  Al  Al10  1  0.401053  0.000000  0.750000  1
  Sb  Sb11  1  0.394646  0.397112  0.250000  1
  Sb  Sb12  1  0.997534  0.602888  0.250000  1
  Sb  Sb13  1  0.001757  0.395299  0.750000  1
  Sb  Sb14  1  0.606458  0.604701  0.750000  1
  Sb  Sb15  1  0.600011  0.000000  0.250000  1
