# generated using pymatgen
data_Ho7Er3(Hg2Pd)4
_symmetry_space_group_name_H-M   'P 1'
_cell_length_a   3.61495600
_cell_length_b   7.95768005
_cell_length_c   18.07681897
_cell_angle_alpha   90.01069045
_cell_angle_beta   90.00000000
_cell_angle_gamma   90.00000000
_symmetry_Int_Tables_number   1
_chemical_formula_structural   Ho7Er3(Hg2Pd)4
_chemical_formula_sum   'Ho7 Er3 Hg8 Pd4'
_cell_volume   520.00975457
_cell_formula_units_Z   1
loop_
 _symmetry_equiv_pos_site_id
 _symmetry_equiv_pos_as_xyz
  1  'x, y, z'
loop_
 _atom_site_type_symbol
 _atom_site_label
 _atom_site_symmetry_multiplicity
 _atom_site_fract_x
 _atom_site_fract_y
 _atom_site_fract_z
 _atom_site_occupancy
  Ho  Ho0  1  0.000000  0.500089  0.499965  1
  Ho  Ho1  1  0.000000  0.000135  0.999897  1
  Ho  Ho2  1  0.000000  0.729886  0.286983  1
  Ho  Ho3  1  0.000000  0.269887  0.713123  1
  Ho  Ho4  1  0.000000  0.770061  0.786592  1
  Ho  Ho5  1  0.000000  0.230171  0.213613  1
  Ho  Ho6  1  0.000000  0.612147  0.083921  1
  Er  Er7  1  0.000000  0.388246  0.915481  1
  Er  Er8  1  0.000000  0.888130  0.584179  1
  Er  Er9  1  0.000000  0.111670  0.415891  1
  Hg  Hg10  1  0.500000  0.711588  0.936459  1
  Hg  Hg11  1  0.500000  0.287758  0.063454  1
  Hg  Hg12  1  0.500000  0.788467  0.436787  1
  Hg  Hg13  1  0.500000  0.211600  0.562855  1
  Hg  Hg14  1  0.500000  0.588882  0.648091  1
  Hg  Hg15  1  0.500000  0.411061  0.351910  1
  Hg  Hg16  1  0.500000  0.911465  0.148740  1
  Hg  Hg17  1  0.500000  0.088844  0.851762  1
  Pd  Pd18  1  0.500000  0.522899  0.196516  1
  Pd  Pd19  1  0.500000  0.478377  0.803553  1
  Pd  Pd20  1  0.500000  0.977021  0.696186  1
  Pd  Pd21  1  0.500000  0.021619  0.304042  1
