# generated using pymatgen
data_Y7Th(CdIr)2
_symmetry_space_group_name_H-M   'P 1'
_cell_length_a   9.72725975
_cell_length_b   9.72725885
_cell_length_c   9.73357800
_cell_angle_alpha   59.97850797
_cell_angle_beta   59.97851106
_cell_angle_gamma   60.08068156
_symmetry_Int_Tables_number   1
_chemical_formula_structural   Y7Th(CdIr)2
_chemical_formula_sum   'Y14 Th2 Cd4 Ir4'
_cell_volume   651.42030771
_cell_formula_units_Z   2
loop_
 _symmetry_equiv_pos_site_id
 _symmetry_equiv_pos_as_xyz
  1  'x, y, z'
loop_
 _atom_site_type_symbol
 _atom_site_label
 _atom_site_symmetry_multiplicity
 _atom_site_fract_x
 _atom_site_fract_y
 _atom_site_fract_z
 _atom_site_occupancy
  Y  Y0  1  0.352383  0.946732  0.350443  1
  Y  Y1  1  0.946732  0.352383  0.350443  1
  Y  Y2  1  0.811307  0.188959  0.190003  1
  Y  Y3  1  0.188959  0.811307  0.809731  1
  Y  Y4  1  0.188959  0.811307  0.190003  1
  Y  Y5  1  0.811307  0.188959  0.809731  1
  Y  Y6  1  0.187443  0.187443  0.812557  1
  Y  Y7  1  0.810706  0.810706  0.189294  1
  Y  Y8  1  0.938195  0.563765  0.563297  1
  Y  Y9  1  0.563765  0.938195  0.934744  1
  Y  Y10  1  0.563765  0.938195  0.563297  1
  Y  Y11  1  0.938195  0.563765  0.934744  1
  Y  Y12  1  0.564576  0.564576  0.935424  1
  Y  Y13  1  0.940110  0.940110  0.559890  1
  Th  Th14  1  0.346402  0.346402  0.349425  1
  Th  Th15  1  0.346402  0.346402  0.957771  1
  Cd  Cd16  1  0.581618  0.581618  0.579753  1
  Cd  Cd17  1  0.581618  0.581618  0.257013  1
  Cd  Cd18  1  0.582396  0.253025  0.582290  1
  Cd  Cd19  1  0.253025  0.582396  0.582290  1
  Ir  Ir20  1  0.142461  0.142461  0.143194  1
  Ir  Ir21  1  0.142461  0.142461  0.571884  1
  Ir  Ir22  1  0.145008  0.572209  0.141392  1
  Ir  Ir23  1  0.572209  0.145008  0.141392  1
