# generated using pymatgen
data_SmY5NiI10
_symmetry_space_group_name_H-M   'P 1'
_cell_length_a   7.72300127
_cell_length_b   9.70882051
_cell_length_c   9.76227752
_cell_angle_alpha   107.16303034
_cell_angle_beta   96.83994329
_cell_angle_gamma   104.72272068
_symmetry_Int_Tables_number   1
_chemical_formula_structural   SmY5NiI10
_chemical_formula_sum   'Sm1 Y5 Ni1 I10'
_cell_volume   661.34013068
_cell_formula_units_Z   1
loop_
 _symmetry_equiv_pos_site_id
 _symmetry_equiv_pos_as_xyz
  1  'x, y, z'
loop_
 _atom_site_type_symbol
 _atom_site_label
 _atom_site_symmetry_multiplicity
 _atom_site_fract_x
 _atom_site_fract_y
 _atom_site_fract_z
 _atom_site_occupancy
  Sm  Sm0  1  0.885815  0.959071  0.238838  1
  Y  Y1  1  0.112784  0.040240  0.763869  1
  Y  Y2  1  0.030184  0.719454  0.914881  1
  Y  Y3  1  0.970204  0.280579  0.083207  1
  Y  Y4  1  0.658433  0.878476  0.837667  1
  Y  Y5  1  0.342135  0.121991  0.161481  1
  Ni  Ni6  1  0.999963  0.999837  0.999879  1
  I  I7  1  0.647163  0.549040  0.728186  1
  I  I8  1  0.352558  0.451028  0.271912  1
  I  I9  1  0.740243  0.912052  0.540370  1
  I  I10  1  0.263837  0.089566  0.464599  1
  I  I11  1  0.085132  0.371666  0.819566  1
  I  I12  1  0.915912  0.624381  0.177921  1
  I  I13  1  0.450521  0.814581  0.090804  1
  I  I14  1  0.546170  0.184079  0.907258  1
  I  I15  1  0.223318  0.743042  0.654835  1
  I  I16  1  0.775628  0.260916  0.344726  1
