# generated using pymatgen
data_Cs6CeSmBr12
_symmetry_space_group_name_H-M   'P 1'
_cell_length_a   10.10104456
_cell_length_b   10.10188054
_cell_length_c   8.40450000
_cell_angle_alpha   90.00000000
_cell_angle_beta   90.00000000
_cell_angle_gamma   89.89122182
_symmetry_Int_Tables_number   1
_chemical_formula_structural   Cs6CeSmBr12
_chemical_formula_sum   'Cs6 Ce1 Sm1 Br12'
_cell_volume   857.58981459
_cell_formula_units_Z   1
loop_
 _symmetry_equiv_pos_site_id
 _symmetry_equiv_pos_as_xyz
  1  'x, y, z'
loop_
 _atom_site_type_symbol
 _atom_site_label
 _atom_site_symmetry_multiplicity
 _atom_site_fract_x
 _atom_site_fract_y
 _atom_site_fract_z
 _atom_site_occupancy
  Cs  Cs0  1  0.000000  0.000000  0.500000  1
  Cs  Cs1  1  0.000000  0.000000  0.000000  1
  Cs  Cs2  1  0.234890  0.584055  0.500000  1
  Cs  Cs3  1  0.765110  0.415945  0.500000  1
  Cs  Cs4  1  0.415773  0.235533  0.000000  1
  Cs  Cs5  1  0.584227  0.764467  0.000000  1
  Ce  Ce6  1  0.500000  0.000000  0.500000  1
  Sm  Sm7  1  0.000000  0.500000  0.000000  1
  Br  Br8  1  0.697524  0.059053  0.746132  1
  Br  Br9  1  0.302476  0.940947  0.746132  1
  Br  Br10  1  0.942251  0.693500  0.241727  1
  Br  Br11  1  0.057749  0.306500  0.241727  1
  Br  Br12  1  0.302476  0.940947  0.253868  1
  Br  Br13  1  0.697524  0.059053  0.253868  1
  Br  Br14  1  0.057749  0.306500  0.758273  1
  Br  Br15  1  0.942251  0.693500  0.758273  1
  Br  Br16  1  0.570807  0.720640  0.500000  1
  Br  Br17  1  0.429193  0.279360  0.500000  1
  Br  Br18  1  0.273983  0.569576  0.000000  1
  Br  Br19  1  0.726017  0.430424  0.000000  1
