# generated using pymatgen
data_CaLuRh4
_symmetry_space_group_name_H-M   'P 1'
_cell_length_a   5.32560059
_cell_length_b   5.32560055
_cell_length_c   5.32560000
_cell_angle_alpha   59.99999097
_cell_angle_beta   59.99999127
_cell_angle_gamma   59.99998671
_symmetry_Int_Tables_number   1
_chemical_formula_structural   CaLuRh4
_chemical_formula_sum   'Ca1 Lu1 Rh4'
_cell_volume   106.80476412
_cell_formula_units_Z   1
loop_
 _symmetry_equiv_pos_site_id
 _symmetry_equiv_pos_as_xyz
  1  'x, y, z'
loop_
 _atom_site_type_symbol
 _atom_site_label
 _atom_site_symmetry_multiplicity
 _atom_site_fract_x
 _atom_site_fract_y
 _atom_site_fract_z
 _atom_site_occupancy
  Ca  Ca0  1  0.500000  0.500000  0.500000  1
  Lu  Lu1  1  0.750000  0.750000  0.750000  1
  Rh  Rh2  1  0.124950  0.124950  0.124950  1
  Rh  Rh3  1  0.625151  0.124950  0.124950  1
  Rh  Rh4  1  0.124950  0.625151  0.124950  1
  Rh  Rh5  1  0.124950  0.124950  0.625151  1
