# generated using pymatgen
data_Tb4B16Ir3Pt
_symmetry_space_group_name_H-M   'P 1'
_cell_length_a   7.04098934
_cell_length_b   7.04098976
_cell_length_c   7.04098974
_cell_angle_alpha   111.62979612
_cell_angle_beta   111.52921373
_cell_angle_gamma   105.33227418
_symmetry_Int_Tables_number   1
_chemical_formula_structural   Tb4B16Ir3Pt
_chemical_formula_sum   'Tb4 B16 Ir3 Pt1'
_cell_volume   267.66519929
_cell_formula_units_Z   1
loop_
 _symmetry_equiv_pos_site_id
 _symmetry_equiv_pos_as_xyz
  1  'x, y, z'
loop_
 _atom_site_type_symbol
 _atom_site_label
 _atom_site_symmetry_multiplicity
 _atom_site_fract_x
 _atom_site_fract_y
 _atom_site_fract_z
 _atom_site_occupancy
  Tb  Tb0  1  0.218339  0.214270  0.004069  1
  Tb  Tb1  1  0.789800  0.785730  0.004069  1
  Tb  Tb2  1  0.743900  0.246426  0.497472  1
  Tb  Tb3  1  0.251046  0.753574  0.497472  1
  B  B4  1  0.106674  0.261988  0.368662  1
  B  B5  1  0.892863  0.736052  0.628915  1
  B  B6  1  0.892863  0.263948  0.156813  1
  B  B7  1  0.106674  0.738012  0.844684  1
  B  B8  1  0.733970  0.892334  0.626304  1
  B  B9  1  0.265096  0.107241  0.372335  1
  B  B10  1  0.733970  0.107666  0.841636  1
  B  B11  1  0.265096  0.892759  0.157856  1
  B  B12  1  0.415451  0.412922  0.524736  1
  B  B13  1  0.888282  0.887797  0.472982  1
  B  B14  1  0.585185  0.112203  0.000484  1
  B  B15  1  0.111815  0.587078  0.002530  1
  B  B16  1  0.585185  0.584701  0.472982  1
  B  B17  1  0.111815  0.109285  0.524736  1
  B  B18  1  0.888282  0.415299  0.000484  1
  B  B19  1  0.415451  0.890715  0.002530  1
  Ir  Ir20  1  0.500003  0.260662  0.760665  1
  Ir  Ir21  1  0.500003  0.739338  0.239341  1
  Ir  Ir22  1  0.742130  0.500000  0.242130  1
  Pt  Pt23  1  0.256110  0.500000  0.756110  1
