# generated using pymatgen
data_Zn22IrPd3
_symmetry_space_group_name_H-M   'P 1'
_cell_length_a   7.92040625
_cell_length_b   7.92040499
_cell_length_c   7.92040603
_cell_angle_alpha   109.46517981
_cell_angle_beta   109.46518218
_cell_angle_gamma   109.46516830
_symmetry_Int_Tables_number   1
_chemical_formula_structural   Zn22IrPd3
_chemical_formula_sum   'Zn22 Ir1 Pd3'
_cell_volume   382.57584369
_cell_formula_units_Z   1
loop_
 _symmetry_equiv_pos_site_id
 _symmetry_equiv_pos_as_xyz
  1  'x, y, z'
loop_
 _atom_site_type_symbol
 _atom_site_label
 _atom_site_symmetry_multiplicity
 _atom_site_fract_x
 _atom_site_fract_y
 _atom_site_fract_z
 _atom_site_occupancy
  Zn  Zn0  1  0.997937  0.783566  0.997937  1
  Zn  Zn1  1  0.783566  0.997937  0.997937  1
  Zn  Zn2  1  0.997937  0.997937  0.783566  1
  Zn  Zn3  1  0.217851  0.217851  0.217851  1
  Zn  Zn4  1  0.351543  0.620359  0.351543  1
  Zn  Zn5  1  0.272874  0.001452  0.650383  1
  Zn  Zn6  1  0.650383  0.001452  0.272874  1
  Zn  Zn7  1  0.272874  0.650383  0.001452  1
  Zn  Zn8  1  0.729785  0.729785  0.379515  1
  Zn  Zn9  1  0.379515  0.729785  0.729785  1
  Zn  Zn10  1  0.001452  0.650383  0.272874  1
  Zn  Zn11  1  0.001452  0.272874  0.650383  1
  Zn  Zn12  1  0.650383  0.272874  0.001452  1
  Zn  Zn13  1  0.351543  0.351543  0.620359  1
  Zn  Zn14  1  0.620359  0.351543  0.351543  1
  Zn  Zn15  1  0.729785  0.379515  0.729785  1
  Zn  Zn16  1  0.352506  0.352506  0.991374  1
  Zn  Zn17  1  0.001820  0.642991  0.642991  1
  Zn  Zn18  1  0.991374  0.352506  0.352506  1
  Zn  Zn19  1  0.352506  0.991374  0.352506  1
  Zn  Zn20  1  0.642991  0.001820  0.642991  1
  Zn  Zn21  1  0.642991  0.642991  0.001820  1
  Ir  Ir22  1  0.654462  0.654462  0.654462  1
  Pd  Pd23  1  0.001970  0.348173  0.001970  1
  Pd  Pd24  1  0.348173  0.001970  0.001970  1
  Pd  Pd25  1  0.001970  0.001970  0.348173  1
