# generated using pymatgen
data_Sm8BeCdPd23
_symmetry_space_group_name_H-M   'P 1'
_cell_length_a   8.39864900
_cell_length_b   8.50116600
_cell_length_c   8.51806300
_cell_angle_alpha   90.00000000
_cell_angle_beta   90.00000000
_cell_angle_gamma   90.00000000
_symmetry_Int_Tables_number   1
_chemical_formula_structural   Sm8BeCdPd23
_chemical_formula_sum   'Sm8 Be1 Cd1 Pd23'
_cell_volume   608.17529692
_cell_formula_units_Z   1
loop_
 _symmetry_equiv_pos_site_id
 _symmetry_equiv_pos_as_xyz
  1  'x, y, z'
loop_
 _atom_site_type_symbol
 _atom_site_label
 _atom_site_symmetry_multiplicity
 _atom_site_fract_x
 _atom_site_fract_y
 _atom_site_fract_z
 _atom_site_occupancy
  Sm  Sm0  1  0.251017  0.242067  0.261912  1
  Sm  Sm1  1  0.748189  0.747262  0.749264  1
  Sm  Sm2  1  0.748189  0.747262  0.250736  1
  Sm  Sm3  1  0.748189  0.252738  0.749264  1
  Sm  Sm4  1  0.251017  0.242067  0.738088  1
  Sm  Sm5  1  0.251017  0.757933  0.261912  1
  Sm  Sm6  1  0.251017  0.757933  0.738088  1
  Sm  Sm7  1  0.748189  0.252738  0.250736  1
  Be  Be8  1  0.000493  0.000000  0.000000  1
  Cd  Cd9  1  0.258964  0.500000  0.000000  1
  Pd  Pd10  1  0.745455  0.500000  0.000000  1
  Pd  Pd11  1  0.997097  0.254366  0.500000  1
  Pd  Pd12  1  0.496038  0.251955  0.000000  1
  Pd  Pd13  1  0.997097  0.745634  0.500000  1
  Pd  Pd14  1  0.496038  0.748045  0.000000  1
  Pd  Pd15  1  0.502116  0.000000  0.253993  1
  Pd  Pd16  1  0.254613  0.000000  0.500000  1
  Pd  Pd17  1  0.502116  0.000000  0.746007  1
  Pd  Pd18  1  0.744701  0.000000  0.500000  1
  Pd  Pd19  1  0.004169  0.500000  0.255318  1
  Pd  Pd20  1  0.004169  0.500000  0.744682  1
  Pd  Pd21  1  0.251574  0.500000  0.500000  1
  Pd  Pd22  1  0.748996  0.500000  0.500000  1
  Pd  Pd23  1  0.502285  0.251853  0.500000  1
  Pd  Pd24  1  0.502285  0.748147  0.500000  1
  Pd  Pd25  1  0.496454  0.500000  0.254248  1
  Pd  Pd26  1  0.496454  0.500000  0.745752  1
  Pd  Pd27  1  0.268970  0.000000  0.000000  1
  Pd  Pd28  1  0.730644  0.000000  0.000000  1
  Pd  Pd29  1  0.004630  0.267618  0.000000  1
  Pd  Pd30  1  0.004630  0.732382  0.000000  1
  Pd  Pd31  1  0.996595  0.000000  0.268308  1
  Pd  Pd32  1  0.996595  0.000000  0.731692  1
