# generated using pymatgen
data_HoTm11Tc3Ir
_symmetry_space_group_name_H-M   'P 1'
_cell_length_a   6.20275526
_cell_length_b   7.34894618
_cell_length_c   8.99048300
_cell_angle_alpha   90.00000000
_cell_angle_beta   90.00000000
_cell_angle_gamma   90.06908113
_symmetry_Int_Tables_number   1
_chemical_formula_structural   HoTm11Tc3Ir
_chemical_formula_sum   'Ho1 Tm11 Tc3 Ir1'
_cell_volume   409.81931347
_cell_formula_units_Z   1
loop_
 _symmetry_equiv_pos_site_id
 _symmetry_equiv_pos_as_xyz
  1  'x, y, z'
loop_
 _atom_site_type_symbol
 _atom_site_label
 _atom_site_symmetry_multiplicity
 _atom_site_fract_x
 _atom_site_fract_y
 _atom_site_fract_z
 _atom_site_occupancy
  Ho  Ho0  1  0.623136  0.038094  0.250000  1
  Tm  Tm1  1  0.334068  0.675914  0.063335  1
  Tm  Tm2  1  0.160835  0.175876  0.437506  1
  Tm  Tm3  1  0.663319  0.323182  0.561418  1
  Tm  Tm4  1  0.837483  0.824661  0.938190  1
  Tm  Tm5  1  0.663319  0.323182  0.938582  1
  Tm  Tm6  1  0.837483  0.824661  0.561810  1
  Tm  Tm7  1  0.334068  0.675914  0.436665  1
  Tm  Tm8  1  0.160835  0.175876  0.062494  1
  Tm  Tm9  1  0.875790  0.540329  0.250000  1
  Tm  Tm10  1  0.130061  0.457863  0.750000  1
  Tm  Tm11  1  0.373640  0.960848  0.750000  1
  Tc  Tc12  1  0.040658  0.883494  0.250000  1
  Tc  Tc13  1  0.462795  0.386431  0.250000  1
  Tc  Tc14  1  0.960787  0.116752  0.750000  1
  Ir  Ir15  1  0.541724  0.616924  0.750000  1
