# generated using pymatgen
data_PuNi4B
_symmetry_space_group_name_H-M   'P 1'
_cell_length_a   4.97219300
_cell_length_b   4.97219286
_cell_length_c   6.89448800
_cell_angle_alpha   90.00000000
_cell_angle_beta   90.00000000
_cell_angle_gamma   120.00000759
_symmetry_Int_Tables_number   1
_chemical_formula_structural   PuNi4B
_chemical_formula_sum   'Pu2 Ni8 B2'
_cell_volume   147.61434436
_cell_formula_units_Z   2
loop_
 _symmetry_equiv_pos_site_id
 _symmetry_equiv_pos_as_xyz
  1  'x, y, z'
loop_
 _atom_site_type_symbol
 _atom_site_label
 _atom_site_symmetry_multiplicity
 _atom_site_fract_x
 _atom_site_fract_y
 _atom_site_fract_z
 _atom_site_occupancy
  Pu  Pu0  1  0.000000  0.000000  0.000000  1
  Pu  Pu1  1  0.000000  0.000000  0.500000  1
  Ni  Ni2  1  0.666667  0.333333  0.000000  1
  Ni  Ni3  1  0.333333  0.666667  0.000000  1
  Ni  Ni4  1  0.500000  0.500000  0.708523  1
  Ni  Ni5  1  0.500000  0.000000  0.708523  1
  Ni  Ni6  1  0.000000  0.500000  0.708523  1
  Ni  Ni7  1  0.500000  0.500000  0.291477  1
  Ni  Ni8  1  0.500000  0.000000  0.291477  1
  Ni  Ni9  1  0.000000  0.500000  0.291477  1
  B  B10  1  0.666667  0.333333  0.500000  1
  B  B11  1  0.333333  0.666667  0.500000  1
