# generated using pymatgen
data_La15Tb(CdRh)4
_symmetry_space_group_name_H-M   'P 1'
_cell_length_a   10.07562851
_cell_length_b   10.07562879
_cell_length_c   10.09137500
_cell_angle_alpha   59.94828618
_cell_angle_beta   59.94828526
_cell_angle_gamma   60.31960963
_symmetry_Int_Tables_number   1
_chemical_formula_structural   La15Tb(CdRh)4
_chemical_formula_sum   'La15 Tb1 Cd4 Rh4'
_cell_volume   725.56467769
_cell_formula_units_Z   1
loop_
 _symmetry_equiv_pos_site_id
 _symmetry_equiv_pos_as_xyz
  1  'x, y, z'
loop_
 _atom_site_type_symbol
 _atom_site_label
 _atom_site_symmetry_multiplicity
 _atom_site_fract_x
 _atom_site_fract_y
 _atom_site_fract_z
 _atom_site_occupancy
  La  La0  1  0.294251  0.902593  0.901578  1
  La  La1  1  0.689618  0.310930  0.686050  1
  La  La2  1  0.310930  0.689618  0.313403  1
  La  La3  1  0.060180  0.436828  0.439661  1
  La  La4  1  0.689618  0.310930  0.313403  1
  La  La5  1  0.436828  0.060180  0.439661  1
  La  La6  1  0.436828  0.060180  0.063331  1
  La  La7  1  0.902660  0.902660  0.900494  1
  La  La8  1  0.060180  0.436828  0.063331  1
  La  La9  1  0.902593  0.294251  0.901578  1
  La  La10  1  0.310930  0.689618  0.686050  1
  La  La11  1  0.902660  0.902660  0.294185  1
  La  La12  1  0.439741  0.439741  0.060259  1
  La  La13  1  0.312461  0.312461  0.687539  1
  La  La14  1  0.688007  0.688007  0.311993  1
  Tb  Tb15  1  0.060292  0.060292  0.439708  1
  Cd  Cd16  1  0.989653  0.671741  0.669303  1
  Cd  Cd17  1  0.671741  0.989653  0.669303  1
  Cd  Cd18  1  0.670110  0.670110  0.989229  1
  Cd  Cd19  1  0.670110  0.670110  0.670550  1
  Rh  Rh20  1  0.108729  0.108729  0.673362  1
  Rh  Rh21  1  0.108270  0.674880  0.108425  1
  Rh  Rh22  1  0.108729  0.108729  0.109180  1
  Rh  Rh23  1  0.674880  0.108270  0.108425  1
