# generated using pymatgen
data_Tb2YPa(VB4)4
_symmetry_space_group_name_H-M   'P 1'
_cell_length_a   3.49057100
_cell_length_b   6.00522651
_cell_length_c   11.62240004
_cell_angle_alpha   89.91107361
_cell_angle_beta   90.00000000
_cell_angle_gamma   90.00000000
_symmetry_Int_Tables_number   1
_chemical_formula_structural   Tb2YPa(VB4)4
_chemical_formula_sum   'Tb2 Y1 Pa1 V4 B16'
_cell_volume   243.62461496
_cell_formula_units_Z   1
loop_
 _symmetry_equiv_pos_site_id
 _symmetry_equiv_pos_as_xyz
  1  'x, y, z'
loop_
 _atom_site_type_symbol
 _atom_site_label
 _atom_site_symmetry_multiplicity
 _atom_site_fract_x
 _atom_site_fract_y
 _atom_site_fract_z
 _atom_site_occupancy
  Tb  Tb0  1  0.000000  0.374405  0.651920  1
  Tb  Tb1  1  0.000000  0.123504  0.149600  1
  Y  Y2  1  0.000000  0.875438  0.849263  1
  Pa  Pa3  1  0.000000  0.625859  0.348795  1
  V  V4  1  0.000000  0.626051  0.084245  1
  V  V5  1  0.000000  0.372892  0.917782  1
  V  V6  1  0.000000  0.127625  0.416284  1
  V  V7  1  0.000000  0.872144  0.581453  1
  B  B8  1  0.500000  0.784467  0.185352  1
  B  B9  1  0.500000  0.214225  0.814378  1
  B  B10  1  0.500000  0.285403  0.315269  1
  B  B11  1  0.500000  0.715863  0.686045  1
  B  B12  1  0.500000  0.864597  0.032329  1
  B  B13  1  0.500000  0.135654  0.967350  1
  B  B14  1  0.500000  0.364691  0.467135  1
  B  B15  1  0.500000  0.637059  0.532406  1
  B  B16  1  0.500000  0.887532  0.453302  1
  B  B17  1  0.500000  0.114030  0.547292  1
  B  B18  1  0.500000  0.386105  0.046462  1
  B  B19  1  0.500000  0.614440  0.952725  1
  B  B20  1  0.500000  0.974762  0.308703  1
  B  B21  1  0.500000  0.022641  0.692644  1
  B  B22  1  0.500000  0.477281  0.191440  1
  B  B23  1  0.500000  0.523330  0.807827  1
