# generated using pymatgen
data_Dy5AlBi2Cl
_symmetry_space_group_name_H-M   'P 1'
_cell_length_a   9.20734400
_cell_length_b   9.12510178
_cell_length_c   6.52321000
_cell_angle_alpha   90.00000000
_cell_angle_beta   90.00000000
_cell_angle_gamma   120.29859706
_symmetry_Int_Tables_number   1
_chemical_formula_structural   Dy5AlBi2Cl
_chemical_formula_sum   'Dy10 Al2 Bi4 Cl2'
_cell_volume   473.20515423
_cell_formula_units_Z   2
loop_
 _symmetry_equiv_pos_site_id
 _symmetry_equiv_pos_as_xyz
  1  'x, y, z'
loop_
 _atom_site_type_symbol
 _atom_site_label
 _atom_site_symmetry_multiplicity
 _atom_site_fract_x
 _atom_site_fract_y
 _atom_site_fract_z
 _atom_site_occupancy
  Dy  Dy0  1  0.274355  0.000000  0.750000  1
  Dy  Dy1  1  0.725645  0.000000  0.250000  1
  Dy  Dy2  1  0.987173  0.252019  0.750000  1
  Dy  Dy3  1  0.012827  0.747981  0.250000  1
  Dy  Dy4  1  0.735155  0.747981  0.750000  1
  Dy  Dy5  1  0.264845  0.252019  0.250000  1
  Dy  Dy6  1  0.341868  0.683736  0.500000  1
  Dy  Dy7  1  0.658132  0.316264  0.500000  1
  Dy  Dy8  1  0.658132  0.316264  0.000000  1
  Dy  Dy9  1  0.341868  0.683736  0.000000  1
  Al  Al10  1  0.606388  0.000000  0.750000  1
  Al  Al11  1  0.393612  0.000000  0.250000  1
  Bi  Bi12  1  0.995532  0.611224  0.750000  1
  Bi  Bi13  1  0.004468  0.388776  0.250000  1
  Bi  Bi14  1  0.384308  0.388776  0.750000  1
  Bi  Bi15  1  0.615692  0.611224  0.250000  1
  Cl  Cl16  1  0.000000  0.000000  0.500000  1
  Cl  Cl17  1  0.000000  0.000000  0.000000  1
