# generated using pymatgen
data_Zr2CoSiI2
_symmetry_space_group_name_H-M   'P 1'
_cell_length_a   3.90624000
_cell_length_b   3.90623957
_cell_length_c   12.22735200
_cell_angle_alpha   90.00000000
_cell_angle_beta   90.00000000
_cell_angle_gamma   120.00002057
_symmetry_Int_Tables_number   1
_chemical_formula_structural   Zr2CoSiI2
_chemical_formula_sum   'Zr2 Co1 Si1 I2'
_cell_volume   161.57745173
_cell_formula_units_Z   1
loop_
 _symmetry_equiv_pos_site_id
 _symmetry_equiv_pos_as_xyz
  1  'x, y, z'
loop_
 _atom_site_type_symbol
 _atom_site_label
 _atom_site_symmetry_multiplicity
 _atom_site_fract_x
 _atom_site_fract_y
 _atom_site_fract_z
 _atom_site_occupancy
  Zr  Zr0  1  0.000000  0.000000  0.865881  1
  Zr  Zr1  1  0.000000  0.000000  0.140199  1
  Co  Co2  1  0.333333  0.666667  0.985715  1
  Si  Si3  1  0.666667  0.333333  0.008711  1
  I  I4  1  0.333333  0.666667  0.304441  1
  I  I5  1  0.666667  0.333333  0.695054  1
