# generated using pymatgen
data_TbYGaCo2
_symmetry_space_group_name_H-M   'P 1'
_cell_length_a   4.05473224
_cell_length_b   5.42604963
_cell_length_c   5.37042909
_cell_angle_alpha   120.34320172
_cell_angle_beta   112.17926879
_cell_angle_gamma   90.00000076
_symmetry_Int_Tables_number   1
_chemical_formula_structural   TbYGaCo2
_chemical_formula_sum   'Tb1 Y1 Ga1 Co2'
_cell_volume   91.69710482
_cell_formula_units_Z   1
loop_
 _symmetry_equiv_pos_site_id
 _symmetry_equiv_pos_as_xyz
  1  'x, y, z'
loop_
 _atom_site_type_symbol
 _atom_site_label
 _atom_site_symmetry_multiplicity
 _atom_site_fract_x
 _atom_site_fract_y
 _atom_site_fract_z
 _atom_site_occupancy
  Tb  Tb0  1  0.793277  0.293277  0.586554  1
  Y  Y1  1  0.206820  0.706820  0.413638  1
  Ga  Ga2  1  0.999958  0.999958  0.999916  1
  Co  Co3  1  0.499973  0.284917  0.999946  1
  Co  Co4  1  0.499973  0.715029  0.999946  1
