# generated using pymatgen
data_Yb3Er(Ga8Pt3)3
_symmetry_space_group_name_H-M   'P 1'
_cell_length_a   7.48446944
_cell_length_b   7.59249491
_cell_length_c   13.42993762
_cell_angle_alpha   84.97969607
_cell_angle_beta   100.65036357
_cell_angle_gamma   119.46690652
_symmetry_Int_Tables_number   1
_chemical_formula_structural   Yb3Er(Ga8Pt3)3
_chemical_formula_sum   'Yb3 Er1 Ga24 Pt9'
_cell_volume   652.99224390
_cell_formula_units_Z   1
loop_
 _symmetry_equiv_pos_site_id
 _symmetry_equiv_pos_as_xyz
  1  'x, y, z'
loop_
 _atom_site_type_symbol
 _atom_site_label
 _atom_site_symmetry_multiplicity
 _atom_site_fract_x
 _atom_site_fract_y
 _atom_site_fract_z
 _atom_site_occupancy
  Yb  Yb0  1  0.732400  0.999372  0.191947  1
  Yb  Yb1  1  0.266579  0.000693  0.808249  1
  Yb  Yb2  1  0.066015  0.668856  0.192328  1
  Er  Er3  1  0.933592  0.331278  0.807364  1
  Ga  Ga4  1  0.807207  0.870935  0.816605  1
  Ga  Ga5  1  0.190494  0.128490  0.182608  1
  Ga  Ga6  1  0.980156  0.666635  0.939987  1
  Ga  Ga7  1  0.021896  0.334373  0.060492  1
  Ga  Ga8  1  0.396931  0.662928  0.817794  1
  Ga  Ga9  1  0.602003  0.334260  0.181927  1
  Ga  Ga10  1  0.884980  0.665727  0.676122  1
  Ga  Ga11  1  0.116149  0.335226  0.324826  1
  Ga  Ga12  1  0.604223  0.460079  0.816112  1
  Ga  Ga13  1  0.396914  0.541430  0.183381  1
  Ga  Ga14  1  0.231352  0.338080  0.674443  1
  Ga  Ga15  1  0.769441  0.661750  0.326545  1
  Ga  Ga16  1  0.855447  0.333451  0.556157  1
  Ga  Ga17  1  0.184808  0.997580  0.556180  1
  Ga  Ga18  1  0.814842  0.002240  0.444040  1
  Ga  Ga19  1  0.356153  0.998140  0.058795  1
  Ga  Ga20  1  0.643442  0.002463  0.941099  1
  Ga  Ga21  1  0.557265  0.994623  0.675566  1
  Ga  Ga22  1  0.442400  0.004844  0.325213  1
  Ga  Ga23  1  0.521314  0.667685  0.559409  1
  Ga  Ga24  1  0.478998  0.332733  0.441037  1
  Ga  Ga25  1  0.688820  0.668673  0.053649  1
  Ga  Ga26  1  0.309810  0.330229  0.944804  1
  Ga  Ga27  1  0.144622  0.666120  0.444066  1
  Pt  Pt28  1  0.330243  0.669959  0.999978  1
  Pt  Pt29  1  0.547836  0.325004  0.636934  1
  Pt  Pt30  1  0.452635  0.674287  0.363808  1
  Pt  Pt31  1  0.889643  0.006735  0.639921  1
  Pt  Pt32  1  0.111280  0.993831  0.360773  1
  Pt  Pt33  1  0.670399  0.330919  0.998469  1
  Pt  Pt34  1  0.206736  0.666870  0.639616  1
  Pt  Pt35  1  0.793523  0.333541  0.361108  1
  Pt  Pt36  1  0.999452  0.999961  0.998648  1
