# generated using pymatgen
data_BaCoTcAs2
_symmetry_space_group_name_H-M   'P 1'
_cell_length_a   7.00936441
_cell_length_b   7.00936449
_cell_length_c   7.00936401
_cell_angle_alpha   146.08784741
_cell_angle_beta   146.08784899
_cell_angle_gamma   48.71630087
_symmetry_Int_Tables_number   1
_chemical_formula_structural   BaCoTcAs2
_chemical_formula_sum   'Ba1 Co1 Tc1 As2'
_cell_volume   106.73255087
_cell_formula_units_Z   1
loop_
 _symmetry_equiv_pos_site_id
 _symmetry_equiv_pos_as_xyz
  1  'x, y, z'
loop_
 _atom_site_type_symbol
 _atom_site_label
 _atom_site_symmetry_multiplicity
 _atom_site_fract_x
 _atom_site_fract_y
 _atom_site_fract_z
 _atom_site_occupancy
  Ba  Ba0  1  0.000000  0.000000  0.000000  1
  Co  Co1  1  0.250000  0.750000  0.500000  1
  Tc  Tc2  1  0.750000  0.250000  0.500000  1
  As  As3  1  0.650174  0.650174  0.000000  1
  As  As4  1  0.349826  0.349826  0.000000  1
