# generated using pymatgen
data_La2Co2Sn2C
_symmetry_space_group_name_H-M   'P 1'
_cell_length_a   6.00050038
_cell_length_b   6.00050073
_cell_length_c   7.42977300
_cell_angle_alpha   123.74463043
_cell_angle_beta   123.74463264
_cell_angle_gamma   42.68015702
_symmetry_Int_Tables_number   1
_chemical_formula_structural   La2Co2Sn2C
_chemical_formula_sum   'La2 Co2 Sn2 C1'
_cell_volume   145.57038671
_cell_formula_units_Z   1
loop_
 _symmetry_equiv_pos_site_id
 _symmetry_equiv_pos_as_xyz
  1  'x, y, z'
loop_
 _atom_site_type_symbol
 _atom_site_label
 _atom_site_symmetry_multiplicity
 _atom_site_fract_x
 _atom_site_fract_y
 _atom_site_fract_z
 _atom_site_occupancy
  La  La0  1  0.443183  0.443183  0.173550  1
  La  La1  1  0.556817  0.556817  0.826451  1
  Co  Co2  1  0.179969  0.179969  0.245274  1
  Co  Co3  1  0.820030  0.820030  0.754725  1
  Sn  Sn4  1  0.826191  0.826191  0.402437  1
  Sn  Sn5  1  0.173808  0.173808  0.597563  1
  C  C6  1  0.000000  0.000000  0.000000  1
