# generated using pymatgen
data_Dy2Er6B24IrRu3
_symmetry_space_group_name_H-M   'P 1'
_cell_length_a   3.64355200
_cell_length_b   9.11583191
_cell_length_c   11.47154802
_cell_angle_alpha   90.03400904
_cell_angle_beta   90.00000000
_cell_angle_gamma   90.00000000
_symmetry_Int_Tables_number   1
_chemical_formula_structural   Dy2Er6B24IrRu3
_chemical_formula_sum   'Dy2 Er6 B24 Ir1 Ru3'
_cell_volume   381.01601565
_cell_formula_units_Z   1
loop_
 _symmetry_equiv_pos_site_id
 _symmetry_equiv_pos_as_xyz
  1  'x, y, z'
loop_
 _atom_site_type_symbol
 _atom_site_label
 _atom_site_symmetry_multiplicity
 _atom_site_fract_x
 _atom_site_fract_y
 _atom_site_fract_z
 _atom_site_occupancy
  Dy  Dy0  1  0.000000  0.318989  0.414335  1
  Dy  Dy1  1  0.000000  0.679044  0.589116  1
  Er  Er2  1  0.000000  0.823269  0.084021  1
  Er  Er3  1  0.000000  0.178803  0.913168  1
  Er  Er4  1  0.000000  0.945548  0.373080  1
  Er  Er5  1  0.000000  0.056115  0.627039  1
  Er  Er6  1  0.000000  0.441686  0.125391  1
  Er  Er7  1  0.000000  0.556083  0.873532  1
  B  B8  1  0.500000  0.553930  0.433638  1
  B  B9  1  0.500000  0.445859  0.567148  1
  B  B10  1  0.500000  0.054034  0.066543  1
  B  B11  1  0.500000  0.946422  0.933098  1
  B  B12  1  0.500000  0.749794  0.421033  1
  B  B13  1  0.500000  0.251154  0.580265  1
  B  B14  1  0.500000  0.247910  0.079450  1
  B  B15  1  0.500000  0.752097  0.920387  1
  B  B16  1  0.500000  0.792383  0.265252  1
  B  B17  1  0.500000  0.208638  0.734051  1
  B  B18  1  0.500000  0.291305  0.233966  1
  B  B19  1  0.500000  0.708808  0.766590  1
  B  B20  1  0.500000  0.631850  0.183444  1
  B  B21  1  0.500000  0.368461  0.815141  1
  B  B22  1  0.500000  0.131279  0.314914  1
  B  B23  1  0.500000  0.868541  0.685374  1
  B  B24  1  0.500000  0.982461  0.212756  1
  B  B25  1  0.500000  0.017464  0.786958  1
  B  B26  1  0.500000  0.481827  0.286259  1
  B  B27  1  0.500000  0.516857  0.713677  1
  B  B28  1  0.500000  0.609561  0.030402  1
  B  B29  1  0.500000  0.390554  0.969920  1
  B  B30  1  0.500000  0.107781  0.470291  1
  B  B31  1  0.500000  0.891490  0.529516  1
  Ir  Ir32  1  0.000000  0.637770  0.321161  1
  Ru  Ru33  1  0.000000  0.362145  0.678862  1
  Ru  Ru34  1  0.000000  0.137627  0.178922  1
  Ru  Ru35  1  0.000000  0.862458  0.821302  1
