# generated using pymatgen
data_Li4Pr3Nd(SnBi)2
_symmetry_space_group_name_H-M   'P 1'
_cell_length_a   9.68747400
_cell_length_b   9.69234856
_cell_length_c   7.65106585
_cell_angle_alpha   89.90431016
_cell_angle_beta   90.00000000
_cell_angle_gamma   119.98337146
_symmetry_Int_Tables_number   1
_chemical_formula_structural   Li4Pr3Nd(SnBi)2
_chemical_formula_sum   'Li8 Pr6 Nd2 Sn4 Bi4'
_cell_volume   622.24882431
_cell_formula_units_Z   2
loop_
 _symmetry_equiv_pos_site_id
 _symmetry_equiv_pos_as_xyz
  1  'x, y, z'
loop_
 _atom_site_type_symbol
 _atom_site_label
 _atom_site_symmetry_multiplicity
 _atom_site_fract_x
 _atom_site_fract_y
 _atom_site_fract_z
 _atom_site_occupancy
  Li  Li0  1  0.167119  0.334239  0.272796  1
  Li  Li1  1  0.170904  0.834308  0.279014  1
  Li  Li2  1  0.663404  0.834308  0.279014  1
  Li  Li3  1  0.831248  0.662496  0.780573  1
  Li  Li4  1  0.830694  0.168334  0.786000  1
  Li  Li5  1  0.337639  0.168334  0.786000  1
  Li  Li6  1  0.333936  0.667874  0.670970  1
  Li  Li7  1  0.664997  0.329994  0.177889  1
  Pr  Pr8  1  0.513738  0.027477  0.490997  1
  Pr  Pr9  1  0.507366  0.484232  0.491882  1
  Pr  Pr10  1  0.976865  0.484232  0.491882  1
  Pr  Pr11  1  0.491308  0.982613  0.999087  1
  Pr  Pr12  1  0.487845  0.506947  0.997163  1
  Pr  Pr13  1  0.019103  0.506947  0.997163  1
  Nd  Nd14  1  0.002832  0.005665  0.496280  1
  Nd  Nd15  1  0.002017  0.004035  0.005861  1
  Sn  Sn16  1  0.834061  0.166263  0.233632  1
  Sn  Sn17  1  0.332202  0.166263  0.233632  1
  Sn  Sn18  1  0.332805  0.665612  0.262843  1
  Sn  Sn19  1  0.666909  0.333819  0.763121  1
  Bi  Bi20  1  0.166230  0.332461  0.737515  1
  Bi  Bi21  1  0.165662  0.833248  0.736096  1
  Bi  Bi22  1  0.667583  0.833248  0.736096  1
  Bi  Bi23  1  0.833527  0.667053  0.236468  1
