# generated using pymatgen
data_CuHg5F18
_symmetry_space_group_name_H-M   'P 1'
_cell_length_a   7.96667470
_cell_length_b   8.11452309
_cell_length_c   8.24638100
_cell_angle_alpha   90.16754111
_cell_angle_beta   89.68199992
_cell_angle_gamma   119.14557970
_symmetry_Int_Tables_number   1
_chemical_formula_structural   CuHg5F18
_chemical_formula_sum   'Cu1 Hg5 F18'
_cell_volume   465.58881235
_cell_formula_units_Z   1
loop_
 _symmetry_equiv_pos_site_id
 _symmetry_equiv_pos_as_xyz
  1  'x, y, z'
loop_
 _atom_site_type_symbol
 _atom_site_label
 _atom_site_symmetry_multiplicity
 _atom_site_fract_x
 _atom_site_fract_y
 _atom_site_fract_z
 _atom_site_occupancy
  Cu  Cu0  1  0.500000  0.500000  0.000000  1
  Hg  Hg1  1  0.000000  0.500000  0.500000  1
  Hg  Hg2  1  0.000000  0.500000  0.000000  1
  Hg  Hg3  1  0.500000  0.000000  0.500000  1
  Hg  Hg4  1  0.500000  0.000000  0.000000  1
  Hg  Hg5  1  0.500000  0.500000  0.500000  1
  F  F6  1  0.769489  0.546914  0.046169  1
  F  F7  1  0.230511  0.453086  0.953831  1
  F  F8  1  0.207121  0.410267  0.551028  1
  F  F9  1  0.792879  0.589733  0.448972  1
  F  F10  1  0.590074  0.744610  0.948839  1
  F  F11  1  0.409926  0.255390  0.051161  1
  F  F12  1  0.420840  0.213079  0.448557  1
  F  F13  1  0.579160  0.786921  0.551443  1
  F  F14  1  0.777878  0.222839  0.563416  1
  F  F15  1  0.222122  0.777161  0.436584  1
  F  F16  1  0.229435  0.822580  0.080750  1
  F  F17  1  0.770565  0.177420  0.919250  1
  F  F18  1  0.982658  0.400768  0.230639  1
  F  F19  1  0.017342  0.599232  0.769361  1
  F  F20  1  0.396128  0.974941  0.768487  1
  F  F21  1  0.603872  0.025059  0.231513  1
  F  F22  1  0.526600  0.447565  0.789919  1
  F  F23  1  0.473400  0.552435  0.210081  1
