# generated using pymatgen
data_Mn7Cu(PO5)4
_symmetry_space_group_name_H-M   'P 1'
_cell_length_a   5.98092500
_cell_length_b   8.42158612
_cell_length_c   8.57949322
_cell_angle_alpha   89.28130644
_cell_angle_beta   90.00000000
_cell_angle_gamma   90.00000000
_symmetry_Int_Tables_number   1
_chemical_formula_structural   Mn7Cu(PO5)4
_chemical_formula_sum   'Mn7 Cu1 P4 O20'
_cell_volume   432.10542517
_cell_formula_units_Z   1
loop_
 _symmetry_equiv_pos_site_id
 _symmetry_equiv_pos_as_xyz
  1  'x, y, z'
loop_
 _atom_site_type_symbol
 _atom_site_label
 _atom_site_symmetry_multiplicity
 _atom_site_fract_x
 _atom_site_fract_y
 _atom_site_fract_z
 _atom_site_occupancy
  Mn  Mn0  1  0.235655  0.000000  0.000000  1
  Mn  Mn1  1  0.997321  0.651891  0.125699  1
  Mn  Mn2  1  0.500735  0.147088  0.369691  1
  Mn  Mn3  1  0.746364  0.500000  0.500000  1
  Mn  Mn4  1  0.266385  0.500000  0.500000  1
  Mn  Mn5  1  0.500735  0.852912  0.630309  1
  Mn  Mn6  1  0.997321  0.348109  0.874301  1
  Cu  Cu7  1  0.753428  0.000000  0.000000  1
  P  P8  1  0.002572  0.272946  0.248041  1
  P  P9  1  0.496310  0.770592  0.251226  1
  P  P10  1  0.496310  0.229408  0.748774  1
  P  P11  1  0.002572  0.727054  0.751959  1
  O  O12  1  0.492170  0.866110  0.090919  1
  O  O13  1  0.999481  0.875157  0.083800  1
  O  O14  1  0.996396  0.403041  0.115104  1
  O  O15  1  0.792949  0.170560  0.246167  1
  O  O16  1  0.215673  0.172089  0.232348  1
  O  O17  1  0.710460  0.667102  0.261996  1
  O  O18  1  0.285289  0.663579  0.264086  1
  O  O19  1  0.495060  0.896783  0.382333  1
  O  O20  1  0.505521  0.377869  0.420311  1
  O  O21  1  0.009147  0.372902  0.405847  1
  O  O22  1  0.009147  0.627098  0.594153  1
  O  O23  1  0.505521  0.622131  0.579689  1
  O  O24  1  0.495060  0.103217  0.617667  1
  O  O25  1  0.710460  0.332898  0.738004  1
  O  O26  1  0.285289  0.336421  0.735914  1
  O  O27  1  0.792949  0.829440  0.753833  1
  O  O28  1  0.215673  0.827911  0.767652  1
  O  O29  1  0.996396  0.596959  0.884896  1
  O  O30  1  0.999481  0.124843  0.916200  1
  O  O31  1  0.492170  0.133890  0.909081  1
