# generated using pymatgen
data_Zr4GeC3
_symmetry_space_group_name_H-M   'P 1'
_cell_length_a   3.36209300
_cell_length_b   3.36209453
_cell_length_c   24.49468100
_cell_angle_alpha   90.00000000
_cell_angle_beta   90.00000000
_cell_angle_gamma   119.99997513
_symmetry_Int_Tables_number   1
_chemical_formula_structural   Zr4GeC3
_chemical_formula_sum   'Zr8 Ge2 C6'
_cell_volume   239.78508762
_cell_formula_units_Z   2
loop_
 _symmetry_equiv_pos_site_id
 _symmetry_equiv_pos_as_xyz
  1  'x, y, z'
loop_
 _atom_site_type_symbol
 _atom_site_label
 _atom_site_symmetry_multiplicity
 _atom_site_fract_x
 _atom_site_fract_y
 _atom_site_fract_z
 _atom_site_occupancy
  Zr  Zr0  1  0.000000  0.000000  0.338552  1
  Zr  Zr1  1  0.000000  0.000000  0.661448  1
  Zr  Zr2  1  0.000000  0.000000  0.838552  1
  Zr  Zr3  1  0.000000  0.000000  0.161448  1
  Zr  Zr4  1  0.333333  0.666667  0.446325  1
  Zr  Zr5  1  0.666667  0.333333  0.553675  1
  Zr  Zr6  1  0.666667  0.333333  0.946325  1
  Zr  Zr7  1  0.333333  0.666667  0.053675  1
  Ge  Ge8  1  0.333333  0.666667  0.250000  1
  Ge  Ge9  1  0.666667  0.333333  0.750000  1
  C  C10  1  0.000000  0.000000  0.500000  1
  C  C11  1  0.000000  0.000000  0.000000  1
  C  C12  1  0.666667  0.333333  0.387023  1
  C  C13  1  0.333333  0.666667  0.612977  1
  C  C14  1  0.333333  0.666667  0.887023  1
  C  C15  1  0.666667  0.333333  0.112977  1
