# generated using pymatgen
data_Hf8CrTcBi4
_symmetry_space_group_name_H-M   'P 1'
_cell_length_a   8.28973699
_cell_length_b   8.28973582
_cell_length_c   8.28973738
_cell_angle_alpha   96.16667807
_cell_angle_beta   96.16667280
_cell_angle_gamma   141.73526681
_symmetry_Int_Tables_number   1
_chemical_formula_structural   Hf8CrTcBi4
_chemical_formula_sum   'Hf8 Cr1 Tc1 Bi4'
_cell_volume   333.30644185
_cell_formula_units_Z   1
loop_
 _symmetry_equiv_pos_site_id
 _symmetry_equiv_pos_as_xyz
  1  'x, y, z'
loop_
 _atom_site_type_symbol
 _atom_site_label
 _atom_site_symmetry_multiplicity
 _atom_site_fract_x
 _atom_site_fract_y
 _atom_site_fract_z
 _atom_site_occupancy
  Hf  Hf0  1  0.079247  0.193626  0.279685  1
  Hf  Hf1  1  0.913940  0.799561  0.720315  1
  Hf  Hf2  1  0.799561  0.079247  0.885620  1
  Hf  Hf3  1  0.420753  0.700439  0.114380  1
  Hf  Hf4  1  0.193626  0.913940  0.114380  1
  Hf  Hf5  1  0.586060  0.306374  0.885620  1
  Hf  Hf6  1  0.700439  0.586060  0.279685  1
  Hf  Hf7  1  0.306374  0.420753  0.720315  1
  Cr  Cr8  1  0.750000  0.750000  0.000000  1
  Tc  Tc9  1  0.250000  0.250000  0.000000  1
  Bi  Bi10  1  0.137793  0.637793  0.775585  1
  Bi  Bi11  1  0.862207  0.362207  0.224415  1
  Bi  Bi12  1  0.362207  0.137793  0.500000  1
  Bi  Bi13  1  0.637793  0.862207  0.500000  1
