# generated using pymatgen
data_Cs2NbV(CuSe2)4
_symmetry_space_group_name_H-M   'P 1'
_cell_length_a   10.34424846
_cell_length_b   10.33293360
_cell_length_c   7.86830400
_cell_angle_alpha   90.00000000
_cell_angle_beta   90.00000000
_cell_angle_gamma   147.88390771
_symmetry_Int_Tables_number   1
_chemical_formula_structural   Cs2NbV(CuSe2)4
_chemical_formula_sum   'Cs2 Nb1 V1 Cu4 Se8'
_cell_volume   447.11422821
_cell_formula_units_Z   1
loop_
 _symmetry_equiv_pos_site_id
 _symmetry_equiv_pos_as_xyz
  1  'x, y, z'
loop_
 _atom_site_type_symbol
 _atom_site_label
 _atom_site_symmetry_multiplicity
 _atom_site_fract_x
 _atom_site_fract_y
 _atom_site_fract_z
 _atom_site_occupancy
  Cs  Cs0  1  0.174624  0.545710  0.750000  1
  Cs  Cs1  1  0.539400  0.173191  0.250000  1
  Nb  Nb2  1  0.500682  0.709078  0.250000  1
  V  V3  1  0.705710  0.500682  0.750000  1
  Cu  Cu4  1  0.616889  0.615241  0.501667  1
  Cu  Cu5  1  0.002427  0.206264  0.250000  1
  Cu  Cu6  1  0.205312  0.000234  0.750000  1
  Cu  Cu7  1  0.616889  0.615241  0.998333  1
  Se  Se8  1  0.751839  0.956106  0.997193  1
  Se  Se9  1  0.369223  0.358983  0.750000  1
  Se  Se10  1  0.355586  0.359392  0.250000  1
  Se  Se11  1  0.943070  0.734881  0.507863  1
  Se  Se12  1  0.565358  0.171314  0.750000  1
  Se  Se13  1  0.943070  0.734881  0.992137  1
  Se  Se14  1  0.149887  0.554498  0.250000  1
  Se  Se15  1  0.751839  0.956106  0.502807  1
