# generated using pymatgen
data_Tb3DyAg4
_symmetry_space_group_name_H-M   'P 1'
_cell_length_a   6.30864552
_cell_length_b   6.30864546
_cell_length_c   10.45368000
_cell_angle_alpha   90.00000000
_cell_angle_beta   90.00000000
_cell_angle_gamma   110.96100598
_symmetry_Int_Tables_number   1
_chemical_formula_structural   Tb3DyAg4
_chemical_formula_sum   'Tb6 Dy2 Ag8'
_cell_volume   388.51387128
_cell_formula_units_Z   2
loop_
 _symmetry_equiv_pos_site_id
 _symmetry_equiv_pos_as_xyz
  1  'x, y, z'
loop_
 _atom_site_type_symbol
 _atom_site_label
 _atom_site_symmetry_multiplicity
 _atom_site_fract_x
 _atom_site_fract_y
 _atom_site_fract_z
 _atom_site_occupancy
  Tb  Tb0  1  0.506039  0.506039  0.250000  1
  Tb  Tb1  1  0.493961  0.493961  0.750000  1
  Tb  Tb2  1  0.248924  0.751076  0.500000  1
  Tb  Tb3  1  0.248924  0.751076  0.000000  1
  Tb  Tb4  1  0.751076  0.248924  0.500000  1
  Tb  Tb5  1  0.751076  0.248924  0.000000  1
  Dy  Dy6  1  0.996130  0.996130  0.250000  1
  Dy  Dy7  1  0.003870  0.003870  0.750000  1
  Ag  Ag8  1  0.250683  0.250683  0.006611  1
  Ag  Ag9  1  0.749317  0.749317  0.993389  1
  Ag  Ag10  1  0.250683  0.250683  0.493389  1
  Ag  Ag11  1  0.749317  0.749317  0.506611  1
  Ag  Ag12  1  0.494701  0.006484  0.250000  1
  Ag  Ag13  1  0.993516  0.505299  0.750000  1
  Ag  Ag14  1  0.505299  0.993516  0.750000  1
  Ag  Ag15  1  0.006484  0.494701  0.250000  1
