# generated using pymatgen
data_HoTm3Co8(PIr)12
_symmetry_space_group_name_H-M   'P 1'
_cell_length_a   3.84585900
_cell_length_b   10.57413604
_cell_length_c   12.17242906
_cell_angle_alpha   90.01057256
_cell_angle_beta   90.00000000
_cell_angle_gamma   90.00000000
_symmetry_Int_Tables_number   1
_chemical_formula_structural   HoTm3Co8(PIr)12
_chemical_formula_sum   'Ho1 Tm3 Co8 P12 Ir12'
_cell_volume   495.01173645
_cell_formula_units_Z   1
loop_
 _symmetry_equiv_pos_site_id
 _symmetry_equiv_pos_as_xyz
  1  'x, y, z'
loop_
 _atom_site_type_symbol
 _atom_site_label
 _atom_site_symmetry_multiplicity
 _atom_site_fract_x
 _atom_site_fract_y
 _atom_site_fract_z
 _atom_site_occupancy
  Ho  Ho0  1  0.250000  0.584118  0.711134  1
  Tm  Tm1  1  0.250000  0.915801  0.210741  1
  Tm  Tm2  1  0.750000  0.415579  0.289272  1
  Tm  Tm3  1  0.750000  0.084279  0.788980  1
  Co  Co4  1  0.250000  0.883371  0.696898  1
  Co  Co5  1  0.250000  0.616858  0.197451  1
  Co  Co6  1  0.750000  0.116786  0.302810  1
  Co  Co7  1  0.750000  0.382833  0.803148  1
  Co  Co8  1  0.250000  0.463094  0.934159  1
  Co  Co9  1  0.250000  0.036303  0.433267  1
  Co  Co10  1  0.750000  0.536280  0.067355  1
  Co  Co11  1  0.750000  0.963931  0.566483  1
  P  P12  1  0.250000  0.432889  0.112006  1
  P  P13  1  0.250000  0.067047  0.611380  1
  P  P14  1  0.750000  0.567039  0.889460  1
  P  P15  1  0.750000  0.933041  0.388437  1
  P  P16  1  0.250000  0.273735  0.869859  1
  P  P17  1  0.250000  0.226045  0.369797  1
  P  P18  1  0.750000  0.726503  0.129958  1
  P  P19  1  0.750000  0.774192  0.629749  1
  P  P20  1  0.250000  0.597371  0.376338  1
  P  P21  1  0.250000  0.902442  0.875889  1
  P  P22  1  0.750000  0.402350  0.623539  1
  P  P23  1  0.750000  0.097521  0.123845  1
  Ir  Ir24  1  0.250000  0.723682  0.990841  1
  Ir  Ir25  1  0.250000  0.776458  0.490464  1
  Ir  Ir26  1  0.750000  0.276234  0.009273  1
  Ir  Ir27  1  0.750000  0.223609  0.509100  1
  Ir  Ir28  1  0.250000  0.410323  0.475193  1
  Ir  Ir29  1  0.250000  0.089255  0.975040  1
  Ir  Ir30  1  0.750000  0.589429  0.523499  1
  Ir  Ir31  1  0.750000  0.910779  0.024691  1
  Ir  Ir32  1  0.250000  0.228382  0.178597  1
  Ir  Ir33  1  0.250000  0.271377  0.678481  1
  Ir  Ir34  1  0.750000  0.772167  0.821713  1
  Ir  Ir35  1  0.750000  0.728897  0.321154  1
