# generated using pymatgen
data_Tb3(ZnNi3)2
_symmetry_space_group_name_H-M   'P 1'
_cell_length_a   7.69439284
_cell_length_b   7.69439234
_cell_length_c   7.69439300
_cell_angle_alpha   109.47122502
_cell_angle_beta   109.47122369
_cell_angle_gamma   109.47121517
_symmetry_Int_Tables_number   1
_chemical_formula_structural   Tb3(ZnNi3)2
_chemical_formula_sum   'Tb6 Zn4 Ni12'
_cell_volume   350.67204491
_cell_formula_units_Z   2
loop_
 _symmetry_equiv_pos_site_id
 _symmetry_equiv_pos_as_xyz
  1  'x, y, z'
loop_
 _atom_site_type_symbol
 _atom_site_label
 _atom_site_symmetry_multiplicity
 _atom_site_fract_x
 _atom_site_fract_y
 _atom_site_fract_z
 _atom_site_occupancy
  Tb  Tb0  1  0.706732  0.706732  0.000000  1
  Tb  Tb1  1  0.293268  0.000000  0.293268  1
  Tb  Tb2  1  0.000000  0.293268  0.293268  1
  Tb  Tb3  1  0.293268  0.293268  0.000000  1
  Tb  Tb4  1  0.706732  0.000000  0.706732  1
  Tb  Tb5  1  0.000000  0.706732  0.706732  1
  Zn  Zn6  1  0.000000  0.000000  0.500000  1
  Zn  Zn7  1  0.000000  0.500000  0.000000  1
  Zn  Zn8  1  0.500000  0.000000  0.000000  1
  Zn  Zn9  1  0.500000  0.500000  0.500000  1
  Ni  Ni10  1  0.340314  0.340314  0.680629  1
  Ni  Ni11  1  0.659686  0.000000  0.340314  1
  Ni  Ni12  1  0.000000  0.659686  0.340314  1
  Ni  Ni13  1  0.659686  0.340314  0.000000  1
  Ni  Ni14  1  0.340314  0.680629  0.340314  1
  Ni  Ni15  1  0.000000  0.340314  0.659686  1
  Ni  Ni16  1  0.340314  0.659686  0.000000  1
  Ni  Ni17  1  0.340314  0.000000  0.659686  1
  Ni  Ni18  1  0.680629  0.340314  0.340314  1
  Ni  Ni19  1  0.659686  0.659686  0.319371  1
  Ni  Ni20  1  0.659686  0.319371  0.659686  1
  Ni  Ni21  1  0.319371  0.659686  0.659686  1
