# generated using pymatgen
data_TbSm2Er3(Si3Ru)8
_symmetry_space_group_name_H-M   'P 1'
_cell_length_a   10.12423390
_cell_length_b   10.12423350
_cell_length_c   8.15656601
_cell_angle_alpha   90.07710431
_cell_angle_beta   89.92289703
_cell_angle_gamma   132.48922027
_symmetry_Int_Tables_number   1
_chemical_formula_structural   TbSm2Er3(Si3Ru)8
_chemical_formula_sum   'Tb1 Sm2 Er3 Si24 Ru8'
_cell_volume   616.50549407
_cell_formula_units_Z   1
loop_
 _symmetry_equiv_pos_site_id
 _symmetry_equiv_pos_as_xyz
  1  'x, y, z'
loop_
 _atom_site_type_symbol
 _atom_site_label
 _atom_site_symmetry_multiplicity
 _atom_site_fract_x
 _atom_site_fract_y
 _atom_site_fract_z
 _atom_site_occupancy
  Tb  Tb0  1  0.497826  0.997826  0.250000  1
  Sm  Sm1  1  0.002382  0.502382  0.750000  1
  Sm  Sm2  1  0.502674  0.002674  0.750000  1
  Er  Er3  1  0.997415  0.497415  0.250000  1
  Er  Er4  1  0.500024  0.500002  0.499848  1
  Er  Er5  1  0.000002  0.000024  0.000152  1
  Si  Si6  1  0.387118  0.153169  0.005667  1
  Si  Si7  1  0.653169  0.887118  0.494333  1
  Si  Si8  1  0.111019  0.343045  0.502448  1
  Si  Si9  1  0.843045  0.611019  0.997552  1
  Si  Si10  1  0.613239  0.847046  0.994961  1
  Si  Si11  1  0.347046  0.113239  0.505039  1
  Si  Si12  1  0.888955  0.656494  0.494373  1
  Si  Si13  1  0.156494  0.388955  0.005627  1
  Si  Si14  1  0.612173  0.378654  0.227977  1
  Si  Si15  1  0.878654  0.112173  0.272023  1
  Si  Si16  1  0.886730  0.120307  0.728530  1
  Si  Si17  1  0.620307  0.386730  0.771470  1
  Si  Si18  1  0.388588  0.622487  0.771431  1
  Si  Si19  1  0.122487  0.888588  0.728569  1
  Si  Si20  1  0.705260  0.294366  0.002322  1
  Si  Si21  1  0.794366  0.205260  0.497678  1
  Si  Si22  1  0.294895  0.705753  0.002602  1
  Si  Si23  1  0.205753  0.794895  0.497398  1
  Si  Si24  1  0.168620  0.167153  0.332853  1
  Si  Si25  1  0.667153  0.668620  0.167147  1
  Si  Si26  1  0.332314  0.332204  0.832720  1
  Si  Si27  1  0.832204  0.832314  0.667280  1
  Si  Si28  1  0.378412  0.611949  0.228441  1
  Si  Si29  1  0.111949  0.878412  0.271559  1
  Ru  Ru30  1  0.625805  0.626109  0.873084  1
  Ru  Ru31  1  0.126109  0.125805  0.626916  1
  Ru  Ru32  1  0.873645  0.874241  0.373245  1
  Ru  Ru33  1  0.374241  0.373645  0.126755  1
  Ru  Ru34  1  0.328698  0.665192  0.498650  1
  Ru  Ru35  1  0.165192  0.828698  0.001350  1
  Ru  Ru36  1  0.671224  0.334818  0.498106  1
  Ru  Ru37  1  0.834818  0.171224  0.001894  1
