# generated using pymatgen
data_Tm4Al3SiRu4
_symmetry_space_group_name_H-M   'P 1'
_cell_length_a   4.44904000
_cell_length_b   7.09943506
_cell_length_c   7.03359395
_cell_angle_alpha   89.60727319
_cell_angle_beta   90.00000000
_cell_angle_gamma   90.00000000
_symmetry_Int_Tables_number   1
_chemical_formula_structural   Tm4Al3SiRu4
_chemical_formula_sum   'Tm4 Al3 Si1 Ru4'
_cell_volume   222.15556278
_cell_formula_units_Z   1
loop_
 _symmetry_equiv_pos_site_id
 _symmetry_equiv_pos_as_xyz
  1  'x, y, z'
loop_
 _atom_site_type_symbol
 _atom_site_label
 _atom_site_symmetry_multiplicity
 _atom_site_fract_x
 _atom_site_fract_y
 _atom_site_fract_z
 _atom_site_occupancy
  Tm  Tm0  1  0.250000  0.983084  0.806187  1
  Tm  Tm1  1  0.750000  0.019977  0.194893  1
  Tm  Tm2  1  0.250000  0.474040  0.691978  1
  Tm  Tm3  1  0.750000  0.517149  0.309384  1
  Al  Al4  1  0.250000  0.307504  0.107865  1
  Al  Al5  1  0.750000  0.689501  0.892714  1
  Al  Al6  1  0.250000  0.805411  0.395736  1
  Si  Si7  1  0.750000  0.196053  0.600800  1
  Ru  Ru8  1  0.750000  0.853665  0.564982  1
  Ru  Ru9  1  0.250000  0.161202  0.445810  1
  Ru  Ru10  1  0.750000  0.331755  0.925075  1
  Ru  Ru11  1  0.250000  0.660660  0.064575  1
