# generated using pymatgen
data_TmLu7Tc3B24Rh
_symmetry_space_group_name_H-M   'P 1'
_cell_length_a   3.61719200
_cell_length_b   9.05537165
_cell_length_c   11.42048801
_cell_angle_alpha   90.11752413
_cell_angle_beta   90.00000000
_cell_angle_gamma   90.00000000
_symmetry_Int_Tables_number   1
_chemical_formula_structural   TmLu7Tc3B24Rh
_chemical_formula_sum   'Tm1 Lu7 Tc3 B24 Rh1'
_cell_volume   374.07750212
_cell_formula_units_Z   1
loop_
 _symmetry_equiv_pos_site_id
 _symmetry_equiv_pos_as_xyz
  1  'x, y, z'
loop_
 _atom_site_type_symbol
 _atom_site_label
 _atom_site_symmetry_multiplicity
 _atom_site_fract_x
 _atom_site_fract_y
 _atom_site_fract_z
 _atom_site_occupancy
  Tm  Tm0  1  0.500000  0.317331  0.415882  1
  Lu  Lu1  1  0.500000  0.678940  0.591507  1
  Lu  Lu2  1  0.500000  0.177897  0.912726  1
  Lu  Lu3  1  0.500000  0.826939  0.080663  1
  Lu  Lu4  1  0.500000  0.440404  0.128498  1
  Lu  Lu5  1  0.500000  0.557309  0.871079  1
  Lu  Lu6  1  0.500000  0.056225  0.629574  1
  Lu  Lu7  1  0.500000  0.943653  0.370011  1
  Tc  Tc8  1  0.500000  0.138172  0.180252  1
  Tc  Tc9  1  0.500000  0.861722  0.820574  1
  Tc  Tc10  1  0.500000  0.362692  0.678150  1
  B  B11  1  0.000000  0.100117  0.471827  1
  B  B12  1  0.000000  0.896421  0.527876  1
  B  B13  1  0.000000  0.398353  0.972202  1
  B  B14  1  0.000000  0.602808  0.028896  1
  B  B15  1  0.000000  0.129915  0.315897  1
  B  B16  1  0.000000  0.869223  0.684435  1
  B  B17  1  0.000000  0.370024  0.815268  1
  B  B18  1  0.000000  0.631014  0.183071  1
  B  B19  1  0.000000  0.053242  0.065882  1
  B  B20  1  0.000000  0.947737  0.933252  1
  B  B21  1  0.000000  0.446808  0.565997  1
  B  B22  1  0.000000  0.553838  0.434536  1
  B  B23  1  0.000000  0.481743  0.287805  1
  B  B24  1  0.000000  0.519649  0.712309  1
  B  B25  1  0.000000  0.019216  0.787174  1
  B  B26  1  0.000000  0.980971  0.211957  1
  B  B27  1  0.000000  0.250065  0.080499  1
  B  B28  1  0.000000  0.750921  0.919587  1
  B  B29  1  0.000000  0.249292  0.580574  1
  B  B30  1  0.000000  0.749695  0.420998  1
  B  B31  1  0.000000  0.292445  0.235924  1
  B  B32  1  0.000000  0.707695  0.765055  1
  B  B33  1  0.000000  0.207854  0.735057  1
  B  B34  1  0.000000  0.791648  0.264176  1
  Rh  Rh35  1  0.500000  0.638021  0.320835  1
