# generated using pymatgen
data_Nd6Mn(CrC4)3
_symmetry_space_group_name_H-M   'P 1'
_cell_length_a   8.27518200
_cell_length_b   8.27518164
_cell_length_c   5.18646900
_cell_angle_alpha   90.00000000
_cell_angle_beta   90.00000000
_cell_angle_gamma   120.00000035
_symmetry_Int_Tables_number   1
_chemical_formula_structural   Nd6Mn(CrC4)3
_chemical_formula_sum   'Nd6 Mn1 Cr3 C12'
_cell_volume   307.57958479
_cell_formula_units_Z   1
loop_
 _symmetry_equiv_pos_site_id
 _symmetry_equiv_pos_as_xyz
  1  'x, y, z'
loop_
 _atom_site_type_symbol
 _atom_site_label
 _atom_site_symmetry_multiplicity
 _atom_site_fract_x
 _atom_site_fract_y
 _atom_site_fract_z
 _atom_site_occupancy
  Nd  Nd0  1  0.614810  0.687172  0.750000  1
  Nd  Nd1  1  0.927342  0.613436  0.250000  1
  Nd  Nd2  1  0.686093  0.072658  0.250000  1
  Nd  Nd3  1  0.312828  0.927639  0.750000  1
  Nd  Nd4  1  0.072361  0.385190  0.750000  1
  Nd  Nd5  1  0.386564  0.313907  0.250000  1
  Mn  Mn6  1  0.333333  0.666667  0.250000  1
  Cr  Cr7  1  0.000000  0.000000  0.503624  1
  Cr  Cr8  1  0.000000  0.000000  0.996376  1
  Cr  Cr9  1  0.666667  0.333333  0.750000  1
  C  C10  1  0.955337  0.773824  0.750000  1
  C  C11  1  0.186269  0.954886  0.250000  1
  C  C12  1  0.768618  0.813731  0.250000  1
  C  C13  1  0.226176  0.181514  0.750000  1
  C  C14  1  0.818486  0.044663  0.750000  1
  C  C15  1  0.045114  0.231382  0.250000  1
  C  C16  1  0.858974  0.580823  0.750000  1
  C  C17  1  0.280122  0.857299  0.250000  1
  C  C18  1  0.577176  0.719878  0.250000  1
  C  C19  1  0.419177  0.278151  0.750000  1
  C  C20  1  0.142701  0.422824  0.250000  1
  C  C21  1  0.721849  0.141026  0.750000  1
