# generated using pymatgen
data_CrCd3P8(PbO7)4
_symmetry_space_group_name_H-M   'P 1'
_cell_length_a   8.66687957
_cell_length_b   5.55924412
_cell_length_c   14.27195781
_cell_angle_alpha   67.12639486
_cell_angle_beta   89.96731600
_cell_angle_gamma   89.86101412
_symmetry_Int_Tables_number   1
_chemical_formula_structural   CrCd3P8(PbO7)4
_chemical_formula_sum   'Cr1 Cd3 P8 Pb4 O28'
_cell_volume   633.56657155
_cell_formula_units_Z   1
loop_
 _symmetry_equiv_pos_site_id
 _symmetry_equiv_pos_as_xyz
  1  'x, y, z'
loop_
 _atom_site_type_symbol
 _atom_site_label
 _atom_site_symmetry_multiplicity
 _atom_site_fract_x
 _atom_site_fract_y
 _atom_site_fract_z
 _atom_site_occupancy
  Cr  Cr0  1  0.147862  0.900486  0.393429  1
  Cd  Cd1  1  0.349268  0.923891  0.903217  1
  Cd  Cd2  1  0.850950  0.078330  0.597411  1
  Cd  Cd3  1  0.646522  0.078092  0.099824  1
  P  P4  1  0.538404  0.914592  0.333334  1
  P  P5  1  0.288781  0.289246  0.024416  1
  P  P6  1  0.208279  0.296848  0.517308  1
  P  P7  1  0.457727  0.097217  0.666627  1
  P  P8  1  0.959542  0.909903  0.831417  1
  P  P9  1  0.710038  0.710791  0.978481  1
  P  P10  1  0.038808  0.078488  0.171285  1
  P  P11  1  0.799257  0.710952  0.476324  1
  Pb  Pb12  1  0.684397  0.427367  0.772783  1
  Pb  Pb13  1  0.817414  0.430630  0.273316  1
  Pb  Pb14  1  0.316848  0.554723  0.232517  1
  Pb  Pb15  1  0.183666  0.582150  0.722473  1
  O  O16  1  0.563375  0.211668  0.286271  1
  O  O17  1  0.611921  0.943890  0.908143  1
  O  O18  1  0.124303  0.186766  0.242115  1
  O  O19  1  0.112200  0.071139  0.593299  1
  O  O20  1  0.869913  0.165303  0.161113  1
  O  O21  1  0.060490  0.782352  0.206718  1
  O  O22  1  0.628149  0.174568  0.655645  1
  O  O23  1  0.612264  0.778292  0.268376  1
  O  O24  1  0.906232  0.932051  0.407684  1
  O  O25  1  0.368989  0.836460  0.353288  1
  O  O26  1  0.109983  0.217441  0.058325  1
  O  O27  1  0.672543  0.456229  0.965092  1
  O  O28  1  0.202466  0.301519  0.409500  1
  O  O29  1  0.622891  0.805691  0.443306  1
  O  O30  1  0.432385  0.800745  0.706015  1
  O  O31  1  0.876830  0.784618  0.765799  1
  O  O32  1  0.807018  0.684547  0.587447  1
  O  O33  1  0.376695  0.220129  0.733936  1
  O  O34  1  0.825048  0.454791  0.461472  1
  O  O35  1  0.169082  0.560578  0.523970  1
  O  O36  1  0.934306  0.206372  0.791074  1
  O  O37  1  0.888475  0.783679  0.945401  1
  O  O38  1  0.385664  0.054866  0.094697  1
  O  O39  1  0.326449  0.542893  0.038679  1
  O  O40  1  0.703225  0.688534  0.089261  1
  O  O41  1  0.294946  0.313608  0.913505  1
  O  O42  1  0.387146  0.229344  0.552882  1
  O  O43  1  0.129249  0.828222  0.842827  1
