# generated using pymatgen
data_Ho4Ga4P2Rh7
_symmetry_space_group_name_H-M   'P 1'
_cell_length_a   7.19337527
_cell_length_b   7.23133028
_cell_length_c   7.23133000
_cell_angle_alpha   108.97622939
_cell_angle_beta   109.82766803
_cell_angle_gamma   109.82767716
_symmetry_Int_Tables_number   1
_chemical_formula_structural   Ho4Ga4P2Rh7
_chemical_formula_sum   'Ho4 Ga4 P2 Rh7'
_cell_volume   288.76850286
_cell_formula_units_Z   1
loop_
 _symmetry_equiv_pos_site_id
 _symmetry_equiv_pos_as_xyz
  1  'x, y, z'
loop_
 _atom_site_type_symbol
 _atom_site_label
 _atom_site_symmetry_multiplicity
 _atom_site_fract_x
 _atom_site_fract_y
 _atom_site_fract_z
 _atom_site_occupancy
  Ho  Ho0  1  0.000000  0.999800  0.464674  1
  Ho  Ho1  1  0.000000  0.535326  0.000200  1
  Ho  Ho2  1  0.500000  0.998446  0.001554  1
  Ho  Ho3  1  0.500000  0.498446  0.501554  1
  Ga  Ga4  1  0.000000  0.331523  0.312023  1
  Ga  Ga5  1  0.283687  0.295141  0.988546  1
  Ga  Ga6  1  0.716313  0.011454  0.704859  1
  Ga  Ga7  1  0.000000  0.687977  0.668477  1
  P  P8  1  0.652754  0.657892  0.994862  1
  P  P9  1  0.347246  0.005138  0.342108  1
  Rh  Rh10  1  0.750357  0.249585  0.500773  1
  Rh  Rh11  1  0.735052  0.496937  0.238115  1
  Rh  Rh12  1  0.500000  0.248948  0.751052  1
  Rh  Rh13  1  0.249643  0.499227  0.750415  1
  Rh  Rh14  1  0.264948  0.761885  0.503063  1
  Rh  Rh15  1  0.500000  0.748948  0.251052  1
  Rh  Rh16  1  0.000000  0.973327  0.026673  1
