# generated using pymatgen
data_Hf18TaRe7B2
_symmetry_space_group_name_H-M   'P 1'
_cell_length_a   8.49674000
_cell_length_b   8.49674027
_cell_length_c   8.53357800
_cell_angle_alpha   90.00000000
_cell_angle_beta   90.00000000
_cell_angle_gamma   119.99999895
_symmetry_Int_Tables_number   1
_chemical_formula_structural   Hf18TaRe7B2
_chemical_formula_sum   'Hf18 Ta1 Re7 B2'
_cell_volume   533.53936872
_cell_formula_units_Z   1
loop_
 _symmetry_equiv_pos_site_id
 _symmetry_equiv_pos_as_xyz
  1  'x, y, z'
loop_
 _atom_site_type_symbol
 _atom_site_label
 _atom_site_symmetry_multiplicity
 _atom_site_fract_x
 _atom_site_fract_y
 _atom_site_fract_z
 _atom_site_occupancy
  Hf  Hf0  1  0.202965  0.797035  0.444456  1
  Hf  Hf1  1  0.202965  0.405931  0.444456  1
  Hf  Hf2  1  0.594069  0.797035  0.444456  1
  Hf  Hf3  1  0.797035  0.202965  0.555544  1
  Hf  Hf4  1  0.797035  0.594069  0.555544  1
  Hf  Hf5  1  0.405931  0.202965  0.555544  1
  Hf  Hf6  1  0.799339  0.200661  0.943988  1
  Hf  Hf7  1  0.799339  0.598677  0.943988  1
  Hf  Hf8  1  0.401323  0.200661  0.943988  1
  Hf  Hf9  1  0.200661  0.799339  0.056012  1
  Hf  Hf10  1  0.200661  0.401323  0.056012  1
  Hf  Hf11  1  0.598677  0.799339  0.056012  1
  Hf  Hf12  1  0.540359  0.459641  0.248796  1
  Hf  Hf13  1  0.540359  0.080719  0.248796  1
  Hf  Hf14  1  0.919281  0.459641  0.248796  1
  Hf  Hf15  1  0.459641  0.540359  0.751204  1
  Hf  Hf16  1  0.459641  0.919281  0.751204  1
  Hf  Hf17  1  0.080719  0.540359  0.751204  1
  Ta  Ta18  1  0.000000  0.000000  0.500000  1
  Re  Re19  1  0.887968  0.112032  0.250029  1
  Re  Re20  1  0.887968  0.775936  0.250029  1
  Re  Re21  1  0.224064  0.112032  0.250029  1
  Re  Re22  1  0.112032  0.887968  0.749971  1
  Re  Re23  1  0.112032  0.224064  0.749971  1
  Re  Re24  1  0.775936  0.887968  0.749971  1
  Re  Re25  1  0.000000  0.000000  0.000000  1
  B  B26  1  0.333333  0.666667  0.249039  1
  B  B27  1  0.666667  0.333333  0.750961  1
