# generated using pymatgen
data_CsV2Te7Mo4
_symmetry_space_group_name_H-M   'P 1'
_cell_length_a   10.43195946
_cell_length_b   10.42917981
_cell_length_c   10.43443323
_cell_angle_alpha   60.21972113
_cell_angle_beta   60.20720581
_cell_angle_gamma   60.30926099
_symmetry_Int_Tables_number   1
_chemical_formula_structural   CsV2Te7Mo4
_chemical_formula_sum   'Cs2 V4 Te14 Mo8'
_cell_volume   807.18848506
_cell_formula_units_Z   2
loop_
 _symmetry_equiv_pos_site_id
 _symmetry_equiv_pos_as_xyz
  1  'x, y, z'
loop_
 _atom_site_type_symbol
 _atom_site_label
 _atom_site_symmetry_multiplicity
 _atom_site_fract_x
 _atom_site_fract_y
 _atom_site_fract_z
 _atom_site_occupancy
  Cs  Cs0  1  0.620226  0.620013  0.620924  1
  Cs  Cs1  1  0.379500  0.380143  0.379696  1
  V  V2  1  0.694364  0.884956  0.010633  1
  V  V3  1  0.012229  0.691729  0.885420  1
  V  V4  1  0.885441  0.010857  0.693790  1
  V  V5  1  0.289448  0.117483  0.003359  1
  Te  Te6  1  0.424950  0.807651  0.162888  1
  Te  Te7  1  0.167868  0.422516  0.806099  1
  Te  Te8  1  0.803492  0.166933  0.425283  1
  Te  Te9  1  0.576384  0.186025  0.840446  1
  Te  Te10  1  0.838316  0.577969  0.187937  1
  Te  Te11  1  0.188754  0.838234  0.577454  1
  Te  Te12  1  0.631341  0.978035  0.248142  1
  Te  Te13  1  0.248925  0.632822  0.979678  1
  Te  Te14  1  0.980114  0.248217  0.631451  1
  Te  Te15  1  0.365813  0.020181  0.753582  1
  Te  Te16  1  0.750685  0.366819  0.019473  1
  Te  Te17  1  0.015553  0.753427  0.368088  1
  Te  Te18  1  0.782728  0.780440  0.781259  1
  Te  Te19  1  0.228166  0.225501  0.219930  1
  Mo  Mo20  1  0.001400  0.288692  0.118153  1
  Mo  Mo21  1  0.119956  0.999997  0.287087  1
  Mo  Mo22  1  0.944873  0.814690  0.106392  1
  Mo  Mo23  1  0.107404  0.944026  0.813094  1
  Mo  Mo24  1  0.814423  0.106565  0.944035  1
  Mo  Mo25  1  0.055082  0.186031  0.891442  1
  Mo  Mo26  1  0.888087  0.056930  0.187865  1
  Mo  Mo27  1  0.184480  0.893120  0.056398  1
