# generated using pymatgen
data_LaTb2Er(Mo2O7)2
_symmetry_space_group_name_H-M   'P 1'
_cell_length_a   7.48262733
_cell_length_b   7.45398287
_cell_length_c   7.48262668
_cell_angle_alpha   59.07086218
_cell_angle_beta   59.30624593
_cell_angle_gamma   59.07085378
_symmetry_Int_Tables_number   1
_chemical_formula_structural   LaTb2Er(Mo2O7)2
_chemical_formula_sum   'La1 Tb2 Er1 Mo4 O14'
_cell_volume   289.38368186
_cell_formula_units_Z   1
loop_
 _symmetry_equiv_pos_site_id
 _symmetry_equiv_pos_as_xyz
  1  'x, y, z'
loop_
 _atom_site_type_symbol
 _atom_site_label
 _atom_site_symmetry_multiplicity
 _atom_site_fract_x
 _atom_site_fract_y
 _atom_site_fract_z
 _atom_site_occupancy
  La  La0  1  0.125000  0.125000  0.125000  1
  Tb  Tb1  1  0.625000  0.125000  0.125000  1
  Tb  Tb2  1  0.125000  0.125000  0.625000  1
  Er  Er3  1  0.125000  0.625000  0.125000  1
  Mo  Mo4  1  0.625000  0.625000  0.625000  1
  Mo  Mo5  1  0.125000  0.625000  0.625000  1
  Mo  Mo6  1  0.625000  0.625000  0.125000  1
  Mo  Mo7  1  0.625000  0.125000  0.625000  1
  O  O8  1  0.998469  0.995616  0.998469  1
  O  O9  1  0.251531  0.254384  0.251531  1
  O  O10  1  0.290034  0.287879  0.701775  1
  O  O11  1  0.528536  0.539312  0.967241  1
  O  O12  1  0.712081  0.289483  0.712081  1
  O  O13  1  0.701775  0.287879  0.290034  1
  O  O14  1  0.282759  0.710688  0.721464  1
  O  O15  1  0.290479  0.702442  0.290479  1
  O  O16  1  0.721464  0.710688  0.282759  1
  O  O17  1  0.967241  0.539312  0.528536  1
  O  O18  1  0.548225  0.962121  0.959966  1
  O  O19  1  0.959966  0.962121  0.548225  1
  O  O20  1  0.959521  0.547558  0.959521  1
  O  O21  1  0.537919  0.960517  0.537919  1
