# generated using pymatgen
data_AcZn4Cu9
_symmetry_space_group_name_H-M   'P 1'
_cell_length_a   8.41229450
_cell_length_b   8.41229473
_cell_length_c   8.41229456
_cell_angle_alpha   120.92055644
_cell_angle_beta   120.92057073
_cell_angle_gamma   88.41280873
_symmetry_Int_Tables_number   1
_chemical_formula_structural   AcZn4Cu9
_chemical_formula_sum   'Ac2 Zn8 Cu18'
_cell_volume   414.91795813
_cell_formula_units_Z   2
loop_
 _symmetry_equiv_pos_site_id
 _symmetry_equiv_pos_as_xyz
  1  'x, y, z'
loop_
 _atom_site_type_symbol
 _atom_site_label
 _atom_site_symmetry_multiplicity
 _atom_site_fract_x
 _atom_site_fract_y
 _atom_site_fract_z
 _atom_site_occupancy
  Ac  Ac0  1  0.750000  0.750000  0.000000  1
  Ac  Ac1  1  0.250000  0.250000  0.000000  1
  Zn  Zn2  1  0.699124  0.560583  0.500000  1
  Zn  Zn3  1  0.939417  0.800876  0.500000  1
  Zn  Zn4  1  0.199124  0.699124  0.138541  1
  Zn  Zn5  1  0.560583  0.060583  0.861459  1
  Zn  Zn6  1  0.439417  0.939417  0.138541  1
  Zn  Zn7  1  0.800876  0.300876  0.861459  1
  Zn  Zn8  1  0.300876  0.439417  0.500000  1
  Zn  Zn9  1  0.060583  0.199124  0.500000  1
  Cu  Cu10  1  0.435685  0.707919  0.500000  1
  Cu  Cu11  1  0.062775  0.794487  0.857262  1
  Cu  Cu12  1  0.937225  0.205513  0.142738  1
  Cu  Cu13  1  0.292081  0.792081  0.727766  1
  Cu  Cu14  1  0.564315  0.292081  0.500000  1
  Cu  Cu15  1  0.794487  0.937225  0.731713  1
  Cu  Cu16  1  0.437225  0.294487  0.731713  1
  Cu  Cu17  1  0.207919  0.935685  0.500000  1
  Cu  Cu18  1  0.294487  0.562775  0.857262  1
  Cu  Cu19  1  0.707919  0.207919  0.272234  1
  Cu  Cu20  1  0.000000  0.500000  0.500000  1
  Cu  Cu21  1  0.205513  0.062775  0.268287  1
  Cu  Cu22  1  0.935685  0.435685  0.727766  1
  Cu  Cu23  1  0.705513  0.437225  0.142738  1
  Cu  Cu24  1  0.064315  0.564315  0.272234  1
  Cu  Cu25  1  0.562775  0.705513  0.268287  1
  Cu  Cu26  1  0.500000  0.000000  0.500000  1
  Cu  Cu27  1  0.792081  0.064315  0.500000  1
