# generated using pymatgen
data_Np3Sn3OsRh2
_symmetry_space_group_name_H-M   'P 1'
_cell_length_a   7.38689800
_cell_length_b   7.38689778
_cell_length_c   4.04046300
_cell_angle_alpha   90.00000000
_cell_angle_beta   90.00000000
_cell_angle_gamma   120.00000209
_symmetry_Int_Tables_number   1
_chemical_formula_structural   Np3Sn3OsRh2
_chemical_formula_sum   'Np3 Sn3 Os1 Rh2'
_cell_volume   190.93517708
_cell_formula_units_Z   1
loop_
 _symmetry_equiv_pos_site_id
 _symmetry_equiv_pos_as_xyz
  1  'x, y, z'
loop_
 _atom_site_type_symbol
 _atom_site_label
 _atom_site_symmetry_multiplicity
 _atom_site_fract_x
 _atom_site_fract_y
 _atom_site_fract_z
 _atom_site_occupancy
  Np  Np0  1  0.992134  0.415441  0.000000  1
  Np  Np1  1  0.584559  0.576695  0.000000  1
  Np  Np2  1  0.423305  0.007866  0.000000  1
  Sn  Sn3  1  0.251718  0.254030  0.500000  1
  Sn  Sn4  1  0.002313  0.748282  0.500000  1
  Sn  Sn5  1  0.745970  0.997687  0.500000  1
  Os  Os6  1  0.666667  0.333333  0.500000  1
  Rh  Rh7  1  0.333333  0.666667  0.500000  1
  Rh  Rh8  1  0.000000  0.000000  0.000000  1
