# generated using pymatgen
data_Hf8Ti11Si16Os
_symmetry_space_group_name_H-M   'P 1'
_cell_length_a   6.58484449
_cell_length_b   6.74498211
_cell_length_c   12.91375000
_cell_angle_alpha   90.00000000
_cell_angle_beta   90.00000000
_cell_angle_gamma   90.01167810
_symmetry_Int_Tables_number   1
_chemical_formula_structural   Hf8Ti11Si16Os
_chemical_formula_sum   'Hf8 Ti11 Si16 Os1'
_cell_volume   573.55978160
_cell_formula_units_Z   1
loop_
 _symmetry_equiv_pos_site_id
 _symmetry_equiv_pos_as_xyz
  1  'x, y, z'
loop_
 _atom_site_type_symbol
 _atom_site_label
 _atom_site_symmetry_multiplicity
 _atom_site_fract_x
 _atom_site_fract_y
 _atom_site_fract_z
 _atom_site_occupancy
  Hf  Hf0  1  0.997899  0.173643  0.094226  1
  Hf  Hf1  1  0.007175  0.828075  0.905624  1
  Hf  Hf2  1  0.501426  0.671550  0.906550  1
  Hf  Hf3  1  0.007175  0.828075  0.594376  1
  Hf  Hf4  1  0.500156  0.326173  0.093716  1
  Hf  Hf5  1  0.997899  0.173643  0.405774  1
  Hf  Hf6  1  0.500156  0.326173  0.406284  1
  Hf  Hf7  1  0.501426  0.671550  0.593450  1
  Ti  Ti8  1  0.163320  0.493382  0.750000  1
  Ti  Ti9  1  0.835495  0.505148  0.250000  1
  Ti  Ti10  1  0.336281  0.994226  0.250000  1
  Ti  Ti11  1  0.332550  0.171944  0.625108  1
  Ti  Ti12  1  0.662789  0.828277  0.375182  1
  Ti  Ti13  1  0.163735  0.672586  0.374540  1
  Ti  Ti14  1  0.662789  0.828277  0.124818  1
  Ti  Ti15  1  0.836003  0.331700  0.625339  1
  Ti  Ti16  1  0.332550  0.171944  0.874892  1
  Ti  Ti17  1  0.836003  0.331700  0.874661  1
  Ti  Ti18  1  0.163735  0.672586  0.125460  1
  Si  Si19  1  0.033293  0.115913  0.750000  1
  Si  Si20  1  0.960606  0.881634  0.250000  1
  Si  Si21  1  0.461928  0.617167  0.250000  1
  Si  Si22  1  0.537109  0.381856  0.750000  1
  Si  Si23  1  0.300858  0.861898  0.750000  1
  Si  Si24  1  0.703357  0.136086  0.250000  1
  Si  Si25  1  0.203286  0.362950  0.250000  1
  Si  Si26  1  0.796785  0.639508  0.750000  1
  Si  Si27  1  0.169428  0.462843  0.538494  1
  Si  Si28  1  0.829936  0.538722  0.460705  1
  Si  Si29  1  0.330552  0.962332  0.461585  1
  Si  Si30  1  0.829936  0.538722  0.039295  1
  Si  Si31  1  0.670105  0.037961  0.541082  1
  Si  Si32  1  0.169428  0.462843  0.961506  1
  Si  Si33  1  0.670105  0.037961  0.958918  1
  Si  Si34  1  0.330552  0.962332  0.038415  1
  Os  Os35  1  0.664169  0.998620  0.750000  1
