# generated using pymatgen
data_TmPa(SiPt)4
_symmetry_space_group_name_H-M   'P 1'
_cell_length_a   4.20718400
_cell_length_b   4.20718400
_cell_length_c   9.84309200
_cell_angle_alpha   90.00000000
_cell_angle_beta   90.00000000
_cell_angle_gamma   90.00000000
_symmetry_Int_Tables_number   1
_chemical_formula_structural   TmPa(SiPt)4
_chemical_formula_sum   'Tm1 Pa1 Si4 Pt4'
_cell_volume   174.22663817
_cell_formula_units_Z   1
loop_
 _symmetry_equiv_pos_site_id
 _symmetry_equiv_pos_as_xyz
  1  'x, y, z'
loop_
 _atom_site_type_symbol
 _atom_site_label
 _atom_site_symmetry_multiplicity
 _atom_site_fract_x
 _atom_site_fract_y
 _atom_site_fract_z
 _atom_site_occupancy
  Tm  Tm0  1  0.500000  0.000000  0.753051  1
  Pa  Pa1  1  0.000000  0.500000  0.252403  1
  Si  Si2  1  0.000000  0.000000  0.500825  1
  Si  Si3  1  0.500000  0.500000  0.500825  1
  Si  Si4  1  0.000000  0.500000  0.862789  1
  Si  Si5  1  0.500000  0.000000  0.131536  1
  Pt  Pt6  1  0.000000  0.000000  0.001486  1
  Pt  Pt7  1  0.500000  0.500000  0.001486  1
  Pt  Pt8  1  0.000000  0.500000  0.621144  1
  Pt  Pt9  1  0.500000  0.000000  0.374456  1
