# generated using pymatgen
data_Nb3Ni2GeN
_symmetry_space_group_name_H-M   'P 1'
_cell_length_a   8.08542151
_cell_length_b   8.07941436
_cell_length_c   8.07940821
_cell_angle_alpha   59.85121612
_cell_angle_beta   59.88313947
_cell_angle_gamma   59.89035112
_symmetry_Int_Tables_number   1
_chemical_formula_structural   Nb3Ni2GeN
_chemical_formula_sum   'Nb12 Ni8 Ge4 N4'
_cell_volume   372.14525544
_cell_formula_units_Z   4
loop_
 _symmetry_equiv_pos_site_id
 _symmetry_equiv_pos_as_xyz
  1  'x, y, z'
loop_
 _atom_site_type_symbol
 _atom_site_label
 _atom_site_symmetry_multiplicity
 _atom_site_fract_x
 _atom_site_fract_y
 _atom_site_fract_z
 _atom_site_occupancy
  Nb  Nb0  1  0.803057  0.803068  0.196875  1
  Nb  Nb1  1  0.197275  0.196900  0.802942  1
  Nb  Nb2  1  0.803018  0.196709  0.802995  1
  Nb  Nb3  1  0.197000  0.803062  0.197006  1
  Nb  Nb4  1  0.196828  0.803068  0.803041  1
  Nb  Nb5  1  0.803004  0.196883  0.197240  1
  Nb  Nb6  1  0.446943  0.446932  0.053125  1
  Nb  Nb7  1  0.052725  0.053100  0.447058  1
  Nb  Nb8  1  0.446982  0.053291  0.447005  1
  Nb  Nb9  1  0.053000  0.446938  0.052994  1
  Nb  Nb10  1  0.053172  0.446932  0.446959  1
  Nb  Nb11  1  0.446996  0.053117  0.052760  1
  Ni  Ni12  1  0.748143  0.417215  0.417310  1
  Ni  Ni13  1  0.416631  0.749784  0.416810  1
  Ni  Ni14  1  0.417468  0.417194  0.747910  1
  Ni  Ni15  1  0.417769  0.417506  0.417065  1
  Ni  Ni16  1  0.501857  0.832785  0.832690  1
  Ni  Ni17  1  0.833369  0.500216  0.833190  1
  Ni  Ni18  1  0.832532  0.832806  0.502090  1
  Ni  Ni19  1  0.832231  0.832494  0.832935  1
  Ge  Ge20  1  0.125000  0.625000  0.625000  1
  Ge  Ge21  1  0.625000  0.125000  0.625000  1
  Ge  Ge22  1  0.625000  0.625000  0.125000  1
  Ge  Ge23  1  0.625000  0.625000  0.625000  1
  N  N24  1  0.625000  0.125000  0.125000  1
  N  N25  1  0.125000  0.625000  0.125000  1
  N  N26  1  0.125000  0.125000  0.625000  1
  N  N27  1  0.125000  0.125000  0.125000  1
