# generated using pymatgen
data_BaTa2PbF14
_symmetry_space_group_name_H-M   'P 1'
_cell_length_a   7.47828900
_cell_length_b   5.06302989
_cell_length_c   6.97338100
_cell_angle_alpha   85.67875014
_cell_angle_beta   90.00000000
_cell_angle_gamma   90.00000000
_symmetry_Int_Tables_number   1
_chemical_formula_structural   BaTa2PbF14
_chemical_formula_sum   'Ba1 Ta2 Pb1 F14'
_cell_volume   263.28116102
_cell_formula_units_Z   1
loop_
 _symmetry_equiv_pos_site_id
 _symmetry_equiv_pos_as_xyz
  1  'x, y, z'
loop_
 _atom_site_type_symbol
 _atom_site_label
 _atom_site_symmetry_multiplicity
 _atom_site_fract_x
 _atom_site_fract_y
 _atom_site_fract_z
 _atom_site_occupancy
  Ba  Ba0  1  0.250000  0.027913  0.684806  1
  Ta  Ta1  1  0.250000  0.463865  0.220388  1
  Ta  Ta2  1  0.750000  0.535126  0.778894  1
  Pb  Pb3  1  0.750000  0.991509  0.314538  1
  F  F4  1  0.250000  0.644210  0.959946  1
  F  F5  1  0.527734  0.340715  0.787094  1
  F  F6  1  0.750000  0.346106  0.041740  1
  F  F7  1  0.034706  0.676831  0.220672  1
  F  F8  1  0.250000  0.176382  0.051324  1
  F  F9  1  0.074073  0.198135  0.349861  1
  F  F10  1  0.425927  0.198135  0.349861  1
  F  F11  1  0.583406  0.801104  0.637620  1
  F  F12  1  0.972266  0.340715  0.787094  1
  F  F13  1  0.750000  0.819850  0.949540  1
  F  F14  1  0.465294  0.676831  0.220672  1
  F  F15  1  0.750000  0.397269  0.515306  1
  F  F16  1  0.916594  0.801104  0.637620  1
  F  F17  1  0.250000  0.564202  0.493025  1
