# generated using pymatgen
data_Sr6TbErBi6
_symmetry_space_group_name_H-M   'P 1'
_cell_length_a   8.61519625
_cell_length_b   8.75616478
_cell_length_c   8.61632535
_cell_angle_alpha   109.69808981
_cell_angle_beta   108.86648788
_cell_angle_gamma   109.73162359
_symmetry_Int_Tables_number   1
_chemical_formula_structural   Sr6TbErBi6
_chemical_formula_sum   'Sr6 Tb1 Er1 Bi6'
_cell_volume   501.05278434
_cell_formula_units_Z   1
loop_
 _symmetry_equiv_pos_site_id
 _symmetry_equiv_pos_as_xyz
  1  'x, y, z'
loop_
 _atom_site_type_symbol
 _atom_site_label
 _atom_site_symmetry_multiplicity
 _atom_site_fract_x
 _atom_site_fract_y
 _atom_site_fract_z
 _atom_site_occupancy
  Sr  Sr0  1  0.359221  0.355634  0.356542  1
  Sr  Sr1  1  0.000574  0.141037  0.498275  1
  Sr  Sr2  1  0.856820  0.855483  0.859474  1
  Sr  Sr3  1  0.997870  0.640730  0.500441  1
  Sr  Sr4  1  0.503721  0.003216  0.140108  1
  Sr  Sr5  1  0.640120  0.503498  0.003942  1
  Tb  Tb6  1  0.501486  0.002698  0.639480  1
  Er  Er7  1  0.138942  0.502781  0.001540  1
  Bi  Bi8  1  0.877204  0.253764  0.105848  1
  Bi  Bi9  1  0.138650  0.864660  0.254692  1
  Bi  Bi10  1  0.370826  0.628788  0.752874  1
  Bi  Bi11  1  0.252217  0.129162  0.871125  1
  Bi  Bi12  1  0.756932  0.366326  0.640064  1
  Bi  Bi13  1  0.605417  0.752222  0.375598  1
