# generated using pymatgen
data_Ce4Fe19P12Ir
_symmetry_space_group_name_H-M   'P 1'
_cell_length_a   3.70753100
_cell_length_b   10.35058596
_cell_length_c   11.85603039
_cell_angle_alpha   89.82434010
_cell_angle_beta   90.00000000
_cell_angle_gamma   90.00000000
_symmetry_Int_Tables_number   1
_chemical_formula_structural   Ce4Fe19P12Ir
_chemical_formula_sum   'Ce4 Fe19 P12 Ir1'
_cell_volume   454.97443058
_cell_formula_units_Z   1
loop_
 _symmetry_equiv_pos_site_id
 _symmetry_equiv_pos_as_xyz
  1  'x, y, z'
loop_
 _atom_site_type_symbol
 _atom_site_label
 _atom_site_symmetry_multiplicity
 _atom_site_fract_x
 _atom_site_fract_y
 _atom_site_fract_z
 _atom_site_occupancy
  Ce  Ce0  1  0.250000  0.580246  0.701065  1
  Ce  Ce1  1  0.250000  0.919463  0.202453  1
  Ce  Ce2  1  0.750000  0.423642  0.299170  1
  Ce  Ce3  1  0.750000  0.080617  0.793714  1
  Fe  Fe4  1  0.250000  0.219952  0.172980  1
  Fe  Fe5  1  0.250000  0.276507  0.669818  1
  Fe  Fe6  1  0.750000  0.774755  0.829460  1
  Fe  Fe7  1  0.750000  0.723207  0.332019  1
  Fe  Fe8  1  0.250000  0.881984  0.700378  1
  Fe  Fe9  1  0.250000  0.616117  0.203912  1
  Fe  Fe10  1  0.750000  0.122906  0.297037  1
  Fe  Fe11  1  0.750000  0.378009  0.798434  1
  Fe  Fe12  1  0.250000  0.404933  0.487442  1
  Fe  Fe13  1  0.250000  0.096605  0.985515  1
  Fe  Fe14  1  0.750000  0.597648  0.515721  1
  Fe  Fe15  1  0.750000  0.903300  0.014096  1
  Fe  Fe16  1  0.250000  0.461886  0.933360  1
  Fe  Fe17  1  0.250000  0.036290  0.430955  1
  Fe  Fe18  1  0.750000  0.534513  0.066154  1
  Fe  Fe19  1  0.750000  0.966144  0.565183  1
  Fe  Fe20  1  0.250000  0.796170  0.491415  1
  Fe  Fe21  1  0.750000  0.293354  0.009869  1
  Fe  Fe22  1  0.750000  0.206220  0.508281  1
  P  P23  1  0.250000  0.421102  0.112285  1
  P  P24  1  0.250000  0.076659  0.609479  1
  P  P25  1  0.750000  0.571420  0.885189  1
  P  P26  1  0.750000  0.923137  0.388140  1
  P  P27  1  0.250000  0.271872  0.862069  1
  P  P28  1  0.250000  0.230400  0.367688  1
  P  P29  1  0.750000  0.723220  0.143689  1
  P  P30  1  0.750000  0.775743  0.637917  1
  P  P31  1  0.250000  0.608464  0.398637  1
  P  P32  1  0.250000  0.899720  0.891261  1
  P  P33  1  0.750000  0.392762  0.604186  1
  P  P34  1  0.750000  0.104002  0.100233  1
  Ir  Ir35  1  0.250000  0.707034  0.990793  1
