# generated using pymatgen
data_Ac8NdNi6
_symmetry_space_group_name_H-M   'P 1'
_cell_length_a   7.83095600
_cell_length_b   7.83095559
_cell_length_c   7.83095531
_cell_angle_alpha   74.23357229
_cell_angle_beta   74.23356119
_cell_angle_gamma   74.23357372
_symmetry_Int_Tables_number   1
_chemical_formula_structural   Ac8NdNi6
_chemical_formula_sum   'Ac8 Nd1 Ni6'
_cell_volume   434.49888756
_cell_formula_units_Z   1
loop_
 _symmetry_equiv_pos_site_id
 _symmetry_equiv_pos_as_xyz
  1  'x, y, z'
loop_
 _atom_site_type_symbol
 _atom_site_label
 _atom_site_symmetry_multiplicity
 _atom_site_fract_x
 _atom_site_fract_y
 _atom_site_fract_z
 _atom_site_occupancy
  Ac  Ac0  1  0.292295  0.292295  0.292295  1
  Ac  Ac1  1  0.707705  0.707705  0.707705  1
  Ac  Ac2  1  0.819002  0.331126  0.127248  1
  Ac  Ac3  1  0.331126  0.127248  0.819002  1
  Ac  Ac4  1  0.127248  0.819002  0.331126  1
  Ac  Ac5  1  0.180998  0.668874  0.872752  1
  Ac  Ac6  1  0.668874  0.872752  0.180998  1
  Ac  Ac7  1  0.872752  0.180998  0.668874  1
  Nd  Nd8  1  0.500000  0.500000  0.500000  1
  Ni  Ni9  1  0.467960  0.626589  0.097433  1
  Ni  Ni10  1  0.626589  0.097433  0.467960  1
  Ni  Ni11  1  0.097433  0.467960  0.626589  1
  Ni  Ni12  1  0.532040  0.373411  0.902567  1
  Ni  Ni13  1  0.373411  0.902567  0.532040  1
  Ni  Ni14  1  0.902567  0.532040  0.373411  1
