# generated using pymatgen
data_LaNdGa5Cu3
_symmetry_space_group_name_H-M   'P 1'
_cell_length_a   4.25261600
_cell_length_b   4.25435900
_cell_length_c   10.35995200
_cell_angle_alpha   90.00000000
_cell_angle_beta   90.00000000
_cell_angle_gamma   90.00000000
_symmetry_Int_Tables_number   1
_chemical_formula_structural   LaNdGa5Cu3
_chemical_formula_sum   'La1 Nd1 Ga5 Cu3'
_cell_volume   187.43385896
_cell_formula_units_Z   1
loop_
 _symmetry_equiv_pos_site_id
 _symmetry_equiv_pos_as_xyz
  1  'x, y, z'
loop_
 _atom_site_type_symbol
 _atom_site_label
 _atom_site_symmetry_multiplicity
 _atom_site_fract_x
 _atom_site_fract_y
 _atom_site_fract_z
 _atom_site_occupancy
  La  La0  1  0.500000  0.000000  0.750877  1
  Nd  Nd1  1  0.000000  0.500000  0.249672  1
  Ga  Ga2  1  0.500000  0.500000  0.001510  1
  Ga  Ga3  1  0.000000  0.000000  0.001619  1
  Ga  Ga4  1  0.000000  0.500000  0.637660  1
  Ga  Ga5  1  0.500000  0.000000  0.359742  1
  Ga  Ga6  1  0.000000  0.000000  0.498934  1
  Cu  Cu7  1  0.000000  0.500000  0.872143  1
  Cu  Cu8  1  0.500000  0.000000  0.129077  1
  Cu  Cu9  1  0.500000  0.500000  0.498765  1
