# generated using pymatgen
data_Yb5GeBi2
_symmetry_space_group_name_H-M   'P 1'
_cell_length_a   12.82334800
_cell_length_b   9.59392000
_cell_length_c   8.07949900
_cell_angle_alpha   90.00000000
_cell_angle_beta   90.00000000
_cell_angle_gamma   90.00000000
_symmetry_Int_Tables_number   1
_chemical_formula_structural   Yb5GeBi2
_chemical_formula_sum   'Yb20 Ge4 Bi8'
_cell_volume   993.98985663
_cell_formula_units_Z   4
loop_
 _symmetry_equiv_pos_site_id
 _symmetry_equiv_pos_as_xyz
  1  'x, y, z'
loop_
 _atom_site_type_symbol
 _atom_site_label
 _atom_site_symmetry_multiplicity
 _atom_site_fract_x
 _atom_site_fract_y
 _atom_site_fract_z
 _atom_site_occupancy
  Yb  Yb0  1  0.072667  0.528429  0.823986  1
  Yb  Yb1  1  0.572667  0.971571  0.676014  1
  Yb  Yb2  1  0.927333  0.028429  0.176014  1
  Yb  Yb3  1  0.427333  0.471571  0.323986  1
  Yb  Yb4  1  0.927333  0.471571  0.176014  1
  Yb  Yb5  1  0.427333  0.028429  0.323986  1
  Yb  Yb6  1  0.072667  0.971571  0.823986  1
  Yb  Yb7  1  0.572667  0.528429  0.676014  1
  Yb  Yb8  1  0.000326  0.750000  0.440004  1
  Yb  Yb9  1  0.500326  0.750000  0.059996  1
  Yb  Yb10  1  0.999674  0.250000  0.559996  1
  Yb  Yb11  1  0.499674  0.250000  0.940004  1
  Yb  Yb12  1  0.215950  0.750000  0.168595  1
  Yb  Yb13  1  0.715950  0.750000  0.331405  1
  Yb  Yb14  1  0.784050  0.250000  0.831405  1
  Yb  Yb15  1  0.284050  0.250000  0.668595  1
  Yb  Yb16  1  0.302931  0.750000  0.640914  1
  Yb  Yb17  1  0.802931  0.750000  0.859086  1
  Yb  Yb18  1  0.697069  0.250000  0.359086  1
  Yb  Yb19  1  0.197069  0.250000  0.140914  1
  Ge  Ge20  1  0.491293  0.750000  0.438754  1
  Ge  Ge21  1  0.991293  0.750000  0.061246  1
  Ge  Ge22  1  0.508707  0.250000  0.561246  1
  Ge  Ge23  1  0.008707  0.250000  0.938754  1
  Bi  Bi24  1  0.331064  0.508932  0.937554  1
  Bi  Bi25  1  0.831064  0.991068  0.562446  1
  Bi  Bi26  1  0.668936  0.008932  0.062446  1
  Bi  Bi27  1  0.168936  0.491068  0.437554  1
  Bi  Bi28  1  0.668936  0.491068  0.062446  1
  Bi  Bi29  1  0.168936  0.008932  0.437554  1
  Bi  Bi30  1  0.331064  0.991068  0.937554  1
  Bi  Bi31  1  0.831064  0.508932  0.562446  1
