# generated using pymatgen
data_Sr8Os(RuN4)2
_symmetry_space_group_name_H-M   'P 1'
_cell_length_a   9.93342723
_cell_length_b   5.32864804
_cell_length_c   7.63919897
_cell_angle_alpha   89.99999991
_cell_angle_beta   74.72947491
_cell_angle_gamma   74.44175300
_symmetry_Int_Tables_number   1
_chemical_formula_structural   Sr8Os(RuN4)2
_chemical_formula_sum   'Sr8 Os1 Ru2 N8'
_cell_volume   374.69908947
_cell_formula_units_Z   1
loop_
 _symmetry_equiv_pos_site_id
 _symmetry_equiv_pos_as_xyz
  1  'x, y, z'
loop_
 _atom_site_type_symbol
 _atom_site_label
 _atom_site_symmetry_multiplicity
 _atom_site_fract_x
 _atom_site_fract_y
 _atom_site_fract_z
 _atom_site_occupancy
  Sr  Sr0  1  0.050921  0.974539  0.742944  1
  Sr  Sr1  1  0.949079  0.025461  0.257056  1
  Sr  Sr2  1  0.665075  0.667462  0.471227  1
  Sr  Sr3  1  0.334925  0.332538  0.528773  1
  Sr  Sr4  1  0.796756  0.601622  0.952971  1
  Sr  Sr5  1  0.203244  0.398378  0.047029  1
  Sr  Sr6  1  0.401161  0.799420  0.197562  1
  Sr  Sr7  1  0.598839  0.200580  0.802438  1
  Os  Os8  1  0.000000  0.500000  0.500000  1
  Ru  Ru9  1  0.372112  0.813945  0.795423  1
  Ru  Ru10  1  0.627888  0.186055  0.204577  1
  N  N11  1  0.200170  0.899915  0.998150  1
  N  N12  1  0.799830  0.100085  0.001850  1
  N  N13  1  0.351450  0.824275  0.561038  1
  N  N14  1  0.648550  0.175725  0.438962  1
  N  N15  1  0.559049  0.720475  0.831464  1
  N  N16  1  0.440951  0.279525  0.168536  1
  N  N17  1  0.949077  0.525462  0.285940  1
  N  N18  1  0.050923  0.474538  0.714060  1
