# generated using pymatgen
data_La6Nd4Os3Pd
_symmetry_space_group_name_H-M   'P 1'
_cell_length_a   9.18317991
_cell_length_b   9.23225461
_cell_length_c   7.37099200
_cell_angle_alpha   84.65555172
_cell_angle_beta   84.51046626
_cell_angle_gamma   42.37719315
_symmetry_Int_Tables_number   1
_chemical_formula_structural   La6Nd4Os3Pd
_chemical_formula_sum   'La6 Nd4 Os3 Pd1'
_cell_volume   419.03657160
_cell_formula_units_Z   1
loop_
 _symmetry_equiv_pos_site_id
 _symmetry_equiv_pos_as_xyz
  1  'x, y, z'
loop_
 _atom_site_type_symbol
 _atom_site_label
 _atom_site_symmetry_multiplicity
 _atom_site_fract_x
 _atom_site_fract_y
 _atom_site_fract_z
 _atom_site_occupancy
  La  La0  1  0.008327  0.808380  0.926304  1
  La  La1  1  0.197021  0.989971  0.588276  1
  La  La2  1  0.988970  0.196763  0.090654  1
  La  La3  1  0.786436  0.029435  0.408078  1
  La  La4  1  0.369962  0.198928  0.821925  1
  La  La5  1  0.781126  0.638392  0.682493  1
  Nd  Nd6  1  0.644912  0.785814  0.186953  1
  Nd  Nd7  1  0.209825  0.352898  0.309950  1
  Nd  Nd8  1  0.570811  0.431709  0.751796  1
  Nd  Nd9  1  0.432146  0.576194  0.240200  1
  Os  Os10  1  0.401770  0.823969  0.918924  1
  Os  Os11  1  0.825190  0.397461  0.425934  1
  Os  Os12  1  0.598584  0.174840  0.077207  1
  Pd  Pd13  1  0.184923  0.595246  0.571307  1
