# generated using pymatgen
data_Pr3Al12Ir3Ru
_symmetry_space_group_name_H-M   'P 1'
_cell_length_a   8.94467500
_cell_length_b   8.94467408
_cell_length_c   9.64825400
_cell_angle_alpha   90.00000000
_cell_angle_beta   90.00000000
_cell_angle_gamma   119.99999972
_symmetry_Int_Tables_number   1
_chemical_formula_structural   Pr3Al12Ir3Ru
_chemical_formula_sum   'Pr6 Al24 Ir6 Ru2'
_cell_volume   668.51082936
_cell_formula_units_Z   2
loop_
 _symmetry_equiv_pos_site_id
 _symmetry_equiv_pos_as_xyz
  1  'x, y, z'
loop_
 _atom_site_type_symbol
 _atom_site_label
 _atom_site_symmetry_multiplicity
 _atom_site_fract_x
 _atom_site_fract_y
 _atom_site_fract_z
 _atom_site_occupancy
  Pr  Pr0  1  0.190557  0.381114  0.250000  1
  Pr  Pr1  1  0.809443  0.618886  0.750000  1
  Pr  Pr2  1  0.618886  0.809443  0.250000  1
  Pr  Pr3  1  0.381114  0.190557  0.750000  1
  Pr  Pr4  1  0.190557  0.809443  0.250000  1
  Pr  Pr5  1  0.809443  0.190557  0.750000  1
  Al  Al6  1  0.333333  0.666667  0.011904  1
  Al  Al7  1  0.666667  0.333333  0.988096  1
  Al  Al8  1  0.666667  0.333333  0.511904  1
  Al  Al9  1  0.333333  0.666667  0.488096  1
  Al  Al10  1  0.162792  0.325582  0.575189  1
  Al  Al11  1  0.837208  0.674418  0.424811  1
  Al  Al12  1  0.674418  0.837208  0.575189  1
  Al  Al13  1  0.837208  0.674418  0.075189  1
  Al  Al14  1  0.325582  0.162792  0.424811  1
  Al  Al15  1  0.162792  0.325582  0.924811  1
  Al  Al16  1  0.162792  0.837208  0.575189  1
  Al  Al17  1  0.325582  0.162792  0.075189  1
  Al  Al18  1  0.837208  0.162792  0.424811  1
  Al  Al19  1  0.674418  0.837208  0.924811  1
  Al  Al20  1  0.837208  0.162792  0.075189  1
  Al  Al21  1  0.162792  0.837208  0.924811  1
  Al  Al22  1  0.563247  0.126494  0.250000  1
  Al  Al23  1  0.436753  0.873506  0.750000  1
  Al  Al24  1  0.873506  0.436753  0.250000  1
  Al  Al25  1  0.126494  0.563247  0.750000  1
  Al  Al26  1  0.563247  0.436753  0.250000  1
  Al  Al27  1  0.436753  0.563247  0.750000  1
  Al  Al28  1  0.000000  0.000000  0.250000  1
  Al  Al29  1  0.000000  0.000000  0.750000  1
  Ir  Ir30  1  0.500000  0.000000  0.000000  1
  Ir  Ir31  1  0.000000  0.500000  0.000000  1
  Ir  Ir32  1  0.500000  0.000000  0.500000  1
  Ir  Ir33  1  0.500000  0.500000  0.000000  1
  Ir  Ir34  1  0.000000  0.500000  0.500000  1
  Ir  Ir35  1  0.500000  0.500000  0.500000  1
  Ru  Ru36  1  0.000000  0.000000  0.000000  1
  Ru  Ru37  1  0.000000  0.000000  0.500000  1
