# generated using pymatgen
data_Dy3YIr2(RhO7)2
_symmetry_space_group_name_H-M   'P 1'
_cell_length_a   7.24139254
_cell_length_b   7.24255958
_cell_length_c   7.24255905
_cell_angle_alpha   59.96041307
_cell_angle_beta   59.97941935
_cell_angle_gamma   59.97942808
_symmetry_Int_Tables_number   1
_chemical_formula_structural   Dy3YIr2(RhO7)2
_chemical_formula_sum   'Dy3 Y1 Ir2 Rh2 O14'
_cell_volume   268.42691156
_cell_formula_units_Z   1
loop_
 _symmetry_equiv_pos_site_id
 _symmetry_equiv_pos_as_xyz
  1  'x, y, z'
loop_
 _atom_site_type_symbol
 _atom_site_label
 _atom_site_symmetry_multiplicity
 _atom_site_fract_x
 _atom_site_fract_y
 _atom_site_fract_z
 _atom_site_occupancy
  Dy  Dy0  1  0.125000  0.625000  0.125000  1
  Dy  Dy1  1  0.125000  0.125000  0.625000  1
  Dy  Dy2  1  0.125000  0.125000  0.125000  1
  Y  Y3  1  0.625000  0.125000  0.125000  1
  Ir  Ir4  1  0.125000  0.625000  0.625000  1
  Ir  Ir5  1  0.625000  0.625000  0.625000  1
  Rh  Rh6  1  0.625000  0.125000  0.625000  1
  Rh  Rh7  1  0.625000  0.625000  0.125000  1
  O  O8  1  0.715372  0.708234  0.290634  1
  O  O9  1  0.285522  0.290435  0.708788  1
  O  O10  1  0.715372  0.290634  0.708234  1
  O  O11  1  0.285522  0.708788  0.290435  1
  O  O12  1  0.291025  0.708938  0.708938  1
  O  O13  1  0.715999  0.284322  0.284322  1
  O  O14  1  0.534628  0.541766  0.959366  1
  O  O15  1  0.964478  0.959565  0.541212  1
  O  O16  1  0.534628  0.959366  0.541766  1
  O  O17  1  0.964478  0.541212  0.959565  1
  O  O18  1  0.958975  0.541062  0.541062  1
  O  O19  1  0.534001  0.965678  0.965678  1
  O  O20  1  0.248373  0.251374  0.251374  1
  O  O21  1  0.001627  0.998626  0.998626  1
