# generated using pymatgen
data_Hf6PdRh9
_symmetry_space_group_name_H-M   'P 1'
_cell_length_a   4.30958000
_cell_length_b   5.60937397
_cell_length_c   10.96112062
_cell_angle_alpha   89.02517405
_cell_angle_beta   90.00000000
_cell_angle_gamma   90.00000000
_symmetry_Int_Tables_number   1
_chemical_formula_structural   Hf6PdRh9
_chemical_formula_sum   'Hf6 Pd1 Rh9'
_cell_volume   264.93628194
_cell_formula_units_Z   1
loop_
 _symmetry_equiv_pos_site_id
 _symmetry_equiv_pos_as_xyz
  1  'x, y, z'
loop_
 _atom_site_type_symbol
 _atom_site_label
 _atom_site_symmetry_multiplicity
 _atom_site_fract_x
 _atom_site_fract_y
 _atom_site_fract_z
 _atom_site_occupancy
  Hf  Hf0  1  0.500000  0.144947  0.643231  1
  Hf  Hf1  1  0.500000  0.841611  0.354233  1
  Hf  Hf2  1  0.500000  0.665752  0.858179  1
  Hf  Hf3  1  0.500000  0.344615  0.145953  1
  Hf  Hf4  1  0.000000  0.493885  0.496301  1
  Hf  Hf5  1  0.000000  0.006477  0.999845  1
  Pd  Pd6  1  0.000000  0.403236  0.746615  1
  Rh  Rh7  1  0.500000  0.185612  0.890592  1
  Rh  Rh8  1  0.500000  0.820384  0.107710  1
  Rh  Rh9  1  0.500000  0.671621  0.608097  1
  Rh  Rh10  1  0.500000  0.314733  0.392748  1
  Rh  Rh11  1  0.000000  0.602663  0.258856  1
  Rh  Rh12  1  0.000000  0.996080  0.498548  1
  Rh  Rh13  1  0.000000  0.505907  0.002589  1
  Rh  Rh14  1  0.000000  0.101722  0.240826  1
  Rh  Rh15  1  0.000000  0.900757  0.755677  1
