# generated using pymatgen
data_Ce2InCoNi
_symmetry_space_group_name_H-M   'P 1'
_cell_length_a   7.51399400
_cell_length_b   7.55027100
_cell_length_c   3.59141700
_cell_angle_alpha   90.00000000
_cell_angle_beta   90.00000000
_cell_angle_gamma   90.00000000
_symmetry_Int_Tables_number   1
_chemical_formula_structural   Ce2InCoNi
_chemical_formula_sum   'Ce4 In2 Co2 Ni2'
_cell_volume   203.75075089
_cell_formula_units_Z   2
loop_
 _symmetry_equiv_pos_site_id
 _symmetry_equiv_pos_as_xyz
  1  'x, y, z'
loop_
 _atom_site_type_symbol
 _atom_site_label
 _atom_site_symmetry_multiplicity
 _atom_site_fract_x
 _atom_site_fract_y
 _atom_site_fract_z
 _atom_site_occupancy
  Ce  Ce0  1  0.677802  0.172057  0.500000  1
  Ce  Ce1  1  0.158365  0.332443  0.500000  1
  Ce  Ce2  1  0.822198  0.672057  0.500000  1
  Ce  Ce3  1  0.341635  0.832443  0.500000  1
  In  In4  1  0.003341  0.997356  0.000000  1
  In  In5  1  0.496659  0.497356  0.000000  1
  Co  Co6  1  0.869169  0.367209  0.000000  1
  Co  Co7  1  0.630831  0.867209  0.000000  1
  Ni  Ni8  1  0.128515  0.630936  0.000000  1
  Ni  Ni9  1  0.371485  0.130936  0.000000  1
