# generated using pymatgen
data_Nd10CuGeBi5Pb
_symmetry_space_group_name_H-M   'P 1'
_cell_length_a   9.63176773
_cell_length_b   9.63176751
_cell_length_c   6.64924140
_cell_angle_alpha   89.93382496
_cell_angle_beta   89.93382226
_cell_angle_gamma   119.94476324
_symmetry_Int_Tables_number   1
_chemical_formula_structural   Nd10CuGeBi5Pb
_chemical_formula_sum   'Nd10 Cu1 Ge1 Bi5 Pb1'
_cell_volume   534.50900689
_cell_formula_units_Z   1
loop_
 _symmetry_equiv_pos_site_id
 _symmetry_equiv_pos_as_xyz
  1  'x, y, z'
loop_
 _atom_site_type_symbol
 _atom_site_label
 _atom_site_symmetry_multiplicity
 _atom_site_fract_x
 _atom_site_fract_y
 _atom_site_fract_z
 _atom_site_occupancy
  Nd  Nd0  1  0.665931  0.333313  0.999338  1
  Nd  Nd1  1  0.333313  0.665931  0.999338  1
  Nd  Nd2  1  0.333131  0.665555  0.500765  1
  Nd  Nd3  1  0.665555  0.333131  0.500765  1
  Nd  Nd4  1  0.747209  0.747209  0.751999  1
  Nd  Nd5  1  0.253248  0.001503  0.752083  1
  Nd  Nd6  1  0.001503  0.253248  0.752083  1
  Nd  Nd7  1  0.252160  0.252160  0.248163  1
  Nd  Nd8  1  0.747795  0.999810  0.247748  1
  Nd  Nd9  1  0.999810  0.747795  0.247748  1
  Cu  Cu10  1  0.000509  0.000509  0.500596  1
  Ge  Ge11  1  0.000167  0.000167  0.999611  1
  Bi  Bi12  1  0.612217  0.999940  0.749155  1
  Bi  Bi13  1  0.999940  0.612217  0.749155  1
  Bi  Bi14  1  0.610825  0.610825  0.251005  1
  Bi  Bi15  1  0.387987  0.999828  0.250637  1
  Bi  Bi16  1  0.999828  0.387987  0.250637  1
  Pb  Pb17  1  0.388869  0.388869  0.749172  1
