# generated using pymatgen
data_Ta7Nb5Al8(CoC)4
_symmetry_space_group_name_H-M   'P 1'
_cell_length_a   8.23473256
_cell_length_b   8.24184598
_cell_length_c   8.22351329
_cell_angle_alpha   60.02448575
_cell_angle_beta   59.98950626
_cell_angle_gamma   60.06517263
_symmetry_Int_Tables_number   1
_chemical_formula_structural   Ta7Nb5Al8(CoC)4
_chemical_formula_sum   'Ta7 Nb5 Al8 Co4 C4'
_cell_volume   394.88962814
_cell_formula_units_Z   1
loop_
 _symmetry_equiv_pos_site_id
 _symmetry_equiv_pos_as_xyz
  1  'x, y, z'
loop_
 _atom_site_type_symbol
 _atom_site_label
 _atom_site_symmetry_multiplicity
 _atom_site_fract_x
 _atom_site_fract_y
 _atom_site_fract_z
 _atom_site_occupancy
  Ta  Ta0  1  0.690433  0.309582  0.690892  1
  Ta  Ta1  1  0.940274  0.560429  0.560083  1
  Ta  Ta2  1  0.560646  0.939585  0.939984  1
  Ta  Ta3  1  0.938612  0.561790  0.938356  1
  Ta  Ta4  1  0.561896  0.561540  0.938655  1
  Ta  Ta5  1  0.939565  0.938888  0.560883  1
  Ta  Ta6  1  0.689156  0.689091  0.311277  1
  Nb  Nb7  1  0.312333  0.687993  0.688475  1
  Nb  Nb8  1  0.688019  0.311619  0.311846  1
  Nb  Nb9  1  0.311497  0.310809  0.688879  1
  Nb  Nb10  1  0.562783  0.937686  0.562135  1
  Nb  Nb11  1  0.310870  0.689136  0.310436  1
  Al  Al12  1  0.332367  0.330730  0.331893  1
  Al  Al13  1  0.245280  0.918501  0.916930  1
  Al  Al14  1  0.918594  0.245170  0.919217  1
  Al  Al15  1  0.917217  0.919461  0.245203  1
  Al  Al16  1  0.331152  0.004804  0.332987  1
  Al  Al17  1  0.330264  0.332936  0.004553  1
  Al  Al18  1  0.004264  0.331596  0.330701  1
  Al  Al19  1  0.919522  0.917206  0.918023  1
  Co  Co20  1  0.125781  0.124445  0.125156  1
  Co  Co21  1  0.625350  0.124895  0.119167  1
  Co  Co22  1  0.121491  0.624856  0.127402  1
  Co  Co23  1  0.117411  0.129018  0.625102  1
  C  C24  1  0.628073  0.622377  0.625219  1
  C  C25  1  0.122865  0.625695  0.625956  1
  C  C26  1  0.627464  0.123816  0.627201  1
  C  C27  1  0.626818  0.626348  0.123393  1
