# generated using pymatgen
data_Ta12Co8Os4C3N
_symmetry_space_group_name_H-M   'P 1'
_cell_length_a   8.09634063
_cell_length_b   8.09571137
_cell_length_c   8.09517070
_cell_angle_alpha   60.05653502
_cell_angle_beta   60.07157915
_cell_angle_gamma   60.07828030
_symmetry_Int_Tables_number   1
_chemical_formula_structural   Ta12Co8Os4C3N
_chemical_formula_sum   'Ta12 Co8 Os4 C3 N1'
_cell_volume   375.77801700
_cell_formula_units_Z   1
loop_
 _symmetry_equiv_pos_site_id
 _symmetry_equiv_pos_as_xyz
  1  'x, y, z'
loop_
 _atom_site_type_symbol
 _atom_site_label
 _atom_site_symmetry_multiplicity
 _atom_site_fract_x
 _atom_site_fract_y
 _atom_site_fract_z
 _atom_site_occupancy
  Ta  Ta0  1  0.805680  0.805781  0.193848  1
  Ta  Ta1  1  0.193416  0.193153  0.806601  1
  Ta  Ta2  1  0.805868  0.193596  0.805894  1
  Ta  Ta3  1  0.193628  0.806327  0.193472  1
  Ta  Ta4  1  0.194032  0.805643  0.805578  1
  Ta  Ta5  1  0.806543  0.193259  0.193384  1
  Ta  Ta6  1  0.444320  0.444219  0.056152  1
  Ta  Ta7  1  0.056584  0.056847  0.443399  1
  Ta  Ta8  1  0.444132  0.056404  0.444106  1
  Ta  Ta9  1  0.056372  0.443673  0.056528  1
  Ta  Ta10  1  0.055968  0.444357  0.444422  1
  Ta  Ta11  1  0.443457  0.056741  0.056616  1
  Co  Co12  1  0.739833  0.419768  0.419790  1
  Co  Co13  1  0.419540  0.740605  0.419467  1
  Co  Co14  1  0.419684  0.419595  0.740152  1
  Co  Co15  1  0.419860  0.419829  0.419908  1
  Co  Co16  1  0.510167  0.830232  0.830210  1
  Co  Co17  1  0.830460  0.509395  0.830533  1
  Co  Co18  1  0.830316  0.830405  0.509848  1
  Co  Co19  1  0.830140  0.830171  0.830092  1
  Os  Os20  1  0.125000  0.625000  0.625000  1
  Os  Os21  1  0.625000  0.125000  0.625000  1
  Os  Os22  1  0.625000  0.625000  0.125000  1
  Os  Os23  1  0.625000  0.625000  0.625000  1
  C  C24  1  0.625000  0.125000  0.125000  1
  C  C25  1  0.125000  0.625000  0.125000  1
  C  C26  1  0.125000  0.125000  0.625000  1
  N  N27  1  0.125000  0.125000  0.125000  1
