# generated using pymatgen
data_Yb7Er(TmIr2)2
_symmetry_space_group_name_H-M   'P 1'
_cell_length_a   6.49752721
_cell_length_b   7.29970980
_cell_length_c   8.51091093
_cell_angle_alpha   96.87868872
_cell_angle_beta   113.13258299
_cell_angle_gamma   90.40115716
_symmetry_Int_Tables_number   1
_chemical_formula_structural   Yb7Er(TmIr2)2
_chemical_formula_sum   'Yb7 Er1 Tm2 Ir4'
_cell_volume   367.89848545
_cell_formula_units_Z   1
loop_
 _symmetry_equiv_pos_site_id
 _symmetry_equiv_pos_as_xyz
  1  'x, y, z'
loop_
 _atom_site_type_symbol
 _atom_site_label
 _atom_site_symmetry_multiplicity
 _atom_site_fract_x
 _atom_site_fract_y
 _atom_site_fract_z
 _atom_site_occupancy
  Yb  Yb0  1  0.796998  0.575307  0.824394  1
  Yb  Yb1  1  0.028550  0.078947  0.824301  1
  Yb  Yb2  1  0.196140  0.420314  0.170913  1
  Yb  Yb3  1  0.638781  0.818949  0.433265  1
  Yb  Yb4  1  0.204332  0.682721  0.564553  1
  Yb  Yb5  1  0.361263  0.179099  0.565213  1
  Yb  Yb6  1  0.800265  0.317394  0.435191  1
  Er  Er7  1  0.971116  0.917575  0.164551  1
  Tm  Tm8  1  0.429739  0.749473  0.999647  1
  Tm  Tm9  1  0.564526  0.251348  0.002056  1
  Ir  Ir10  1  0.814981  0.584358  0.211660  1
  Ir  Ir11  1  0.613590  0.928438  0.805855  1
  Ir  Ir12  1  0.190826  0.424882  0.787874  1
  Ir  Ir13  1  0.388896  0.071195  0.210527  1
