# generated using pymatgen
data_Dy5Si9Mo(PIr6)3
_symmetry_space_group_name_H-M   'P 1'
_cell_length_a   12.79635603
_cell_length_b   12.88077443
_cell_length_c   3.95426800
_cell_angle_alpha   90.00000000
_cell_angle_beta   90.00000000
_cell_angle_gamma   120.21847045
_symmetry_Int_Tables_number   1
_chemical_formula_structural   Dy5Si9Mo(PIr6)3
_chemical_formula_sum   'Dy5 Si9 Mo1 P3 Ir18'
_cell_volume   563.20269823
_cell_formula_units_Z   1
loop_
 _symmetry_equiv_pos_site_id
 _symmetry_equiv_pos_as_xyz
  1  'x, y, z'
loop_
 _atom_site_type_symbol
 _atom_site_label
 _atom_site_symmetry_multiplicity
 _atom_site_fract_x
 _atom_site_fract_y
 _atom_site_fract_z
 _atom_site_occupancy
  Dy  Dy0  1  0.329711  0.665049  0.500000  1
  Dy  Dy1  1  0.670289  0.335337  0.500000  1
  Dy  Dy2  1  0.000000  0.811778  0.000000  1
  Dy  Dy3  1  0.185498  0.186709  0.000000  1
  Dy  Dy4  1  0.814502  0.001211  0.000000  1
  Si  Si5  1  0.000000  0.631988  0.500000  1
  Si  Si6  1  0.368227  0.366200  0.500000  1
  Si  Si7  1  0.631773  0.997973  0.500000  1
  Si  Si8  1  0.517028  0.686153  0.000000  1
  Si  Si9  1  0.312531  0.833993  0.000000  1
  Si  Si10  1  0.165411  0.480574  0.000000  1
  Si  Si11  1  0.482972  0.169124  0.000000  1
  Si  Si12  1  0.687469  0.521462  0.000000  1
  Si  Si13  1  0.834589  0.315162  0.000000  1
  Mo  Mo14  1  0.000000  0.440233  0.500000  1
  P  P15  1  0.000000  0.177348  0.500000  1
  P  P16  1  0.820280  0.821377  0.500000  1
  P  P17  1  0.179720  0.001097  0.500000  1
  Ir  Ir18  1  0.512008  0.872482  0.000000  1
  Ir  Ir19  1  0.128271  0.642146  0.000000  1
  Ir  Ir20  1  0.359698  0.486856  0.000000  1
  Ir  Ir21  1  0.487992  0.360474  0.000000  1
  Ir  Ir22  1  0.871729  0.513875  0.000000  1
  Ir  Ir23  1  0.640302  0.127157  0.000000  1
  Ir  Ir24  1  0.553499  0.552599  0.500000  1
  Ir  Ir25  1  0.446501  0.999100  0.500000  1
  Ir  Ir26  1  0.000000  0.275476  0.000000  1
  Ir  Ir27  1  0.720382  0.722863  0.000000  1
  Ir  Ir28  1  0.279618  0.002481  0.000000  1
  Ir  Ir29  1  0.624229  0.805078  0.500000  1
  Ir  Ir30  1  0.192855  0.822919  0.500000  1
  Ir  Ir31  1  0.180814  0.372292  0.500000  1
  Ir  Ir32  1  0.375771  0.180848  0.500000  1
  Ir  Ir33  1  0.807145  0.630064  0.500000  1
  Ir  Ir34  1  0.819186  0.191478  0.500000  1
  Ir  Ir35  1  0.000000  0.999047  0.500000  1
