# generated using pymatgen
data_Nd4Zn3Ga4Cu
_symmetry_space_group_name_H-M   'P 1'
_cell_length_a   4.54928800
_cell_length_b   7.48195079
_cell_length_c   7.55605691
_cell_angle_alpha   89.59478775
_cell_angle_beta   90.00000000
_cell_angle_gamma   90.00000000
_symmetry_Int_Tables_number   1
_chemical_formula_structural   Nd4Zn3Ga4Cu
_chemical_formula_sum   'Nd4 Zn3 Ga4 Cu1'
_cell_volume   257.18322496
_cell_formula_units_Z   1
loop_
 _symmetry_equiv_pos_site_id
 _symmetry_equiv_pos_as_xyz
  1  'x, y, z'
loop_
 _atom_site_type_symbol
 _atom_site_label
 _atom_site_symmetry_multiplicity
 _atom_site_fract_x
 _atom_site_fract_y
 _atom_site_fract_z
 _atom_site_occupancy
  Nd  Nd0  1  0.250000  0.005311  0.708743  1
  Nd  Nd1  1  0.250000  0.498067  0.783652  1
  Nd  Nd2  1  0.750000  0.003118  0.286095  1
  Nd  Nd3  1  0.750000  0.492370  0.219239  1
  Zn  Zn4  1  0.250000  0.806010  0.084408  1
  Zn  Zn5  1  0.750000  0.695172  0.584552  1
  Zn  Zn6  1  0.750000  0.193762  0.913942  1
  Ga  Ga7  1  0.250000  0.204016  0.093196  1
  Ga  Ga8  1  0.250000  0.697466  0.412418  1
  Ga  Ga9  1  0.750000  0.800028  0.911685  1
  Ga  Ga10  1  0.750000  0.299846  0.584123  1
  Cu  Cu11  1  0.250000  0.304833  0.417947  1
