# generated using pymatgen
data_Sc12Re(Si4Ir)3
_symmetry_space_group_name_H-M   'P 1'
_cell_length_a   4.04026100
_cell_length_b   10.25842840
_cell_length_c   11.66832007
_cell_angle_alpha   90.10650697
_cell_angle_beta   90.00000000
_cell_angle_gamma   90.00000000
_symmetry_Int_Tables_number   1
_chemical_formula_structural   Sc12Re(Si4Ir)3
_chemical_formula_sum   'Sc12 Re1 Si12 Ir3'
_cell_volume   483.61285498
_cell_formula_units_Z   1
loop_
 _symmetry_equiv_pos_site_id
 _symmetry_equiv_pos_as_xyz
  1  'x, y, z'
loop_
 _atom_site_type_symbol
 _atom_site_label
 _atom_site_symmetry_multiplicity
 _atom_site_fract_x
 _atom_site_fract_y
 _atom_site_fract_z
 _atom_site_occupancy
  Sc  Sc0  1  0.250000  0.876359  0.019381  1
  Sc  Sc1  1  0.250000  0.622330  0.520957  1
  Sc  Sc2  1  0.750000  0.121700  0.981285  1
  Sc  Sc3  1  0.750000  0.376560  0.482320  1
  Sc  Sc4  1  0.250000  0.920676  0.601510  1
  Sc  Sc5  1  0.250000  0.580423  0.103189  1
  Sc  Sc6  1  0.750000  0.079137  0.396561  1
  Sc  Sc7  1  0.750000  0.419761  0.895674  1
  Sc  Sc8  1  0.250000  0.661498  0.797922  1
  Sc  Sc9  1  0.250000  0.842141  0.299360  1
  Sc  Sc10  1  0.750000  0.342154  0.200891  1
  Sc  Sc11  1  0.750000  0.157095  0.701114  1
  Re  Re12  1  0.250000  0.390560  0.676101  1
  Si  Si13  1  0.250000  0.013335  0.822148  1
  Si  Si14  1  0.250000  0.485693  0.322468  1
  Si  Si15  1  0.750000  0.985592  0.178130  1
  Si  Si16  1  0.750000  0.517004  0.679051  1
  Si  Si17  1  0.250000  0.248992  0.842852  1
  Si  Si18  1  0.250000  0.249465  0.341736  1
  Si  Si19  1  0.750000  0.750467  0.158090  1
  Si  Si20  1  0.750000  0.752788  0.657098  1
  Si  Si21  1  0.250000  0.192073  0.544580  1
  Si  Si22  1  0.250000  0.305655  0.045820  1
  Si  Si23  1  0.750000  0.806179  0.454042  1
  Si  Si24  1  0.750000  0.692485  0.954666  1
  Ir  Ir25  1  0.250000  0.109926  0.175857  1
  Ir  Ir26  1  0.750000  0.610593  0.322791  1
  Ir  Ir27  1  0.750000  0.889358  0.824406  1
