# generated using pymatgen
data_Ce2As2O9
_symmetry_space_group_name_H-M   'P 1'
_cell_length_a   5.94768916
_cell_length_b   5.94768906
_cell_length_c   13.16368600
_cell_angle_alpha   90.00000000
_cell_angle_beta   90.00000000
_cell_angle_gamma   104.23639592
_symmetry_Int_Tables_number   1
_chemical_formula_structural   Ce2As2O9
_chemical_formula_sum   'Ce4 As4 O18'
_cell_volume   451.36456848
_cell_formula_units_Z   2
loop_
 _symmetry_equiv_pos_site_id
 _symmetry_equiv_pos_as_xyz
  1  'x, y, z'
loop_
 _atom_site_type_symbol
 _atom_site_label
 _atom_site_symmetry_multiplicity
 _atom_site_fract_x
 _atom_site_fract_y
 _atom_site_fract_z
 _atom_site_occupancy
  Ce  Ce0  1  0.297331  0.702669  0.565893  1
  Ce  Ce1  1  0.702669  0.297331  0.434107  1
  Ce  Ce2  1  0.202669  0.797331  0.065893  1
  Ce  Ce3  1  0.797331  0.202669  0.934107  1
  As  As4  1  0.396119  0.603881  0.854741  1
  As  As5  1  0.103881  0.896119  0.354741  1
  As  As6  1  0.603881  0.396119  0.145259  1
  As  As7  1  0.896119  0.103881  0.645259  1
  O  O8  1  0.074876  0.925124  0.621886  1
  O  O9  1  0.988921  0.366085  0.582557  1
  O  O10  1  0.130628  0.869372  0.227179  1
  O  O11  1  0.488921  0.866085  0.917443  1
  O  O12  1  0.633915  0.011079  0.582557  1
  O  O13  1  0.425124  0.574876  0.121886  1
  O  O14  1  0.866085  0.488921  0.082557  1
  O  O15  1  0.630628  0.369372  0.272821  1
  O  O16  1  0.925124  0.074876  0.378114  1
  O  O17  1  0.366085  0.988921  0.417443  1
  O  O18  1  0.369372  0.630628  0.727179  1
  O  O19  1  0.511079  0.133915  0.082557  1
  O  O20  1  0.574876  0.425124  0.878114  1
  O  O21  1  0.500000  0.500000  0.500000  1
  O  O22  1  0.869372  0.130628  0.772821  1
  O  O23  1  0.133915  0.511079  0.917443  1
  O  O24  1  0.011079  0.633915  0.417443  1
  O  O25  1  0.000000  0.000000  0.000000  1
