# generated using pymatgen
data_Mn2AlPd3Pt2
_symmetry_space_group_name_H-M   'P 1'
_cell_length_a   4.09582600
_cell_length_b   5.46544200
_cell_length_c   10.73596700
_cell_angle_alpha   90.00000000
_cell_angle_beta   90.00000000
_cell_angle_gamma   90.00000000
_symmetry_Int_Tables_number   1
_chemical_formula_structural   Mn2AlPd3Pt2
_chemical_formula_sum   'Mn4 Al2 Pd6 Pt4'
_cell_volume   240.32998332
_cell_formula_units_Z   2
loop_
 _symmetry_equiv_pos_site_id
 _symmetry_equiv_pos_as_xyz
  1  'x, y, z'
loop_
 _atom_site_type_symbol
 _atom_site_label
 _atom_site_symmetry_multiplicity
 _atom_site_fract_x
 _atom_site_fract_y
 _atom_site_fract_z
 _atom_site_occupancy
  Mn  Mn0  1  0.500000  0.179415  0.362252  1
  Mn  Mn1  1  0.500000  0.820585  0.637748  1
  Mn  Mn2  1  0.500000  0.679415  0.137748  1
  Mn  Mn3  1  0.500000  0.320585  0.862252  1
  Al  Al4  1  0.000000  0.000000  0.000000  1
  Al  Al5  1  0.000000  0.500000  0.500000  1
  Pd  Pd6  1  0.000000  0.000000  0.500000  1
  Pd  Pd7  1  0.000000  0.500000  0.000000  1
  Pd  Pd8  1  0.000000  0.922407  0.240311  1
  Pd  Pd9  1  0.000000  0.077593  0.759689  1
  Pd  Pd10  1  0.000000  0.422407  0.259689  1
  Pd  Pd11  1  0.000000  0.577593  0.740311  1
  Pt  Pt12  1  0.500000  0.187348  0.108462  1
  Pt  Pt13  1  0.500000  0.812652  0.891538  1
  Pt  Pt14  1  0.500000  0.687348  0.391538  1
  Pt  Pt15  1  0.500000  0.312652  0.608462  1
