# generated using pymatgen
data_TbErFe7Ni5P7
_symmetry_space_group_name_H-M   'P 1'
_cell_length_a   9.01005984
_cell_length_b   9.02626128
_cell_length_c   3.64524000
_cell_angle_alpha   90.00000000
_cell_angle_beta   90.00000000
_cell_angle_gamma   119.73615693
_symmetry_Int_Tables_number   1
_chemical_formula_structural   TbErFe7Ni5P7
_chemical_formula_sum   'Tb1 Er1 Fe7 Ni5 P7'
_cell_volume   257.41914671
_cell_formula_units_Z   1
loop_
 _symmetry_equiv_pos_site_id
 _symmetry_equiv_pos_as_xyz
  1  'x, y, z'
loop_
 _atom_site_type_symbol
 _atom_site_label
 _atom_site_symmetry_multiplicity
 _atom_site_fract_x
 _atom_site_fract_y
 _atom_site_fract_z
 _atom_site_occupancy
  Tb  Tb0  1  0.001433  0.998718  0.000000  1
  Er  Er1  1  0.331676  0.667659  0.500000  1
  Fe  Fe2  1  0.823006  0.214417  0.000000  1
  Fe  Fe3  1  0.783351  0.608134  0.000000  1
  Fe  Fe4  1  0.396047  0.180410  0.000000  1
  Fe  Fe5  1  0.233307  0.945895  0.500000  1
  Fe  Fe6  1  0.886896  0.457570  0.500000  1
  Fe  Fe7  1  0.545050  0.429757  0.500000  1
  Fe  Fe8  1  0.572565  0.119394  0.500000  1
  Ni  Ni9  1  0.098174  0.702595  0.000000  1
  Ni  Ni10  1  0.292732  0.394068  0.000000  1
  Ni  Ni11  1  0.601609  0.898114  0.000000  1
  Ni  Ni12  1  0.055017  0.283900  0.500000  1
  Ni  Ni13  1  0.713960  0.769682  0.500000  1
  P  P14  1  0.071670  0.444889  0.000000  1
  P  P15  1  0.552053  0.625738  0.000000  1
  P  P16  1  0.366204  0.926201  0.000000  1
  P  P17  1  0.780557  0.049994  0.500000  1
  P  P18  1  0.955428  0.734756  0.500000  1
  P  P19  1  0.270036  0.212713  0.500000  1
  P  P20  1  0.669229  0.335393  0.000000  1
