# generated using pymatgen
data_CrSb12RuAu2
_symmetry_space_group_name_H-M   'P 1'
_cell_length_a   8.33261238
_cell_length_b   8.29159789
_cell_length_c   9.60879487
_cell_angle_alpha   54.39632660
_cell_angle_beta   54.37163916
_cell_angle_gamma   70.09937172
_symmetry_Int_Tables_number   1
_chemical_formula_structural   CrSb12RuAu2
_chemical_formula_sum   'Cr1 Sb12 Ru1 Au2'
_cell_volume   438.73508042
_cell_formula_units_Z   1
loop_
 _symmetry_equiv_pos_site_id
 _symmetry_equiv_pos_as_xyz
  1  'x, y, z'
loop_
 _atom_site_type_symbol
 _atom_site_label
 _atom_site_symmetry_multiplicity
 _atom_site_fract_x
 _atom_site_fract_y
 _atom_site_fract_z
 _atom_site_occupancy
  Cr  Cr0  1  0.000000  0.500000  0.000000  1
  Sb  Sb1  1  0.157257  0.154670  0.175820  1
  Sb  Sb2  1  0.842743  0.845330  0.824180  1
  Sb  Sb3  1  0.850219  0.850075  0.506304  1
  Sb  Sb4  1  0.149781  0.149925  0.493696  1
  Sb  Sb5  1  0.808304  0.500829  0.334749  1
  Sb  Sb6  1  0.191696  0.499171  0.665251  1
  Sb  Sb7  1  0.502555  0.808804  0.332860  1
  Sb  Sb8  1  0.497445  0.191196  0.667140  1
  Sb  Sb9  1  0.644962  0.332418  0.859207  1
  Sb  Sb10  1  0.355038  0.667582  0.140793  1
  Sb  Sb11  1  0.666938  0.355534  0.141192  1
  Sb  Sb12  1  0.333062  0.644466  0.858808  1
  Ru  Ru13  1  0.500000  0.000000  0.000000  1
  Au  Au14  1  0.000000  0.500000  0.500000  1
  Au  Au15  1  0.500000  0.000000  0.500000  1
