# generated using pymatgen
data_Zr4CuOs2Rh
_symmetry_space_group_name_H-M   'P 1'
_cell_length_a   6.69627000
_cell_length_b   4.61966500
_cell_length_c   9.24624300
_cell_angle_alpha   90.00000000
_cell_angle_beta   90.00000000
_cell_angle_gamma   90.00000000
_symmetry_Int_Tables_number   1
_chemical_formula_structural   Zr4CuOs2Rh
_chemical_formula_sum   'Zr8 Cu2 Os4 Rh2'
_cell_volume   286.02812738
_cell_formula_units_Z   2
loop_
 _symmetry_equiv_pos_site_id
 _symmetry_equiv_pos_as_xyz
  1  'x, y, z'
loop_
 _atom_site_type_symbol
 _atom_site_label
 _atom_site_symmetry_multiplicity
 _atom_site_fract_x
 _atom_site_fract_y
 _atom_site_fract_z
 _atom_site_occupancy
  Zr  Zr0  1  0.000914  0.750000  0.124961  1
  Zr  Zr1  1  0.499080  0.750000  0.124968  1
  Zr  Zr2  1  0.999083  0.250000  0.375032  1
  Zr  Zr3  1  0.500914  0.250000  0.375038  1
  Zr  Zr4  1  0.500327  0.750000  0.625263  1
  Zr  Zr5  1  0.999672  0.750000  0.625269  1
  Zr  Zr6  1  0.499675  0.250000  0.874730  1
  Zr  Zr7  1  0.000327  0.250000  0.874736  1
  Cu  Cu8  1  0.750016  0.250000  0.624127  1
  Cu  Cu9  1  0.250016  0.750000  0.875873  1
  Os  Os10  1  0.249999  0.250000  0.121548  1
  Os  Os11  1  0.749999  0.750000  0.378451  1
  Os  Os12  1  0.249993  0.250000  0.627241  1
  Os  Os13  1  0.749994  0.750000  0.872758  1
  Rh  Rh14  1  0.749995  0.250000  0.126762  1
  Rh  Rh15  1  0.249996  0.750000  0.373238  1
