# generated using pymatgen
data_La3YSn4(BRh6)2
_symmetry_space_group_name_H-M   'P 1'
_cell_length_a   5.88377900
_cell_length_b   5.88377868
_cell_length_c   13.60658900
_cell_angle_alpha   90.00000000
_cell_angle_beta   90.00000000
_cell_angle_gamma   119.99999619
_symmetry_Int_Tables_number   1
_chemical_formula_structural   La3YSn4(BRh6)2
_chemical_formula_sum   'La3 Y1 Sn4 B2 Rh12'
_cell_volume   407.93652775
_cell_formula_units_Z   1
loop_
 _symmetry_equiv_pos_site_id
 _symmetry_equiv_pos_as_xyz
  1  'x, y, z'
loop_
 _atom_site_type_symbol
 _atom_site_label
 _atom_site_symmetry_multiplicity
 _atom_site_fract_x
 _atom_site_fract_y
 _atom_site_fract_z
 _atom_site_occupancy
  La  La0  1  0.333333  0.666667  0.397452  1
  La  La1  1  0.666667  0.333333  0.905231  1
  La  La2  1  0.666667  0.333333  0.599449  1
  Y  Y3  1  0.333333  0.666667  0.086432  1
  Sn  Sn4  1  0.000000  0.000000  0.749669  1
  Sn  Sn5  1  0.000000  0.000000  0.249746  1
  Sn  Sn6  1  0.333333  0.666667  0.750626  1
  Sn  Sn7  1  0.666667  0.333333  0.250150  1
  B  B8  1  0.000000  0.000000  0.500346  1
  B  B9  1  0.000000  0.000000  0.002386  1
  Rh  Rh10  1  0.336958  0.168480  0.408259  1
  Rh  Rh11  1  0.831520  0.168480  0.408259  1
  Rh  Rh12  1  0.831520  0.663042  0.408259  1
  Rh  Rh13  1  0.167897  0.335793  0.908607  1
  Rh  Rh14  1  0.662556  0.831277  0.592125  1
  Rh  Rh15  1  0.664207  0.832103  0.908607  1
  Rh  Rh16  1  0.336937  0.168470  0.093846  1
  Rh  Rh17  1  0.168723  0.337444  0.592125  1
  Rh  Rh18  1  0.168723  0.831277  0.592125  1
  Rh  Rh19  1  0.831530  0.168470  0.093846  1
  Rh  Rh20  1  0.831530  0.663063  0.093846  1
  Rh  Rh21  1  0.167897  0.832103  0.908607  1
