# generated using pymatgen
data_Sr6UMoO12
_symmetry_space_group_name_H-M   'P 1'
_cell_length_a   7.00835837
_cell_length_b   7.00835795
_cell_length_c   7.00835739
_cell_angle_alpha   92.31350455
_cell_angle_beta   92.31350901
_cell_angle_gamma   92.31349771
_symmetry_Int_Tables_number   1
_chemical_formula_structural   Sr6UMoO12
_chemical_formula_sum   'Sr6 U1 Mo1 O12'
_cell_volume   343.36495555
_cell_formula_units_Z   1
loop_
 _symmetry_equiv_pos_site_id
 _symmetry_equiv_pos_as_xyz
  1  'x, y, z'
loop_
 _atom_site_type_symbol
 _atom_site_label
 _atom_site_symmetry_multiplicity
 _atom_site_fract_x
 _atom_site_fract_y
 _atom_site_fract_z
 _atom_site_occupancy
  Sr  Sr0  1  0.067497  0.260057  0.561517  1
  Sr  Sr1  1  0.438483  0.932503  0.739943  1
  Sr  Sr2  1  0.739943  0.438483  0.932503  1
  Sr  Sr3  1  0.260057  0.561517  0.067497  1
  Sr  Sr4  1  0.561517  0.067497  0.260057  1
  Sr  Sr5  1  0.932503  0.739943  0.438483  1
  U  U6  1  0.000000  0.000000  0.000000  1
  Mo  Mo7  1  0.500000  0.500000  0.500000  1
  O  O8  1  0.062759  0.285179  0.932513  1
  O  O9  1  0.067487  0.937241  0.714821  1
  O  O10  1  0.454779  0.574527  0.767865  1
  O  O11  1  0.714821  0.067487  0.937241  1
  O  O12  1  0.232135  0.545221  0.425473  1
  O  O13  1  0.425473  0.232135  0.545221  1
  O  O14  1  0.574527  0.767865  0.454779  1
  O  O15  1  0.767865  0.454779  0.574527  1
  O  O16  1  0.285179  0.932513  0.062759  1
  O  O17  1  0.545221  0.425473  0.232135  1
  O  O18  1  0.932513  0.062759  0.285179  1
  O  O19  1  0.937241  0.714821  0.067487  1
