# generated using pymatgen
data_Tm3Tl2
_symmetry_space_group_name_H-M   'P 1'
_cell_length_a   11.49096756
_cell_length_b   11.49096705
_cell_length_c   11.49096700
_cell_angle_alpha   116.84767722
_cell_angle_beta   116.84767593
_cell_angle_gamma   95.55261650
_symmetry_Int_Tables_number   1
_chemical_formula_structural   Tm3Tl2
_chemical_formula_sum   'Tm24 Tl16'
_cell_volume   1118.32463906
_cell_formula_units_Z   8
loop_
 _symmetry_equiv_pos_site_id
 _symmetry_equiv_pos_as_xyz
  1  'x, y, z'
loop_
 _atom_site_type_symbol
 _atom_site_label
 _atom_site_symmetry_multiplicity
 _atom_site_fract_x
 _atom_site_fract_y
 _atom_site_fract_z
 _atom_site_occupancy
  Tm  Tm0  1  0.145667  0.645668  0.500001  1
  Tm  Tm1  1  0.645667  0.145668  0.500001  1
  Tm  Tm2  1  0.854333  0.354332  0.499999  1
  Tm  Tm3  1  0.354333  0.854332  0.499999  1
  Tm  Tm4  1  0.669547  0.169545  0.839089  1
  Tm  Tm5  1  0.330453  0.830455  0.160911  1
  Tm  Tm6  1  0.169545  0.330455  0.500002  1
  Tm  Tm7  1  0.830455  0.669545  0.499998  1
  Tm  Tm8  1  0.068275  0.931042  0.272427  1
  Tm  Tm9  1  0.658614  0.795847  0.727571  1
  Tm  Tm10  1  0.568276  0.295847  0.137232  1
  Tm  Tm11  1  0.158614  0.431042  0.862766  1
  Tm  Tm12  1  0.795847  0.068277  0.137232  1
  Tm  Tm13  1  0.931042  0.658615  0.862768  1
  Tm  Tm14  1  0.431045  0.568277  0.272430  1
  Tm  Tm15  1  0.295847  0.158615  0.727573  1
  Tm  Tm16  1  0.931725  0.068958  0.727573  1
  Tm  Tm17  1  0.341386  0.204153  0.272429  1
  Tm  Tm18  1  0.431724  0.704153  0.862768  1
  Tm  Tm19  1  0.841386  0.568958  0.137234  1
  Tm  Tm20  1  0.204153  0.931723  0.862768  1
  Tm  Tm21  1  0.068958  0.341385  0.137232  1
  Tm  Tm22  1  0.568955  0.431723  0.727570  1
  Tm  Tm23  1  0.704153  0.841385  0.272427  1
  Tl  Tl24  1  0.749992  0.750000  0.999992  1
  Tl  Tl25  1  0.250008  0.250000  0.000008  1
  Tl  Tl26  1  0.000000  0.000000  0.000000  1
  Tl  Tl27  1  0.500000  0.500000  0.000000  1
  Tl  Tl28  1  0.119689  0.619689  0.739370  1
  Tl  Tl29  1  0.880311  0.380311  0.260630  1
  Tl  Tl30  1  0.619681  0.880311  0.500000  1
  Tl  Tl31  1  0.380319  0.119689  0.500000  1
  Tl  Tl32  1  0.870814  0.370814  0.844213  1
  Tl  Tl33  1  0.526597  0.026596  0.155784  1
  Tl  Tl34  1  0.370811  0.526596  0.499999  1
  Tl  Tl35  1  0.026601  0.870814  0.500000  1
  Tl  Tl36  1  0.129186  0.629186  0.155787  1
  Tl  Tl37  1  0.473403  0.973404  0.844216  1
  Tl  Tl38  1  0.629189  0.473404  0.500001  1
  Tl  Tl39  1  0.973399  0.129186  0.500000  1
