# generated using pymatgen
data_Pr2Ga2Si2Ir5Pt
_symmetry_space_group_name_H-M   'P 1'
_cell_length_a   6.83072046
_cell_length_b   6.78968054
_cell_length_c   6.79953599
_cell_angle_alpha   130.62018235
_cell_angle_beta   112.54779478
_cell_angle_gamma   88.04540819
_symmetry_Int_Tables_number   1
_chemical_formula_structural   Pr2Ga2Si2Ir5Pt
_chemical_formula_sum   'Pr2 Ga2 Si2 Ir5 Pt1'
_cell_volume   210.35965410
_cell_formula_units_Z   1
loop_
 _symmetry_equiv_pos_site_id
 _symmetry_equiv_pos_as_xyz
  1  'x, y, z'
loop_
 _atom_site_type_symbol
 _atom_site_label
 _atom_site_symmetry_multiplicity
 _atom_site_fract_x
 _atom_site_fract_y
 _atom_site_fract_z
 _atom_site_occupancy
  Pr  Pr0  1  0.253422  0.984038  0.735901  1
  Pr  Pr1  1  0.746578  0.015962  0.264099  1
  Ga  Ga2  1  0.072878  0.296117  0.226154  1
  Ga  Ga3  1  0.927122  0.703883  0.773846  1
  Si  Si4  1  0.412848  0.638603  0.229453  1
  Si  Si5  1  0.587152  0.361397  0.770547  1
  Ir  Ir6  1  0.500000  0.500000  0.500000  1
  Ir  Ir7  1  0.283978  0.998607  0.282850  1
  Ir  Ir8  1  0.716022  0.001393  0.717150  1
  Ir  Ir9  1  0.256689  0.500988  0.757868  1
  Ir  Ir10  1  0.743311  0.499012  0.242132  1
  Pt  Pt11  1  0.000000  0.500000  0.000000  1
