# generated using pymatgen
data_Ta3Ti(FeP)4
_symmetry_space_group_name_H-M   'P 1'
_cell_length_a   3.59324100
_cell_length_b   6.10208905
_cell_length_c   6.91078806
_cell_angle_alpha   90.01506123
_cell_angle_beta   90.00000000
_cell_angle_gamma   90.00000000
_symmetry_Int_Tables_number   1
_chemical_formula_structural   Ta3Ti(FeP)4
_chemical_formula_sum   'Ta3 Ti1 Fe4 P4'
_cell_volume   151.52784508
_cell_formula_units_Z   1
loop_
 _symmetry_equiv_pos_site_id
 _symmetry_equiv_pos_as_xyz
  1  'x, y, z'
loop_
 _atom_site_type_symbol
 _atom_site_label
 _atom_site_symmetry_multiplicity
 _atom_site_fract_x
 _atom_site_fract_y
 _atom_site_fract_z
 _atom_site_occupancy
  Ta  Ta0  1  0.250000  0.022950  0.823668  1
  Ta  Ta1  1  0.250000  0.520914  0.676217  1
  Ta  Ta2  1  0.750000  0.979969  0.177984  1
  Ti  Ti3  1  0.750000  0.479242  0.320331  1
  Fe  Fe4  1  0.250000  0.143161  0.438180  1
  Fe  Fe5  1  0.250000  0.643074  0.063768  1
  Fe  Fe6  1  0.750000  0.856133  0.562041  1
  Fe  Fe7  1  0.750000  0.356166  0.937261  1
  P  P8  1  0.250000  0.772143  0.379818  1
  P  P9  1  0.250000  0.279971  0.123335  1
  P  P10  1  0.750000  0.224164  0.614999  1
  P  P11  1  0.750000  0.722112  0.882397  1
