# generated using pymatgen
data_Pr5P12Ru6Rh13
_symmetry_space_group_name_H-M   'P 1'
_cell_length_a   12.74989305
_cell_length_b   12.77439249
_cell_length_c   3.98859700
_cell_angle_alpha   90.00000000
_cell_angle_beta   90.00000000
_cell_angle_gamma   120.06905880
_symmetry_Int_Tables_number   1
_chemical_formula_structural   Pr5P12Ru6Rh13
_chemical_formula_sum   'Pr5 P12 Ru6 Rh13'
_cell_volume   562.20531710
_cell_formula_units_Z   1
loop_
 _symmetry_equiv_pos_site_id
 _symmetry_equiv_pos_as_xyz
  1  'x, y, z'
loop_
 _atom_site_type_symbol
 _atom_site_label
 _atom_site_symmetry_multiplicity
 _atom_site_fract_x
 _atom_site_fract_y
 _atom_site_fract_z
 _atom_site_occupancy
  Pr  Pr0  1  0.668082  0.332820  0.000000  1
  Pr  Pr1  1  0.332458  0.667030  0.000000  1
  Pr  Pr2  1  0.813693  0.000588  0.500000  1
  Pr  Pr3  1  0.185598  0.187289  0.500000  1
  Pr  Pr4  1  0.999375  0.812438  0.500000  1
  P  P5  1  0.632661  0.999470  0.000000  1
  P  P6  1  0.368190  0.368697  0.000000  1
  P  P7  1  0.000756  0.630120  0.000000  1
  P  P8  1  0.689065  0.520743  0.500000  1
  P  P9  1  0.832224  0.308298  0.500000  1
  P  P10  1  0.316151  0.835662  0.500000  1
  P  P11  1  0.520591  0.692528  0.500000  1
  P  P12  1  0.184098  0.000015  0.000000  1
  P  P13  1  0.815337  0.814505  0.000000  1
  P  P14  1  0.996784  0.182766  0.000000  1
  P  P15  1  0.477250  0.167969  0.500000  1
  P  P16  1  0.164216  0.478318  0.500000  1
  Ru  Ru17  1  0.514997  0.876358  0.500000  1
  Ru  Ru18  1  0.712476  0.712437  0.500000  1
  Ru  Ru19  1  0.000223  0.286548  0.500000  1
  Ru  Ru20  1  0.004226  0.451853  0.000000  1
  Ru  Ru21  1  0.818428  0.197453  0.000000  1
  Ru  Ru22  1  0.284695  0.999433  0.500000  1
  Rh  Rh23  1  0.621651  0.801740  0.000000  1
  Rh  Rh24  1  0.181324  0.376557  0.000000  1
  Rh  Rh25  1  0.377494  0.181270  0.000000  1
  Rh  Rh26  1  0.197393  0.818723  0.000000  1
  Rh  Rh27  1  0.801666  0.619329  0.000000  1
  Rh  Rh28  1  0.875337  0.510979  0.500000  1
  Rh  Rh29  1  0.489147  0.361114  0.500000  1
  Rh  Rh30  1  0.635970  0.127714  0.500000  1
  Rh  Rh31  1  0.127685  0.639906  0.500000  1
  Rh  Rh32  1  0.359547  0.491519  0.500000  1
  Rh  Rh33  1  0.999409  0.998743  0.000000  1
  Rh  Rh34  1  0.453013  0.000417  0.000000  1
  Rh  Rh35  1  0.548788  0.548653  0.000000  1
