# generated using pymatgen
data_BaTmLuSi3O10
_symmetry_space_group_name_H-M   'P 1'
_cell_length_a   12.27446000
_cell_length_b   5.41626720
_cell_length_c   6.83744555
_cell_angle_alpha   73.41662408
_cell_angle_beta   90.00000000
_cell_angle_gamma   90.00000000
_symmetry_Int_Tables_number   1
_chemical_formula_structural   BaTmLuSi3O10
_chemical_formula_sum   'Ba2 Tm2 Lu2 Si6 O20'
_cell_volume   435.65792664
_cell_formula_units_Z   2
loop_
 _symmetry_equiv_pos_site_id
 _symmetry_equiv_pos_as_xyz
  1  'x, y, z'
loop_
 _atom_site_type_symbol
 _atom_site_label
 _atom_site_symmetry_multiplicity
 _atom_site_fract_x
 _atom_site_fract_y
 _atom_site_fract_z
 _atom_site_occupancy
  Ba  Ba0  1  0.250346  0.240570  0.015698  1
  Ba  Ba1  1  0.750346  0.759430  0.984302  1
  Tm  Tm2  1  0.100242  0.846597  0.679978  1
  Tm  Tm3  1  0.600242  0.153403  0.320022  1
  Lu  Lu4  1  0.899415  0.153760  0.319807  1
  Lu  Lu5  1  0.399415  0.846240  0.680193  1
  Si  Si6  1  0.250636  0.423549  0.485049  1
  Si  Si7  1  0.750636  0.576451  0.514951  1
  Si  Si8  1  0.057726  0.695201  0.212266  1
  Si  Si9  1  0.557726  0.304799  0.787734  1
  Si  Si10  1  0.941748  0.303222  0.789067  1
  Si  Si11  1  0.441748  0.696778  0.210933  1
  O  O12  1  0.250880  0.638655  0.610574  1
  O  O13  1  0.750880  0.361345  0.389426  1
  O  O14  1  0.251168  0.125990  0.632509  1
  O  O15  1  0.751168  0.874010  0.367491  1
  O  O16  1  0.143281  0.456267  0.334560  1
  O  O17  1  0.643281  0.543733  0.665440  1
  O  O18  1  0.856516  0.543761  0.668861  1
  O  O19  1  0.356516  0.456239  0.331139  1
  O  O20  1  0.943967  0.551702  0.194674  1
  O  O21  1  0.443967  0.448298  0.805326  1
  O  O22  1  0.056599  0.443529  0.805277  1
  O  O23  1  0.556599  0.556471  0.194723  1
  O  O24  1  0.117404  0.843844  0.997925  1
  O  O25  1  0.617404  0.156156  0.002075  1
  O  O26  1  0.882874  0.154879  0.004419  1
  O  O27  1  0.382874  0.845121  0.995581  1
  O  O28  1  0.044323  0.895296  0.354499  1
  O  O29  1  0.544323  0.104704  0.645501  1
  O  O30  1  0.952874  0.105305  0.644565  1
  O  O31  1  0.452874  0.894695  0.355435  1
