# generated using pymatgen
data_CaYbEu8(Si2Hg)2
_symmetry_space_group_name_H-M   'P 1'
_cell_length_a   9.67838317
_cell_length_b   9.67838290
_cell_length_c   9.67838286
_cell_angle_alpha   132.38610924
_cell_angle_beta   132.38610801
_cell_angle_gamma   69.61988390
_symmetry_Int_Tables_number   1
_chemical_formula_structural   CaYbEu8(Si2Hg)2
_chemical_formula_sum   'Ca1 Yb1 Eu8 Si4 Hg2'
_cell_volume   485.13361728
_cell_formula_units_Z   1
loop_
 _symmetry_equiv_pos_site_id
 _symmetry_equiv_pos_as_xyz
  1  'x, y, z'
loop_
 _atom_site_type_symbol
 _atom_site_label
 _atom_site_symmetry_multiplicity
 _atom_site_fract_x
 _atom_site_fract_y
 _atom_site_fract_z
 _atom_site_occupancy
  Ca  Ca0  1  0.500000  0.500000  0.000000  1
  Yb  Yb1  1  0.000000  0.000000  0.000000  1
  Eu  Eu2  1  0.537568  0.035943  0.847408  1
  Eu  Eu3  1  0.188535  0.690160  0.152592  1
  Eu  Eu4  1  0.035943  0.188535  0.498375  1
  Eu  Eu5  1  0.690160  0.537568  0.501625  1
  Eu  Eu6  1  0.462432  0.964057  0.152592  1
  Eu  Eu7  1  0.811465  0.309840  0.847408  1
  Eu  Eu8  1  0.964057  0.811465  0.501625  1
  Eu  Eu9  1  0.309840  0.462432  0.498375  1
  Si  Si10  1  0.887740  0.388398  0.276137  1
  Si  Si11  1  0.112260  0.611602  0.723863  1
  Si  Si12  1  0.388398  0.112260  0.500658  1
  Si  Si13  1  0.611602  0.887740  0.499342  1
  Hg  Hg14  1  0.250115  0.250115  0.000000  1
  Hg  Hg15  1  0.749885  0.749885  0.000000  1
