# generated using pymatgen
data_SmLuTe2(RhO6)2
_symmetry_space_group_name_H-M   'P 1'
_cell_length_a   5.25591401
_cell_length_b   5.25599854
_cell_length_c   9.74274403
_cell_angle_alpha   89.99180019
_cell_angle_beta   90.00625526
_cell_angle_gamma   119.99935148
_symmetry_Int_Tables_number   1
_chemical_formula_structural   SmLuTe2(RhO6)2
_chemical_formula_sum   'Sm1 Lu1 Te2 Rh2 O12'
_cell_volume   233.08710323
_cell_formula_units_Z   1
loop_
 _symmetry_equiv_pos_site_id
 _symmetry_equiv_pos_as_xyz
  1  'x, y, z'
loop_
 _atom_site_type_symbol
 _atom_site_label
 _atom_site_symmetry_multiplicity
 _atom_site_fract_x
 _atom_site_fract_y
 _atom_site_fract_z
 _atom_site_occupancy
  Sm  Sm0  1  0.000017  0.000008  0.999994  1
  Lu  Lu1  1  0.000016  0.000027  0.500010  1
  Te  Te2  1  0.666726  0.333375  0.257699  1
  Te  Te3  1  0.333284  0.666618  0.742280  1
  Rh  Rh4  1  0.333358  0.666737  0.256978  1
  Rh  Rh5  1  0.666575  0.333269  0.743006  1
  O  O6  1  0.641496  0.630881  0.143962  1
  O  O7  1  0.989454  0.358588  0.143966  1
  O  O8  1  0.369193  0.010626  0.143962  1
  O  O9  1  0.987658  0.645558  0.367074  1
  O  O10  1  0.354511  0.342141  0.367062  1
  O  O11  1  0.657943  0.012437  0.367075  1
  O  O12  1  0.342054  0.987572  0.632930  1
  O  O13  1  0.012330  0.354415  0.632939  1
  O  O14  1  0.645517  0.657864  0.632939  1
  O  O15  1  0.630823  0.989372  0.856042  1
  O  O16  1  0.010540  0.641397  0.856038  1
  O  O17  1  0.358514  0.369120  0.856046  1
