# generated using pymatgen
data_Dy7Y(TmGa5)4
_symmetry_space_group_name_H-M   'P 1'
_cell_length_a   6.08320900
_cell_length_b   9.61247401
_cell_length_c   11.49540500
_cell_angle_alpha   89.99939200
_cell_angle_beta   89.99854707
_cell_angle_gamma   90.00418906
_symmetry_Int_Tables_number   1
_chemical_formula_structural   Dy7Y(TmGa5)4
_chemical_formula_sum   'Dy7 Y1 Tm4 Ga20'
_cell_volume   672.19022380
_cell_formula_units_Z   1
loop_
 _symmetry_equiv_pos_site_id
 _symmetry_equiv_pos_as_xyz
  1  'x, y, z'
loop_
 _atom_site_type_symbol
 _atom_site_label
 _atom_site_symmetry_multiplicity
 _atom_site_fract_x
 _atom_site_fract_y
 _atom_site_fract_z
 _atom_site_occupancy
  Dy  Dy0  1  0.608980  0.990228  0.851515  1
  Dy  Dy1  1  0.108963  0.009776  0.648495  1
  Dy  Dy2  1  0.391025  0.490221  0.148468  1
  Dy  Dy3  1  0.109005  0.490210  0.648540  1
  Dy  Dy4  1  0.391032  0.009778  0.148504  1
  Dy  Dy5  1  0.891041  0.990200  0.351502  1
  Dy  Dy6  1  0.608981  0.509789  0.851508  1
  Y  Y7  1  0.890987  0.509807  0.351491  1
  Tm  Tm8  1  0.848309  0.750019  0.074344  1
  Tm  Tm9  1  0.651689  0.750030  0.574376  1
  Tm  Tm10  1  0.151715  0.249997  0.925647  1
  Tm  Tm11  1  0.348326  0.249954  0.425658  1
  Ga  Ga12  1  0.875856  0.052983  0.089878  1
  Ga  Ga13  1  0.624087  0.447004  0.589971  1
  Ga  Ga14  1  0.124146  0.552975  0.910110  1
  Ga  Ga15  1  0.375873  0.947009  0.410106  1
  Ga  Ga16  1  0.124131  0.947015  0.910100  1
  Ga  Ga17  1  0.375894  0.553008  0.410145  1
  Ga  Ga18  1  0.875859  0.446998  0.089785  1
  Ga  Ga19  1  0.624135  0.052981  0.589887  1
  Ga  Ga20  1  0.171503  0.750104  0.251452  1
  Ga  Ga21  1  0.328624  0.750004  0.751490  1
  Ga  Ga22  1  0.828630  0.250005  0.748504  1
  Ga  Ga23  1  0.671286  0.249898  0.248463  1
  Ga  Ga24  1  0.373366  0.750002  0.004528  1
  Ga  Ga25  1  0.126699  0.750055  0.504585  1
  Ga  Ga26  1  0.626613  0.249991  0.995480  1
  Ga  Ga27  1  0.873381  0.249883  0.495541  1
  Ga  Ga28  1  0.601878  0.750136  0.298960  1
  Ga  Ga29  1  0.897935  0.750004  0.798999  1
  Ga  Ga30  1  0.397930  0.249997  0.700999  1
  Ga  Ga31  1  0.102121  0.249939  0.200969  1
