# generated using pymatgen
data_Y8CdGaPd23
_symmetry_space_group_name_H-M   'P 1'
_cell_length_a   8.44254000
_cell_length_b   8.43083800
_cell_length_c   8.33170500
_cell_angle_alpha   90.00000000
_cell_angle_beta   90.00000000
_cell_angle_gamma   90.00000000
_symmetry_Int_Tables_number   1
_chemical_formula_structural   Y8CdGaPd23
_chemical_formula_sum   'Y8 Cd1 Ga1 Pd23'
_cell_volume   593.03149107
_cell_formula_units_Z   1
loop_
 _symmetry_equiv_pos_site_id
 _symmetry_equiv_pos_as_xyz
  1  'x, y, z'
loop_
 _atom_site_type_symbol
 _atom_site_label
 _atom_site_symmetry_multiplicity
 _atom_site_fract_x
 _atom_site_fract_y
 _atom_site_fract_z
 _atom_site_occupancy
  Y  Y0  1  0.262269  0.243139  0.748884  1
  Y  Y1  1  0.251235  0.746536  0.252106  1
  Y  Y2  1  0.748765  0.253464  0.252106  1
  Y  Y3  1  0.737731  0.756861  0.748884  1
  Y  Y4  1  0.748765  0.746536  0.252106  1
  Y  Y5  1  0.737731  0.243139  0.748884  1
  Y  Y6  1  0.262269  0.756861  0.748884  1
  Y  Y7  1  0.251235  0.253464  0.252106  1
  Cd  Cd8  1  0.000000  0.500000  0.734874  1
  Ga  Ga9  1  0.000000  0.000000  0.000735  1
  Pd  Pd10  1  0.500000  0.500000  0.747591  1
  Pd  Pd11  1  0.500000  0.253493  0.497812  1
  Pd  Pd12  1  0.256109  0.500000  0.503155  1
  Pd  Pd13  1  0.500000  0.500000  0.252062  1
  Pd  Pd14  1  0.500000  0.746507  0.497812  1
  Pd  Pd15  1  0.743891  0.500000  0.503155  1
  Pd  Pd16  1  0.000000  0.000000  0.707812  1
  Pd  Pd17  1  0.000000  0.290666  0.994484  1
  Pd  Pd18  1  0.290508  0.000000  0.003537  1
  Pd  Pd19  1  0.000000  0.000000  0.293093  1
  Pd  Pd20  1  0.000000  0.709334  0.994484  1
  Pd  Pd21  1  0.709492  0.000000  0.003537  1
  Pd  Pd22  1  0.500000  0.259804  0.002920  1
  Pd  Pd23  1  0.261501  0.000000  0.498187  1
  Pd  Pd24  1  0.000000  0.260173  0.503160  1
  Pd  Pd25  1  0.500000  0.000000  0.740955  1
  Pd  Pd26  1  0.260599  0.500000  0.996455  1
  Pd  Pd27  1  0.000000  0.500000  0.259050  1
  Pd  Pd28  1  0.500000  0.740196  0.002920  1
  Pd  Pd29  1  0.000000  0.739827  0.503160  1
  Pd  Pd30  1  0.500000  0.000000  0.260450  1
  Pd  Pd31  1  0.738499  0.000000  0.498187  1
  Pd  Pd32  1  0.739401  0.500000  0.996455  1
