# generated using pymatgen
data_SrYb2TcH7
_symmetry_space_group_name_H-M   'P 1'
_cell_length_a   5.11023300
_cell_length_b   5.11023223
_cell_length_c   12.80247000
_cell_angle_alpha   90.00000000
_cell_angle_beta   90.00000000
_cell_angle_gamma   119.99999849
_symmetry_Int_Tables_number   1
_chemical_formula_structural   SrYb2TcH7
_chemical_formula_sum   'Sr2 Yb4 Tc2 H14'
_cell_volume   289.53811604
_cell_formula_units_Z   2
loop_
 _symmetry_equiv_pos_site_id
 _symmetry_equiv_pos_as_xyz
  1  'x, y, z'
loop_
 _atom_site_type_symbol
 _atom_site_label
 _atom_site_symmetry_multiplicity
 _atom_site_fract_x
 _atom_site_fract_y
 _atom_site_fract_z
 _atom_site_occupancy
  Sr  Sr0  1  0.000000  0.000000  0.250000  1
  Sr  Sr1  1  0.000000  0.000000  0.750000  1
  Yb  Yb2  1  0.333333  0.666667  0.439442  1
  Yb  Yb3  1  0.666667  0.333333  0.560558  1
  Yb  Yb4  1  0.666667  0.333333  0.939442  1
  Yb  Yb5  1  0.333333  0.666667  0.060558  1
  Tc  Tc6  1  0.000000  0.000000  0.500000  1
  Tc  Tc7  1  0.000000  0.000000  0.000000  1
  H  H8  1  0.333333  0.666667  0.250000  1
  H  H9  1  0.666667  0.333333  0.750000  1
  H  H10  1  0.162722  0.837278  0.916985  1
  H  H11  1  0.162722  0.325443  0.916985  1
  H  H12  1  0.674557  0.837278  0.916985  1
  H  H13  1  0.837278  0.162722  0.083015  1
  H  H14  1  0.837278  0.674557  0.083015  1
  H  H15  1  0.325443  0.162722  0.083015  1
  H  H16  1  0.837278  0.162722  0.416985  1
  H  H17  1  0.837278  0.674557  0.416985  1
  H  H18  1  0.325443  0.162722  0.416985  1
  H  H19  1  0.162722  0.837278  0.583015  1
  H  H20  1  0.162722  0.325443  0.583015  1
  H  H21  1  0.674557  0.837278  0.583015  1
