# generated using pymatgen
data_Zr24SiP7
_symmetry_space_group_name_H-M   'P 1'
_cell_length_a   10.86892789
_cell_length_b   10.88219177
_cell_length_c   5.39103823
_cell_angle_alpha   89.90563419
_cell_angle_beta   90.04432585
_cell_angle_gamma   90.01334713
_symmetry_Int_Tables_number   1
_chemical_formula_structural   Zr24SiP7
_chemical_formula_sum   'Zr24 Si1 P7'
_cell_volume   637.63883993
_cell_formula_units_Z   1
loop_
 _symmetry_equiv_pos_site_id
 _symmetry_equiv_pos_as_xyz
  1  'x, y, z'
loop_
 _atom_site_type_symbol
 _atom_site_label
 _atom_site_symmetry_multiplicity
 _atom_site_fract_x
 _atom_site_fract_y
 _atom_site_fract_z
 _atom_site_occupancy
  Zr  Zr0  1  0.915249  0.606092  0.535292  1
  Zr  Zr1  1  0.084479  0.391574  0.536344  1
  Zr  Zr2  1  0.891865  0.415707  0.036125  1
  Zr  Zr3  1  0.108695  0.582045  0.036608  1
  Zr  Zr4  1  0.583856  0.892386  0.963207  1
  Zr  Zr5  1  0.416194  0.108208  0.963959  1
  Zr  Zr6  1  0.607665  0.084129  0.464326  1
  Zr  Zr7  1  0.392293  0.915954  0.464568  1
  Zr  Zr8  1  0.861172  0.974944  0.721202  1
  Zr  Zr9  1  0.137813  0.030082  0.720392  1
  Zr  Zr10  1  0.527486  0.362600  0.220846  1
  Zr  Zr11  1  0.472784  0.636730  0.221248  1
  Zr  Zr12  1  0.636648  0.526524  0.779081  1
  Zr  Zr13  1  0.363262  0.472311  0.779177  1
  Zr  Zr14  1  0.972598  0.137452  0.278735  1
  Zr  Zr15  1  0.027280  0.864077  0.279151  1
  Zr  Zr16  1  0.818376  0.715180  0.014223  1
  Zr  Zr17  1  0.179743  0.284598  0.014948  1
  Zr  Zr18  1  0.784448  0.320419  0.514533  1
  Zr  Zr19  1  0.216693  0.678257  0.511385  1
  Zr  Zr20  1  0.679561  0.784695  0.486656  1
  Zr  Zr21  1  0.321072  0.215201  0.485816  1
  Zr  Zr22  1  0.715221  0.180010  0.986325  1
  Zr  Zr23  1  0.285678  0.821238  0.986161  1
  Si  Si24  1  0.040984  0.794233  0.786061  1
  P  P25  1  0.793049  0.958910  0.213271  1
  P  P26  1  0.206902  0.041295  0.213359  1
  P  P27  1  0.541057  0.293267  0.713581  1
  P  P28  1  0.459236  0.706421  0.713769  1
  P  P29  1  0.705780  0.540496  0.286458  1
  P  P30  1  0.294025  0.457957  0.286486  1
  P  P31  1  0.958834  0.207006  0.786709  1
