# generated using pymatgen
data_CeNp4U(Ni3Sb4)2
_symmetry_space_group_name_H-M   'P 1'
_cell_length_a   8.15098390
_cell_length_b   8.15098353
_cell_length_c   8.15098434
_cell_angle_alpha   109.28269047
_cell_angle_beta   109.28269810
_cell_angle_gamma   109.84893333
_symmetry_Int_Tables_number   1
_chemical_formula_structural   CeNp4U(Ni3Sb4)2
_chemical_formula_sum   'Ce1 Np4 U1 Ni6 Sb8'
_cell_volume   416.86368245
_cell_formula_units_Z   1
loop_
 _symmetry_equiv_pos_site_id
 _symmetry_equiv_pos_as_xyz
  1  'x, y, z'
loop_
 _atom_site_type_symbol
 _atom_site_label
 _atom_site_symmetry_multiplicity
 _atom_site_fract_x
 _atom_site_fract_y
 _atom_site_fract_z
 _atom_site_occupancy
  Ce  Ce0  1  0.125000  0.875000  0.250000  1
  Np  Np1  1  0.874256  0.248208  0.123686  1
  Np  Np2  1  0.624522  0.750571  0.376314  1
  Np  Np3  1  0.249429  0.125744  0.873952  1
  Np  Np4  1  0.751792  0.375478  0.626048  1
  U  U5  1  0.375000  0.625000  0.750000  1
  Ni  Ni6  1  0.376775  0.262519  0.631868  1
  Ni  Ni7  1  0.130652  0.744906  0.868132  1
  Ni  Ni8  1  0.255094  0.623225  0.385745  1
  Ni  Ni9  1  0.737481  0.869348  0.114255  1
  Ni  Ni10  1  0.625000  0.375000  0.250000  1
  Ni  Ni11  1  0.875000  0.125000  0.750000  1
  Sb  Sb12  1  0.661262  0.500187  0.001942  1
  Sb  Sb13  1  0.500477  0.002650  0.664115  1
  Sb  Sb14  1  0.998245  0.659320  0.498058  1
  Sb  Sb15  1  0.838534  0.836362  0.835885  1
  Sb  Sb16  1  0.499813  0.001755  0.161075  1
  Sb  Sb17  1  0.163638  0.499523  0.002173  1
  Sb  Sb18  1  0.997350  0.161466  0.497827  1
  Sb  Sb19  1  0.340680  0.338738  0.338925  1
