# generated using pymatgen
data_Pr4HoIr2Ru
_symmetry_space_group_name_H-M   'P 1'
_cell_length_a   11.20480800
_cell_length_b   11.20480800
_cell_length_c   6.60451700
_cell_angle_alpha   90.00000000
_cell_angle_beta   90.00000000
_cell_angle_gamma   90.00000000
_symmetry_Int_Tables_number   1
_chemical_formula_structural   Pr4HoIr2Ru
_chemical_formula_sum   'Pr16 Ho4 Ir8 Ru4'
_cell_volume   829.18206635
_cell_formula_units_Z   4
loop_
 _symmetry_equiv_pos_site_id
 _symmetry_equiv_pos_as_xyz
  1  'x, y, z'
loop_
 _atom_site_type_symbol
 _atom_site_label
 _atom_site_symmetry_multiplicity
 _atom_site_fract_x
 _atom_site_fract_y
 _atom_site_fract_z
 _atom_site_occupancy
  Pr  Pr0  1  0.290960  0.086511  0.381502  1
  Pr  Pr1  1  0.290960  0.913489  0.881502  1
  Pr  Pr2  1  0.709040  0.086511  0.881502  1
  Pr  Pr3  1  0.709040  0.913489  0.381502  1
  Pr  Pr4  1  0.586511  0.790960  0.881502  1
  Pr  Pr5  1  0.586511  0.209040  0.381502  1
  Pr  Pr6  1  0.413489  0.790960  0.381502  1
  Pr  Pr7  1  0.413489  0.209040  0.881502  1
  Pr  Pr8  1  0.209040  0.413489  0.618498  1
  Pr  Pr9  1  0.209040  0.586511  0.118498  1
  Pr  Pr10  1  0.790960  0.413489  0.118498  1
  Pr  Pr11  1  0.790960  0.586511  0.618498  1
  Pr  Pr12  1  0.913489  0.709040  0.118498  1
  Pr  Pr13  1  0.913489  0.290960  0.618498  1
  Pr  Pr14  1  0.086511  0.709040  0.618498  1
  Pr  Pr15  1  0.086511  0.290960  0.118498  1
  Ho  Ho16  1  0.000000  0.000000  0.500000  1
  Ho  Ho17  1  0.000000  0.000000  0.000000  1
  Ho  Ho18  1  0.500000  0.500000  0.000000  1
  Ho  Ho19  1  0.500000  0.500000  0.500000  1
  Ir  Ir20  1  0.853023  0.146977  0.250000  1
  Ir  Ir21  1  0.853023  0.853023  0.750000  1
  Ir  Ir22  1  0.146977  0.146977  0.750000  1
  Ir  Ir23  1  0.146977  0.853023  0.250000  1
  Ir  Ir24  1  0.646977  0.353023  0.750000  1
  Ir  Ir25  1  0.646977  0.646977  0.250000  1
  Ir  Ir26  1  0.353023  0.353023  0.250000  1
  Ir  Ir27  1  0.353023  0.646977  0.750000  1
  Ru  Ru28  1  0.500000  0.000000  0.117493  1
  Ru  Ru29  1  0.500000  0.000000  0.617493  1
  Ru  Ru30  1  0.000000  0.500000  0.882507  1
  Ru  Ru31  1  0.000000  0.500000  0.382507  1
