# generated using pymatgen
data_GdHf(UH6)2
_symmetry_space_group_name_H-M   'P 1'
_cell_length_a   6.46448800
_cell_length_b   6.47340400
_cell_length_c   6.47340400
_cell_angle_alpha   90.00000000
_cell_angle_beta   90.00000000
_cell_angle_gamma   90.00000000
_symmetry_Int_Tables_number   1
_chemical_formula_structural   GdHf(UH6)2
_chemical_formula_sum   'Gd2 Hf2 U4 H24'
_cell_volume   270.89410684
_cell_formula_units_Z   2
loop_
 _symmetry_equiv_pos_site_id
 _symmetry_equiv_pos_as_xyz
  1  'x, y, z'
loop_
 _atom_site_type_symbol
 _atom_site_label
 _atom_site_symmetry_multiplicity
 _atom_site_fract_x
 _atom_site_fract_y
 _atom_site_fract_z
 _atom_site_occupancy
  Gd  Gd0  1  0.250000  0.000000  0.500000  1
  Gd  Gd1  1  0.750000  0.000000  0.500000  1
  Hf  Hf2  1  0.000000  0.000000  0.000000  1
  Hf  Hf3  1  0.500000  0.500000  0.500000  1
  U  U4  1  0.000000  0.500000  0.250418  1
  U  U5  1  0.000000  0.500000  0.749582  1
  U  U6  1  0.500000  0.750418  0.000000  1
  U  U7  1  0.500000  0.249582  0.000000  1
  H  H8  1  0.000000  0.153143  0.285407  1
  H  H9  1  0.500000  0.214593  0.653143  1
  H  H10  1  0.500000  0.785407  0.346857  1
  H  H11  1  0.794279  0.649744  0.500000  1
  H  H12  1  0.205721  0.649744  0.500000  1
  H  H13  1  0.348906  0.500000  0.791897  1
  H  H14  1  0.651094  0.500000  0.791897  1
  H  H15  1  0.294279  0.000000  0.149744  1
  H  H16  1  0.151094  0.291897  0.000000  1
  H  H17  1  0.848906  0.708103  0.000000  1
  H  H18  1  0.294279  0.000000  0.850256  1
  H  H19  1  0.848906  0.291897  0.000000  1
  H  H20  1  0.705721  0.000000  0.149744  1
  H  H21  1  0.705721  0.000000  0.850256  1
  H  H22  1  0.151094  0.708103  0.000000  1
  H  H23  1  0.000000  0.846857  0.714593  1
  H  H24  1  0.000000  0.153143  0.714593  1
  H  H25  1  0.000000  0.846857  0.285407  1
  H  H26  1  0.651094  0.500000  0.208103  1
  H  H27  1  0.348906  0.500000  0.208103  1
  H  H28  1  0.794279  0.350256  0.500000  1
  H  H29  1  0.205721  0.350256  0.500000  1
  H  H30  1  0.500000  0.785407  0.653143  1
  H  H31  1  0.500000  0.214593  0.346857  1
