# generated using pymatgen
data_La4AsS3
_symmetry_space_group_name_H-M   'P 1'
_cell_length_a   7.28724282
_cell_length_b   7.28724292
_cell_length_c   7.28724204
_cell_angle_alpha   131.62968621
_cell_angle_beta   131.62969121
_cell_angle_gamma   70.81452997
_symmetry_Int_Tables_number   1
_chemical_formula_structural   La4AsS3
_chemical_formula_sum   'La4 As1 S3'
_cell_volume   211.75807416
_cell_formula_units_Z   1
loop_
 _symmetry_equiv_pos_site_id
 _symmetry_equiv_pos_as_xyz
  1  'x, y, z'
loop_
 _atom_site_type_symbol
 _atom_site_label
 _atom_site_symmetry_multiplicity
 _atom_site_fract_x
 _atom_site_fract_y
 _atom_site_fract_z
 _atom_site_occupancy
  La  La0  1  0.251555  0.251555  0.000000  1
  La  La1  1  0.748445  0.748445  0.000000  1
  La  La2  1  0.500000  0.000000  0.500000  1
  La  La3  1  0.000000  0.500000  0.500000  1
  As  As4  1  0.000000  0.000000  0.000000  1
  S  S5  1  0.750000  0.250000  0.500000  1
  S  S6  1  0.250000  0.750000  0.500000  1
  S  S7  1  0.500000  0.500000  0.000000  1
