# generated using pymatgen
data_ZnPd(AuO2)2
_symmetry_space_group_name_H-M   'P 1'
_cell_length_a   6.41977087
_cell_length_b   6.41976986
_cell_length_c   5.50817347
_cell_angle_alpha   81.70632863
_cell_angle_beta   81.70632978
_cell_angle_gamma   28.42554277
_symmetry_Int_Tables_number   1
_chemical_formula_structural   ZnPd(AuO2)2
_chemical_formula_sum   'Zn1 Pd1 Au2 O4'
_cell_volume   106.85782948
_cell_formula_units_Z   1
loop_
 _symmetry_equiv_pos_site_id
 _symmetry_equiv_pos_as_xyz
  1  'x, y, z'
loop_
 _atom_site_type_symbol
 _atom_site_label
 _atom_site_symmetry_multiplicity
 _atom_site_fract_x
 _atom_site_fract_y
 _atom_site_fract_z
 _atom_site_occupancy
  Zn  Zn0  1  0.000000  0.000000  0.500000  1
  Pd  Pd1  1  0.500000  0.500000  0.000000  1
  Au  Au2  1  0.251933  0.251933  0.760221  1
  Au  Au3  1  0.748067  0.748067  0.239779  1
  O  O4  1  0.581576  0.581576  0.298128  1
  O  O5  1  0.915261  0.915261  0.184499  1
  O  O6  1  0.084739  0.084739  0.815501  1
  O  O7  1  0.418424  0.418424  0.701872  1
