# generated using pymatgen
data_La4Pr2Pd7Rh
_symmetry_space_group_name_H-M   'P 1'
_cell_length_a   8.23064994
_cell_length_b   8.23086429
_cell_length_c   8.23954665
_cell_angle_alpha   114.40508162
_cell_angle_beta   114.57655233
_cell_angle_gamma   114.24385103
_symmetry_Int_Tables_number   1
_chemical_formula_structural   La4Pr2Pd7Rh
_chemical_formula_sum   'La4 Pr2 Pd7 Rh1'
_cell_volume   328.60351107
_cell_formula_units_Z   1
loop_
 _symmetry_equiv_pos_site_id
 _symmetry_equiv_pos_as_xyz
  1  'x, y, z'
loop_
 _atom_site_type_symbol
 _atom_site_label
 _atom_site_symmetry_multiplicity
 _atom_site_fract_x
 _atom_site_fract_y
 _atom_site_fract_z
 _atom_site_occupancy
  La  La0  1  0.397731  0.028907  0.275918  1
  La  La1  1  0.028147  0.275250  0.398421  1
  La  La2  1  0.276219  0.397120  0.027402  1
  La  La3  1  0.601549  0.971865  0.724748  1
  Pr  Pr4  1  0.972472  0.723962  0.601444  1
  Pr  Pr5  1  0.724506  0.602065  0.973264  1
  Pd  Pd6  1  0.500914  0.500800  0.500838  1
  Pd  Pd7  1  0.223738  0.058455  0.554908  1
  Pd  Pd8  1  0.059102  0.555586  0.224623  1
  Pd  Pd9  1  0.555271  0.223324  0.057107  1
  Pd  Pd10  1  0.775506  0.940131  0.442807  1
  Pd  Pd11  1  0.940838  0.444324  0.776223  1
  Pd  Pd12  1  0.442817  0.775432  0.940507  1
  Rh  Rh13  1  0.001188  0.002779  0.001789  1
