# generated using pymatgen
data_Ac2Ir2I
_symmetry_space_group_name_H-M   'P 1'
_cell_length_a   4.44958100
_cell_length_b   4.44957923
_cell_length_c   18.49855900
_cell_angle_alpha   90.00000000
_cell_angle_beta   90.00000000
_cell_angle_gamma   119.99999088
_symmetry_Int_Tables_number   1
_chemical_formula_structural   Ac2Ir2I
_chemical_formula_sum   'Ac4 Ir4 I2'
_cell_volume   317.18061119
_cell_formula_units_Z   2
loop_
 _symmetry_equiv_pos_site_id
 _symmetry_equiv_pos_as_xyz
  1  'x, y, z'
loop_
 _atom_site_type_symbol
 _atom_site_label
 _atom_site_symmetry_multiplicity
 _atom_site_fract_x
 _atom_site_fract_y
 _atom_site_fract_z
 _atom_site_occupancy
  Ac  Ac0  1  0.000000  0.000000  0.104569  1
  Ac  Ac1  1  0.000000  0.000000  0.895431  1
  Ac  Ac2  1  0.000000  0.000000  0.604569  1
  Ac  Ac3  1  0.000000  0.000000  0.395431  1
  Ir  Ir4  1  0.333333  0.666667  0.500174  1
  Ir  Ir5  1  0.666667  0.333333  0.499826  1
  Ir  Ir6  1  0.666667  0.333333  0.000174  1
  Ir  Ir7  1  0.333333  0.666667  0.999826  1
  I  I8  1  0.333333  0.666667  0.250000  1
  I  I9  1  0.666667  0.333333  0.750000  1
