# generated using pymatgen
data_Rb2Pu3(IO5)4
_symmetry_space_group_name_H-M   'P 1'
_cell_length_a   7.02899401
_cell_length_b   8.24997400
_cell_length_c   9.37579996
_cell_angle_alpha   90.35394993
_cell_angle_beta   105.46243707
_cell_angle_gamma   91.26450050
_symmetry_Int_Tables_number   1
_chemical_formula_structural   Rb2Pu3(IO5)4
_chemical_formula_sum   'Rb2 Pu3 I4 O20'
_cell_volume   523.84603719
_cell_formula_units_Z   1
loop_
 _symmetry_equiv_pos_site_id
 _symmetry_equiv_pos_as_xyz
  1  'x, y, z'
loop_
 _atom_site_type_symbol
 _atom_site_label
 _atom_site_symmetry_multiplicity
 _atom_site_fract_x
 _atom_site_fract_y
 _atom_site_fract_z
 _atom_site_occupancy
  Rb  Rb0  1  0.756994  0.408193  0.153329  1
  Rb  Rb1  1  0.243005  0.591689  0.846673  1
  Pu  Pu2  1  0.000012  0.000085  0.999993  1
  Pu  Pu3  1  0.550485  0.923390  0.188938  1
  Pu  Pu4  1  0.449521  0.076600  0.811044  1
  I  I5  1  0.126313  0.799569  0.373990  1
  I  I6  1  0.300297  0.351990  0.447702  1
  I  I7  1  0.699711  0.647985  0.552317  1
  I  I8  1  0.873686  0.200395  0.626009  1
  O  O9  1  0.693899  0.009380  0.014720  1
  O  O10  1  0.042669  0.207925  0.062424  1
  O  O11  1  0.531448  0.718171  0.118210  1
  O  O12  1  0.224048  0.917037  0.235428  1
  O  O13  1  0.570911  0.126592  0.263331  1
  O  O14  1  0.098145  0.604535  0.280780  1
  O  O15  1  0.887529  0.895744  0.296272  1
  O  O16  1  0.645849  0.478714  0.419722  1
  O  O17  1  0.045163  0.291213  0.445389  1
  O  O18  1  0.558118  0.808218  0.436447  1
  O  O19  1  0.441857  0.191720  0.563541  1
  O  O20  1  0.954831  0.708732  0.554610  1
  O  O21  1  0.354153  0.521204  0.580330  1
  O  O22  1  0.112450  0.104252  0.703742  1
  O  O23  1  0.901860  0.395398  0.719257  1
  O  O24  1  0.429040  0.873407  0.736611  1
  O  O25  1  0.775923  0.082960  0.764550  1
  O  O26  1  0.468590  0.281945  0.881797  1
  O  O27  1  0.957378  0.792300  0.937605  1
  O  O28  1  0.306113  0.990660  0.985229  1
