# generated using pymatgen
data_Tb2NdDy2(MnB3)2
_symmetry_space_group_name_H-M   'P 1'
_cell_length_a   5.44143613
_cell_length_b   5.44143665
_cell_length_c   8.37282915
_cell_angle_alpha   71.03769213
_cell_angle_beta   71.03768806
_cell_angle_gamma   60.00001685
_symmetry_Int_Tables_number   1
_chemical_formula_structural   Tb2NdDy2(MnB3)2
_chemical_formula_sum   'Tb2 Nd1 Dy2 Mn2 B6'
_cell_volume   199.01259168
_cell_formula_units_Z   1
loop_
 _symmetry_equiv_pos_site_id
 _symmetry_equiv_pos_as_xyz
  1  'x, y, z'
loop_
 _atom_site_type_symbol
 _atom_site_label
 _atom_site_symmetry_multiplicity
 _atom_site_fract_x
 _atom_site_fract_y
 _atom_site_fract_z
 _atom_site_occupancy
  Tb  Tb0  1  0.250059  0.250059  0.249821  1
  Tb  Tb1  1  0.749941  0.749941  0.750179  1
  Nd  Nd2  1  0.000000  0.000000  0.000000  1
  Dy  Dy3  1  0.417794  0.417794  0.746618  1
  Dy  Dy4  1  0.582206  0.582206  0.253382  1
  Mn  Mn5  1  0.115444  0.115444  0.653669  1
  Mn  Mn6  1  0.884556  0.884556  0.346331  1
  B  B7  1  0.166047  0.833953  0.500000  1
  B  B8  1  0.833953  0.500000  0.500000  1
  B  B9  1  0.500000  0.166047  0.500000  1
  B  B10  1  0.166047  0.500000  0.500000  1
  B  B11  1  0.500000  0.833953  0.500000  1
  B  B12  1  0.833953  0.166047  0.500000  1
