# generated using pymatgen
data_Rb2Li2SnSe4
_symmetry_space_group_name_H-M   'P 1'
_cell_length_a   9.91840527
_cell_length_b   9.91840591
_cell_length_c   9.91840552
_cell_angle_alpha   143.81261693
_cell_angle_beta   105.08980654
_cell_angle_gamma   86.13400582
_symmetry_Int_Tables_number   1
_chemical_formula_structural   Rb2Li2SnSe4
_chemical_formula_sum   'Rb4 Li4 Sn2 Se8'
_cell_volume   538.52276871
_cell_formula_units_Z   2
loop_
 _symmetry_equiv_pos_site_id
 _symmetry_equiv_pos_as_xyz
  1  'x, y, z'
loop_
 _atom_site_type_symbol
 _atom_site_label
 _atom_site_symmetry_multiplicity
 _atom_site_fract_x
 _atom_site_fract_y
 _atom_site_fract_z
 _atom_site_occupancy
  Rb  Rb0  1  0.619732  0.767569  0.387300  1
  Rb  Rb1  1  0.880268  0.267569  0.147838  1
  Rb  Rb2  1  0.119732  0.732431  0.852162  1
  Rb  Rb3  1  0.380268  0.232431  0.612700  1
  Li  Li4  1  0.021036  0.750000  0.271036  1
  Li  Li5  1  0.478964  0.750000  0.728964  1
  Li  Li6  1  0.978964  0.250000  0.728964  1
  Li  Li7  1  0.521036  0.250000  0.271036  1
  Sn  Sn8  1  0.750000  0.750000  0.000000  1
  Sn  Sn9  1  0.250000  0.250000  0.000000  1
  Se  Se10  1  0.725860  0.636409  0.651398  1
  Se  Se11  1  0.774140  0.425538  0.910548  1
  Se  Se12  1  0.514990  0.863591  0.089452  1
  Se  Se13  1  0.985010  0.074462  0.348602  1
  Se  Se14  1  0.274140  0.363591  0.348602  1
  Se  Se15  1  0.225860  0.574462  0.089452  1
  Se  Se16  1  0.014990  0.925538  0.651398  1
  Se  Se17  1  0.485010  0.136409  0.910548  1
