# generated using pymatgen
data_Er11Th5(ZnRu)4
_symmetry_space_group_name_H-M   'P 1'
_cell_length_a   9.51798700
_cell_length_b   9.56072556
_cell_length_c   9.56072454
_cell_angle_alpha   59.90919796
_cell_angle_beta   60.14776569
_cell_angle_gamma   60.14776718
_symmetry_Int_Tables_number   1
_chemical_formula_structural   Er11Th5(ZnRu)4
_chemical_formula_sum   'Er11 Th5 Zn4 Ru4'
_cell_volume   616.13789560
_cell_formula_units_Z   1
loop_
 _symmetry_equiv_pos_site_id
 _symmetry_equiv_pos_as_xyz
  1  'x, y, z'
loop_
 _atom_site_type_symbol
 _atom_site_label
 _atom_site_symmetry_multiplicity
 _atom_site_fract_x
 _atom_site_fract_y
 _atom_site_fract_z
 _atom_site_occupancy
  Er  Er0  1  0.188970  0.811030  0.811030  1
  Er  Er1  1  0.194467  0.807101  0.187559  1
  Er  Er2  1  0.810875  0.187559  0.807101  1
  Er  Er3  1  0.194467  0.187559  0.807101  1
  Er  Er4  1  0.810875  0.807101  0.187559  1
  Er  Er5  1  0.932379  0.567621  0.567621  1
  Er  Er6  1  0.565588  0.934412  0.934412  1
  Er  Er7  1  0.563225  0.934975  0.565116  1
  Er  Er8  1  0.936685  0.565116  0.934975  1
  Er  Er9  1  0.563225  0.565116  0.934975  1
  Er  Er10  1  0.936685  0.934975  0.565116  1
  Th  Th11  1  0.346077  0.353886  0.353886  1
  Th  Th12  1  0.351388  0.351941  0.945284  1
  Th  Th13  1  0.351388  0.945284  0.351941  1
  Th  Th14  1  0.946152  0.353886  0.353886  1
  Th  Th15  1  0.813160  0.186840  0.186840  1
  Zn  Zn16  1  0.581062  0.579614  0.579614  1
  Zn  Zn17  1  0.579382  0.582563  0.258672  1
  Zn  Zn18  1  0.579382  0.258672  0.582563  1
  Zn  Zn19  1  0.259709  0.579614  0.579614  1
  Ru  Ru20  1  0.129546  0.147008  0.147008  1
  Ru  Ru21  1  0.144441  0.141413  0.569707  1
  Ru  Ru22  1  0.144441  0.569707  0.141413  1
  Ru  Ru23  1  0.576439  0.147008  0.147008  1
