# generated using pymatgen
data_Ho19Tm(Ir5Pd)2
_symmetry_space_group_name_H-M   'P 1'
_cell_length_a   10.98048041
_cell_length_b   10.93464900
_cell_length_c   6.31729600
_cell_angle_alpha   90.00160863
_cell_angle_beta   89.85656317
_cell_angle_gamma   90.00041273
_symmetry_Int_Tables_number   1
_chemical_formula_structural   Ho19Tm(Ir5Pd)2
_chemical_formula_sum   'Ho19 Tm1 Ir10 Pd2'
_cell_volume   758.50081852
_cell_formula_units_Z   1
loop_
 _symmetry_equiv_pos_site_id
 _symmetry_equiv_pos_as_xyz
  1  'x, y, z'
loop_
 _atom_site_type_symbol
 _atom_site_label
 _atom_site_symmetry_multiplicity
 _atom_site_fract_x
 _atom_site_fract_y
 _atom_site_fract_z
 _atom_site_occupancy
  Ho  Ho0  1  0.291140  0.088186  0.373676  1
  Ho  Ho1  1  0.291117  0.911927  0.873881  1
  Ho  Ho2  1  0.701585  0.091475  0.870426  1
  Ho  Ho3  1  0.701664  0.908452  0.370096  1
  Ho  Ho4  1  0.580591  0.789528  0.875604  1
  Ho  Ho5  1  0.580522  0.210746  0.375723  1
  Ho  Ho6  1  0.409456  0.791121  0.375800  1
  Ho  Ho7  1  0.409251  0.208659  0.875861  1
  Ho  Ho8  1  0.210111  0.411750  0.622109  1
  Ho  Ho9  1  0.209868  0.588363  0.122102  1
  Ho  Ho10  1  0.791089  0.417669  0.124841  1
  Ho  Ho11  1  0.790637  0.582158  0.624836  1
  Ho  Ho12  1  0.916085  0.706820  0.132479  1
  Ho  Ho13  1  0.915994  0.293167  0.632560  1
  Ho  Ho14  1  0.094332  0.704764  0.623799  1
  Ho  Ho15  1  0.094249  0.295240  0.123613  1
  Ho  Ho16  1  0.003656  0.997903  0.500185  1
  Ho  Ho17  1  0.003471  0.002102  0.000121  1
  Ho  Ho18  1  0.500725  0.498162  0.000690  1
  Tm  Tm19  1  0.500676  0.501811  0.500659  1
  Ir  Ir20  1  0.152949  0.154032  0.750310  1
  Ir  Ir21  1  0.152743  0.845743  0.250079  1
  Ir  Ir22  1  0.655927  0.346579  0.747239  1
  Ir  Ir23  1  0.655755  0.653527  0.248915  1
  Ir  Ir24  1  0.348215  0.346543  0.252584  1
  Ir  Ir25  1  0.348235  0.653366  0.751170  1
  Ir  Ir26  1  0.500324  0.999737  0.120954  1
  Ir  Ir27  1  0.500340  0.000336  0.620827  1
  Ir  Ir28  1  0.000042  0.500512  0.879056  1
  Ir  Ir29  1  0.000058  0.499493  0.379095  1
  Pd  Pd30  1  0.844654  0.154884  0.250332  1
  Pd  Pd31  1  0.844538  0.845248  0.750377  1
