# generated using pymatgen
data_Tb3SmPCl6
_symmetry_space_group_name_H-M   'P 1'
_cell_length_a   3.91204100
_cell_length_b   12.79366328
_cell_length_c   13.48728300
_cell_angle_alpha   89.28638983
_cell_angle_beta   90.00000000
_cell_angle_gamma   90.00000000
_symmetry_Int_Tables_number   1
_chemical_formula_structural   Tb3SmPCl6
_chemical_formula_sum   'Tb6 Sm2 P2 Cl12'
_cell_volume   674.97719356
_cell_formula_units_Z   2
loop_
 _symmetry_equiv_pos_site_id
 _symmetry_equiv_pos_as_xyz
  1  'x, y, z'
loop_
 _atom_site_type_symbol
 _atom_site_label
 _atom_site_symmetry_multiplicity
 _atom_site_fract_x
 _atom_site_fract_y
 _atom_site_fract_z
 _atom_site_occupancy
  Tb  Tb0  1  0.500000  0.120962  0.337949  1
  Tb  Tb1  1  0.500000  0.879038  0.662051  1
  Tb  Tb2  1  0.500000  0.618796  0.160188  1
  Tb  Tb3  1  0.500000  0.381204  0.839812  1
  Tb  Tb4  1  0.000000  0.618833  0.920237  1
  Tb  Tb5  1  0.000000  0.381167  0.079763  1
  Sm  Sm6  1  0.000000  0.121343  0.580930  1
  Sm  Sm7  1  0.000000  0.878657  0.419070  1
  P  P8  1  0.500000  0.000000  0.500000  1
  P  P9  1  0.500000  0.500000  0.000000  1
  Cl  Cl10  1  0.500000  0.246862  0.165468  1
  Cl  Cl11  1  0.500000  0.753138  0.834532  1
  Cl  Cl12  1  0.500000  0.740527  0.331162  1
  Cl  Cl13  1  0.500000  0.259473  0.668838  1
  Cl  Cl14  1  0.000000  0.252314  0.406769  1
  Cl  Cl15  1  0.000000  0.747686  0.593231  1
  Cl  Cl16  1  0.000000  0.749892  0.086681  1
  Cl  Cl17  1  0.000000  0.250108  0.913319  1
  Cl  Cl18  1  0.000000  0.008191  0.243827  1
  Cl  Cl19  1  0.000000  0.991809  0.756173  1
  Cl  Cl20  1  0.000000  0.501677  0.252803  1
  Cl  Cl21  1  0.000000  0.498323  0.747197  1
