# generated using pymatgen
data_HoLu(NbSe2)8
_symmetry_space_group_name_H-M   'P 1'
_cell_length_a   7.01634000
_cell_length_b   7.01634028
_cell_length_c   14.13873600
_cell_angle_alpha   90.00000000
_cell_angle_beta   90.00000000
_cell_angle_gamma   119.99999870
_symmetry_Int_Tables_number   1
_chemical_formula_structural   HoLu(NbSe2)8
_chemical_formula_sum   'Ho1 Lu1 Nb8 Se16'
_cell_volume   602.78507679
_cell_formula_units_Z   1
loop_
 _symmetry_equiv_pos_site_id
 _symmetry_equiv_pos_as_xyz
  1  'x, y, z'
loop_
 _atom_site_type_symbol
 _atom_site_label
 _atom_site_symmetry_multiplicity
 _atom_site_fract_x
 _atom_site_fract_y
 _atom_site_fract_z
 _atom_site_occupancy
  Ho  Ho0  1  0.000000  0.000000  0.500000  1
  Lu  Lu1  1  0.000000  0.000000  0.000000  1
  Nb  Nb2  1  0.000000  0.000000  0.247600  1
  Nb  Nb3  1  0.000000  0.000000  0.752400  1
  Nb  Nb4  1  0.506606  0.013214  0.247422  1
  Nb  Nb5  1  0.986786  0.493394  0.247422  1
  Nb  Nb6  1  0.506606  0.493394  0.247422  1
  Nb  Nb7  1  0.493394  0.986786  0.752578  1
  Nb  Nb8  1  0.013214  0.506606  0.752578  1
  Nb  Nb9  1  0.493394  0.506606  0.752578  1
  Se  Se10  1  0.333333  0.666667  0.874381  1
  Se  Se11  1  0.666667  0.333333  0.125619  1
  Se  Se12  1  0.666667  0.333333  0.369142  1
  Se  Se13  1  0.333333  0.666667  0.630858  1
  Se  Se14  1  0.169756  0.830244  0.364875  1
  Se  Se15  1  0.169756  0.339511  0.364875  1
  Se  Se16  1  0.660489  0.830244  0.364875  1
  Se  Se17  1  0.830244  0.169756  0.635125  1
  Se  Se18  1  0.830244  0.660489  0.635125  1
  Se  Se19  1  0.339511  0.169756  0.635125  1
  Se  Se20  1  0.830271  0.169729  0.870032  1
  Se  Se21  1  0.830271  0.660543  0.870032  1
  Se  Se22  1  0.339457  0.169729  0.870032  1
  Se  Se23  1  0.169729  0.830271  0.129968  1
  Se  Se24  1  0.169729  0.339457  0.129968  1
  Se  Se25  1  0.660543  0.830271  0.129968  1
