# generated using pymatgen
data_SmNp7ScSe17
_symmetry_space_group_name_H-M   'P 1'
_cell_length_a   8.28625828
_cell_length_b   8.28625686
_cell_length_c   11.02078810
_cell_angle_alpha   80.14037349
_cell_angle_beta   80.14037660
_cell_angle_gamma   65.12232904
_symmetry_Int_Tables_number   1
_chemical_formula_structural   SmNp7ScSe17
_chemical_formula_sum   'Sm1 Np7 Sc1 Se17'
_cell_volume   672.17563645
_cell_formula_units_Z   1
loop_
 _symmetry_equiv_pos_site_id
 _symmetry_equiv_pos_as_xyz
  1  'x, y, z'
loop_
 _atom_site_type_symbol
 _atom_site_label
 _atom_site_symmetry_multiplicity
 _atom_site_fract_x
 _atom_site_fract_y
 _atom_site_fract_z
 _atom_site_occupancy
  Sm  Sm0  1  0.793867  0.793867  0.461363  1
  Np  Np1  1  0.205585  0.205585  0.539518  1
  Np  Np2  1  0.699077  0.181079  0.697995  1
  Np  Np3  1  0.181079  0.699077  0.697995  1
  Np  Np4  1  0.818561  0.299966  0.300611  1
  Np  Np5  1  0.677313  0.677313  0.984269  1
  Np  Np6  1  0.323064  0.323064  0.015019  1
  Np  Np7  1  0.299966  0.818561  0.300611  1
  Sc  Sc8  1  0.999669  0.999669  0.999365  1
  Se  Se9  1  0.477849  0.477849  0.167142  1
  Se  Se10  1  0.692320  0.692320  0.245809  1
  Se  Se11  1  0.565374  0.182865  0.466703  1
  Se  Se12  1  0.057966  0.668999  0.965271  1
  Se  Se13  1  0.211106  0.211106  0.278686  1
  Se  Se14  1  0.424990  0.826306  0.533102  1
  Se  Se15  1  0.519529  0.519529  0.828812  1
  Se  Se16  1  0.668999  0.057966  0.965271  1
  Se  Se17  1  0.940432  0.940432  0.235525  1
  Se  Se18  1  0.062150  0.062150  0.764901  1
  Se  Se19  1  0.303031  0.303031  0.752787  1
  Se  Se20  1  0.330927  0.943865  0.035721  1
  Se  Se21  1  0.826306  0.424990  0.533102  1
  Se  Se22  1  0.943865  0.330927  0.035721  1
  Se  Se23  1  0.182865  0.565374  0.466703  1
  Se  Se24  1  0.002376  0.002376  0.500254  1
  Se  Se25  1  0.791732  0.791732  0.727745  1
