# generated using pymatgen
data_Ho2Er4InSi2
_symmetry_space_group_name_H-M   'P 1'
_cell_length_a   8.45321695
_cell_length_b   8.45321679
_cell_length_c   8.45321620
_cell_angle_alpha   112.52015708
_cell_angle_beta   110.86382502
_cell_angle_gamma   105.12011155
_symmetry_Int_Tables_number   1
_chemical_formula_structural   Ho2Er4InSi2
_chemical_formula_sum   'Ho4 Er8 In2 Si4'
_cell_volume   462.89430216
_cell_formula_units_Z   2
loop_
 _symmetry_equiv_pos_site_id
 _symmetry_equiv_pos_as_xyz
  1  'x, y, z'
loop_
 _atom_site_type_symbol
 _atom_site_label
 _atom_site_symmetry_multiplicity
 _atom_site_fract_x
 _atom_site_fract_y
 _atom_site_fract_z
 _atom_site_occupancy
  Ho  Ho0  1  0.187339  0.279657  0.466996  1
  Ho  Ho1  1  0.812661  0.720343  0.533004  1
  Ho  Ho2  1  0.187339  0.720343  0.907681  1
  Ho  Ho3  1  0.812661  0.279657  0.092319  1
  Er  Er4  1  0.319545  0.615550  0.296005  1
  Er  Er5  1  0.680455  0.384450  0.703995  1
  Er  Er6  1  0.319545  0.023540  0.703995  1
  Er  Er7  1  0.680455  0.976460  0.296005  1
  Er  Er8  1  0.442107  0.236996  0.205112  1
  Er  Er9  1  0.557893  0.763004  0.794888  1
  Er  Er10  1  0.031885  0.236996  0.794888  1
  Er  Er11  1  0.968115  0.763004  0.205112  1
  In  In12  1  0.500000  0.500000  0.000000  1
  In  In13  1  0.000000  0.000000  0.000000  1
  Si  Si14  1  0.116331  0.616331  0.500000  1
  Si  Si15  1  0.883669  0.383669  0.500000  1
  Si  Si16  1  0.369448  0.000000  0.369448  1
  Si  Si17  1  0.630552  0.000000  0.630552  1
