# generated using pymatgen
data_Ti8Fe8Si13Ge
_symmetry_space_group_name_H-M   'P 1'
_cell_length_a   9.32319157
_cell_length_b   9.32415578
_cell_length_c   9.32319100
_cell_angle_alpha   93.94256587
_cell_angle_beta   93.96182436
_cell_angle_gamma   149.54816887
_symmetry_Int_Tables_number   1
_chemical_formula_structural   Ti8Fe8Si13Ge
_chemical_formula_sum   'Ti8 Fe8 Si13 Ge1'
_cell_volume   396.36097388
_cell_formula_units_Z   1
loop_
 _symmetry_equiv_pos_site_id
 _symmetry_equiv_pos_as_xyz
  1  'x, y, z'
loop_
 _atom_site_type_symbol
 _atom_site_label
 _atom_site_symmetry_multiplicity
 _atom_site_fract_x
 _atom_site_fract_y
 _atom_site_fract_z
 _atom_site_occupancy
  Ti  Ti0  1  0.134582  0.134554  0.274365  1
  Ti  Ti1  1  0.860264  0.860210  0.725651  1
  Ti  Ti2  1  0.860006  0.134959  0.000040  1
  Ti  Ti3  1  0.134456  0.860318  0.999996  1
  Ti  Ti4  1  0.503292  0.696887  0.194603  1
  Ti  Ti5  1  0.502820  0.309217  0.806135  1
  Ti  Ti6  1  0.308752  0.502391  0.805386  1
  Ti  Ti7  1  0.696581  0.503048  0.193852  1
  Fe  Fe8  1  0.399704  0.899494  0.799673  1
  Fe  Fe9  1  0.100416  0.600567  0.200356  1
  Fe  Fe10  1  0.100072  0.899667  0.499746  1
  Fe  Fe11  1  0.399906  0.600187  0.500247  1
  Fe  Fe12  1  0.600201  0.399756  0.500226  1
  Fe  Fe13  1  0.899634  0.099862  0.499851  1
  Fe  Fe14  1  0.899973  0.400066  0.799642  1
  Fe  Fe15  1  0.599736  0.099550  0.200306  1
  Si  Si16  1  0.293586  0.293846  0.589236  1
  Si  Si17  1  0.704238  0.704536  0.410778  1
  Si  Si18  1  0.704503  0.293944  0.999975  1
  Si  Si19  1  0.293951  0.704059  0.999970  1
  Si  Si20  1  0.000882  0.292529  0.291686  1
  Si  Si21  1  0.001205  0.709876  0.709023  1
  Si  Si22  1  0.709300  0.000941  0.708388  1
  Si  Si23  1  0.292032  0.000772  0.290950  1
  Si  Si24  1  0.500073  0.906215  0.406633  1
  Si  Si25  1  0.500190  0.093327  0.593643  1
  Si  Si26  1  0.093470  0.499674  0.593348  1
  Si  Si27  1  0.906408  0.499639  0.406280  1
  Si  Si28  1  0.750072  0.750126  0.000018  1
  Ge  Ge29  1  0.249694  0.249776  0.999999  1
