# generated using pymatgen
data_LiSmP7Ru12
_symmetry_space_group_name_H-M   'P 1'
_cell_length_a   9.42848100
_cell_length_b   9.42847969
_cell_length_c   3.91063200
_cell_angle_alpha   90.00000000
_cell_angle_beta   90.00000000
_cell_angle_gamma   119.99999919
_symmetry_Int_Tables_number   1
_chemical_formula_structural   LiSmP7Ru12
_chemical_formula_sum   'Li1 Sm1 P7 Ru12'
_cell_volume   301.06549581
_cell_formula_units_Z   1
loop_
 _symmetry_equiv_pos_site_id
 _symmetry_equiv_pos_as_xyz
  1  'x, y, z'
loop_
 _atom_site_type_symbol
 _atom_site_label
 _atom_site_symmetry_multiplicity
 _atom_site_fract_x
 _atom_site_fract_y
 _atom_site_fract_z
 _atom_site_occupancy
  Li  Li0  1  0.666667  0.333333  0.500000  1
  Sm  Sm1  1  0.333333  0.666667  0.000000  1
  P  P2  1  0.603260  0.711482  0.500000  1
  P  P3  1  0.000000  0.000000  0.000000  1
  P  P4  1  0.288518  0.891778  0.500000  1
  P  P5  1  0.108222  0.396740  0.500000  1
  P  P6  1  0.895268  0.586217  0.000000  1
  P  P7  1  0.413783  0.309052  0.000000  1
  P  P8  1  0.690948  0.104732  0.000000  1
  Ru  Ru9  1  0.559141  0.950861  0.500000  1
  Ru  Ru10  1  0.391720  0.440859  0.500000  1
  Ru  Ru11  1  0.910621  0.116978  0.500000  1
  Ru  Ru12  1  0.206357  0.089379  0.500000  1
  Ru  Ru13  1  0.883022  0.793643  0.500000  1
  Ru  Ru14  1  0.725376  0.878977  0.000000  1
  Ru  Ru15  1  0.121023  0.846398  0.000000  1
  Ru  Ru16  1  0.153602  0.274624  0.000000  1
  Ru  Ru17  1  0.434875  0.079579  0.000000  1
  Ru  Ru18  1  0.920421  0.355297  0.000000  1
  Ru  Ru19  1  0.644703  0.565125  0.000000  1
  Ru  Ru20  1  0.049139  0.608280  0.500000  1
