# generated using pymatgen
data_OsOF3
_symmetry_space_group_name_H-M   'P 1'
_cell_length_a   6.69384334
_cell_length_b   7.49943972
_cell_length_c   8.35489335
_cell_angle_alpha   96.61051676
_cell_angle_beta   110.26974165
_cell_angle_gamma   112.08734021
_symmetry_Int_Tables_number   1
_chemical_formula_structural   OsOF3
_chemical_formula_sum   'Os4 O4 F12'
_cell_volume   349.73962992
_cell_formula_units_Z   4
loop_
 _symmetry_equiv_pos_site_id
 _symmetry_equiv_pos_as_xyz
  1  'x, y, z'
loop_
 _atom_site_type_symbol
 _atom_site_label
 _atom_site_symmetry_multiplicity
 _atom_site_fract_x
 _atom_site_fract_y
 _atom_site_fract_z
 _atom_site_occupancy
  Os  Os0  1  0.509155  0.521154  0.202131  1
  Os  Os1  1  0.356140  0.119447  0.401299  1
  Os  Os2  1  0.643860  0.880553  0.598701  1
  Os  Os3  1  0.490845  0.478846  0.797869  1
  O  O4  1  0.590599  0.744566  0.372329  1
  O  O5  1  0.440256  0.338344  0.321597  1
  O  O6  1  0.559744  0.661656  0.678403  1
  O  O7  1  0.409401  0.255434  0.627671  1
  F  F8  1  0.564873  0.685933  0.029016  1
  F  F9  1  0.303116  0.946524  0.190149  1
  F  F10  1  0.187212  0.469425  0.082318  1
  F  F11  1  0.828397  0.558236  0.271740  1
  F  F12  1  0.972152  0.945140  0.695144  1
  F  F13  1  0.693829  0.128084  0.504527  1
  F  F14  1  0.306171  0.871915  0.495473  1
  F  F15  1  0.027848  0.054860  0.304856  1
  F  F16  1  0.171603  0.441764  0.728260  1
  F  F17  1  0.812788  0.530575  0.917682  1
  F  F18  1  0.696884  0.053476  0.809851  1
  F  F19  1  0.435127  0.314067  0.970984  1
