# generated using pymatgen
data_Tb12Co3HgRu2
_symmetry_space_group_name_H-M   'P 1'
_cell_length_a   8.32903086
_cell_length_b   8.32903280
_cell_length_c   8.32903286
_cell_angle_alpha   111.75284568
_cell_angle_beta   110.21160107
_cell_angle_gamma   106.49359940
_symmetry_Int_Tables_number   1
_chemical_formula_structural   Tb12Co3HgRu2
_chemical_formula_sum   'Tb12 Co3 Hg1 Ru2'
_cell_volume   443.81689565
_cell_formula_units_Z   1
loop_
 _symmetry_equiv_pos_site_id
 _symmetry_equiv_pos_as_xyz
  1  'x, y, z'
loop_
 _atom_site_type_symbol
 _atom_site_label
 _atom_site_symmetry_multiplicity
 _atom_site_fract_x
 _atom_site_fract_y
 _atom_site_fract_z
 _atom_site_occupancy
  Tb  Tb0  1  0.819845  0.722790  0.542636  1
  Tb  Tb1  1  0.177685  0.275508  0.453193  1
  Tb  Tb2  1  0.177685  0.724492  0.902178  1
  Tb  Tb3  1  0.819845  0.277210  0.097053  1
  Tb  Tb4  1  0.679099  0.364851  0.685771  1
  Tb  Tb5  1  0.320920  0.635149  0.314248  1
  Tb  Tb6  1  0.679099  0.993328  0.314248  1
  Tb  Tb7  1  0.320920  0.006672  0.685771  1
  Tb  Tb8  1  0.582804  0.768685  0.814120  1
  Tb  Tb9  1  0.417419  0.226081  0.191338  1
  Tb  Tb10  1  0.965257  0.773919  0.191338  1
  Tb  Tb11  1  0.045435  0.231315  0.814120  1
  Co  Co12  1  0.337972  0.000000  0.337972  1
  Co  Co13  1  0.109586  0.610700  0.498885  1
  Co  Co14  1  0.888185  0.389300  0.498885  1
  Hg  Hg15  1  0.503623  0.500000  0.003623  1
  Ru  Ru16  1  0.654917  0.000000  0.654917  1
  Ru  Ru17  1  0.999703  0.000000  0.999703  1
