# generated using pymatgen
data_Er10In3Sn3Cl2
_symmetry_space_group_name_H-M   'P 1'
_cell_length_a   9.01748486
_cell_length_b   9.01748496
_cell_length_c   6.57231400
_cell_angle_alpha   90.00000000
_cell_angle_beta   90.00000000
_cell_angle_gamma   119.90877876
_symmetry_Int_Tables_number   1
_chemical_formula_structural   Er10In3Sn3Cl2
_chemical_formula_sum   'Er10 In3 Sn3 Cl2'
_cell_volume   463.25301754
_cell_formula_units_Z   1
loop_
 _symmetry_equiv_pos_site_id
 _symmetry_equiv_pos_as_xyz
  1  'x, y, z'
loop_
 _atom_site_type_symbol
 _atom_site_label
 _atom_site_symmetry_multiplicity
 _atom_site_fract_x
 _atom_site_fract_y
 _atom_site_fract_z
 _atom_site_occupancy
  Er  Er0  1  0.667041  0.333709  0.000536  1
  Er  Er1  1  0.333709  0.667041  0.499464  1
  Er  Er2  1  0.667041  0.333709  0.499464  1
  Er  Er3  1  0.333709  0.667041  0.000536  1
  Er  Er4  1  0.739158  0.999019  0.750000  1
  Er  Er5  1  0.739403  0.739403  0.250000  1
  Er  Er6  1  0.998921  0.260047  0.250000  1
  Er  Er7  1  0.999019  0.739158  0.750000  1
  Er  Er8  1  0.260027  0.260027  0.750000  1
  Er  Er9  1  0.260047  0.998921  0.250000  1
  In  In10  1  0.608742  0.608742  0.750000  1
  In  In11  1  0.000094  0.608965  0.250000  1
  In  In12  1  0.608965  0.000094  0.250000  1
  Sn  Sn13  1  0.391306  0.000498  0.750000  1
  Sn  Sn14  1  0.000498  0.391306  0.750000  1
  Sn  Sn15  1  0.390512  0.390512  0.250000  1
  Cl  Cl16  1  0.000905  0.000905  0.500501  1
  Cl  Cl17  1  0.000905  0.000905  0.999499  1
