# generated using pymatgen
data_Tm2GeB2Ru5
_symmetry_space_group_name_H-M   'P 1'
_cell_length_a   9.52959300
_cell_length_b   9.52959300
_cell_length_c   3.08556800
_cell_angle_alpha   90.00000000
_cell_angle_beta   90.00000000
_cell_angle_gamma   90.00000000
_symmetry_Int_Tables_number   1
_chemical_formula_structural   Tm2GeB2Ru5
_chemical_formula_sum   'Tm4 Ge2 B4 Ru10'
_cell_volume   280.21012724
_cell_formula_units_Z   2
loop_
 _symmetry_equiv_pos_site_id
 _symmetry_equiv_pos_as_xyz
  1  'x, y, z'
loop_
 _atom_site_type_symbol
 _atom_site_label
 _atom_site_symmetry_multiplicity
 _atom_site_fract_x
 _atom_site_fract_y
 _atom_site_fract_z
 _atom_site_occupancy
  Tm  Tm0  1  0.675060  0.175060  0.000000  1
  Tm  Tm1  1  0.324940  0.824940  0.000000  1
  Tm  Tm2  1  0.175060  0.324940  0.000000  1
  Tm  Tm3  1  0.824940  0.675060  0.000000  1
  Ge  Ge4  1  0.000000  0.000000  0.000000  1
  Ge  Ge5  1  0.500000  0.500000  0.000000  1
  B  B6  1  0.122624  0.622624  0.000000  1
  B  B7  1  0.877376  0.377376  0.000000  1
  B  B8  1  0.622624  0.877376  0.000000  1
  B  B9  1  0.377376  0.122624  0.000000  1
  Ru  Ru10  1  0.214194  0.069302  0.500000  1
  Ru  Ru11  1  0.785806  0.930698  0.500000  1
  Ru  Ru12  1  0.069302  0.785806  0.500000  1
  Ru  Ru13  1  0.714194  0.430698  0.500000  1
  Ru  Ru14  1  0.930698  0.214194  0.500000  1
  Ru  Ru15  1  0.285806  0.569302  0.500000  1
  Ru  Ru16  1  0.569302  0.714194  0.500000  1
  Ru  Ru17  1  0.430698  0.285806  0.500000  1
  Ru  Ru18  1  0.500000  0.000000  0.500000  1
  Ru  Ru19  1  0.000000  0.500000  0.500000  1
