# generated using pymatgen
data_NdSmZn2(SiRh3)2
_symmetry_space_group_name_H-M   'P 1'
_cell_length_a   6.73692550
_cell_length_b   6.77222764
_cell_length_c   6.73692433
_cell_angle_alpha   130.69315103
_cell_angle_beta   113.03008466
_cell_angle_gamma   87.34076148
_symmetry_Int_Tables_number   1
_chemical_formula_structural   NdSmZn2(SiRh3)2
_chemical_formula_sum   'Nd1 Sm1 Zn2 Si2 Rh6'
_cell_volume   204.65858890
_cell_formula_units_Z   1
loop_
 _symmetry_equiv_pos_site_id
 _symmetry_equiv_pos_as_xyz
  1  'x, y, z'
loop_
 _atom_site_type_symbol
 _atom_site_label
 _atom_site_symmetry_multiplicity
 _atom_site_fract_x
 _atom_site_fract_y
 _atom_site_fract_z
 _atom_site_occupancy
  Nd  Nd0  1  0.253304  0.978695  0.725392  1
  Sm  Sm1  1  0.748354  0.026084  0.277731  1
  Zn  Zn2  1  0.572698  0.353915  0.781217  1
  Zn  Zn3  1  0.429638  0.649459  0.219823  1
  Si  Si4  1  0.094771  0.322656  0.227885  1
  Si  Si5  1  0.903756  0.676576  0.772820  1
  Rh  Rh6  1  0.207986  0.497435  0.708094  1
  Rh  Rh7  1  0.765083  0.999355  0.763822  1
  Rh  Rh8  1  0.789341  0.497435  0.289449  1
  Rh  Rh9  1  0.235533  0.999355  0.234273  1
  Rh  Rh10  1  0.499402  0.499517  0.499382  1
  Rh  Rh11  1  0.000135  0.499517  0.000114  1
