# generated using pymatgen
data_Na2Pa(CrSe3)2
_symmetry_space_group_name_H-M   'P 1'
_cell_length_a   6.63051390
_cell_length_b   6.63051314
_cell_length_c   7.53411806
_cell_angle_alpha   81.54742419
_cell_angle_beta   81.54742924
_cell_angle_gamma   119.98139875
_symmetry_Int_Tables_number   1
_chemical_formula_structural   Na2Pa(CrSe3)2
_chemical_formula_sum   'Na2 Pa1 Cr2 Se6'
_cell_volume   274.23468923
_cell_formula_units_Z   1
loop_
 _symmetry_equiv_pos_site_id
 _symmetry_equiv_pos_as_xyz
  1  'x, y, z'
loop_
 _atom_site_type_symbol
 _atom_site_label
 _atom_site_symmetry_multiplicity
 _atom_site_fract_x
 _atom_site_fract_y
 _atom_site_fract_z
 _atom_site_occupancy
  Na  Na0  1  0.170601  0.829399  0.500000  1
  Na  Na1  1  0.833694  0.166306  0.500000  1
  Pa  Pa2  1  0.331939  0.668061  0.000000  1
  Cr  Cr3  1  0.001112  0.998888  0.000000  1
  Cr  Cr4  1  0.666399  0.333601  0.000000  1
  Se  Se5  1  0.904741  0.594860  0.210790  1
  Se  Se6  1  0.261305  0.239440  0.207275  1
  Se  Se7  1  0.617928  0.953419  0.208905  1
  Se  Se8  1  0.760560  0.738695  0.792725  1
  Se  Se9  1  0.046581  0.382072  0.791095  1
  Se  Se10  1  0.405140  0.095259  0.789210  1
