# generated using pymatgen
data_LiMn2(AgO2)3
_symmetry_space_group_name_H-M   'P 1'
_cell_length_a   5.17241244
_cell_length_b   5.17299356
_cell_length_c   6.45437389
_cell_angle_alpha   74.53277744
_cell_angle_beta   97.66369923
_cell_angle_gamma   120.00370638
_symmetry_Int_Tables_number   1
_chemical_formula_structural   LiMn2(AgO2)3
_chemical_formula_sum   'Li1 Mn2 Ag3 O6'
_cell_volume   144.13948184
_cell_formula_units_Z   1
loop_
 _symmetry_equiv_pos_site_id
 _symmetry_equiv_pos_as_xyz
  1  'x, y, z'
loop_
 _atom_site_type_symbol
 _atom_site_label
 _atom_site_symmetry_multiplicity
 _atom_site_fract_x
 _atom_site_fract_y
 _atom_site_fract_z
 _atom_site_occupancy
  Li  Li0  1  0.333333  0.166667  0.500000  1
  Mn  Mn1  1  0.999609  0.499804  0.500000  1
  Mn  Mn2  1  0.667058  0.833529  0.500000  1
  Ag  Ag3  1  0.672229  0.336114  0.000000  1
  Ag  Ag4  1  0.333333  0.666667  0.000000  1
  Ag  Ag5  1  0.994438  0.997219  0.000000  1
  O  O6  1  0.333333  0.755825  0.662098  1
  O  O7  1  0.978065  0.113568  0.661618  1
  O  O8  1  0.688602  0.468836  0.661618  1
  O  O9  1  0.688602  0.219765  0.338382  1
  O  O10  1  0.333333  0.577509  0.337902  1
  O  O11  1  0.978065  0.864497  0.338382  1
