# generated using pymatgen
data_Nd4HoTm11(CdPt)4
_symmetry_space_group_name_H-M   'P 1'
_cell_length_a   9.69103339
_cell_length_b   9.65394816
_cell_length_c   9.65394806
_cell_angle_alpha   60.17662111
_cell_angle_beta   59.87260830
_cell_angle_gamma   59.87261495
_symmetry_Int_Tables_number   1
_chemical_formula_structural   Nd4HoTm11(CdPt)4
_chemical_formula_sum   'Nd4 Ho1 Tm11 Cd4 Pt4'
_cell_volume   638.26377945
_cell_formula_units_Z   1
loop_
 _symmetry_equiv_pos_site_id
 _symmetry_equiv_pos_as_xyz
  1  'x, y, z'
loop_
 _atom_site_type_symbol
 _atom_site_label
 _atom_site_symmetry_multiplicity
 _atom_site_fract_x
 _atom_site_fract_y
 _atom_site_fract_z
 _atom_site_occupancy
  Nd  Nd0  1  0.565736  0.934407  0.564676  1
  Nd  Nd1  1  0.935181  0.564683  0.934404  1
  Nd  Nd2  1  0.565736  0.564676  0.934407  1
  Nd  Nd3  1  0.935181  0.934404  0.564683  1
  Ho  Ho4  1  0.555213  0.944766  0.944766  1
  Tm  Tm5  1  0.352610  0.350244  0.350244  1
  Tm  Tm6  1  0.350038  0.353034  0.946894  1
  Tm  Tm7  1  0.350038  0.946894  0.353034  1
  Tm  Tm8  1  0.946904  0.350246  0.350246  1
  Tm  Tm9  1  0.812067  0.187936  0.187936  1
  Tm  Tm10  1  0.187556  0.812446  0.812446  1
  Tm  Tm11  1  0.187541  0.811764  0.188781  1
  Tm  Tm12  1  0.811915  0.188779  0.811762  1
  Tm  Tm13  1  0.187541  0.188781  0.811764  1
  Tm  Tm14  1  0.811915  0.811762  0.188779  1
  Tm  Tm15  1  0.945200  0.554798  0.554798  1
  Cd  Cd16  1  0.584462  0.578274  0.578274  1
  Cd  Cd17  1  0.578336  0.583724  0.259604  1
  Cd  Cd18  1  0.578336  0.259604  0.583724  1
  Cd  Cd19  1  0.258995  0.578271  0.578271  1
  Pt  Pt20  1  0.145961  0.141331  0.141331  1
  Pt  Pt21  1  0.141078  0.146566  0.571280  1
  Pt  Pt22  1  0.141078  0.571280  0.146566  1
  Pt  Pt23  1  0.571382  0.141330  0.141330  1
