# generated using pymatgen
data_HfTa(Be4Tc)2
_symmetry_space_group_name_H-M   'P 1'
_cell_length_a   4.51762200
_cell_length_b   4.51762077
_cell_length_c   7.42844700
_cell_angle_alpha   90.00000000
_cell_angle_beta   90.00000000
_cell_angle_gamma   120.00000898
_symmetry_Int_Tables_number   1
_chemical_formula_structural   HfTa(Be4Tc)2
_chemical_formula_sum   'Hf1 Ta1 Be8 Tc2'
_cell_volume   131.29502883
_cell_formula_units_Z   1
loop_
 _symmetry_equiv_pos_site_id
 _symmetry_equiv_pos_as_xyz
  1  'x, y, z'
loop_
 _atom_site_type_symbol
 _atom_site_label
 _atom_site_symmetry_multiplicity
 _atom_site_fract_x
 _atom_site_fract_y
 _atom_site_fract_z
 _atom_site_occupancy
  Hf  Hf0  1  0.333333  0.666667  0.065018  1
  Ta  Ta1  1  0.666667  0.333333  0.564712  1
  Be  Be2  1  0.000000  0.000000  0.996169  1
  Be  Be3  1  0.000000  0.000000  0.497772  1
  Be  Be4  1  0.830511  0.661021  0.254243  1
  Be  Be5  1  0.168722  0.831278  0.747975  1
  Be  Be6  1  0.662555  0.831278  0.747975  1
  Be  Be7  1  0.338979  0.169489  0.254243  1
  Be  Be8  1  0.830511  0.169489  0.254243  1
  Be  Be9  1  0.168722  0.337445  0.747975  1
  Tc  Tc10  1  0.666667  0.333333  0.928903  1
  Tc  Tc11  1  0.333333  0.666667  0.440773  1
