# generated using pymatgen
data_TbTh3(Ga3Rh)6
_symmetry_space_group_name_H-M   'P 1'
_cell_length_a   7.67957769
_cell_length_b   7.68657980
_cell_length_c   9.53096000
_cell_angle_alpha   90.00000000
_cell_angle_beta   90.00000000
_cell_angle_gamma   119.66086833
_symmetry_Int_Tables_number   1
_chemical_formula_structural   TbTh3(Ga3Rh)6
_chemical_formula_sum   'Tb1 Th3 Ga18 Rh6'
_cell_volume   488.89067960
_cell_formula_units_Z   1
loop_
 _symmetry_equiv_pos_site_id
 _symmetry_equiv_pos_as_xyz
  1  'x, y, z'
loop_
 _atom_site_type_symbol
 _atom_site_label
 _atom_site_symmetry_multiplicity
 _atom_site_fract_x
 _atom_site_fract_y
 _atom_site_fract_z
 _atom_site_occupancy
  Tb  Tb0  1  0.328518  0.004594  0.750000  1
  Th  Th1  1  0.996358  0.670746  0.250000  1
  Th  Th2  1  0.002725  0.329385  0.750000  1
  Th  Th3  1  0.670552  0.996010  0.250000  1
  Ga  Ga4  1  0.135267  0.133106  0.250000  1
  Ga  Ga5  1  0.870581  0.869028  0.750000  1
  Ga  Ga6  1  0.004640  0.335494  0.078881  1
  Ga  Ga7  1  0.001609  0.669868  0.918140  1
  Ga  Ga8  1  0.001609  0.669868  0.581860  1
  Ga  Ga9  1  0.335234  0.003247  0.426471  1
  Ga  Ga10  1  0.004640  0.335494  0.421119  1
  Ga  Ga11  1  0.659387  0.996434  0.581778  1
  Ga  Ga12  1  0.659387  0.996434  0.918222  1
  Ga  Ga13  1  0.335234  0.003247  0.073529  1
  Ga  Ga14  1  0.335431  0.331333  0.560452  1
  Ga  Ga15  1  0.663818  0.663755  0.445562  1
  Ga  Ga16  1  0.663818  0.663755  0.054438  1
  Ga  Ga17  1  0.335431  0.331333  0.939548  1
  Ga  Ga18  1  0.342595  0.544596  0.250000  1
  Ga  Ga19  1  0.655557  0.449958  0.750000  1
  Ga  Ga20  1  0.544093  0.340138  0.250000  1
  Ga  Ga21  1  0.453493  0.661185  0.750000  1
  Rh  Rh22  1  0.674954  0.329761  0.000512  1
  Rh  Rh23  1  0.327404  0.670660  0.000539  1
  Rh  Rh24  1  0.327404  0.670660  0.499461  1
  Rh  Rh25  1  0.674954  0.329761  0.499488  1
  Rh  Rh26  1  0.997654  0.000074  0.000908  1
  Rh  Rh27  1  0.997654  0.000074  0.499092  1
