# generated using pymatgen
data_TbNd3(ZrPt)4
_symmetry_space_group_name_H-M   'P 1'
_cell_length_a   4.70323600
_cell_length_b   7.52034567
_cell_length_c   8.18873200
_cell_angle_alpha   90.60429433
_cell_angle_beta   90.00000000
_cell_angle_gamma   90.00000000
_symmetry_Int_Tables_number   1
_chemical_formula_structural   TbNd3(ZrPt)4
_chemical_formula_sum   'Tb1 Nd3 Zr4 Pt4'
_cell_volume   289.61901829
_cell_formula_units_Z   1
loop_
 _symmetry_equiv_pos_site_id
 _symmetry_equiv_pos_as_xyz
  1  'x, y, z'
loop_
 _atom_site_type_symbol
 _atom_site_label
 _atom_site_symmetry_multiplicity
 _atom_site_fract_x
 _atom_site_fract_y
 _atom_site_fract_z
 _atom_site_occupancy
  Tb  Tb0  1  0.750000  0.024568  0.677584  1
  Nd  Nd1  1  0.750000  0.523106  0.825073  1
  Nd  Nd2  1  0.250000  0.980641  0.326894  1
  Nd  Nd3  1  0.250000  0.476072  0.172556  1
  Zr  Zr4  1  0.750000  0.644675  0.420579  1
  Zr  Zr5  1  0.250000  0.356742  0.581380  1
  Zr  Zr6  1  0.750000  0.142993  0.078345  1
  Zr  Zr7  1  0.250000  0.855421  0.917225  1
  Pt  Pt8  1  0.250000  0.719587  0.592324  1
  Pt  Pt9  1  0.250000  0.210344  0.900987  1
  Pt  Pt10  1  0.750000  0.785387  0.094288  1
  Pt  Pt11  1  0.750000  0.280463  0.412767  1
