# generated using pymatgen
data_KNd2Br7
_symmetry_space_group_name_H-M   'P 1'
_cell_length_a   13.87408700
_cell_length_b   7.61367096
_cell_length_c   14.51917100
_cell_angle_alpha   89.20605436
_cell_angle_beta   90.00000000
_cell_angle_gamma   90.00000000
_symmetry_Int_Tables_number   1
_chemical_formula_structural   KNd2Br7
_chemical_formula_sum   'K4 Nd8 Br28'
_cell_volume   1533.55247305
_cell_formula_units_Z   4
loop_
 _symmetry_equiv_pos_site_id
 _symmetry_equiv_pos_as_xyz
  1  'x, y, z'
loop_
 _atom_site_type_symbol
 _atom_site_label
 _atom_site_symmetry_multiplicity
 _atom_site_fract_x
 _atom_site_fract_y
 _atom_site_fract_z
 _atom_site_occupancy
  K  K0  1  0.201717  0.731912  0.037680  1
  K  K1  1  0.798283  0.268088  0.962320  1
  K  K2  1  0.701717  0.268088  0.462320  1
  K  K3  1  0.298283  0.731912  0.537680  1
  Nd  Nd4  1  0.537234  0.778827  0.237189  1
  Nd  Nd5  1  0.462766  0.221173  0.762811  1
  Nd  Nd6  1  0.037234  0.221173  0.262811  1
  Nd  Nd7  1  0.962766  0.778827  0.737189  1
  Nd  Nd8  1  0.839229  0.725739  0.247896  1
  Nd  Nd9  1  0.160771  0.274261  0.752104  1
  Nd  Nd10  1  0.339229  0.274261  0.252104  1
  Nd  Nd11  1  0.660771  0.725739  0.747896  1
  Br  Br12  1  0.973514  0.943651  0.132871  1
  Br  Br13  1  0.026486  0.056349  0.867129  1
  Br  Br14  1  0.473514  0.056349  0.367129  1
  Br  Br15  1  0.526486  0.943651  0.632871  1
  Br  Br16  1  0.685016  0.741863  0.392728  1
  Br  Br17  1  0.314984  0.258137  0.607272  1
  Br  Br18  1  0.185016  0.258137  0.107272  1
  Br  Br19  1  0.814984  0.741863  0.892728  1
  Br  Br20  1  0.677523  0.514653  0.172431  1
  Br  Br21  1  0.322477  0.485347  0.827569  1
  Br  Br22  1  0.177523  0.485347  0.327569  1
  Br  Br23  1  0.822477  0.514653  0.672431  1
  Br  Br24  1  0.925636  0.974356  0.380180  1
  Br  Br25  1  0.074364  0.025644  0.619820  1
  Br  Br26  1  0.425636  0.025644  0.119820  1
  Br  Br27  1  0.574364  0.974356  0.880180  1
  Br  Br28  1  0.940715  0.463166  0.129010  1
  Br  Br29  1  0.059285  0.536834  0.870990  1
  Br  Br30  1  0.440715  0.536834  0.370990  1
  Br  Br31  1  0.559285  0.463166  0.629010  1
  Br  Br32  1  0.703124  0.998601  0.175456  1
  Br  Br33  1  0.296876  0.001399  0.824544  1
  Br  Br34  1  0.203124  0.001399  0.324544  1
  Br  Br35  1  0.796876  0.998601  0.675456  1
  Br  Br36  1  0.912432  0.454020  0.379153  1
  Br  Br37  1  0.087568  0.545980  0.620847  1
  Br  Br38  1  0.412432  0.545980  0.120847  1
  Br  Br39  1  0.587568  0.454020  0.879153  1
