# generated using pymatgen
data_LiCa3Cd2SnPb2
_symmetry_space_group_name_H-M   'P 1'
_cell_length_a   7.67547163
_cell_length_b   7.71701357
_cell_length_c   4.78868800
_cell_angle_alpha   90.00000000
_cell_angle_beta   90.00000000
_cell_angle_gamma   120.09203002
_symmetry_Int_Tables_number   1
_chemical_formula_structural   LiCa3Cd2SnPb2
_chemical_formula_sum   'Li1 Ca3 Cd2 Sn1 Pb2'
_cell_volume   245.41325484
_cell_formula_units_Z   1
loop_
 _symmetry_equiv_pos_site_id
 _symmetry_equiv_pos_as_xyz
  1  'x, y, z'
loop_
 _atom_site_type_symbol
 _atom_site_label
 _atom_site_symmetry_multiplicity
 _atom_site_fract_x
 _atom_site_fract_y
 _atom_site_fract_z
 _atom_site_occupancy
  Li  Li0  1  0.233698  0.996168  0.000000  1
  Ca  Ca1  1  0.000977  0.563985  0.500000  1
  Ca  Ca2  1  0.568595  0.996339  0.500000  1
  Ca  Ca3  1  0.434200  0.440390  0.500000  1
  Cd  Cd4  1  0.753243  0.758420  0.000000  1
  Cd  Cd5  1  0.004574  0.247052  0.000000  1
  Sn  Sn6  1  0.331874  0.674998  0.000000  1
  Pb  Pb7  1  0.019524  0.999938  0.500000  1
  Pb  Pb8  1  0.653312  0.322710  0.000000  1
