# generated using pymatgen
data_CaMgSc3Ni9As7
_symmetry_space_group_name_H-M   'P 1'
_cell_length_a   3.85596000
_cell_length_b   9.67262638
_cell_length_c   9.71722100
_cell_angle_alpha   120.15355602
_cell_angle_beta   90.00000000
_cell_angle_gamma   90.00000000
_symmetry_Int_Tables_number   1
_chemical_formula_structural   CaMgSc3Ni9As7
_chemical_formula_sum   'Ca1 Mg1 Sc3 Ni9 As7'
_cell_volume   313.38309481
_cell_formula_units_Z   1
loop_
 _symmetry_equiv_pos_site_id
 _symmetry_equiv_pos_as_xyz
  1  'x, y, z'
loop_
 _atom_site_type_symbol
 _atom_site_label
 _atom_site_symmetry_multiplicity
 _atom_site_fract_x
 _atom_site_fract_y
 _atom_site_fract_z
 _atom_site_occupancy
  Ca  Ca0  1  0.500000  0.333422  0.667594  1
  Mg  Mg1  1  0.500000  0.768089  0.888228  1
  Sc  Sc2  1  0.500000  0.118927  0.229231  1
  Sc  Sc3  1  0.500000  0.106792  0.879106  1
  Sc  Sc4  1  0.000000  0.667909  0.331116  1
  Ni  Ni5  1  0.000000  0.580185  0.937939  1
  Ni  Ni6  1  0.000000  0.361919  0.421615  1
  Ni  Ni7  1  0.000000  0.061408  0.641564  1
  Ni  Ni8  1  0.000000  0.871279  0.159700  1
  Ni  Ni9  1  0.000000  0.289415  0.129389  1
  Ni  Ni10  1  0.000000  0.838660  0.711801  1
  Ni  Ni11  1  0.500000  0.943501  0.386755  1
  Ni  Ni12  1  0.500000  0.442915  0.056069  1
  Ni  Ni13  1  0.500000  0.612984  0.558919  1
  As  As14  1  0.500000  0.711018  0.131664  1
  As  As15  1  0.500000  0.424481  0.290109  1
  As  As16  1  0.500000  0.865628  0.575160  1
  As  As17  1  0.000000  0.000510  0.000732  1
  As  As18  1  0.000000  0.576878  0.685353  1
  As  As19  1  0.000000  0.106991  0.423762  1
  As  As20  1  0.000000  0.317089  0.894193  1
