# generated using pymatgen
data_HoEr7Ga12CoNi3
_symmetry_space_group_name_H-M   'P 1'
_cell_length_a   6.96911300
_cell_length_b   8.71081828
_cell_length_c   8.71081800
_cell_angle_alpha   119.99999893
_cell_angle_beta   90.00000000
_cell_angle_gamma   90.00000000
_symmetry_Int_Tables_number   1
_chemical_formula_structural   HoEr7Ga12CoNi3
_chemical_formula_sum   'Ho1 Er7 Ga12 Co1 Ni3'
_cell_volume   457.95840753
_cell_formula_units_Z   1
loop_
 _symmetry_equiv_pos_site_id
 _symmetry_equiv_pos_as_xyz
  1  'x, y, z'
loop_
 _atom_site_type_symbol
 _atom_site_label
 _atom_site_symmetry_multiplicity
 _atom_site_fract_x
 _atom_site_fract_y
 _atom_site_fract_z
 _atom_site_occupancy
  Ho  Ho0  1  0.748263  0.000000  0.000000  1
  Er  Er1  1  0.249863  0.000000  0.000000  1
  Er  Er2  1  0.750219  0.478202  0.521798  1
  Er  Er3  1  0.253022  0.525055  0.474945  1
  Er  Er4  1  0.750219  0.043597  0.521798  1
  Er  Er5  1  0.253022  0.949889  0.474945  1
  Er  Er6  1  0.750219  0.478202  0.956403  1
  Er  Er7  1  0.253022  0.525055  0.050111  1
  Ga  Ga8  1  0.954505  0.828835  0.171165  1
  Ga  Ga9  1  0.047155  0.171720  0.828280  1
  Ga  Ga10  1  0.954505  0.342331  0.171165  1
  Ga  Ga11  1  0.454413  0.171310  0.828690  1
  Ga  Ga12  1  0.047155  0.656558  0.828280  1
  Ga  Ga13  1  0.545480  0.827349  0.172651  1
  Ga  Ga14  1  0.954505  0.828835  0.657669  1
  Ga  Ga15  1  0.454413  0.657378  0.828690  1
  Ga  Ga16  1  0.047155  0.171720  0.343442  1
  Ga  Ga17  1  0.545480  0.345303  0.172651  1
  Ga  Ga18  1  0.454413  0.171310  0.342622  1
  Ga  Ga19  1  0.545480  0.827349  0.654697  1
  Co  Co20  1  0.517083  0.666667  0.333333  1
  Ni  Ni21  1  0.969508  0.666667  0.333333  1
  Ni  Ni22  1  0.028591  0.333333  0.666667  1
  Ni  Ni23  1  0.472305  0.333333  0.666667  1
