# generated using pymatgen
data_Zr6AlSi5Ru6
_symmetry_space_group_name_H-M   'P 1'
_cell_length_a   7.69289394
_cell_length_b   7.71261782
_cell_length_c   7.69289333
_cell_angle_alpha   127.96200434
_cell_angle_beta   122.29070825
_cell_angle_gamma   81.34147796
_symmetry_Int_Tables_number   1
_chemical_formula_structural   Zr6AlSi5Ru6
_chemical_formula_sum   'Zr6 Al1 Si5 Ru6'
_cell_volume   293.15146167
_cell_formula_units_Z   1
loop_
 _symmetry_equiv_pos_site_id
 _symmetry_equiv_pos_as_xyz
  1  'x, y, z'
loop_
 _atom_site_type_symbol
 _atom_site_label
 _atom_site_symmetry_multiplicity
 _atom_site_fract_x
 _atom_site_fract_y
 _atom_site_fract_z
 _atom_site_occupancy
  Zr  Zr0  1  0.462681  0.682853  0.720173  1
  Zr  Zr1  1  0.532864  0.254306  0.221442  1
  Zr  Zr2  1  0.748008  0.836188  0.588179  1
  Zr  Zr3  1  0.250848  0.830490  0.079641  1
  Zr  Zr4  1  0.049508  0.253741  0.704231  1
  Zr  Zr5  1  0.955330  0.663639  0.208309  1
  Al  Al6  1  0.263752  0.260408  0.496657  1
  Si  Si7  1  0.738261  0.243375  0.005114  1
  Si  Si8  1  0.330136  0.586140  0.250923  1
  Si  Si9  1  0.670330  0.921416  0.258458  1
  Si  Si10  1  0.162959  0.921416  0.751086  1
  Si  Si11  1  0.835215  0.586140  0.756002  1
  Ru  Ru12  1  0.508354  0.500918  0.009470  1
  Ru  Ru13  1  0.991449  0.500918  0.492565  1
  Ru  Ru14  1  0.099137  0.253163  0.104210  1
  Ru  Ru15  1  0.879054  0.005662  0.132504  1
  Ru  Ru16  1  0.373160  0.005662  0.626608  1
  Ru  Ru17  1  0.648953  0.253163  0.654026  1
