# generated using pymatgen
data_Ho2Tm3InBi2
_symmetry_space_group_name_H-M   'P 1'
_cell_length_a   6.48318800
_cell_length_b   9.01057522
_cell_length_c   9.00246198
_cell_angle_alpha   120.02981413
_cell_angle_beta   89.99995082
_cell_angle_gamma   90.00007808
_symmetry_Int_Tables_number   1
_chemical_formula_structural   Ho2Tm3InBi2
_chemical_formula_sum   'Ho4 Tm6 In2 Bi4'
_cell_volume   455.30509181
_cell_formula_units_Z   2
loop_
 _symmetry_equiv_pos_site_id
 _symmetry_equiv_pos_as_xyz
  1  'x, y, z'
loop_
 _atom_site_type_symbol
 _atom_site_label
 _atom_site_symmetry_multiplicity
 _atom_site_fract_x
 _atom_site_fract_y
 _atom_site_fract_z
 _atom_site_occupancy
  Ho  Ho0  1  0.750002  0.236693  0.000000  1
  Ho  Ho1  1  0.749999  0.764597  0.762204  1
  Ho  Ho2  1  0.749999  0.002392  0.237796  1
  Ho  Ho3  1  0.250005  0.766882  0.000000  1
  Tm  Tm4  1  0.496895  0.331712  0.659961  1
  Tm  Tm5  1  0.496895  0.671751  0.340039  1
  Tm  Tm6  1  0.003105  0.671755  0.340041  1
  Tm  Tm7  1  0.003105  0.331713  0.659959  1
  Tm  Tm8  1  0.250002  0.233692  0.243161  1
  Tm  Tm9  1  0.250002  0.990532  0.756839  1
  In  In10  1  0.249990  0.603403  0.604818  1
  In  In11  1  0.249990  0.998584  0.395182  1
  Bi  Bi12  1  0.750001  0.605925  0.000000  1
  Bi  Bi13  1  0.750001  0.397194  0.393697  1
  Bi  Bi14  1  0.750001  0.003498  0.606303  1
  Bi  Bi15  1  0.250005  0.389678  0.000000  1
