# generated using pymatgen
data_Nd2Co17Si8Ni
_symmetry_space_group_name_H-M   'P 1'
_cell_length_a   7.96210482
_cell_length_b   7.93531193
_cell_length_c   7.94493113
_cell_angle_alpha   121.46002371
_cell_angle_beta   121.56825282
_cell_angle_gamma   87.42536915
_symmetry_Int_Tables_number   1
_chemical_formula_structural   Nd2Co17Si8Ni
_chemical_formula_sum   'Nd2 Co17 Si8 Ni1'
_cell_volume   346.35500160
_cell_formula_units_Z   1
loop_
 _symmetry_equiv_pos_site_id
 _symmetry_equiv_pos_as_xyz
  1  'x, y, z'
loop_
 _atom_site_type_symbol
 _atom_site_label
 _atom_site_symmetry_multiplicity
 _atom_site_fract_x
 _atom_site_fract_y
 _atom_site_fract_z
 _atom_site_occupancy
  Nd  Nd0  1  0.750037  0.749905  0.000865  1
  Nd  Nd1  1  0.249172  0.249040  0.999135  1
  Co  Co2  1  0.449313  0.949888  0.759807  1
  Co  Co3  1  0.189507  0.690082  0.240193  1
  Co  Co4  1  0.550953  0.051297  0.240427  1
  Co  Co5  1  0.951804  0.188914  0.500000  1
  Co  Co6  1  0.199029  0.930708  0.128865  1
  Co  Co7  1  0.800893  0.069003  0.869201  1
  Co  Co8  1  0.431692  0.699802  0.130799  1
  Co  Co9  1  0.570163  0.301843  0.871135  1
  Co  Co10  1  0.698344  0.569138  0.268712  1
  Co  Co11  1  0.301816  0.431036  0.732169  1
  Co  Co12  1  0.929632  0.800426  0.731288  1
  Co  Co13  1  0.307882  0.550641  0.500000  1
  Co  Co14  1  0.810526  0.310871  0.759573  1
  Co  Co15  1  0.999578  0.499740  0.500000  1
  Co  Co16  1  0.500214  0.001143  0.500000  1
  Co  Co17  1  0.069647  0.198867  0.267831  1
  Co  Co18  1  0.049413  0.809925  0.500000  1
  Si  Si19  1  0.290327  0.790513  0.837068  1
  Si  Si20  1  0.050077  0.546079  0.838402  1
  Si  Si21  1  0.544733  0.711192  0.500000  1
  Si  Si22  1  0.790242  0.953813  0.500000  1
  Si  Si23  1  0.451220  0.290091  0.500000  1
  Si  Si24  1  0.953259  0.453445  0.162932  1
  Si  Si25  1  0.711674  0.207676  0.161598  1
  Si  Si26  1  0.210098  0.046082  0.500000  1
  Ni  Ni27  1  0.688755  0.448839  0.500000  1
