# generated using pymatgen
data_Er8Hf3Sc9Ga16
_symmetry_space_group_name_H-M   'P 1'
_cell_length_a   7.20073769
_cell_length_b   7.51971102
_cell_length_c   14.38945034
_cell_angle_alpha   90.00434322
_cell_angle_beta   90.04944124
_cell_angle_gamma   89.99248668
_symmetry_Int_Tables_number   1
_chemical_formula_structural   Er8Hf3Sc9Ga16
_chemical_formula_sum   'Er8 Hf3 Sc9 Ga16'
_cell_volume   779.15198230
_cell_formula_units_Z   1
loop_
 _symmetry_equiv_pos_site_id
 _symmetry_equiv_pos_as_xyz
  1  'x, y, z'
loop_
 _atom_site_type_symbol
 _atom_site_label
 _atom_site_symmetry_multiplicity
 _atom_site_fract_x
 _atom_site_fract_y
 _atom_site_fract_z
 _atom_site_occupancy
  Er  Er0  1  0.010820  0.179263  0.093588  1
  Er  Er1  1  0.989410  0.820141  0.906130  1
  Er  Er2  1  0.489498  0.679168  0.905983  1
  Er  Er3  1  0.989489  0.821506  0.593523  1
  Er  Er4  1  0.510741  0.320802  0.093602  1
  Er  Er5  1  0.010660  0.178368  0.406321  1
  Er  Er6  1  0.510156  0.322403  0.406025  1
  Er  Er7  1  0.489387  0.678444  0.593868  1
  Hf  Hf8  1  0.329546  0.173267  0.624616  1
  Hf  Hf9  1  0.671112  0.825151  0.376406  1
  Hf  Hf10  1  0.170851  0.674129  0.376592  1
  Sc  Sc11  1  0.163077  0.504417  0.750460  1
  Sc  Sc12  1  0.837499  0.495553  0.249351  1
  Sc  Sc13  1  0.337322  0.004177  0.249592  1
  Sc  Sc14  1  0.662567  0.995749  0.750377  1
  Sc  Sc15  1  0.670649  0.828328  0.123620  1
  Sc  Sc16  1  0.828412  0.326388  0.623505  1
  Sc  Sc17  1  0.329589  0.172137  0.875858  1
  Sc  Sc18  1  0.828885  0.328230  0.876311  1
  Sc  Sc19  1  0.170668  0.671928  0.123652  1
  Ga  Ga20  1  0.031967  0.116698  0.748569  1
  Ga  Ga21  1  0.968724  0.881956  0.251945  1
  Ga  Ga22  1  0.468742  0.617838  0.251974  1
  Ga  Ga23  1  0.530302  0.382589  0.748830  1
  Ga  Ga24  1  0.284442  0.871422  0.748282  1
  Ga  Ga25  1  0.715868  0.128088  0.251634  1
  Ga  Ga26  1  0.215780  0.371753  0.251666  1
  Ga  Ga27  1  0.783705  0.629940  0.749159  1
  Ga  Ga28  1  0.164052  0.464064  0.539907  1
  Ga  Ga29  1  0.838305  0.537837  0.458316  1
  Ga  Ga30  1  0.337600  0.963312  0.459508  1
  Ga  Ga31  1  0.838070  0.535247  0.041149  1
  Ga  Ga32  1  0.660053  0.034982  0.540103  1
  Ga  Ga33  1  0.162484  0.464796  0.959244  1
  Ga  Ga34  1  0.661672  0.035300  0.959152  1
  Ga  Ga35  1  0.337896  0.964626  0.041184  1
