# generated using pymatgen
data_Rb8MnFe3S4(O4F3)4
_symmetry_space_group_name_H-M   'P 1'
_cell_length_a   11.36641800
_cell_length_b   7.48220557
_cell_length_c   8.94543000
_cell_angle_alpha   86.77934547
_cell_angle_beta   90.00000000
_cell_angle_gamma   90.00000000
_symmetry_Int_Tables_number   1
_chemical_formula_structural   Rb8MnFe3S4(O4F3)4
_chemical_formula_sum   'Rb8 Mn1 Fe3 S4 O16 F12'
_cell_volume   759.57035024
_cell_formula_units_Z   1
loop_
 _symmetry_equiv_pos_site_id
 _symmetry_equiv_pos_as_xyz
  1  'x, y, z'
loop_
 _atom_site_type_symbol
 _atom_site_label
 _atom_site_symmetry_multiplicity
 _atom_site_fract_x
 _atom_site_fract_y
 _atom_site_fract_z
 _atom_site_occupancy
  Rb  Rb0  1  0.190166  0.302457  0.669213  1
  Rb  Rb1  1  0.690733  0.697185  0.829671  1
  Rb  Rb2  1  0.809834  0.697543  0.330787  1
  Rb  Rb3  1  0.309267  0.302815  0.170329  1
  Rb  Rb4  1  0.305765  0.809357  0.833448  1
  Rb  Rb5  1  0.806673  0.192983  0.668749  1
  Rb  Rb6  1  0.694235  0.190643  0.166552  1
  Rb  Rb7  1  0.193327  0.807017  0.331251  1
  Mn  Mn8  1  0.000000  0.500000  0.000000  1
  Fe  Fe9  1  0.500000  0.000000  0.500000  1
  Fe  Fe10  1  0.000000  0.000000  0.000000  1
  Fe  Fe11  1  0.500000  0.500000  0.500000  1
  S  S12  1  0.498863  0.240194  0.800132  1
  S  S13  1  0.999789  0.754726  0.702345  1
  S  S14  1  0.501137  0.759806  0.199868  1
  S  S15  1  0.000211  0.245274  0.297655  1
  O  O16  1  0.404604  0.164357  0.895883  1
  O  O17  1  0.904259  0.830024  0.608312  1
  O  O18  1  0.595396  0.835643  0.104117  1
  O  O19  1  0.095741  0.169976  0.391688  1
  O  O20  1  0.596787  0.314025  0.884033  1
  O  O21  1  0.096054  0.678689  0.617135  1
  O  O22  1  0.403213  0.685975  0.115967  1
  O  O23  1  0.903946  0.321311  0.382865  1
  O  O24  1  0.444026  0.387114  0.697724  1
  O  O25  1  0.943402  0.607856  0.805673  1
  O  O26  1  0.555974  0.612886  0.302276  1
  O  O27  1  0.056598  0.392144  0.194327  1
  O  O28  1  0.050463  0.894891  0.799597  1
  O  O29  1  0.548081  0.097298  0.702429  1
  O  O30  1  0.949537  0.105109  0.200403  1
  O  O31  1  0.451919  0.902702  0.297571  1
  F  F32  1  0.338282  0.521131  0.443484  1
  F  F33  1  0.841730  0.477820  0.056054  1
  F  F34  1  0.661718  0.478869  0.556516  1
  F  F35  1  0.158270  0.522180  0.943946  1
  F  F36  1  0.163818  0.023250  0.047376  1
  F  F37  1  0.662986  0.979724  0.453029  1
  F  F38  1  0.836182  0.976750  0.952624  1
  F  F39  1  0.337014  0.020276  0.546971  1
  F  F40  1  0.001039  0.758537  0.104089  1
  F  F41  1  0.502264  0.254381  0.406526  1
  F  F42  1  0.998961  0.241463  0.895911  1
  F  F43  1  0.497736  0.745619  0.593474  1
