# generated using pymatgen
data_Tb3Ce(Lu3Si4)2
_symmetry_space_group_name_H-M   'P 1'
_cell_length_a   7.58642054
_cell_length_b   7.58411199
_cell_length_c   13.88662100
_cell_angle_alpha   90.00000000
_cell_angle_beta   90.00000000
_cell_angle_gamma   90.06309038
_symmetry_Int_Tables_number   1
_chemical_formula_structural   Tb3Ce(Lu3Si4)2
_chemical_formula_sum   'Tb6 Ce2 Lu12 Si16'
_cell_volume   798.98379310
_cell_formula_units_Z   2
loop_
 _symmetry_equiv_pos_site_id
 _symmetry_equiv_pos_as_xyz
  1  'x, y, z'
loop_
 _atom_site_type_symbol
 _atom_site_label
 _atom_site_symmetry_multiplicity
 _atom_site_fract_x
 _atom_site_fract_y
 _atom_site_fract_z
 _atom_site_occupancy
  Tb  Tb0  1  0.148065  0.495951  0.462589  1
  Tb  Tb1  1  0.504182  0.853821  0.038536  1
  Tb  Tb2  1  0.851935  0.504049  0.962589  1
  Tb  Tb3  1  0.495818  0.146179  0.538536  1
  Tb  Tb4  1  0.352642  0.994615  0.788929  1
  Tb  Tb5  1  0.647358  0.005385  0.288929  1
  Ce  Ce6  1  0.995473  0.352406  0.209840  1
  Ce  Ce7  1  0.004527  0.647594  0.709840  1
  Lu  Lu8  1  0.178452  0.177510  0.000500  1
  Lu  Lu9  1  0.821548  0.822490  0.500500  1
  Lu  Lu10  1  0.320296  0.679641  0.250156  1
  Lu  Lu11  1  0.679704  0.320359  0.750156  1
  Lu  Lu12  1  0.144509  0.007321  0.377038  1
  Lu  Lu13  1  0.855491  0.992679  0.877038  1
  Lu  Lu14  1  0.495792  0.644215  0.626029  1
  Lu  Lu15  1  0.356530  0.503653  0.873674  1
  Lu  Lu16  1  0.504208  0.355785  0.126029  1
  Lu  Lu17  1  0.643470  0.496347  0.373674  1
  Lu  Lu18  1  0.006297  0.144882  0.623285  1
  Lu  Lu19  1  0.993703  0.855118  0.123285  1
  Si  Si20  1  0.352803  0.295547  0.316764  1
  Si  Si21  1  0.647197  0.704453  0.816764  1
  Si  Si22  1  0.206218  0.854320  0.566164  1
  Si  Si23  1  0.147852  0.794187  0.933499  1
  Si  Si24  1  0.793782  0.145680  0.066164  1
  Si  Si25  1  0.852148  0.205813  0.433499  1
  Si  Si26  1  0.295160  0.352572  0.682903  1
  Si  Si27  1  0.704840  0.647428  0.182903  1
  Si  Si28  1  0.294796  0.054582  0.187715  1
  Si  Si29  1  0.705204  0.945418  0.687715  1
  Si  Si30  1  0.445667  0.795487  0.436766  1
  Si  Si31  1  0.206388  0.556469  0.062297  1
  Si  Si32  1  0.554333  0.204513  0.936766  1
  Si  Si33  1  0.793612  0.443531  0.562297  1
  Si  Si34  1  0.055547  0.294275  0.813315  1
  Si  Si35  1  0.944453  0.705725  0.313315  1
