# generated using pymatgen
data_Er4Al18IrPd2Rh3
_symmetry_space_group_name_H-M   'P 1'
_cell_length_a   7.57479293
_cell_length_b   7.57495555
_cell_length_c   9.43788004
_cell_angle_alpha   89.99457097
_cell_angle_beta   89.99476405
_cell_angle_gamma   119.57668621
_symmetry_Int_Tables_number   1
_chemical_formula_structural   Er4Al18IrPd2Rh3
_chemical_formula_sum   'Er4 Al18 Ir1 Pd2 Rh3'
_cell_volume   470.96940324
_cell_formula_units_Z   1
loop_
 _symmetry_equiv_pos_site_id
 _symmetry_equiv_pos_as_xyz
  1  'x, y, z'
loop_
 _atom_site_type_symbol
 _atom_site_label
 _atom_site_symmetry_multiplicity
 _atom_site_fract_x
 _atom_site_fract_y
 _atom_site_fract_z
 _atom_site_occupancy
  Er  Er0  1  0.995415  0.671522  0.250152  1
  Er  Er1  1  0.004004  0.327803  0.749696  1
  Er  Er2  1  0.672208  0.996004  0.250312  1
  Er  Er3  1  0.328499  0.004635  0.749852  1
  Al  Al4  1  0.131320  0.131363  0.249956  1
  Al  Al5  1  0.868640  0.868685  0.750046  1
  Al  Al6  1  0.000349  0.338824  0.076413  1
  Al  Al7  1  0.000188  0.661292  0.923457  1
  Al  Al8  1  0.000232  0.661457  0.576739  1
  Al  Al9  1  0.338539  0.999777  0.423267  1
  Al  Al10  1  0.001196  0.339006  0.423238  1
  Al  Al11  1  0.660995  0.998809  0.576766  1
  Al  Al12  1  0.661183  0.999654  0.923578  1
  Al  Al13  1  0.338704  0.999808  0.076539  1
  Al  Al14  1  0.336432  0.336685  0.555034  1
  Al  Al15  1  0.663309  0.663572  0.444967  1
  Al  Al16  1  0.663443  0.663557  0.055117  1
  Al  Al17  1  0.336439  0.336549  0.944883  1
  Al  Al18  1  0.338370  0.550362  0.249859  1
  Al  Al19  1  0.661605  0.450748  0.750689  1
  Al  Al20  1  0.549257  0.338414  0.249310  1
  Al  Al21  1  0.449656  0.661633  0.750136  1
  Ir  Ir22  1  0.672255  0.327685  0.499997  1
  Pd  Pd23  1  0.999998  0.999979  0.000017  1
  Pd  Pd24  1  0.999974  0.999990  0.499986  1
  Rh  Rh25  1  0.672202  0.327809  0.999997  1
  Rh  Rh26  1  0.327843  0.672112  0.999976  1
  Rh  Rh27  1  0.327745  0.672266  0.500023  1
