# generated using pymatgen
data_LaEu2(B3Ir4)2
_symmetry_space_group_name_H-M   'P 1'
_cell_length_a   10.00647874
_cell_length_b   9.10605812
_cell_length_c   5.74230900
_cell_angle_alpha   81.32994112
_cell_angle_beta   64.10780659
_cell_angle_gamma   34.56225279
_symmetry_Int_Tables_number   1
_chemical_formula_structural   LaEu2(B3Ir4)2
_chemical_formula_sum   'La1 Eu2 B6 Ir8'
_cell_volume   243.64886999
_cell_formula_units_Z   1
loop_
 _symmetry_equiv_pos_site_id
 _symmetry_equiv_pos_as_xyz
  1  'x, y, z'
loop_
 _atom_site_type_symbol
 _atom_site_label
 _atom_site_symmetry_multiplicity
 _atom_site_fract_x
 _atom_site_fract_y
 _atom_site_fract_z
 _atom_site_occupancy
  La  La0  1  0.500000  0.500000  0.500000  1
  Eu  Eu1  1  0.317647  0.317647  0.682353  1
  Eu  Eu2  1  0.682353  0.682353  0.317647  1
  B  B3  1  0.833088  0.166912  0.833088  1
  B  B4  1  0.668633  0.987519  0.012481  1
  B  B5  1  0.987519  0.668633  0.331367  1
  B  B6  1  0.012481  0.331367  0.668633  1
  B  B7  1  0.331367  0.012481  0.987519  1
  B  B8  1  0.166912  0.833088  0.166912  1
  Ir  Ir9  1  0.914687  0.914687  0.585313  1
  Ir  Ir10  1  0.085313  0.085313  0.414687  1
  Ir  Ir11  1  0.750000  0.750000  0.750000  1
  Ir  Ir12  1  0.087787  0.087787  0.912213  1
  Ir  Ir13  1  0.912213  0.912213  0.087787  1
  Ir  Ir14  1  0.414687  0.414687  0.085313  1
  Ir  Ir15  1  0.585313  0.585313  0.914687  1
  Ir  Ir16  1  0.250000  0.250000  0.250000  1
