# generated using pymatgen
data_ErLu11Co5Bi
_symmetry_space_group_name_H-M   'P 1'
_cell_length_a   8.13919800
_cell_length_b   8.13300856
_cell_length_c   8.13919823
_cell_angle_alpha   111.08104396
_cell_angle_beta   111.17370350
_cell_angle_gamma   106.23640685
_symmetry_Int_Tables_number   1
_chemical_formula_structural   ErLu11Co5Bi
_chemical_formula_sum   'Er1 Lu11 Co5 Bi1'
_cell_volume   413.61400406
_cell_formula_units_Z   1
loop_
 _symmetry_equiv_pos_site_id
 _symmetry_equiv_pos_as_xyz
  1  'x, y, z'
loop_
 _atom_site_type_symbol
 _atom_site_label
 _atom_site_symmetry_multiplicity
 _atom_site_fract_x
 _atom_site_fract_y
 _atom_site_fract_z
 _atom_site_occupancy
  Er  Er0  1  0.789151  0.984119  0.194968  1
  Lu  Lu1  1  0.286604  0.184002  0.469447  1
  Lu  Lu2  1  0.715522  0.817067  0.533502  1
  Lu  Lu3  1  0.283565  0.817067  0.101545  1
  Lu  Lu4  1  0.714555  0.184002  0.897398  1
  Lu  Lu5  1  0.619770  0.311445  0.309333  1
  Lu  Lu6  1  0.379238  0.688297  0.689983  1
  Lu  Lu7  1  0.002112  0.311445  0.691674  1
  Lu  Lu8  1  0.998313  0.688297  0.309059  1
  Lu  Lu9  1  0.210787  0.406382  0.195596  1
  Lu  Lu10  1  0.788581  0.591921  0.803340  1
  Lu  Lu11  1  0.211215  0.015275  0.804060  1
  Co  Co12  1  0.000380  0.375291  0.374910  1
  Co  Co13  1  0.999726  0.625855  0.626129  1
  Co  Co14  1  0.387374  0.886907  0.499533  1
  Co  Co15  1  0.612264  0.113920  0.501656  1
  Co  Co16  1  0.001210  0.999240  0.998031  1
  Bi  Bi17  1  0.499633  0.499468  0.999835  1
