# generated using pymatgen
data_La8Al4In4Pt7Rh
_symmetry_space_group_name_H-M   'P 1'
_cell_length_a   4.30765200
_cell_length_b   7.59442916
_cell_length_c   16.95218683
_cell_angle_alpha   89.76733494
_cell_angle_beta   90.00000000
_cell_angle_gamma   90.00000000
_symmetry_Int_Tables_number   1
_chemical_formula_structural   La8Al4In4Pt7Rh
_chemical_formula_sum   'La8 Al4 In4 Pt7 Rh1'
_cell_volume   554.57194531
_cell_formula_units_Z   1
loop_
 _symmetry_equiv_pos_site_id
 _symmetry_equiv_pos_as_xyz
  1  'x, y, z'
loop_
 _atom_site_type_symbol
 _atom_site_label
 _atom_site_symmetry_multiplicity
 _atom_site_fract_x
 _atom_site_fract_y
 _atom_site_fract_z
 _atom_site_occupancy
  La  La0  1  0.250000  0.541671  0.781209  1
  La  La1  1  0.750000  0.457730  0.218594  1
  La  La2  1  0.750000  0.958643  0.282163  1
  La  La3  1  0.250000  0.045338  0.714641  1
  La  La4  1  0.250000  0.670744  0.559449  1
  La  La5  1  0.750000  0.330589  0.443283  1
  La  La6  1  0.750000  0.833816  0.058983  1
  La  La7  1  0.250000  0.166155  0.940796  1
  Al  Al8  1  0.250000  0.500796  0.062221  1
  Al  Al9  1  0.750000  0.499002  0.937885  1
  Al  Al10  1  0.750000  0.000750  0.561651  1
  Al  Al11  1  0.250000  0.002501  0.439330  1
  In  In12  1  0.250000  0.632773  0.350838  1
  In  In13  1  0.750000  0.366959  0.647676  1
  In  In14  1  0.750000  0.867230  0.850629  1
  In  In15  1  0.250000  0.133214  0.148954  1
  Pt  Pt16  1  0.250000  0.737293  0.177705  1
  Pt  Pt17  1  0.750000  0.263338  0.822366  1
  Pt  Pt18  1  0.750000  0.760341  0.678323  1
  Pt  Pt19  1  0.250000  0.238429  0.321617  1
  Pt  Pt20  1  0.250000  0.701660  0.937748  1
  Pt  Pt21  1  0.750000  0.297722  0.062251  1
  Pt  Pt22  1  0.750000  0.794908  0.436964  1
  Rh  Rh23  1  0.250000  0.198397  0.564724  1
