# generated using pymatgen
data_La10Pr6Cd4OsPt3
_symmetry_space_group_name_H-M   'P 1'
_cell_length_a   10.15481626
_cell_length_b   10.15481558
_cell_length_c   10.15481562
_cell_angle_alpha   59.71018134
_cell_angle_beta   59.71018421
_cell_angle_gamma   59.71018174
_symmetry_Int_Tables_number   1
_chemical_formula_structural   La10Pr6Cd4OsPt3
_chemical_formula_sum   'La10 Pr6 Cd4 Os1 Pt3'
_cell_volume   735.58496921
_cell_formula_units_Z   1
loop_
 _symmetry_equiv_pos_site_id
 _symmetry_equiv_pos_as_xyz
  1  'x, y, z'
loop_
 _atom_site_type_symbol
 _atom_site_label
 _atom_site_symmetry_multiplicity
 _atom_site_fract_x
 _atom_site_fract_y
 _atom_site_fract_z
 _atom_site_occupancy
  La  La0  1  0.350191  0.350191  0.350191  1
  La  La1  1  0.346413  0.346413  0.954796  1
  La  La2  1  0.346413  0.954796  0.346413  1
  La  La3  1  0.954796  0.346413  0.346413  1
  La  La4  1  0.816428  0.189427  0.189427  1
  La  La5  1  0.190992  0.806836  0.806836  1
  La  La6  1  0.189427  0.816428  0.189427  1
  La  La7  1  0.806836  0.190992  0.806836  1
  La  La8  1  0.189427  0.189427  0.816428  1
  La  La9  1  0.806836  0.806836  0.190992  1
  Pr  Pr10  1  0.936571  0.565102  0.565102  1
  Pr  Pr11  1  0.557901  0.937111  0.937111  1
  Pr  Pr12  1  0.565102  0.936571  0.565102  1
  Pr  Pr13  1  0.937111  0.557901  0.937111  1
  Pr  Pr14  1  0.565102  0.565102  0.936571  1
  Pr  Pr15  1  0.937111  0.937111  0.557901  1
  Cd  Cd16  1  0.579856  0.579856  0.579856  1
  Cd  Cd17  1  0.580192  0.580192  0.258619  1
  Cd  Cd18  1  0.580192  0.258619  0.580192  1
  Cd  Cd19  1  0.258619  0.580192  0.580192  1
  Os  Os20  1  0.142222  0.142222  0.142222  1
  Pt  Pt21  1  0.144072  0.144072  0.574122  1
  Pt  Pt22  1  0.144072  0.574122  0.144072  1
  Pt  Pt23  1  0.574122  0.144072  0.144072  1
