# generated using pymatgen
data_AcPr3Rh4F28
_symmetry_space_group_name_H-M   'P 1'
_cell_length_a   5.72384617
_cell_length_b   9.29409064
_cell_length_c   12.39853393
_cell_angle_alpha   62.03086021
_cell_angle_beta   89.93769487
_cell_angle_gamma   89.93863106
_symmetry_Int_Tables_number   1
_chemical_formula_structural   AcPr3Rh4F28
_chemical_formula_sum   'Ac1 Pr3 Rh4 F28'
_cell_volume   582.53774320
_cell_formula_units_Z   1
loop_
 _symmetry_equiv_pos_site_id
 _symmetry_equiv_pos_as_xyz
  1  'x, y, z'
loop_
 _atom_site_type_symbol
 _atom_site_label
 _atom_site_symmetry_multiplicity
 _atom_site_fract_x
 _atom_site_fract_y
 _atom_site_fract_z
 _atom_site_occupancy
  Ac  Ac0  1  0.760265  0.811064  0.765114  1
  Pr  Pr1  1  0.261578  0.195721  0.734032  1
  Pr  Pr2  1  0.239397  0.189398  0.235183  1
  Pr  Pr3  1  0.739838  0.811098  0.265198  1
  Rh  Rh4  1  0.755823  0.268654  0.959671  1
  Rh  Rh5  1  0.254306  0.725884  0.538212  1
  Rh  Rh6  1  0.243503  0.724927  0.047918  1
  Rh  Rh7  1  0.743212  0.277772  0.454256  1
  F  F8  1  0.426441  0.706222  0.922471  1
  F  F9  1  0.934445  0.292004  0.579268  1
  F  F10  1  0.564613  0.288013  0.082916  1
  F  F11  1  0.068182  0.708748  0.413454  1
  F  F12  1  0.456385  0.284152  0.539273  1
  F  F13  1  0.955905  0.714411  0.967991  1
  F  F14  1  0.546358  0.717987  0.457666  1
  F  F15  1  0.042691  0.278862  0.042340  1
  F  F16  1  0.764902  0.503070  0.865756  1
  F  F17  1  0.263309  0.489776  0.632779  1
  F  F18  1  0.237366  0.489490  0.140836  1
  F  F19  1  0.735516  0.513641  0.361870  1
  F  F20  1  0.758610  0.033372  0.050203  1
  F  F21  1  0.257273  0.962201  0.449161  1
  F  F22  1  0.239583  0.959395  0.954299  1
  F  F23  1  0.740856  0.042314  0.543433  1
  F  F24  1  0.969095  0.728212  0.623210  1
  F  F25  1  0.472487  0.266978  0.872279  1
  F  F26  1  0.025008  0.271872  0.366689  1
  F  F27  1  0.528730  0.730711  0.132035  1
  F  F28  1  0.059530  0.741992  0.174097  1
  F  F29  1  0.553783  0.261400  0.328948  1
  F  F30  1  0.944991  0.253650  0.833256  1
  F  F31  1  0.433432  0.739237  0.666557  1
  F  F32  1  0.408790  0.969410  0.230100  1
  F  F33  1  0.909002  0.031425  0.269994  1
  F  F34  1  0.595491  0.043829  0.771185  1
  F  F35  1  0.109304  0.973106  0.728350  1
