# generated using pymatgen
data_Ho4ScIrPt2
_symmetry_space_group_name_H-M   'P 1'
_cell_length_a   10.92351400
_cell_length_b   10.92351400
_cell_length_c   6.24678400
_cell_angle_alpha   90.00000000
_cell_angle_beta   90.00000000
_cell_angle_gamma   90.00000000
_symmetry_Int_Tables_number   1
_chemical_formula_structural   Ho4ScIrPt2
_chemical_formula_sum   'Ho16 Sc4 Ir4 Pt8'
_cell_volume   745.38599490
_cell_formula_units_Z   4
loop_
 _symmetry_equiv_pos_site_id
 _symmetry_equiv_pos_as_xyz
  1  'x, y, z'
loop_
 _atom_site_type_symbol
 _atom_site_label
 _atom_site_symmetry_multiplicity
 _atom_site_fract_x
 _atom_site_fract_y
 _atom_site_fract_z
 _atom_site_occupancy
  Ho  Ho0  1  0.291256  0.085692  0.377037  1
  Ho  Ho1  1  0.291256  0.914308  0.877037  1
  Ho  Ho2  1  0.708744  0.085692  0.877037  1
  Ho  Ho3  1  0.708744  0.914308  0.377037  1
  Ho  Ho4  1  0.585692  0.791256  0.877037  1
  Ho  Ho5  1  0.585692  0.208744  0.377037  1
  Ho  Ho6  1  0.414308  0.791256  0.377037  1
  Ho  Ho7  1  0.414308  0.208744  0.877037  1
  Ho  Ho8  1  0.208744  0.414308  0.622963  1
  Ho  Ho9  1  0.208744  0.585692  0.122963  1
  Ho  Ho10  1  0.791256  0.414308  0.122963  1
  Ho  Ho11  1  0.791256  0.585692  0.622963  1
  Ho  Ho12  1  0.914308  0.708744  0.122963  1
  Ho  Ho13  1  0.914308  0.291256  0.622963  1
  Ho  Ho14  1  0.085692  0.708744  0.622963  1
  Ho  Ho15  1  0.085692  0.291256  0.122963  1
  Sc  Sc16  1  0.000000  0.000000  0.500000  1
  Sc  Sc17  1  0.000000  0.000000  0.000000  1
  Sc  Sc18  1  0.500000  0.500000  0.000000  1
  Sc  Sc19  1  0.500000  0.500000  0.500000  1
  Ir  Ir20  1  0.500000  0.000000  0.121733  1
  Ir  Ir21  1  0.500000  0.000000  0.621733  1
  Ir  Ir22  1  0.000000  0.500000  0.878267  1
  Ir  Ir23  1  0.000000  0.500000  0.378267  1
  Pt  Pt24  1  0.852673  0.147327  0.250000  1
  Pt  Pt25  1  0.852673  0.852673  0.750000  1
  Pt  Pt26  1  0.147327  0.147327  0.750000  1
  Pt  Pt27  1  0.147327  0.852673  0.250000  1
  Pt  Pt28  1  0.647327  0.352673  0.750000  1
  Pt  Pt29  1  0.647327  0.647327  0.250000  1
  Pt  Pt30  1  0.352673  0.352673  0.250000  1
  Pt  Pt31  1  0.352673  0.647327  0.750000  1
