# generated using pymatgen
data_Y10Al4IrRu5
_symmetry_space_group_name_H-M   'P 1'
_cell_length_a   8.37342087
_cell_length_b   8.38607180
_cell_length_c   8.38607169
_cell_angle_alpha   109.50130772
_cell_angle_beta   109.68082874
_cell_angle_gamma   109.29292756
_symmetry_Int_Tables_number   1
_chemical_formula_structural   Y10Al4IrRu5
_chemical_formula_sum   'Y10 Al4 Ir1 Ru5'
_cell_volume   452.96526557
_cell_formula_units_Z   1
loop_
 _symmetry_equiv_pos_site_id
 _symmetry_equiv_pos_as_xyz
  1  'x, y, z'
loop_
 _atom_site_type_symbol
 _atom_site_label
 _atom_site_symmetry_multiplicity
 _atom_site_fract_x
 _atom_site_fract_y
 _atom_site_fract_z
 _atom_site_occupancy
  Y  Y0  1  0.250000  0.680495  0.430495  1
  Y  Y1  1  0.750000  0.819818  0.069818  1
  Y  Y2  1  0.432601  0.251420  0.679030  1
  Y  Y3  1  0.679886  0.430596  0.249785  1
  Y  Y4  1  0.067399  0.746429  0.818819  1
  Y  Y5  1  0.820114  0.069899  0.750710  1
  Y  Y6  1  0.213489  0.215086  0.215547  1
  Y  Y7  1  0.500191  0.999466  0.286844  1
  Y  Y8  1  0.286511  0.502059  0.001597  1
  Y  Y9  1  0.999809  0.286652  0.499275  1
  Al  Al10  1  0.588403  0.588745  0.588109  1
  Al  Al11  1  0.499563  0.998807  0.910606  1
  Al  Al12  1  0.911597  0.499707  0.000342  1
  Al  Al13  1  0.000437  0.911043  0.499244  1
  Ir  Ir14  1  0.250000  0.121436  0.871436  1
  Ru  Ru15  1  0.750000  0.377973  0.627973  1
  Ru  Ru16  1  0.870184  0.249920  0.120562  1
  Ru  Ru17  1  0.122144  0.872303  0.249913  1
  Ru  Ru18  1  0.629815  0.750377  0.379734  1
  Ru  Ru19  1  0.377856  0.627767  0.750159  1
