# generated using pymatgen
data_Yb5Pr14HoSn16
_symmetry_space_group_name_H-M   'P 1'
_cell_length_a   8.10774500
_cell_length_b   8.52569793
_cell_length_c   16.15699700
_cell_angle_alpha   90.13225685
_cell_angle_beta   89.42943867
_cell_angle_gamma   90.01427995
_symmetry_Int_Tables_number   1
_chemical_formula_structural   Yb5Pr14HoSn16
_chemical_formula_sum   'Yb5 Pr14 Ho1 Sn16'
_cell_volume   1116.78086687
_cell_formula_units_Z   1
loop_
 _symmetry_equiv_pos_site_id
 _symmetry_equiv_pos_as_xyz
  1  'x, y, z'
loop_
 _atom_site_type_symbol
 _atom_site_label
 _atom_site_symmetry_multiplicity
 _atom_site_fract_x
 _atom_site_fract_y
 _atom_site_fract_z
 _atom_site_occupancy
  Yb  Yb0  1  0.333583  0.830353  0.875550  1
  Yb  Yb1  1  0.170357  0.499584  0.749603  1
  Yb  Yb2  1  0.669303  0.004420  0.749783  1
  Yb  Yb3  1  0.831045  0.504611  0.251693  1
  Yb  Yb4  1  0.330656  0.994142  0.250440  1
  Pr  Pr5  1  0.657700  0.170297  0.377756  1
  Pr  Pr6  1  0.162623  0.326318  0.123972  1
  Pr  Pr7  1  0.663244  0.172052  0.124239  1
  Pr  Pr8  1  0.157977  0.328078  0.376197  1
  Pr  Pr9  1  0.344791  0.828216  0.624373  1
  Pr  Pr10  1  0.838775  0.674745  0.874092  1
  Pr  Pr11  1  0.493064  0.317550  0.902807  1
  Pr  Pr12  1  0.997947  0.182313  0.595827  1
  Pr  Pr13  1  0.505851  0.683410  0.405036  1
  Pr  Pr14  1  0.006370  0.815245  0.095876  1
  Pr  Pr15  1  0.504911  0.681276  0.095411  1
  Pr  Pr16  1  0.003623  0.818646  0.405028  1
  Pr  Pr17  1  0.495160  0.315331  0.596078  1
  Pr  Pr18  1  0.993762  0.184182  0.902368  1
  Ho  Ho19  1  0.841135  0.671443  0.625191  1
  Sn  Sn20  1  0.327691  0.033849  0.037701  1
  Sn  Sn21  1  0.819967  0.464065  0.466925  1
  Sn  Sn22  1  0.689738  0.956894  0.538983  1
  Sn  Sn23  1  0.175012  0.536173  0.960374  1
  Sn  Sn24  1  0.671188  0.963022  0.961349  1
  Sn  Sn25  1  0.174147  0.540445  0.538291  1
  Sn  Sn26  1  0.316097  0.038476  0.464168  1
  Sn  Sn27  1  0.824662  0.463051  0.036786  1
  Sn  Sn28  1  0.539565  0.604361  0.747897  1
  Sn  Sn29  1  0.036526  0.892502  0.748165  1
  Sn  Sn30  1  0.463354  0.396377  0.250237  1
  Sn  Sn31  1  0.962793  0.103458  0.250239  1
  Sn  Sn32  1  0.294539  0.142158  0.749493  1
  Sn  Sn33  1  0.798336  0.363831  0.748562  1
  Sn  Sn34  1  0.702787  0.858261  0.249921  1
  Sn  Sn35  1  0.201720  0.640866  0.249590  1
