# generated using pymatgen
data_LiPr16Hg3Rh4
_symmetry_space_group_name_H-M   'P 1'
_cell_length_a   9.94998022
_cell_length_b   10.00515307
_cell_length_c   10.00525149
_cell_angle_alpha   60.18147108
_cell_angle_beta   60.45959568
_cell_angle_gamma   60.46109851
_symmetry_Int_Tables_number   1
_chemical_formula_structural   LiPr16Hg3Rh4
_chemical_formula_sum   'Li1 Pr16 Hg3 Rh4'
_cell_volume   710.14382037
_cell_formula_units_Z   1
loop_
 _symmetry_equiv_pos_site_id
 _symmetry_equiv_pos_as_xyz
  1  'x, y, z'
loop_
 _atom_site_type_symbol
 _atom_site_label
 _atom_site_symmetry_multiplicity
 _atom_site_fract_x
 _atom_site_fract_y
 _atom_site_fract_z
 _atom_site_occupancy
  Li  Li0  1  0.297072  0.567403  0.567380  1
  Pr  Pr1  1  0.348625  0.348196  0.348203  1
  Pr  Pr2  1  0.349205  0.348603  0.952233  1
  Pr  Pr3  1  0.349195  0.952236  0.348606  1
  Pr  Pr4  1  0.944501  0.351173  0.351166  1
  Pr  Pr5  1  0.807316  0.191964  0.191973  1
  Pr  Pr6  1  0.185854  0.812055  0.812062  1
  Pr  Pr7  1  0.187476  0.812138  0.186900  1
  Pr  Pr8  1  0.804673  0.193959  0.808123  1
  Pr  Pr9  1  0.187480  0.186897  0.812138  1
  Pr  Pr10  1  0.804674  0.808112  0.193958  1
  Pr  Pr11  1  0.938865  0.562899  0.562915  1
  Pr  Pr12  1  0.561339  0.938673  0.938668  1
  Pr  Pr13  1  0.561473  0.938848  0.562720  1
  Pr  Pr14  1  0.938130  0.561857  0.937862  1
  Pr  Pr15  1  0.561467  0.562708  0.938875  1
  Pr  Pr16  1  0.938115  0.937876  0.561862  1
  Hg  Hg17  1  0.579137  0.586532  0.586538  1
  Hg  Hg18  1  0.579850  0.586555  0.248042  1
  Hg  Hg19  1  0.579838  0.248044  0.586563  1
  Rh  Rh20  1  0.140908  0.142362  0.142335  1
  Rh  Rh21  1  0.141343  0.143665  0.573699  1
  Rh  Rh22  1  0.141355  0.573703  0.143637  1
  Rh  Rh23  1  0.572107  0.143543  0.143539  1
