# generated using pymatgen
data_RbTi6(AsSe3)2
_symmetry_space_group_name_H-M   'P 1'
_cell_length_a   10.01625100
_cell_length_b   10.01625141
_cell_length_c   3.61373100
_cell_angle_alpha   90.00000000
_cell_angle_beta   90.00000000
_cell_angle_gamma   119.99999623
_symmetry_Int_Tables_number   1
_chemical_formula_structural   RbTi6(AsSe3)2
_chemical_formula_sum   'Rb1 Ti6 As2 Se6'
_cell_volume   313.97631310
_cell_formula_units_Z   1
loop_
 _symmetry_equiv_pos_site_id
 _symmetry_equiv_pos_as_xyz
  1  'x, y, z'
loop_
 _atom_site_type_symbol
 _atom_site_label
 _atom_site_symmetry_multiplicity
 _atom_site_fract_x
 _atom_site_fract_y
 _atom_site_fract_z
 _atom_site_occupancy
  Rb  Rb0  1  0.000000  0.000000  0.500000  1
  Ti  Ti1  1  0.135704  0.642303  0.250903  1
  Ti  Ti2  1  0.506599  0.864296  0.250903  1
  Ti  Ti3  1  0.357697  0.493401  0.250903  1
  Ti  Ti4  1  0.864296  0.357697  0.749097  1
  Ti  Ti5  1  0.493401  0.135704  0.749097  1
  Ti  Ti6  1  0.642303  0.506599  0.749097  1
  As  As7  1  0.666667  0.333333  0.249524  1
  As  As8  1  0.333333  0.666667  0.750476  1
  Se  Se9  1  0.305401  0.950027  0.246896  1
  Se  Se10  1  0.644625  0.694599  0.246896  1
  Se  Se11  1  0.049973  0.355375  0.246896  1
  Se  Se12  1  0.694599  0.049973  0.753104  1
  Se  Se13  1  0.355375  0.305401  0.753104  1
  Se  Se14  1  0.950027  0.644625  0.753104  1
