# generated using pymatgen
data_Pr4Ga18Ir5Pd
_symmetry_space_group_name_H-M   'P 1'
_cell_length_a   7.69094053
_cell_length_b   7.69094171
_cell_length_c   9.63171502
_cell_angle_alpha   89.99938039
_cell_angle_beta   89.99937415
_cell_angle_gamma   119.63353074
_symmetry_Int_Tables_number   1
_chemical_formula_structural   Pr4Ga18Ir5Pd
_chemical_formula_sum   'Pr4 Ga18 Ir5 Pd1'
_cell_volume   495.20517003
_cell_formula_units_Z   1
loop_
 _symmetry_equiv_pos_site_id
 _symmetry_equiv_pos_as_xyz
  1  'x, y, z'
loop_
 _atom_site_type_symbol
 _atom_site_label
 _atom_site_symmetry_multiplicity
 _atom_site_fract_x
 _atom_site_fract_y
 _atom_site_fract_z
 _atom_site_occupancy
  Pr  Pr0  1  0.995685  0.668561  0.250394  1
  Pr  Pr1  1  0.002144  0.329919  0.749806  1
  Pr  Pr2  1  0.670081  0.997856  0.250194  1
  Pr  Pr3  1  0.331439  0.004315  0.749606  1
  Ga  Ga4  1  0.129700  0.128302  0.250458  1
  Ga  Ga5  1  0.871698  0.870300  0.749542  1
  Ga  Ga6  1  0.006024  0.335021  0.081319  1
  Ga  Ga7  1  0.001828  0.668370  0.919234  1
  Ga  Ga8  1  0.999326  0.665148  0.578631  1
  Ga  Ga9  1  0.334852  0.000674  0.421369  1
  Ga  Ga10  1  0.001246  0.335221  0.421380  1
  Ga  Ga11  1  0.664779  0.998754  0.578620  1
  Ga  Ga12  1  0.664979  0.993976  0.918681  1
  Ga  Ga13  1  0.331630  0.998172  0.080766  1
  Ga  Ga14  1  0.331963  0.332322  0.557015  1
  Ga  Ga15  1  0.667678  0.668037  0.442985  1
  Ga  Ga16  1  0.666971  0.670250  0.060724  1
  Ga  Ga17  1  0.329750  0.333029  0.939276  1
  Ga  Ga18  1  0.342158  0.547191  0.250447  1
  Ga  Ga19  1  0.658501  0.455936  0.747921  1
  Ga  Ga20  1  0.544064  0.341499  0.252079  1
  Ga  Ga21  1  0.452809  0.657842  0.749553  1
  Ir  Ir22  1  0.329961  0.670039  0.000000  1
  Ir  Ir23  1  0.329376  0.670624  0.500000  1
  Ir  Ir24  1  0.670485  0.329515  0.500000  1
  Ir  Ir25  1  0.000537  0.999463  0.000000  1
  Ir  Ir26  1  0.999635  0.000365  0.500000  1
  Pd  Pd27  1  0.670705  0.329295  0.000000  1
