# generated using pymatgen
data_Zn2Ir3PdO12
_symmetry_space_group_name_H-M   'P 1'
_cell_length_a   4.58317283
_cell_length_b   4.58317283
_cell_length_c   9.49398000
_cell_angle_alpha   90.00000000
_cell_angle_beta   90.00000000
_cell_angle_gamma   90.23732552
_symmetry_Int_Tables_number   1
_chemical_formula_structural   Zn2Ir3PdO12
_chemical_formula_sum   'Zn2 Ir3 Pd1 O12'
_cell_volume   199.42383151
_cell_formula_units_Z   1
loop_
 _symmetry_equiv_pos_site_id
 _symmetry_equiv_pos_as_xyz
  1  'x, y, z'
loop_
 _atom_site_type_symbol
 _atom_site_label
 _atom_site_symmetry_multiplicity
 _atom_site_fract_x
 _atom_site_fract_y
 _atom_site_fract_z
 _atom_site_occupancy
  Zn  Zn0  1  0.000000  0.000000  0.001469  1
  Zn  Zn1  1  0.500000  0.500000  0.498869  1
  Ir  Ir2  1  0.000000  0.000000  0.332980  1
  Ir  Ir3  1  0.500000  0.500000  0.167063  1
  Ir  Ir4  1  0.000000  0.000000  0.669330  1
  Pd  Pd5  1  0.500000  0.500000  0.830385  1
  O  O6  1  0.705723  0.705723  0.664114  1
  O  O7  1  0.294277  0.294277  0.664114  1
  O  O8  1  0.699298  0.699298  0.328409  1
  O  O9  1  0.200258  0.799742  0.173012  1
  O  O10  1  0.799742  0.200258  0.173012  1
  O  O11  1  0.810765  0.189235  0.829702  1
  O  O12  1  0.311690  0.311690  0.005726  1
  O  O13  1  0.185787  0.814213  0.498989  1
  O  O14  1  0.814213  0.185787  0.498989  1
  O  O15  1  0.688310  0.688310  0.005726  1
  O  O16  1  0.300702  0.300702  0.328409  1
  O  O17  1  0.189235  0.810765  0.829702  1
