# generated using pymatgen
data_PrSi4Ir5Ru
_symmetry_space_group_name_H-M   'P 1'
_cell_length_a   7.05495746
_cell_length_b   7.05495791
_cell_length_c   3.87940700
_cell_angle_alpha   90.00000000
_cell_angle_beta   90.00000000
_cell_angle_gamma   120.09566374
_symmetry_Int_Tables_number   1
_chemical_formula_structural   PrSi4Ir5Ru
_chemical_formula_sum   'Pr1 Si4 Ir5 Ru1'
_cell_volume   167.05725776
_cell_formula_units_Z   1
loop_
 _symmetry_equiv_pos_site_id
 _symmetry_equiv_pos_as_xyz
  1  'x, y, z'
loop_
 _atom_site_type_symbol
 _atom_site_label
 _atom_site_symmetry_multiplicity
 _atom_site_fract_x
 _atom_site_fract_y
 _atom_site_fract_z
 _atom_site_occupancy
  Pr  Pr0  1  0.000653  0.999347  0.000000  1
  Si  Si1  1  0.335152  0.664848  0.000000  1
  Si  Si2  1  0.799990  0.200010  0.500000  1
  Si  Si3  1  0.798766  0.600253  0.500000  1
  Si  Si4  1  0.399747  0.201234  0.500000  1
  Ir  Ir5  1  0.531443  0.065965  0.000000  1
  Ir  Ir6  1  0.934035  0.468557  0.000000  1
  Ir  Ir7  1  0.200005  0.799995  0.500000  1
  Ir  Ir8  1  0.199491  0.399150  0.500000  1
  Ir  Ir9  1  0.600850  0.800509  0.500000  1
  Ru  Ru10  1  0.533203  0.466797  0.000000  1
