# generated using pymatgen
data_DyHo(Er4In3)2
_symmetry_space_group_name_H-M   'P 1'
_cell_length_a   9.09536322
_cell_length_b   9.09536229
_cell_length_c   9.09906709
_cell_angle_alpha   96.39819793
_cell_angle_beta   96.40457312
_cell_angle_gamma   140.97973801
_symmetry_Int_Tables_number   1
_chemical_formula_structural   DyHo(Er4In3)2
_chemical_formula_sum   'Dy1 Ho1 Er8 In6'
_cell_volume   446.72455690
_cell_formula_units_Z   1
loop_
 _symmetry_equiv_pos_site_id
 _symmetry_equiv_pos_as_xyz
  1  'x, y, z'
loop_
 _atom_site_type_symbol
 _atom_site_label
 _atom_site_symmetry_multiplicity
 _atom_site_fract_x
 _atom_site_fract_y
 _atom_site_fract_z
 _atom_site_occupancy
  Dy  Dy0  1  0.082042  0.782017  0.864059  1
  Ho  Ho1  1  0.717692  0.418336  0.136027  1
  Er  Er2  1  0.282650  0.581694  0.864344  1
  Er  Er3  1  0.581952  0.717565  0.299516  1
  Er  Er4  1  0.217463  0.082042  0.299503  1
  Er  Er5  1  0.917891  0.217589  0.135480  1
  Er  Er6  1  0.750060  0.249791  0.499899  1
  Er  Er7  1  0.250108  0.749839  0.499899  1
  Er  Er8  1  0.782425  0.918267  0.700693  1
  Er  Er9  1  0.417792  0.282536  0.700330  1
  In  In10  1  0.837940  0.661622  0.499562  1
  In  In11  1  0.338801  0.838325  0.177126  1
  In  In12  1  0.749726  0.750452  0.000198  1
  In  In13  1  0.661881  0.161431  0.823314  1
  In  In14  1  0.161832  0.338022  0.499855  1
  In  In15  1  0.249745  0.250471  0.000198  1
