# generated using pymatgen
data_YEr3(LuPb)6
_symmetry_space_group_name_H-M   'P 1'
_cell_length_a   6.49790400
_cell_length_b   8.93723462
_cell_length_c   8.94608219
_cell_angle_alpha   119.96728029
_cell_angle_beta   90.00076275
_cell_angle_gamma   89.99847546
_symmetry_Int_Tables_number   1
_chemical_formula_structural   YEr3(LuPb)6
_chemical_formula_sum   'Y1 Er3 Lu6 Pb6'
_cell_volume   450.07310418
_cell_formula_units_Z   1
loop_
 _symmetry_equiv_pos_site_id
 _symmetry_equiv_pos_as_xyz
  1  'x, y, z'
loop_
 _atom_site_type_symbol
 _atom_site_label
 _atom_site_symmetry_multiplicity
 _atom_site_fract_x
 _atom_site_fract_y
 _atom_site_fract_z
 _atom_site_occupancy
  Y  Y0  1  0.250018  0.763240  0.000000  1
  Er  Er1  1  0.750044  0.236656  0.000000  1
  Er  Er2  1  0.749996  0.762782  0.762351  1
  Er  Er3  1  0.749996  0.000432  0.237649  1
  Lu  Lu4  1  0.249989  0.237055  0.236834  1
  Lu  Lu5  1  0.249989  0.000219  0.763166  1
  Lu  Lu6  1  0.499837  0.333291  0.666680  1
  Lu  Lu7  1  0.499837  0.666610  0.333320  1
  Lu  Lu8  1  0.000156  0.666642  0.333314  1
  Lu  Lu9  1  0.000156  0.333328  0.666686  1
  Pb  Pb10  1  0.749993  0.604586  0.000000  1
  Pb  Pb11  1  0.750036  0.395556  0.395582  1
  Pb  Pb12  1  0.750036  0.999976  0.604418  1
  Pb  Pb13  1  0.249976  0.393482  0.000000  1
  Pb  Pb14  1  0.249971  0.604912  0.603678  1
  Pb  Pb15  1  0.249971  0.001233  0.396322  1
