# generated using pymatgen
data_AcEu3(SnPt)4
_symmetry_space_group_name_H-M   'P 1'
_cell_length_a   4.73974500
_cell_length_b   7.57232656
_cell_length_c   8.12447053
_cell_angle_alpha   90.54379489
_cell_angle_beta   90.00000000
_cell_angle_gamma   90.00000000
_symmetry_Int_Tables_number   1
_chemical_formula_structural   AcEu3(SnPt)4
_chemical_formula_sum   'Ac1 Eu3 Sn4 Pt4'
_cell_volume   291.58140157
_cell_formula_units_Z   1
loop_
 _symmetry_equiv_pos_site_id
 _symmetry_equiv_pos_as_xyz
  1  'x, y, z'
loop_
 _atom_site_type_symbol
 _atom_site_label
 _atom_site_symmetry_multiplicity
 _atom_site_fract_x
 _atom_site_fract_y
 _atom_site_fract_z
 _atom_site_occupancy
  Ac  Ac0  1  0.750000  0.480993  0.186395  1
  Eu  Eu1  1  0.250000  0.021339  0.689246  1
  Eu  Eu2  1  0.250000  0.519482  0.805953  1
  Eu  Eu3  1  0.750000  0.981547  0.312691  1
  Sn  Sn4  1  0.750000  0.330094  0.581714  1
  Sn  Sn5  1  0.250000  0.676382  0.428770  1
  Sn  Sn6  1  0.250000  0.160501  0.075906  1
  Sn  Sn7  1  0.750000  0.835082  0.919745  1
  Pt  Pt8  1  0.750000  0.710285  0.599622  1
  Pt  Pt9  1  0.250000  0.291351  0.401938  1
  Pt  Pt10  1  0.250000  0.785931  0.099449  1
  Pt  Pt11  1  0.750000  0.207013  0.898572  1
