# generated using pymatgen
data_Tb7Ho3OsRu3
_symmetry_space_group_name_H-M   'P 1'
_cell_length_a   6.36775658
_cell_length_b   7.30177614
_cell_length_c   8.50850184
_cell_angle_alpha   96.72206961
_cell_angle_beta   112.18778801
_cell_angle_gamma   89.93925854
_symmetry_Int_Tables_number   1
_chemical_formula_structural   Tb7Ho3OsRu3
_chemical_formula_sum   'Tb7 Ho3 Os1 Ru3'
_cell_volume   363.39738133
_cell_formula_units_Z   1
loop_
 _symmetry_equiv_pos_site_id
 _symmetry_equiv_pos_as_xyz
  1  'x, y, z'
loop_
 _atom_site_type_symbol
 _atom_site_label
 _atom_site_symmetry_multiplicity
 _atom_site_fract_x
 _atom_site_fract_y
 _atom_site_fract_z
 _atom_site_occupancy
  Tb  Tb0  1  0.978154  0.916525  0.185962  1
  Tb  Tb1  1  0.792886  0.584418  0.815417  1
  Tb  Tb2  1  0.021640  0.085188  0.814333  1
  Tb  Tb3  1  0.209096  0.415434  0.186722  1
  Tb  Tb4  1  0.640941  0.814245  0.433339  1
  Tb  Tb5  1  0.204352  0.683887  0.565017  1
  Tb  Tb6  1  0.360352  0.185390  0.566113  1
  Ho  Ho7  1  0.793392  0.315689  0.433566  1
  Ho  Ho8  1  0.422541  0.749100  0.000267  1
  Ho  Ho9  1  0.579185  0.251164  0.001170  1
  Os  Os10  1  0.820407  0.575517  0.218557  1
  Ru  Ru11  1  0.603236  0.924905  0.779721  1
  Ru  Ru12  1  0.176025  0.422875  0.779517  1
  Ru  Ru13  1  0.397792  0.075662  0.220301  1
