# generated using pymatgen
data_Ta8AlV2Si5
_symmetry_space_group_name_H-M   'P 1'
_cell_length_a   7.53984629
_cell_length_b   7.53984572
_cell_length_c   7.53984630
_cell_angle_alpha   129.20995593
_cell_angle_beta   129.20995058
_cell_angle_gamma   74.67297814
_symmetry_Int_Tables_number   1
_chemical_formula_structural   Ta8AlV2Si5
_chemical_formula_sum   'Ta8 Al1 V2 Si5'
_cell_volume   250.71864954
_cell_formula_units_Z   1
loop_
 _symmetry_equiv_pos_site_id
 _symmetry_equiv_pos_as_xyz
  1  'x, y, z'
loop_
 _atom_site_type_symbol
 _atom_site_label
 _atom_site_symmetry_multiplicity
 _atom_site_fract_x
 _atom_site_fract_y
 _atom_site_fract_z
 _atom_site_occupancy
  Ta  Ta0  1  0.018969  0.512990  0.829881  1
  Ta  Ta1  1  0.683109  0.189088  0.170119  1
  Ta  Ta2  1  0.512990  0.683109  0.494021  1
  Ta  Ta3  1  0.189088  0.018969  0.505979  1
  Ta  Ta4  1  0.987010  0.481031  0.170119  1
  Ta  Ta5  1  0.310912  0.816891  0.829881  1
  Ta  Ta6  1  0.481031  0.310912  0.494021  1
  Ta  Ta7  1  0.816891  0.987010  0.505979  1
  Al  Al8  1  0.750000  0.750000  0.000000  1
  V  V9  1  0.000947  0.000947  0.000000  1
  V  V10  1  0.499053  0.499053  0.000000  1
  Si  Si11  1  0.250000  0.250000  0.000000  1
  Si  Si12  1  0.633092  0.133092  0.766183  1
  Si  Si13  1  0.366908  0.866908  0.233817  1
  Si  Si14  1  0.133092  0.366908  0.500000  1
  Si  Si15  1  0.866908  0.633092  0.500000  1
