# generated using pymatgen
data_LaPrHo2(Zn5Sn)2
_symmetry_space_group_name_H-M   'P 1'
_cell_length_a   8.49458976
_cell_length_b   8.49459039
_cell_length_c   9.05636167
_cell_angle_alpha   89.82246340
_cell_angle_beta   90.17753461
_cell_angle_gamma   149.71858173
_symmetry_Int_Tables_number   1
_chemical_formula_structural   LaPrHo2(Zn5Sn)2
_chemical_formula_sum   'La1 Pr1 Ho2 Zn10 Sn2'
_cell_volume   329.51880274
_cell_formula_units_Z   1
loop_
 _symmetry_equiv_pos_site_id
 _symmetry_equiv_pos_as_xyz
  1  'x, y, z'
loop_
 _atom_site_type_symbol
 _atom_site_label
 _atom_site_symmetry_multiplicity
 _atom_site_fract_x
 _atom_site_fract_y
 _atom_site_fract_z
 _atom_site_occupancy
  La  La0  1  0.000000  0.000000  0.500000  1
  Pr  Pr1  1  0.000000  0.000000  0.000000  1
  Ho  Ho2  1  0.205213  0.794787  0.249731  1
  Ho  Ho3  1  0.794787  0.205213  0.750269  1
  Zn  Zn4  1  0.811781  0.188219  0.390234  1
  Zn  Zn5  1  0.188219  0.811781  0.609766  1
  Zn  Zn6  1  0.812090  0.187910  0.109973  1
  Zn  Zn7  1  0.187910  0.812090  0.890027  1
  Zn  Zn8  1  0.658641  0.341359  0.482203  1
  Zn  Zn9  1  0.341359  0.658641  0.517797  1
  Zn  Zn10  1  0.658478  0.341522  0.017659  1
  Zn  Zn11  1  0.341522  0.658478  0.982341  1
  Zn  Zn12  1  0.393614  0.606386  0.249796  1
  Zn  Zn13  1  0.606386  0.393614  0.750204  1
  Sn  Sn14  1  0.557545  0.442455  0.248935  1
  Sn  Sn15  1  0.442455  0.557545  0.751065  1
