# generated using pymatgen
data_Nb3Ni2WC
_symmetry_space_group_name_H-M   'P 1'
_cell_length_a   8.23405405
_cell_length_b   8.23405415
_cell_length_c   8.23405400
_cell_angle_alpha   60.00000061
_cell_angle_beta   60.00000021
_cell_angle_gamma   59.99999822
_symmetry_Int_Tables_number   1
_chemical_formula_structural   Nb3Ni2WC
_chemical_formula_sum   'Nb12 Ni8 W4 C4'
_cell_volume   394.75363909
_cell_formula_units_Z   4
loop_
 _symmetry_equiv_pos_site_id
 _symmetry_equiv_pos_as_xyz
  1  'x, y, z'
loop_
 _atom_site_type_symbol
 _atom_site_label
 _atom_site_symmetry_multiplicity
 _atom_site_fract_x
 _atom_site_fract_y
 _atom_site_fract_z
 _atom_site_occupancy
  Nb  Nb0  1  0.437096  0.062904  0.062904  1
  Nb  Nb1  1  0.062904  0.437096  0.437096  1
  Nb  Nb2  1  0.062904  0.437096  0.062904  1
  Nb  Nb3  1  0.062904  0.062904  0.437096  1
  Nb  Nb4  1  0.437096  0.062904  0.437096  1
  Nb  Nb5  1  0.437096  0.437096  0.062904  1
  Nb  Nb6  1  0.187096  0.812904  0.187096  1
  Nb  Nb7  1  0.812904  0.187096  0.812904  1
  Nb  Nb8  1  0.812904  0.187096  0.187096  1
  Nb  Nb9  1  0.187096  0.187096  0.812904  1
  Nb  Nb10  1  0.187096  0.812904  0.812904  1
  Nb  Nb11  1  0.812904  0.812904  0.187096  1
  Ni  Ni12  1  0.828451  0.828451  0.828451  1
  Ni  Ni13  1  0.828451  0.828451  0.514645  1
  Ni  Ni14  1  0.514645  0.828451  0.828451  1
  Ni  Ni15  1  0.828451  0.514645  0.828451  1
  Ni  Ni16  1  0.421549  0.421549  0.421549  1
  Ni  Ni17  1  0.421549  0.421549  0.735355  1
  Ni  Ni18  1  0.421549  0.735355  0.421549  1
  Ni  Ni19  1  0.735355  0.421549  0.421549  1
  W  W20  1  0.625000  0.625000  0.625000  1
  W  W21  1  0.625000  0.625000  0.125000  1
  W  W22  1  0.125000  0.625000  0.625000  1
  W  W23  1  0.625000  0.125000  0.625000  1
  C  C24  1  0.125000  0.125000  0.125000  1
  C  C25  1  0.125000  0.125000  0.625000  1
  C  C26  1  0.625000  0.125000  0.125000  1
  C  C27  1  0.125000  0.625000  0.125000  1
