# generated using pymatgen
data_Th2InNi9
_symmetry_space_group_name_H-M   'P 1'
_cell_length_a   8.66361077
_cell_length_b   8.66361046
_cell_length_c   8.66361130
_cell_angle_alpha   33.26851951
_cell_angle_beta   33.26852403
_cell_angle_gamma   33.26851968
_symmetry_Int_Tables_number   1
_chemical_formula_structural   Th2InNi9
_chemical_formula_sum   'Th2 In1 Ni9'
_cell_volume   174.21605248
_cell_formula_units_Z   1
loop_
 _symmetry_equiv_pos_site_id
 _symmetry_equiv_pos_as_xyz
  1  'x, y, z'
loop_
 _atom_site_type_symbol
 _atom_site_label
 _atom_site_symmetry_multiplicity
 _atom_site_fract_x
 _atom_site_fract_y
 _atom_site_fract_z
 _atom_site_occupancy
  Th  Th0  1  0.141887  0.141887  0.141887  1
  Th  Th1  1  0.994775  0.994775  0.994775  1
  In  In2  1  0.863660  0.863660  0.863660  1
  Ni  Ni3  1  0.416937  0.916718  0.416937  1
  Ni  Ni4  1  0.416937  0.416937  0.916718  1
  Ni  Ni5  1  0.916718  0.416937  0.416937  1
  Ni  Ni6  1  0.583359  0.080641  0.583359  1
  Ni  Ni7  1  0.583359  0.583359  0.080641  1
  Ni  Ni8  1  0.080641  0.583359  0.583359  1
  Ni  Ni9  1  0.667551  0.667551  0.667551  1
  Ni  Ni10  1  0.333588  0.333588  0.333588  1
  Ni  Ni11  1  0.500589  0.500589  0.500589  1
