# generated using pymatgen
data_Cs2KPuCl6
_symmetry_space_group_name_H-M   'P 1'
_cell_length_a   8.11411083
_cell_length_b   8.11411107
_cell_length_c   8.12434800
_cell_angle_alpha   59.95826531
_cell_angle_beta   59.95826430
_cell_angle_gamma   89.85535417
_symmetry_Int_Tables_number   1
_chemical_formula_structural   Cs2KPuCl6
_chemical_formula_sum   'Cs2 K1 Pu1 Cl6'
_cell_volume   378.22833183
_cell_formula_units_Z   1
loop_
 _symmetry_equiv_pos_site_id
 _symmetry_equiv_pos_as_xyz
  1  'x, y, z'
loop_
 _atom_site_type_symbol
 _atom_site_label
 _atom_site_symmetry_multiplicity
 _atom_site_fract_x
 _atom_site_fract_y
 _atom_site_fract_z
 _atom_site_occupancy
  Cs  Cs0  1  0.250002  0.750002  0.499999  1
  Cs  Cs1  1  0.750000  0.250000  0.500001  1
  K  K2  1  0.500001  0.500001  0.000000  1
  Pu  Pu3  1  0.000000  0.000000  0.000000  1
  Cl  Cl4  1  0.763816  0.236184  0.000000  1
  Cl  Cl5  1  0.236737  0.236737  0.000000  1
  Cl  Cl6  1  0.236187  0.763816  0.000000  1
  Cl  Cl7  1  0.763266  0.763266  0.000000  1
  Cl  Cl8  1  0.763266  0.763266  0.473469  1
  Cl  Cl9  1  0.236734  0.236734  0.526531  1
