# generated using pymatgen
data_TbLu11Co5Bi
_symmetry_space_group_name_H-M   'P 1'
_cell_length_a   8.15365298
_cell_length_b   8.16436023
_cell_length_c   8.16436009
_cell_angle_alpha   111.12952421
_cell_angle_beta   110.95836897
_cell_angle_gamma   106.41978821
_symmetry_Int_Tables_number   1
_chemical_formula_structural   TbLu11Co5Bi
_chemical_formula_sum   'Tb1 Lu11 Co5 Bi1'
_cell_volume   417.22502620
_cell_formula_units_Z   1
loop_
 _symmetry_equiv_pos_site_id
 _symmetry_equiv_pos_as_xyz
  1  'x, y, z'
loop_
 _atom_site_type_symbol
 _atom_site_label
 _atom_site_symmetry_multiplicity
 _atom_site_fract_x
 _atom_site_fract_y
 _atom_site_fract_z
 _atom_site_occupancy
  Tb  Tb0  1  0.015321  0.210205  0.805117  1
  Lu  Lu1  1  0.815607  0.711561  0.529036  1
  Lu  Lu2  1  0.182533  0.284829  0.466028  1
  Lu  Lu3  1  0.182533  0.716506  0.897705  1
  Lu  Lu4  1  0.815607  0.286571  0.104045  1
  Lu  Lu5  1  0.687132  0.379456  0.689823  1
  Lu  Lu6  1  0.313413  0.622686  0.311340  1
  Lu  Lu7  1  0.687132  0.997308  0.307675  1
  Lu  Lu8  1  0.313413  0.002073  0.690727  1
  Lu  Lu9  1  0.594481  0.789585  0.804897  1
  Lu  Lu10  1  0.407382  0.210246  0.197135  1
  Lu  Lu11  1  0.986017  0.789835  0.196182  1
  Co  Co12  1  0.624146  0.998845  0.625300  1
  Co  Co13  1  0.373661  0.000741  0.372920  1
  Co  Co14  1  0.112989  0.612616  0.500372  1
  Co  Co15  1  0.885956  0.388375  0.497581  1
  Co  Co16  1  0.000767  0.997657  0.003110  1
  Bi  Bi17  1  0.501910  0.500904  0.001006  1
