# generated using pymatgen
data_Er4Tm4Sc12GaSi15
_symmetry_space_group_name_H-M   'P 1'
_cell_length_a   7.05829871
_cell_length_b   7.36173522
_cell_length_c   13.95921002
_cell_angle_alpha   89.94982386
_cell_angle_beta   89.97756007
_cell_angle_gamma   90.02149494
_symmetry_Int_Tables_number   1
_chemical_formula_structural   Er4Tm4Sc12GaSi15
_chemical_formula_sum   'Er4 Tm4 Sc12 Ga1 Si15'
_cell_volume   725.33867993
_cell_formula_units_Z   1
loop_
 _symmetry_equiv_pos_site_id
 _symmetry_equiv_pos_as_xyz
  1  'x, y, z'
loop_
 _atom_site_type_symbol
 _atom_site_label
 _atom_site_symmetry_multiplicity
 _atom_site_fract_x
 _atom_site_fract_y
 _atom_site_fract_z
 _atom_site_occupancy
  Er  Er0  1  0.011851  0.176393  0.096749  1
  Er  Er1  1  0.987948  0.824003  0.903692  1
  Er  Er2  1  0.487918  0.677218  0.903681  1
  Er  Er3  1  0.987404  0.825845  0.597276  1
  Tm  Tm4  1  0.512105  0.322850  0.096658  1
  Tm  Tm5  1  0.011065  0.174932  0.401773  1
  Tm  Tm6  1  0.512742  0.322573  0.401857  1
  Tm  Tm7  1  0.489979  0.679064  0.597383  1
  Sc  Sc8  1  0.161245  0.503501  0.751562  1
  Sc  Sc9  1  0.838749  0.496577  0.249959  1
  Sc  Sc10  1  0.338795  0.003734  0.249653  1
  Sc  Sc11  1  0.661660  0.995535  0.750154  1
  Sc  Sc12  1  0.332659  0.173872  0.626149  1
  Sc  Sc13  1  0.668373  0.824159  0.374217  1
  Sc  Sc14  1  0.169873  0.677595  0.373392  1
  Sc  Sc15  1  0.669394  0.823693  0.125466  1
  Sc  Sc16  1  0.828561  0.323191  0.625572  1
  Sc  Sc17  1  0.330406  0.175873  0.874852  1
  Sc  Sc18  1  0.830717  0.322986  0.874844  1
  Sc  Sc19  1  0.168948  0.676841  0.125526  1
  Ga  Ga20  1  0.161155  0.462862  0.539184  1
  Si  Si21  1  0.033219  0.115961  0.750620  1
  Si  Si22  1  0.966989  0.885216  0.249780  1
  Si  Si23  1  0.468129  0.613927  0.250003  1
  Si  Si24  1  0.531593  0.386547  0.749695  1
  Si  Si25  1  0.284656  0.871006  0.750249  1
  Si  Si26  1  0.714617  0.129328  0.249663  1
  Si  Si27  1  0.214661  0.370591  0.249484  1
  Si  Si28  1  0.785423  0.628802  0.750641  1
  Si  Si29  1  0.840285  0.535114  0.460293  1
  Si  Si30  1  0.340603  0.965006  0.460229  1
  Si  Si31  1  0.840779  0.534976  0.038655  1
  Si  Si32  1  0.658534  0.035149  0.539001  1
  Si  Si33  1  0.158996  0.464589  0.961756  1
  Si  Si34  1  0.658433  0.035087  0.960775  1
  Si  Si35  1  0.341532  0.965403  0.039561  1
