# generated using pymatgen
data_DyEr(Co2O5)2
_symmetry_space_group_name_H-M   'P 1'
_cell_length_a   5.61284900
_cell_length_b   7.19764448
_cell_length_c   8.45822658
_cell_angle_alpha   90.04227966
_cell_angle_beta   90.00000000
_cell_angle_gamma   90.00000000
_symmetry_Int_Tables_number   1
_chemical_formula_structural   DyEr(Co2O5)2
_chemical_formula_sum   'Dy2 Er2 Co8 O20'
_cell_volume   341.70626948
_cell_formula_units_Z   2
loop_
 _symmetry_equiv_pos_site_id
 _symmetry_equiv_pos_as_xyz
  1  'x, y, z'
loop_
 _atom_site_type_symbol
 _atom_site_label
 _atom_site_symmetry_multiplicity
 _atom_site_fract_x
 _atom_site_fract_y
 _atom_site_fract_z
 _atom_site_occupancy
  Dy  Dy0  1  0.000000  0.141601  0.173797  1
  Dy  Dy1  1  0.000000  0.858399  0.826203  1
  Er  Er2  1  0.000000  0.641679  0.326781  1
  Er  Er3  1  0.000000  0.358321  0.673219  1
  Co  Co4  1  0.256015  0.000000  0.500000  1
  Co  Co5  1  0.744198  0.500000  0.000000  1
  Co  Co6  1  0.743985  0.000000  0.500000  1
  Co  Co7  1  0.255802  0.500000  0.000000  1
  Co  Co8  1  0.500000  0.404498  0.353299  1
  Co  Co9  1  0.500000  0.595502  0.646701  1
  Co  Co10  1  0.500000  0.903074  0.147041  1
  Co  Co11  1  0.500000  0.096926  0.852959  1
  O  O12  1  0.275015  0.000000  0.000000  1
  O  O13  1  0.726965  0.500000  0.500000  1
  O  O14  1  0.724985  0.000000  0.000000  1
  O  O15  1  0.273035  0.500000  0.500000  1
  O  O16  1  0.000000  0.163187  0.447988  1
  O  O17  1  0.000000  0.836813  0.552012  1
  O  O18  1  0.000000  0.662773  0.053579  1
  O  O19  1  0.000000  0.337227  0.946421  1
  O  O20  1  0.500000  0.154937  0.441326  1
  O  O21  1  0.500000  0.845063  0.558674  1
  O  O22  1  0.500000  0.655185  0.057199  1
  O  O23  1  0.500000  0.344815  0.942801  1
  O  O24  1  0.244060  0.404290  0.211689  1
  O  O25  1  0.244060  0.595710  0.788311  1
  O  O26  1  0.755662  0.900321  0.289244  1
  O  O27  1  0.755662  0.099679  0.710756  1
  O  O28  1  0.755940  0.595710  0.788311  1
  O  O29  1  0.755940  0.404290  0.211689  1
  O  O30  1  0.244338  0.099679  0.710756  1
  O  O31  1  0.244338  0.900321  0.289244  1
