# generated using pymatgen
data_TbLu2Th5(ReC2)4
_symmetry_space_group_name_H-M   'P 1'
_cell_length_a   5.29022900
_cell_length_b   6.66777756
_cell_length_c   9.90780762
_cell_angle_alpha   90.12227912
_cell_angle_beta   90.00000000
_cell_angle_gamma   90.00000000
_symmetry_Int_Tables_number   1
_chemical_formula_structural   TbLu2Th5(ReC2)4
_chemical_formula_sum   'Tb1 Lu2 Th5 Re4 C8'
_cell_volume   349.48790576
_cell_formula_units_Z   1
loop_
 _symmetry_equiv_pos_site_id
 _symmetry_equiv_pos_as_xyz
  1  'x, y, z'
loop_
 _atom_site_type_symbol
 _atom_site_label
 _atom_site_symmetry_multiplicity
 _atom_site_fract_x
 _atom_site_fract_y
 _atom_site_fract_z
 _atom_site_occupancy
  Tb  Tb0  1  0.750000  0.321499  0.449014  1
  Lu  Lu1  1  0.250000  0.175186  0.944999  1
  Lu  Lu2  1  0.250000  0.671939  0.553723  1
  Th  Th3  1  0.750000  0.469676  0.782920  1
  Th  Th4  1  0.250000  0.029427  0.283885  1
  Th  Th5  1  0.750000  0.972732  0.712237  1
  Th  Th6  1  0.250000  0.525557  0.221920  1
  Th  Th7  1  0.750000  0.814319  0.046956  1
  Re  Re8  1  0.750000  0.772361  0.366620  1
  Re  Re9  1  0.250000  0.729929  0.860543  1
  Re  Re10  1  0.250000  0.230138  0.637153  1
  Re  Re11  1  0.750000  0.273095  0.135722  1
  C  C12  1  0.250000  0.962217  0.737317  1
  C  C13  1  0.750000  0.535562  0.243455  1
  C  C14  1  0.250000  0.462500  0.760552  1
  C  C15  1  0.750000  0.039956  0.261684  1
  C  C16  1  0.250000  0.334992  0.449553  1
  C  C17  1  0.750000  0.170179  0.946151  1
  C  C18  1  0.250000  0.837620  0.051824  1
  C  C19  1  0.750000  0.671115  0.553775  1
