# generated using pymatgen
data_NdHoP7Ru12
_symmetry_space_group_name_H-M   'P 1'
_cell_length_a   9.44252600
_cell_length_b   9.44252516
_cell_length_c   3.96636200
_cell_angle_alpha   90.00000000
_cell_angle_beta   90.00000000
_cell_angle_gamma   119.99999593
_symmetry_Int_Tables_number   1
_chemical_formula_structural   NdHoP7Ru12
_chemical_formula_sum   'Nd1 Ho1 P7 Ru12'
_cell_volume   306.26638910
_cell_formula_units_Z   1
loop_
 _symmetry_equiv_pos_site_id
 _symmetry_equiv_pos_as_xyz
  1  'x, y, z'
loop_
 _atom_site_type_symbol
 _atom_site_label
 _atom_site_symmetry_multiplicity
 _atom_site_fract_x
 _atom_site_fract_y
 _atom_site_fract_z
 _atom_site_occupancy
  Nd  Nd0  1  0.333333  0.666667  0.000000  1
  Ho  Ho1  1  0.666667  0.333333  0.500000  1
  P  P2  1  0.604170  0.718531  0.500000  1
  P  P3  1  0.000000  0.000000  0.000000  1
  P  P4  1  0.281469  0.885639  0.500000  1
  P  P5  1  0.114361  0.395830  0.500000  1
  P  P6  1  0.886206  0.572464  0.000000  1
  P  P7  1  0.427536  0.313742  0.000000  1
  P  P8  1  0.686258  0.113794  0.000000  1
  Ru  Ru9  1  0.559345  0.954424  0.500000  1
  Ru  Ru10  1  0.395081  0.440655  0.500000  1
  Ru  Ru11  1  0.914589  0.120066  0.500000  1
  Ru  Ru12  1  0.205477  0.085411  0.500000  1
  Ru  Ru13  1  0.879934  0.794523  0.500000  1
  Ru  Ru14  1  0.728812  0.892768  0.000000  1
  Ru  Ru15  1  0.107232  0.836044  0.000000  1
  Ru  Ru16  1  0.163956  0.271188  0.000000  1
  Ru  Ru17  1  0.422595  0.068454  0.000000  1
  Ru  Ru18  1  0.931546  0.354144  0.000000  1
  Ru  Ru19  1  0.645856  0.577405  0.000000  1
  Ru  Ru20  1  0.045576  0.604919  0.500000  1
