# generated using pymatgen
data_HoErU(SnRh)3
_symmetry_space_group_name_H-M   'P 1'
_cell_length_a   7.46165316
_cell_length_b   7.45828267
_cell_length_c   3.86290800
_cell_angle_alpha   90.00000000
_cell_angle_beta   90.00000000
_cell_angle_gamma   118.71241068
_symmetry_Int_Tables_number   1
_chemical_formula_structural   HoErU(SnRh)3
_chemical_formula_sum   'Ho1 Er1 U1 Sn3 Rh3'
_cell_volume   188.54226258
_cell_formula_units_Z   1
loop_
 _symmetry_equiv_pos_site_id
 _symmetry_equiv_pos_as_xyz
  1  'x, y, z'
loop_
 _atom_site_type_symbol
 _atom_site_label
 _atom_site_symmetry_multiplicity
 _atom_site_fract_x
 _atom_site_fract_y
 _atom_site_fract_z
 _atom_site_occupancy
  Ho  Ho0  1  0.000725  0.594731  0.000000  1
  Er  Er1  1  0.595024  0.000919  0.000000  1
  U  U2  1  0.414145  0.414173  0.000000  1
  Sn  Sn3  1  0.754653  0.754947  0.500000  1
  Sn  Sn4  1  0.986519  0.258621  0.500000  1
  Sn  Sn5  1  0.259134  0.986900  0.500000  1
  Rh  Rh6  1  0.016413  0.016764  0.000000  1
  Rh  Rh7  1  0.636029  0.336497  0.500000  1
  Rh  Rh8  1  0.337357  0.636447  0.500000  1
