# generated using pymatgen
data_Ho2PaIn3CoIr2
_symmetry_space_group_name_H-M   'P 1'
_cell_length_a   7.49862560
_cell_length_b   7.49862592
_cell_length_c   3.75230700
_cell_angle_alpha   90.00000000
_cell_angle_beta   90.00000000
_cell_angle_gamma   117.86067447
_symmetry_Int_Tables_number   1
_chemical_formula_structural   Ho2PaIn3CoIr2
_chemical_formula_sum   'Ho2 Pa1 In3 Co1 Ir2'
_cell_volume   186.53336530
_cell_formula_units_Z   1
loop_
 _symmetry_equiv_pos_site_id
 _symmetry_equiv_pos_as_xyz
  1  'x, y, z'
loop_
 _atom_site_type_symbol
 _atom_site_label
 _atom_site_symmetry_multiplicity
 _atom_site_fract_x
 _atom_site_fract_y
 _atom_site_fract_z
 _atom_site_occupancy
  Ho  Ho0  1  0.408147  0.002361  0.000000  1
  Ho  Ho1  1  0.002361  0.408147  0.000000  1
  Pa  Pa2  1  0.580949  0.580949  0.000000  1
  In  In3  1  0.009901  0.750093  0.500000  1
  In  In4  1  0.236509  0.236509  0.500000  1
  In  In5  1  0.750093  0.009901  0.500000  1
  Co  Co6  1  0.988812  0.988812  0.000000  1
  Ir  Ir7  1  0.663358  0.359869  0.500000  1
  Ir  Ir8  1  0.359869  0.663358  0.500000  1
