# generated using pymatgen
data_Ba8Li(AgO4)3
_symmetry_space_group_name_H-M   'P 1'
_cell_length_a   7.32701484
_cell_length_b   7.32701415
_cell_length_c   11.49249100
_cell_angle_alpha   90.00000000
_cell_angle_beta   90.00000000
_cell_angle_gamma   132.92573098
_symmetry_Int_Tables_number   1
_chemical_formula_structural   Ba8Li(AgO4)3
_chemical_formula_sum   'Ba8 Li1 Ag3 O12'
_cell_volume   451.77273240
_cell_formula_units_Z   1
loop_
 _symmetry_equiv_pos_site_id
 _symmetry_equiv_pos_as_xyz
  1  'x, y, z'
loop_
 _atom_site_type_symbol
 _atom_site_label
 _atom_site_symmetry_multiplicity
 _atom_site_fract_x
 _atom_site_fract_y
 _atom_site_fract_z
 _atom_site_occupancy
  Ba  Ba0  1  0.209503  0.914507  0.750000  1
  Ba  Ba1  1  0.638711  0.346443  0.492608  1
  Ba  Ba2  1  0.805043  0.101790  0.250000  1
  Ba  Ba3  1  0.914507  0.209503  0.750000  1
  Ba  Ba4  1  0.101790  0.805043  0.250000  1
  Ba  Ba5  1  0.346443  0.638711  0.007392  1
  Ba  Ba6  1  0.346443  0.638711  0.492608  1
  Ba  Ba7  1  0.638711  0.346443  0.007392  1
  Li  Li8  1  0.518067  0.518067  0.250000  1
  Ag  Ag9  1  0.581826  0.581826  0.750000  1
  Ag  Ag10  1  0.988204  0.988204  0.001487  1
  Ag  Ag11  1  0.988204  0.988204  0.498513  1
  O  O12  1  0.250494  0.559328  0.250000  1
  O  O13  1  0.148009  0.837848  0.498529  1
  O  O14  1  0.559328  0.250494  0.250000  1
  O  O15  1  0.720344  0.720344  0.384428  1
  O  O16  1  0.148009  0.837848  0.001471  1
  O  O17  1  0.837848  0.148009  0.001471  1
  O  O18  1  0.431425  0.747965  0.750000  1
  O  O19  1  0.747965  0.431425  0.750000  1
  O  O20  1  0.720344  0.720344  0.115572  1
  O  O21  1  0.837848  0.148009  0.498529  1
  O  O22  1  0.260465  0.260465  0.606961  1
  O  O23  1  0.260465  0.260465  0.893039  1
