# generated using pymatgen
data_TbY6(TmSn2)3
_symmetry_space_group_name_H-M   'P 1'
_cell_length_a   6.51607100
_cell_length_b   8.94646659
_cell_length_c   8.94678300
_cell_angle_alpha   119.99883867
_cell_angle_beta   89.99994358
_cell_angle_gamma   90.00040363
_symmetry_Int_Tables_number   1
_chemical_formula_structural   TbY6(TmSn2)3
_chemical_formula_sum   'Tb1 Y6 Tm3 Sn6'
_cell_volume   451.68947417
_cell_formula_units_Z   1
loop_
 _symmetry_equiv_pos_site_id
 _symmetry_equiv_pos_as_xyz
  1  'x, y, z'
loop_
 _atom_site_type_symbol
 _atom_site_label
 _atom_site_symmetry_multiplicity
 _atom_site_fract_x
 _atom_site_fract_y
 _atom_site_fract_z
 _atom_site_occupancy
  Tb  Tb0  1  0.500002  0.333337  0.666684  1
  Y  Y1  1  0.750303  0.239799  0.000102  1
  Y  Y2  1  0.750299  0.760229  0.760167  1
  Y  Y3  1  0.750299  0.999862  0.239737  1
  Y  Y4  1  0.249702  0.760308  0.000100  1
  Y  Y5  1  0.249698  0.239873  0.239735  1
  Y  Y6  1  0.249696  0.999940  0.760168  1
  Tm  Tm7  1  0.500001  0.666648  0.333309  1
  Tm  Tm8  1  0.000002  0.666662  0.333309  1
  Tm  Tm9  1  0.000003  0.333350  0.666691  1
  Sn  Sn10  1  0.751025  0.604911  0.000993  1
  Sn  Sn11  1  0.751036  0.396021  0.395028  1
  Sn  Sn12  1  0.751036  0.998997  0.603980  1
  Sn  Sn13  1  0.248970  0.396079  0.000991  1
  Sn  Sn14  1  0.248965  0.604981  0.603976  1
  Sn  Sn15  1  0.248964  0.999004  0.395025  1
