# generated using pymatgen
data_Zr2Co9B6Rh
_symmetry_space_group_name_H-M   'P 1'
_cell_length_a   5.68648907
_cell_length_b   5.68649017
_cell_length_c   5.68648955
_cell_angle_alpha   95.87905742
_cell_angle_beta   95.87905401
_cell_angle_gamma   95.87905311
_symmetry_Int_Tables_number   1
_chemical_formula_structural   Zr2Co9B6Rh
_chemical_formula_sum   'Zr2 Co9 B6 Rh1'
_cell_volume   180.76141693
_cell_formula_units_Z   1
loop_
 _symmetry_equiv_pos_site_id
 _symmetry_equiv_pos_as_xyz
  1  'x, y, z'
loop_
 _atom_site_type_symbol
 _atom_site_label
 _atom_site_symmetry_multiplicity
 _atom_site_fract_x
 _atom_site_fract_y
 _atom_site_fract_z
 _atom_site_occupancy
  Zr  Zr0  1  0.685376  0.685376  0.685376  1
  Zr  Zr1  1  0.314624  0.314624  0.314624  1
  Co  Co2  1  0.000000  0.000000  0.500000  1
  Co  Co3  1  0.500000  0.000000  0.000000  1
  Co  Co4  1  0.000000  0.500000  0.000000  1
  Co  Co5  1  0.702943  0.202783  0.702943  1
  Co  Co6  1  0.702943  0.702943  0.202783  1
  Co  Co7  1  0.202783  0.702943  0.702943  1
  Co  Co8  1  0.297057  0.797217  0.297057  1
  Co  Co9  1  0.297057  0.297057  0.797217  1
  Co  Co10  1  0.797217  0.297057  0.297057  1
  B  B11  1  0.615563  0.384437  0.000000  1
  B  B12  1  0.000000  0.615563  0.384437  1
  B  B13  1  0.384437  0.000000  0.615563  1
  B  B14  1  0.000000  0.384437  0.615563  1
  B  B15  1  0.615563  0.000000  0.384437  1
  B  B16  1  0.384437  0.615563  0.000000  1
  Rh  Rh17  1  0.000000  0.000000  0.000000  1
