# generated using pymatgen
data_Y(ZnAu)3
_symmetry_space_group_name_H-M   'P 1'
_cell_length_a   5.49859417
_cell_length_b   5.49859202
_cell_length_c   5.67336467
_cell_angle_alpha   102.68766208
_cell_angle_beta   102.68765062
_cell_angle_gamma   123.14540325
_symmetry_Int_Tables_number   1
_chemical_formula_structural   Y(ZnAu)3
_chemical_formula_sum   'Y1 Zn3 Au3'
_cell_volume   127.42093540
_cell_formula_units_Z   1
loop_
 _symmetry_equiv_pos_site_id
 _symmetry_equiv_pos_as_xyz
  1  'x, y, z'
loop_
 _atom_site_type_symbol
 _atom_site_label
 _atom_site_symmetry_multiplicity
 _atom_site_fract_x
 _atom_site_fract_y
 _atom_site_fract_z
 _atom_site_occupancy
  Y  Y0  1  0.004103  0.004103  0.008204  1
  Zn  Zn1  1  0.247608  0.747608  0.495215  1
  Zn  Zn2  1  0.747608  0.247608  0.495215  1
  Zn  Zn3  1  0.305420  0.305420  0.610840  1
  Au  Au4  1  0.708632  0.708632  0.417266  1
  Au  Au5  1  0.680786  0.305843  0.986629  1
  Au  Au6  1  0.305843  0.680786  0.986629  1
