# generated using pymatgen
data_Zr2NpMn3
_symmetry_space_group_name_H-M   'P 1'
_cell_length_a   5.33690601
_cell_length_b   5.33690588
_cell_length_c   4.97502163
_cell_angle_alpha   57.56312455
_cell_angle_beta   57.56312195
_cell_angle_gamma   60.00000478
_symmetry_Int_Tables_number   1
_chemical_formula_structural   Zr2NpMn3
_chemical_formula_sum   'Zr2 Np1 Mn3'
_cell_volume   96.34726028
_cell_formula_units_Z   1
loop_
 _symmetry_equiv_pos_site_id
 _symmetry_equiv_pos_as_xyz
  1  'x, y, z'
loop_
 _atom_site_type_symbol
 _atom_site_label
 _atom_site_symmetry_multiplicity
 _atom_site_fract_x
 _atom_site_fract_y
 _atom_site_fract_z
 _atom_site_occupancy
  Zr  Zr0  1  0.751258  0.751258  0.746225  1
  Zr  Zr1  1  0.498742  0.498742  0.503775  1
  Np  Np2  1  0.125000  0.125000  0.625000  1
  Mn  Mn3  1  0.125000  0.625000  0.125000  1
  Mn  Mn4  1  0.625000  0.125000  0.125000  1
  Mn  Mn5  1  0.125000  0.125000  0.125000  1
