# generated using pymatgen
data_Hf3ZrAl4Mo3Pt
_symmetry_space_group_name_H-M   'P 1'
_cell_length_a   5.26545104
_cell_length_b   5.26545191
_cell_length_c   8.73683686
_cell_angle_alpha   90.06413437
_cell_angle_beta   89.93586624
_cell_angle_gamma   119.42587515
_symmetry_Int_Tables_number   1
_chemical_formula_structural   Hf3ZrAl4Mo3Pt
_chemical_formula_sum   'Hf3 Zr1 Al4 Mo3 Pt1'
_cell_volume   210.97901985
_cell_formula_units_Z   1
loop_
 _symmetry_equiv_pos_site_id
 _symmetry_equiv_pos_as_xyz
  1  'x, y, z'
loop_
 _atom_site_type_symbol
 _atom_site_label
 _atom_site_symmetry_multiplicity
 _atom_site_fract_x
 _atom_site_fract_y
 _atom_site_fract_z
 _atom_site_occupancy
  Hf  Hf0  1  0.333922  0.666078  0.188708  1
  Hf  Hf1  1  0.666664  0.333336  0.317027  1
  Hf  Hf2  1  0.666461  0.333539  0.682475  1
  Zr  Zr3  1  0.334184  0.665816  0.812292  1
  Al  Al4  1  0.997368  0.002632  0.245264  1
  Al  Al5  1  0.997396  0.002604  0.754610  1
  Al  Al6  1  0.831180  0.651072  0.000239  1
  Al  Al7  1  0.348928  0.168820  0.000239  1
  Mo  Mo8  1  0.165673  0.343358  0.499464  1
  Mo  Mo9  1  0.656642  0.834327  0.499464  1
  Mo  Mo10  1  0.167524  0.832476  0.498957  1
  Pt  Pt11  1  0.834211  0.165789  0.001262  1
