# generated using pymatgen
data_Tm3Np(Si5Os3)2
_symmetry_space_group_name_H-M   'P 1'
_cell_length_a   8.10469364
_cell_length_b   8.09887117
_cell_length_c   5.75627647
_cell_angle_alpha   70.65960309
_cell_angle_beta   70.69752594
_cell_angle_gamma   93.95567019
_symmetry_Int_Tables_number   1
_chemical_formula_structural   Tm3Np(Si5Os3)2
_chemical_formula_sum   'Tm3 Np1 Si10 Os6'
_cell_volume   329.64721061
_cell_formula_units_Z   1
loop_
 _symmetry_equiv_pos_site_id
 _symmetry_equiv_pos_as_xyz
  1  'x, y, z'
loop_
 _atom_site_type_symbol
 _atom_site_label
 _atom_site_symmetry_multiplicity
 _atom_site_fract_x
 _atom_site_fract_y
 _atom_site_fract_z
 _atom_site_occupancy
  Tm  Tm0  1  0.870864  0.600852  0.752220  1
  Tm  Tm1  1  0.400321  0.133750  0.740931  1
  Tm  Tm2  1  0.132851  0.397942  0.245034  1
  Np  Np3  1  0.593636  0.870554  0.258848  1
  Si  Si4  1  0.068534  0.259949  0.835524  1
  Si  Si5  1  0.736195  0.933302  0.669595  1
  Si  Si6  1  0.929036  0.740349  0.165672  1
  Si  Si7  1  0.265372  0.065761  0.331042  1
  Si  Si8  1  0.207440  0.796477  0.741117  1
  Si  Si9  1  0.794833  0.205184  0.257137  1
  Si  Si10  1  0.515732  0.487044  0.748803  1
  Si  Si11  1  0.484673  0.510939  0.254628  1
  Si  Si12  1  0.774497  0.225859  0.745152  1
  Si  Si13  1  0.225625  0.775750  0.253665  1
  Os  Os14  1  0.255196  0.540345  0.634930  1
  Os  Os15  1  0.453216  0.745232  0.867697  1
  Os  Os16  1  0.745313  0.459218  0.363614  1
  Os  Os17  1  0.548506  0.253631  0.130258  1
  Os  Os18  1  0.002059  0.997187  0.750662  1
  Os  Os19  1  0.996104  0.000675  0.253469  1
