# generated using pymatgen
data_Y8Cu(Si5W4)3
_symmetry_space_group_name_H-M   'P 1'
_cell_length_a   6.79646296
_cell_length_b   6.95892364
_cell_length_c   12.95315593
_cell_angle_alpha   90.02462677
_cell_angle_beta   89.96675961
_cell_angle_gamma   90.01296900
_symmetry_Int_Tables_number   1
_chemical_formula_structural   Y8Cu(Si5W4)3
_chemical_formula_sum   'Y8 Cu1 Si15 W12'
_cell_volume   612.63315262
_cell_formula_units_Z   1
loop_
 _symmetry_equiv_pos_site_id
 _symmetry_equiv_pos_as_xyz
  1  'x, y, z'
loop_
 _atom_site_type_symbol
 _atom_site_label
 _atom_site_symmetry_multiplicity
 _atom_site_fract_x
 _atom_site_fract_y
 _atom_site_fract_z
 _atom_site_occupancy
  Y  Y0  1  0.496831  0.331424  0.094047  1
  Y  Y1  1  0.997860  0.169552  0.407173  1
  Y  Y2  1  0.500943  0.664246  0.592466  1
  Y  Y3  1  0.003312  0.830406  0.906147  1
  Y  Y4  1  0.502373  0.668846  0.906771  1
  Y  Y5  1  0.006066  0.827017  0.592026  1
  Y  Y6  1  0.495650  0.335753  0.407647  1
  Y  Y7  1  0.996672  0.168663  0.094292  1
  Cu  Cu8  1  0.161090  0.458426  0.542432  1
  Si  Si9  1  0.803046  0.630892  0.749233  1
  Si  Si10  1  0.301464  0.865590  0.749215  1
  Si  Si11  1  0.196610  0.370296  0.250447  1
  Si  Si12  1  0.697710  0.133555  0.251735  1
  Si  Si13  1  0.532323  0.372740  0.750348  1
  Si  Si14  1  0.034099  0.127202  0.748112  1
  Si  Si15  1  0.465971  0.631335  0.249358  1
  Si  Si16  1  0.963937  0.871762  0.248669  1
  Si  Si17  1  0.662286  0.041985  0.545161  1
  Si  Si18  1  0.161423  0.454121  0.956164  1
  Si  Si19  1  0.337217  0.956964  0.045429  1
  Si  Si20  1  0.846403  0.541858  0.454758  1
  Si  Si21  1  0.338394  0.957251  0.454723  1
  Si  Si22  1  0.838228  0.544173  0.046742  1
  Si  Si23  1  0.662878  0.044364  0.956037  1
  W  W24  1  0.661817  0.007627  0.751269  1
  W  W25  1  0.160784  0.488123  0.753353  1
  W  W26  1  0.337457  0.997671  0.249198  1
  W  W27  1  0.835217  0.504089  0.249735  1
  W  W28  1  0.825887  0.335610  0.627757  1
  W  W29  1  0.333688  0.160387  0.875127  1
  W  W30  1  0.169864  0.663553  0.122814  1
  W  W31  1  0.670050  0.837184  0.374935  1
  W  W32  1  0.167710  0.672265  0.368134  1
  W  W33  1  0.667519  0.839943  0.125615  1
  W  W34  1  0.831483  0.336533  0.875510  1
  W  W35  1  0.335736  0.158593  0.627421  1
