# generated using pymatgen
data_Y3HoCo8(PRh)12
_symmetry_space_group_name_H-M   'P 1'
_cell_length_a   3.80133200
_cell_length_b   10.66147205
_cell_length_c   12.22986108
_cell_angle_alpha   90.01230474
_cell_angle_beta   90.00000000
_cell_angle_gamma   90.00000000
_symmetry_Int_Tables_number   1
_chemical_formula_structural   Y3HoCo8(PRh)12
_chemical_formula_sum   'Y3 Ho1 Co8 P12 Rh12'
_cell_volume   495.64928991
_cell_formula_units_Z   1
loop_
 _symmetry_equiv_pos_site_id
 _symmetry_equiv_pos_as_xyz
  1  'x, y, z'
loop_
 _atom_site_type_symbol
 _atom_site_label
 _atom_site_symmetry_multiplicity
 _atom_site_fract_x
 _atom_site_fract_y
 _atom_site_fract_z
 _atom_site_occupancy
  Y  Y0  1  0.750000  0.082249  0.790751  1
  Y  Y1  1  0.750000  0.417559  0.290820  1
  Y  Y2  1  0.250000  0.582518  0.709254  1
  Ho  Ho3  1  0.250000  0.917514  0.208966  1
  Co  Co4  1  0.250000  0.617158  0.196670  1
  Co  Co5  1  0.750000  0.383056  0.803591  1
  Co  Co6  1  0.750000  0.116618  0.303143  1
  Co  Co7  1  0.250000  0.882940  0.696340  1
  Co  Co8  1  0.250000  0.036525  0.432353  1
  Co  Co9  1  0.750000  0.963110  0.566505  1
  Co  Co10  1  0.750000  0.537003  0.067136  1
  Co  Co11  1  0.250000  0.463294  0.933090  1
  P  P12  1  0.250000  0.068493  0.610291  1
  P  P13  1  0.750000  0.931495  0.388596  1
  P  P14  1  0.750000  0.568677  0.889470  1
  P  P15  1  0.250000  0.431501  0.110710  1
  P  P16  1  0.250000  0.225982  0.371069  1
  P  P17  1  0.750000  0.774079  0.628954  1
  P  P18  1  0.750000  0.726338  0.129180  1
  P  P19  1  0.250000  0.273905  0.871295  1
  P  P20  1  0.250000  0.899308  0.881332  1
  P  P21  1  0.750000  0.100336  0.118924  1
  P  P22  1  0.750000  0.399225  0.618613  1
  P  P23  1  0.250000  0.600674  0.381495  1
  Rh  Rh24  1  0.250000  0.784259  0.490450  1
  Rh  Rh25  1  0.750000  0.215692  0.509230  1
  Rh  Rh26  1  0.750000  0.284115  0.009514  1
  Rh  Rh27  1  0.250000  0.716023  0.990961  1
  Rh  Rh28  1  0.250000  0.091046  0.979614  1
  Rh  Rh29  1  0.750000  0.908741  0.021488  1
  Rh  Rh30  1  0.750000  0.591313  0.520466  1
  Rh  Rh31  1  0.250000  0.408711  0.479596  1
  Rh  Rh32  1  0.250000  0.273438  0.680188  1
  Rh  Rh33  1  0.750000  0.726964  0.319701  1
  Rh  Rh34  1  0.750000  0.773797  0.820276  1
  Rh  Rh35  1  0.250000  0.226345  0.179968  1
