# generated using pymatgen
data_ErSnF7
_symmetry_space_group_name_H-M   'P 1'
_cell_length_a   5.63508700
_cell_length_b   8.92837908
_cell_length_c   12.03112141
_cell_angle_alpha   62.56165503
_cell_angle_beta   90.00000000
_cell_angle_gamma   90.00000000
_symmetry_Int_Tables_number   1
_chemical_formula_structural   ErSnF7
_chemical_formula_sum   'Er4 Sn4 F28'
_cell_volume   537.21884742
_cell_formula_units_Z   4
loop_
 _symmetry_equiv_pos_site_id
 _symmetry_equiv_pos_as_xyz
  1  'x, y, z'
loop_
 _atom_site_type_symbol
 _atom_site_label
 _atom_site_symmetry_multiplicity
 _atom_site_fract_x
 _atom_site_fract_y
 _atom_site_fract_z
 _atom_site_occupancy
  Er  Er0  1  0.757598  0.814395  0.765576  1
  Er  Er1  1  0.257598  0.185605  0.734424  1
  Er  Er2  1  0.242402  0.185605  0.234424  1
  Er  Er3  1  0.742402  0.814395  0.265576  1
  Sn  Sn4  1  0.757374  0.272435  0.956685  1
  Sn  Sn5  1  0.257374  0.727565  0.543315  1
  Sn  Sn6  1  0.242626  0.727565  0.043315  1
  Sn  Sn7  1  0.742626  0.272435  0.456685  1
  F  F8  1  0.455422  0.707024  0.918462  1
  F  F9  1  0.955422  0.292976  0.581538  1
  F  F10  1  0.544578  0.292976  0.081538  1
  F  F11  1  0.044578  0.707024  0.418462  1
  F  F12  1  0.445223  0.278434  0.547183  1
  F  F13  1  0.945223  0.721566  0.952817  1
  F  F14  1  0.554777  0.721566  0.452817  1
  F  F15  1  0.054777  0.278434  0.047183  1
  F  F16  1  0.773937  0.522710  0.858784  1
  F  F17  1  0.273937  0.477290  0.641216  1
  F  F18  1  0.226063  0.477290  0.141216  1
  F  F19  1  0.726063  0.522710  0.358784  1
  F  F20  1  0.758193  0.021702  0.054565  1
  F  F21  1  0.258193  0.978298  0.445435  1
  F  F22  1  0.241807  0.978298  0.945435  1
  F  F23  1  0.741807  0.021702  0.554565  1
  F  F24  1  0.979759  0.730104  0.646092  1
  F  F25  1  0.479759  0.269896  0.853908  1
  F  F26  1  0.020241  0.269896  0.353908  1
  F  F27  1  0.520241  0.730104  0.146092  1
  F  F28  1  0.038626  0.745443  0.173962  1
  F  F29  1  0.538626  0.254557  0.326038  1
  F  F30  1  0.961374  0.254557  0.826038  1
  F  F31  1  0.461374  0.745443  0.673962  1
  F  F32  1  0.425775  0.972660  0.234506  1
  F  F33  1  0.925775  0.027340  0.265494  1
  F  F34  1  0.574225  0.027340  0.765494  1
  F  F35  1  0.074225  0.972660  0.734506  1
