# generated using pymatgen
data_SmTh2Al7Cu2
_symmetry_space_group_name_H-M   'P 1'
_cell_length_a   9.16704208
_cell_length_b   9.16704185
_cell_length_c   9.16704198
_cell_angle_alpha   35.54490060
_cell_angle_beta   35.54490656
_cell_angle_gamma   35.54489869
_symmetry_Int_Tables_number   1
_chemical_formula_structural   SmTh2Al7Cu2
_chemical_formula_sum   'Sm1 Th2 Al7 Cu2'
_cell_volume   232.67506748
_cell_formula_units_Z   1
loop_
 _symmetry_equiv_pos_site_id
 _symmetry_equiv_pos_as_xyz
  1  'x, y, z'
loop_
 _atom_site_type_symbol
 _atom_site_label
 _atom_site_symmetry_multiplicity
 _atom_site_fract_x
 _atom_site_fract_y
 _atom_site_fract_z
 _atom_site_occupancy
  Sm  Sm0  1  0.860016  0.860016  0.860016  1
  Th  Th1  1  0.001062  0.001062  0.001062  1
  Th  Th2  1  0.140934  0.140934  0.140934  1
  Al  Al3  1  0.580608  0.580608  0.071373  1
  Al  Al4  1  0.928055  0.419004  0.419005  1
  Al  Al5  1  0.419004  0.928055  0.419005  1
  Al  Al6  1  0.500425  0.500425  0.500425  1
  Al  Al7  1  0.580609  0.071373  0.580608  1
  Al  Al8  1  0.071373  0.580609  0.580608  1
  Al  Al9  1  0.419005  0.419005  0.928055  1
  Cu  Cu10  1  0.334674  0.334674  0.334674  1
  Cu  Cu11  1  0.664236  0.664236  0.664236  1
