# generated using pymatgen
data_Nd12InCo4Ni
_symmetry_space_group_name_H-M   'P 1'
_cell_length_a   8.58539504
_cell_length_b   8.58539593
_cell_length_c   8.58539546
_cell_angle_alpha   111.04137497
_cell_angle_beta   109.77368404
_cell_angle_gamma   107.61697821
_symmetry_Int_Tables_number   1
_chemical_formula_structural   Nd12InCo4Ni
_chemical_formula_sum   'Nd12 In1 Co4 Ni1'
_cell_volume   486.70303380
_cell_formula_units_Z   1
loop_
 _symmetry_equiv_pos_site_id
 _symmetry_equiv_pos_as_xyz
  1  'x, y, z'
loop_
 _atom_site_type_symbol
 _atom_site_label
 _atom_site_symmetry_multiplicity
 _atom_site_fract_x
 _atom_site_fract_y
 _atom_site_fract_z
 _atom_site_occupancy
  Nd  Nd0  1  0.397907  0.205488  0.192421  1
  Nd  Nd1  1  0.602093  0.794512  0.807579  1
  Nd  Nd2  1  0.013068  0.205488  0.807579  1
  Nd  Nd3  1  0.986932  0.794512  0.192421  1
  Nd  Nd4  1  0.184025  0.296602  0.480628  1
  Nd  Nd5  1  0.815975  0.703398  0.519372  1
  Nd  Nd6  1  0.184025  0.703398  0.887423  1
  Nd  Nd7  1  0.815975  0.296602  0.112577  1
  Nd  Nd8  1  0.318298  0.625551  0.307253  1
  Nd  Nd9  1  0.681702  0.374449  0.692747  1
  Nd  Nd10  1  0.318298  0.011045  0.692747  1
  Nd  Nd11  1  0.681702  0.988955  0.307253  1
  In  In12  1  0.500000  0.500000  0.000000  1
  Co  Co13  1  0.375675  0.000000  0.375675  1
  Co  Co14  1  0.624325  0.000000  0.624325  1
  Co  Co15  1  0.111979  0.611979  0.500000  1
  Co  Co16  1  0.888021  0.388021  0.500000  1
  Ni  Ni17  1  0.000000  0.000000  0.000000  1
