# generated using pymatgen
data_Rb8Li4ScGa3P8
_symmetry_space_group_name_H-M   'P 1'
_cell_length_a   10.14408688
_cell_length_b   10.14408583
_cell_length_c   6.26275627
_cell_angle_alpha   90.10950481
_cell_angle_beta   89.89050327
_cell_angle_gamma   104.65963951
_symmetry_Int_Tables_number   1
_chemical_formula_structural   Rb8Li4ScGa3P8
_chemical_formula_sum   'Rb8 Li4 Sc1 Ga3 P8'
_cell_volume   623.47202601
_cell_formula_units_Z   1
loop_
 _symmetry_equiv_pos_site_id
 _symmetry_equiv_pos_as_xyz
  1  'x, y, z'
loop_
 _atom_site_type_symbol
 _atom_site_label
 _atom_site_symmetry_multiplicity
 _atom_site_fract_x
 _atom_site_fract_y
 _atom_site_fract_z
 _atom_site_occupancy
  Rb  Rb0  1  0.080916  0.429244  0.745364  1
  Rb  Rb1  1  0.670733  0.331368  0.780741  1
  Rb  Rb2  1  0.331368  0.670733  0.219259  1
  Rb  Rb3  1  0.574086  0.919173  0.749498  1
  Rb  Rb4  1  0.429244  0.080916  0.254636  1
  Rb  Rb5  1  0.919173  0.574086  0.250502  1
  Rb  Rb6  1  0.821978  0.170449  0.286262  1
  Rb  Rb7  1  0.170449  0.821978  0.713738  1
  Li  Li8  1  0.120500  0.120500  0.500000  1
  Li  Li9  1  0.876640  0.876640  0.500000  1
  Li  Li10  1  0.382971  0.382971  0.000000  1
  Li  Li11  1  0.621427  0.621427  0.000000  1
  Sc  Sc12  1  0.125404  0.125404  0.000000  1
  Ga  Ga13  1  0.869485  0.869485  0.000000  1
  Ga  Ga14  1  0.372175  0.372175  0.500000  1
  Ga  Ga15  1  0.633907  0.633907  0.500000  1
  P  P16  1  0.834288  0.667390  0.752575  1
  P  P17  1  0.081772  0.905349  0.216894  1
  P  P18  1  0.419796  0.585900  0.708184  1
  P  P19  1  0.585900  0.419796  0.291816  1
  P  P20  1  0.667390  0.834288  0.247425  1
  P  P21  1  0.170394  0.334655  0.256735  1
  P  P22  1  0.334655  0.170394  0.743265  1
  P  P23  1  0.905349  0.081772  0.783106  1
