# generated using pymatgen
data_Sr5(HgPd)3
_symmetry_space_group_name_H-M   'P 1'
_cell_length_a   16.61856068
_cell_length_b   16.61855839
_cell_length_c   4.40903600
_cell_angle_alpha   90.00000000
_cell_angle_beta   90.00000000
_cell_angle_gamma   164.23623804
_symmetry_Int_Tables_number   1
_chemical_formula_structural   Sr5(HgPd)3
_chemical_formula_sum   'Sr5 Hg3 Pd3'
_cell_volume   330.80698007
_cell_formula_units_Z   1
loop_
 _symmetry_equiv_pos_site_id
 _symmetry_equiv_pos_as_xyz
  1  'x, y, z'
loop_
 _atom_site_type_symbol
 _atom_site_label
 _atom_site_symmetry_multiplicity
 _atom_site_fract_x
 _atom_site_fract_y
 _atom_site_fract_z
 _atom_site_occupancy
  Sr  Sr0  1  0.998308  0.001692  0.000000  1
  Sr  Sr1  1  0.615448  0.384550  0.000000  1
  Sr  Sr2  1  0.383318  0.616680  0.000000  1
  Sr  Sr3  1  0.801556  0.198442  0.500001  1
  Sr  Sr4  1  0.196186  0.803812  0.500001  1
  Hg  Hg5  1  0.724098  0.275900  0.000000  1
  Hg  Hg6  1  0.909323  0.090676  0.500001  1
  Hg  Hg7  1  0.541620  0.458378  0.500001  1
  Pd  Pd8  1  0.277945  0.722053  0.000000  1
  Pd  Pd9  1  0.457356  0.542642  0.500001  1
  Pd  Pd10  1  0.094834  0.905165  0.500001  1
