# generated using pymatgen
data_Sr2ThCd11
_symmetry_space_group_name_H-M   'P 1'
_cell_length_a   9.23620130
_cell_length_b   9.23620178
_cell_length_c   9.23620154
_cell_angle_alpha   147.91020836
_cell_angle_beta   116.37221406
_cell_angle_gamma   73.05717220
_symmetry_Int_Tables_number   1
_chemical_formula_structural   Sr2ThCd11
_chemical_formula_sum   'Sr2 Th1 Cd11'
_cell_volume   368.99933820
_cell_formula_units_Z   1
loop_
 _symmetry_equiv_pos_site_id
 _symmetry_equiv_pos_as_xyz
  1  'x, y, z'
loop_
 _atom_site_type_symbol
 _atom_site_label
 _atom_site_symmetry_multiplicity
 _atom_site_fract_x
 _atom_site_fract_y
 _atom_site_fract_z
 _atom_site_occupancy
  Sr  Sr0  1  0.999130  0.999130  0.000000  1
  Sr  Sr1  1  0.704078  0.704078  0.000000  1
  Th  Th2  1  0.293509  0.293509  0.000000  1
  Cd  Cd3  1  0.671614  0.497266  0.174349  1
  Cd  Cd4  1  0.418203  0.141644  0.276558  1
  Cd  Cd5  1  0.161323  0.859197  0.302125  1
  Cd  Cd6  1  0.693465  0.339515  0.353950  1
  Cd  Cd7  1  0.017914  0.660088  0.357825  1
  Cd  Cd8  1  0.507864  0.007864  0.500000  1
  Cd  Cd9  1  0.985565  0.339515  0.646050  1
  Cd  Cd10  1  0.302262  0.660088  0.642173  1
  Cd  Cd11  1  0.865086  0.141644  0.723442  1
  Cd  Cd12  1  0.557070  0.859197  0.697873  1
  Cd  Cd13  1  0.322917  0.497265  0.825651  1
