# generated using pymatgen
data_Zr10Sn3Bi3Sb
_symmetry_space_group_name_H-M   'P 1'
_cell_length_a   5.95949600
_cell_length_b   8.77282600
_cell_length_c   8.77281500
_cell_angle_alpha   120.00008066
_cell_angle_beta   90.00009001
_cell_angle_gamma   89.99997235
_symmetry_Int_Tables_number   1
_chemical_formula_structural   Zr10Sn3Bi3Sb
_chemical_formula_sum   'Zr10 Sn3 Bi3 Sb1'
_cell_volume   397.20828451
_cell_formula_units_Z   1
loop_
 _symmetry_equiv_pos_site_id
 _symmetry_equiv_pos_as_xyz
  1  'x, y, z'
loop_
 _atom_site_type_symbol
 _atom_site_label
 _atom_site_symmetry_multiplicity
 _atom_site_fract_x
 _atom_site_fract_y
 _atom_site_fract_z
 _atom_site_occupancy
  Zr  Zr0  1  0.496169  0.333335  0.666666  1
  Zr  Zr1  1  0.496169  0.666668  0.333334  1
  Zr  Zr2  1  0.005439  0.666669  0.333333  1
  Zr  Zr3  1  0.005439  0.333335  0.666667  1
  Zr  Zr4  1  0.772007  0.264683  0.000000  1
  Zr  Zr5  1  0.772000  0.735319  0.735319  1
  Zr  Zr6  1  0.771999  0.999999  0.264681  1
  Zr  Zr7  1  0.229920  0.732616  0.000000  1
  Zr  Zr8  1  0.229922  0.267390  0.267388  1
  Zr  Zr9  1  0.229922  0.000001  0.732611  1
  Sn  Sn10  1  0.254446  0.385301  0.000000  1
  Sn  Sn11  1  0.254440  0.614696  0.614710  1
  Sn  Sn12  1  0.254440  0.999986  0.385291  1
  Bi  Bi13  1  0.743502  0.611231  0.000000  1
  Bi  Bi14  1  0.743506  0.388769  0.388768  1
  Bi  Bi15  1  0.743506  0.000001  0.611232  1
  Sb  Sb16  1  0.497174  0.000004  0.000000  1
