# generated using pymatgen
data_Pr12Hg(IrI4)3
_symmetry_space_group_name_H-M   'P 1'
_cell_length_a   11.08513192
_cell_length_b   11.08513263
_cell_length_c   11.08513164
_cell_angle_alpha   110.00809195
_cell_angle_beta   110.00809349
_cell_angle_gamma   110.00809348
_symmetry_Int_Tables_number   1
_chemical_formula_structural   Pr12Hg(IrI4)3
_chemical_formula_sum   'Pr12 Hg1 Ir3 I12'
_cell_volume   1027.20693041
_cell_formula_units_Z   1
loop_
 _symmetry_equiv_pos_site_id
 _symmetry_equiv_pos_as_xyz
  1  'x, y, z'
loop_
 _atom_site_type_symbol
 _atom_site_label
 _atom_site_symmetry_multiplicity
 _atom_site_fract_x
 _atom_site_fract_y
 _atom_site_fract_z
 _atom_site_occupancy
  Pr  Pr0  1  0.462625  0.493344  0.221441  1
  Pr  Pr1  1  0.750000  0.227741  0.272259  1
  Pr  Pr2  1  0.750000  0.019476  0.480524  1
  Pr  Pr3  1  0.221441  0.462625  0.493344  1
  Pr  Pr4  1  0.272259  0.750000  0.227741  1
  Pr  Pr5  1  0.037375  0.278559  0.006656  1
  Pr  Pr6  1  0.006656  0.037375  0.278559  1
  Pr  Pr7  1  0.480524  0.750000  0.019476  1
  Pr  Pr8  1  0.493344  0.221441  0.462625  1
  Pr  Pr9  1  0.019476  0.480524  0.750000  1
  Pr  Pr10  1  0.278559  0.006656  0.037375  1
  Pr  Pr11  1  0.227741  0.272259  0.750000  1
  Hg  Hg12  1  0.250000  0.250000  0.250000  1
  Ir  Ir13  1  0.502624  0.997376  0.250000  1
  Ir  Ir14  1  0.997376  0.250000  0.502624  1
  Ir  Ir15  1  0.250000  0.502624  0.997376  1
  I  I16  1  0.250000  0.761332  0.738668  1
  I  I17  1  0.513518  0.504433  0.754211  1
  I  I18  1  0.986482  0.745789  0.995567  1
  I  I19  1  0.738668  0.250000  0.761332  1
  I  I20  1  0.995567  0.986482  0.745789  1
  I  I21  1  0.250000  0.995438  0.504562  1
  I  I22  1  0.754211  0.513518  0.504433  1
  I  I23  1  0.504562  0.250000  0.995438  1
  I  I24  1  0.761332  0.738668  0.250000  1
  I  I25  1  0.745789  0.995567  0.986482  1
  I  I26  1  0.995438  0.504562  0.250000  1
  I  I27  1  0.504433  0.754211  0.513518  1
