# generated using pymatgen
data_Ca2B6MoW
_symmetry_space_group_name_H-M   'P 1'
_cell_length_a   3.10255300
_cell_length_b   5.50803218
_cell_length_c   6.95710691
_cell_angle_alpha   77.29580234
_cell_angle_beta   90.00000000
_cell_angle_gamma   90.00000000
_symmetry_Int_Tables_number   1
_chemical_formula_structural   Ca2B6MoW
_chemical_formula_sum   'Ca2 B6 Mo1 W1'
_cell_volume   115.97912729
_cell_formula_units_Z   1
loop_
 _symmetry_equiv_pos_site_id
 _symmetry_equiv_pos_as_xyz
  1  'x, y, z'
loop_
 _atom_site_type_symbol
 _atom_site_label
 _atom_site_symmetry_multiplicity
 _atom_site_fract_x
 _atom_site_fract_y
 _atom_site_fract_z
 _atom_site_occupancy
  Ca  Ca0  1  0.750000  0.829926  0.707170  1
  Ca  Ca1  1  0.250000  0.169320  0.293241  1
  B  B2  1  0.250000  0.566592  0.465624  1
  B  B3  1  0.750000  0.435570  0.532180  1
  B  B4  1  0.250000  0.588268  0.992267  1
  B  B5  1  0.750000  0.410670  0.008796  1
  B  B6  1  0.250000  0.916495  0.992104  1
  B  B7  1  0.750000  0.083541  0.009748  1
  Mo  Mo8  1  0.250000  0.313556  0.783042  1
  W  W9  1  0.750000  0.686061  0.215826  1
