# generated using pymatgen
data_Er2Tm5Co6Sn23
_symmetry_space_group_name_H-M   'P 1'
_cell_length_a   9.66612511
_cell_length_b   9.66848111
_cell_length_c   9.94721403
_cell_angle_alpha   90.00000251
_cell_angle_beta   90.00704690
_cell_angle_gamma   120.00807030
_symmetry_Int_Tables_number   1
_chemical_formula_structural   Er2Tm5Co6Sn23
_chemical_formula_sum   'Er2 Tm5 Co6 Sn23'
_cell_volume   805.02141158
_cell_formula_units_Z   1
loop_
 _symmetry_equiv_pos_site_id
 _symmetry_equiv_pos_as_xyz
  1  'x, y, z'
loop_
 _atom_site_type_symbol
 _atom_site_label
 _atom_site_symmetry_multiplicity
 _atom_site_fract_x
 _atom_site_fract_y
 _atom_site_fract_z
 _atom_site_occupancy
  Er  Er0  1  0.958093  0.479046  0.693560  1
  Er  Er1  1  0.000361  0.000180  0.000213  1
  Tm  Tm2  1  0.479380  0.520725  0.306128  1
  Tm  Tm3  1  0.520738  0.479457  0.693758  1
  Tm  Tm4  1  0.479380  0.958656  0.306128  1
  Tm  Tm5  1  0.520738  0.041280  0.693758  1
  Tm  Tm6  1  0.041229  0.520615  0.306181  1
  Co  Co7  1  0.832246  0.167815  0.196945  1
  Co  Co8  1  0.167926  0.832546  0.803104  1
  Co  Co9  1  0.832246  0.664431  0.196945  1
  Co  Co10  1  0.167926  0.335379  0.803104  1
  Co  Co11  1  0.335691  0.167846  0.196959  1
  Co  Co12  1  0.663938  0.831968  0.803024  1
  Sn  Sn13  1  0.118858  0.881339  0.274711  1
  Sn  Sn14  1  0.881179  0.118144  0.725391  1
  Sn  Sn15  1  0.118858  0.237518  0.274711  1
  Sn  Sn16  1  0.881179  0.763035  0.725391  1
  Sn  Sn17  1  0.762575  0.881288  0.274785  1
  Sn  Sn18  1  0.237892  0.118946  0.725211  1
  Sn  Sn19  1  0.780564  0.219130  0.451443  1
  Sn  Sn20  1  0.219449  0.780982  0.548260  1
  Sn  Sn21  1  0.780564  0.561435  0.451443  1
  Sn  Sn22  1  0.219449  0.438467  0.548260  1
  Sn  Sn23  1  0.438906  0.219453  0.451391  1
  Sn  Sn24  1  0.561120  0.780560  0.548420  1
  Sn  Sn25  1  0.346287  0.000137  0.000129  1
  Sn  Sn26  1  0.653895  0.999876  0.000001  1
  Sn  Sn27  1  0.999903  0.346206  0.000082  1
  Sn  Sn28  1  0.999903  0.653697  0.000082  1
  Sn  Sn29  1  0.653895  0.654019  0.000001  1
  Sn  Sn30  1  0.346287  0.346150  0.000129  1
  Sn  Sn31  1  0.333232  0.666617  0.122010  1
  Sn  Sn32  1  0.665936  0.332967  0.878209  1
  Sn  Sn33  1  0.333143  0.666572  0.818714  1
  Sn  Sn34  1  0.666845  0.333422  0.181277  1
  Sn  Sn35  1  0.000192  0.000096  0.500145  1
