# generated using pymatgen
data_Yb3DyFeOs7
_symmetry_space_group_name_H-M   'P 1'
_cell_length_a   5.28247107
_cell_length_b   5.30625314
_cell_length_c   8.68821647
_cell_angle_alpha   90.00326829
_cell_angle_beta   89.94063877
_cell_angle_gamma   120.15470828
_symmetry_Int_Tables_number   1
_chemical_formula_structural   Yb3DyFeOs7
_chemical_formula_sum   'Yb3 Dy1 Fe1 Os7'
_cell_volume   210.57504765
_cell_formula_units_Z   1
loop_
 _symmetry_equiv_pos_site_id
 _symmetry_equiv_pos_as_xyz
  1  'x, y, z'
loop_
 _atom_site_type_symbol
 _atom_site_label
 _atom_site_symmetry_multiplicity
 _atom_site_fract_x
 _atom_site_fract_y
 _atom_site_fract_z
 _atom_site_occupancy
  Yb  Yb0  1  0.333672  0.666793  0.430956  1
  Yb  Yb1  1  0.333535  0.666811  0.065108  1
  Yb  Yb2  1  0.661993  0.331033  0.940239  1
  Dy  Dy3  1  0.662610  0.331256  0.565804  1
  Fe  Fe4  1  0.345938  0.172949  0.250020  1
  Os  Os5  1  0.990685  0.995194  0.493924  1
  Os  Os6  1  0.988126  0.994074  0.004573  1
  Os  Os7  1  0.173687  0.346207  0.749969  1
  Os  Os8  1  0.173683  0.827658  0.749934  1
  Os  Os9  1  0.662249  0.831125  0.750262  1
  Os  Os10  1  0.836846  0.657094  0.249652  1
  Os  Os11  1  0.836974  0.179807  0.249559  1
