# generated using pymatgen
data_HoGe(AsRh2)3
_symmetry_space_group_name_H-M   'P 1'
_cell_length_a   7.27100400
_cell_length_b   7.27100385
_cell_length_c   3.82036500
_cell_angle_alpha   90.00000000
_cell_angle_beta   90.00000000
_cell_angle_gamma   120.00000069
_symmetry_Int_Tables_number   1
_chemical_formula_structural   HoGe(AsRh2)3
_chemical_formula_sum   'Ho1 Ge1 As3 Rh6'
_cell_volume   174.91386826
_cell_formula_units_Z   1
loop_
 _symmetry_equiv_pos_site_id
 _symmetry_equiv_pos_as_xyz
  1  'x, y, z'
loop_
 _atom_site_type_symbol
 _atom_site_label
 _atom_site_symmetry_multiplicity
 _atom_site_fract_x
 _atom_site_fract_y
 _atom_site_fract_z
 _atom_site_occupancy
  Ho  Ho0  1  0.000000  0.000000  0.000000  1
  Ge  Ge1  1  0.333333  0.666667  0.000000  1
  As  As2  1  0.809373  0.190627  0.500000  1
  As  As3  1  0.809373  0.618745  0.500000  1
  As  As4  1  0.381255  0.190627  0.500000  1
  Rh  Rh5  1  0.534659  0.465341  0.000000  1
  Rh  Rh6  1  0.534659  0.069318  0.000000  1
  Rh  Rh7  1  0.930682  0.465341  0.000000  1
  Rh  Rh8  1  0.196472  0.803528  0.500000  1
  Rh  Rh9  1  0.196472  0.392944  0.500000  1
  Rh  Rh10  1  0.607056  0.803528  0.500000  1
