# generated using pymatgen
data_Dy17Ho2ErPb16
_symmetry_space_group_name_H-M   'P 1'
_cell_length_a   8.20915300
_cell_length_b   8.28513216
_cell_length_c   15.64937800
_cell_angle_alpha   90.00000000
_cell_angle_beta   90.00000000
_cell_angle_gamma   90.01338583
_symmetry_Int_Tables_number   1
_chemical_formula_structural   Dy17Ho2ErPb16
_chemical_formula_sum   'Dy17 Ho2 Er1 Pb16'
_cell_volume   1064.37547675
_cell_formula_units_Z   1
loop_
 _symmetry_equiv_pos_site_id
 _symmetry_equiv_pos_as_xyz
  1  'x, y, z'
loop_
 _atom_site_type_symbol
 _atom_site_label
 _atom_site_symmetry_multiplicity
 _atom_site_fract_x
 _atom_site_fract_y
 _atom_site_fract_z
 _atom_site_occupancy
  Dy  Dy0  1  0.377524  0.840846  0.879373  1
  Dy  Dy1  1  0.877541  0.659161  0.620676  1
  Dy  Dy2  1  0.622340  0.159071  0.379328  1
  Dy  Dy3  1  0.122571  0.340786  0.120659  1
  Dy  Dy4  1  0.622340  0.159071  0.120672  1
  Dy  Dy5  1  0.122571  0.340786  0.379341  1
  Dy  Dy6  1  0.377524  0.840846  0.620627  1
  Dy  Dy7  1  0.877541  0.659161  0.879324  1
  Dy  Dy8  1  0.535133  0.323446  0.899966  1
  Dy  Dy9  1  0.035116  0.176562  0.599993  1
  Dy  Dy10  1  0.464817  0.676653  0.399988  1
  Dy  Dy11  1  0.964946  0.823509  0.100017  1
  Dy  Dy12  1  0.464817  0.676653  0.100012  1
  Dy  Dy13  1  0.964946  0.823509  0.399983  1
  Dy  Dy14  1  0.535133  0.323446  0.600034  1
  Dy  Dy15  1  0.035116  0.176562  0.900007  1
  Dy  Dy16  1  0.791102  0.496108  0.250000  1
  Ho  Ho17  1  0.208929  0.503938  0.750000  1
  Ho  Ho18  1  0.708929  0.996122  0.750000  1
  Er  Er19  1  0.290926  0.003937  0.250000  1
  Pb  Pb20  1  0.280959  0.033490  0.042814  1
  Pb  Pb21  1  0.780920  0.466482  0.457381  1
  Pb  Pb22  1  0.719100  0.966450  0.542643  1
  Pb  Pb23  1  0.219077  0.533518  0.957351  1
  Pb  Pb24  1  0.719100  0.966450  0.957357  1
  Pb  Pb25  1  0.219077  0.533518  0.542649  1
  Pb  Pb26  1  0.280959  0.033490  0.457186  1
  Pb  Pb27  1  0.780920  0.466482  0.042619  1
  Pb  Pb28  1  0.572660  0.626077  0.750000  1
  Pb  Pb29  1  0.072695  0.873971  0.750000  1
  Pb  Pb30  1  0.427040  0.373745  0.250000  1
  Pb  Pb31  1  0.927579  0.125663  0.250000  1
  Pb  Pb32  1  0.347292  0.153237  0.750000  1
  Pb  Pb33  1  0.847332  0.346651  0.750000  1
  Pb  Pb34  1  0.652576  0.846928  0.250000  1
  Pb  Pb35  1  0.152850  0.653674  0.250000  1
