# generated using pymatgen
data_PrTm7(Si3Pt)4
_symmetry_space_group_name_H-M   'P 1'
_cell_length_a   8.16072500
_cell_length_b   8.18326026
_cell_length_c   7.86414300
_cell_angle_alpha   90.00000000
_cell_angle_beta   90.00000000
_cell_angle_gamma   119.90894191
_symmetry_Int_Tables_number   1
_chemical_formula_structural   PrTm7(Si3Pt)4
_chemical_formula_sum   'Pr1 Tm7 Si12 Pt4'
_cell_volume   455.23422149
_cell_formula_units_Z   1
loop_
 _symmetry_equiv_pos_site_id
 _symmetry_equiv_pos_as_xyz
  1  'x, y, z'
loop_
 _atom_site_type_symbol
 _atom_site_label
 _atom_site_symmetry_multiplicity
 _atom_site_fract_x
 _atom_site_fract_y
 _atom_site_fract_z
 _atom_site_occupancy
  Pr  Pr0  1  0.512230  0.024459  0.250000  1
  Tm  Tm1  1  0.488543  0.977086  0.750000  1
  Tm  Tm2  1  0.978876  0.491430  0.250000  1
  Tm  Tm3  1  0.025075  0.510990  0.750000  1
  Tm  Tm4  1  0.512555  0.491430  0.250000  1
  Tm  Tm5  1  0.485914  0.510990  0.750000  1
  Tm  Tm6  1  0.999798  0.999595  0.250000  1
  Tm  Tm7  1  0.999911  0.999821  0.750000  1
  Si  Si8  1  0.163558  0.327116  0.002447  1
  Si  Si9  1  0.834980  0.669961  0.998520  1
  Si  Si10  1  0.669917  0.834728  0.000194  1
  Si  Si11  1  0.834980  0.669961  0.501480  1
  Si  Si12  1  0.331061  0.166279  0.992301  1
  Si  Si13  1  0.163558  0.327116  0.497553  1
  Si  Si14  1  0.164812  0.834728  0.000194  1
  Si  Si15  1  0.331061  0.166279  0.507699  1
  Si  Si16  1  0.835218  0.166279  0.992301  1
  Si  Si17  1  0.669917  0.834728  0.499806  1
  Si  Si18  1  0.835218  0.166279  0.507699  1
  Si  Si19  1  0.164812  0.834728  0.499806  1
  Pt  Pt20  1  0.330062  0.660125  0.030419  1
  Pt  Pt21  1  0.668942  0.337883  0.951719  1
  Pt  Pt22  1  0.668942  0.337883  0.548281  1
  Pt  Pt23  1  0.330062  0.660125  0.469581  1
