# generated using pymatgen
data_Ac4Al3IrI2
_symmetry_space_group_name_H-M   'P 1'
_cell_length_a   4.46963300
_cell_length_b   4.46963349
_cell_length_c   18.80850100
_cell_angle_alpha   90.00000000
_cell_angle_beta   90.00000000
_cell_angle_gamma   120.00000378
_symmetry_Int_Tables_number   1
_chemical_formula_structural   Ac4Al3IrI2
_chemical_formula_sum   'Ac4 Al3 Ir1 I2'
_cell_volume   325.40826317
_cell_formula_units_Z   1
loop_
 _symmetry_equiv_pos_site_id
 _symmetry_equiv_pos_as_xyz
  1  'x, y, z'
loop_
 _atom_site_type_symbol
 _atom_site_label
 _atom_site_symmetry_multiplicity
 _atom_site_fract_x
 _atom_site_fract_y
 _atom_site_fract_z
 _atom_site_occupancy
  Ac  Ac0  1  0.000000  0.000000  0.397980  1
  Ac  Ac1  1  0.000000  0.000000  0.881441  1
  Ac  Ac2  1  0.000000  0.000000  0.604929  1
  Ac  Ac3  1  0.000000  0.000000  0.118044  1
  Al  Al4  1  0.333333  0.666667  0.995018  1
  Al  Al5  1  0.333333  0.666667  0.502035  1
  Al  Al6  1  0.666667  0.333333  0.004535  1
  Ir  Ir7  1  0.666667  0.333333  0.497491  1
  I  I8  1  0.333333  0.666667  0.247657  1
  I  I9  1  0.666667  0.333333  0.750870  1
