# generated using pymatgen
data_Tb3Dy2Co14P12Ru5
_symmetry_space_group_name_H-M   'P 1'
_cell_length_a   12.10892401
_cell_length_b   12.10816425
_cell_length_c   3.73488800
_cell_angle_alpha   90.00000000
_cell_angle_beta   90.00000000
_cell_angle_gamma   119.90060866
_symmetry_Int_Tables_number   1
_chemical_formula_structural   Tb3Dy2Co14P12Ru5
_chemical_formula_sum   'Tb3 Dy2 Co14 P12 Ru5'
_cell_volume   474.70757461
_cell_formula_units_Z   1
loop_
 _symmetry_equiv_pos_site_id
 _symmetry_equiv_pos_as_xyz
  1  'x, y, z'
loop_
 _atom_site_type_symbol
 _atom_site_label
 _atom_site_symmetry_multiplicity
 _atom_site_fract_x
 _atom_site_fract_y
 _atom_site_fract_z
 _atom_site_occupancy
  Tb  Tb0  1  0.662479  0.333885  0.000000  1
  Tb  Tb1  1  0.333211  0.666177  0.000000  1
  Tb  Tb2  1  0.185422  0.184106  0.500000  1
  Dy  Dy3  1  0.817633  0.000253  0.500000  1
  Dy  Dy4  1  0.999988  0.818752  0.500000  1
  Co  Co5  1  0.827582  0.198892  0.000000  1
  Co  Co6  1  0.801090  0.628647  0.000000  1
  Co  Co7  1  0.374604  0.178248  0.000000  1
  Co  Co8  1  0.194667  0.819622  0.000000  1
  Co  Co9  1  0.623897  0.803455  0.000000  1
  Co  Co10  1  0.181054  0.374679  0.000000  1
  Co  Co11  1  0.479829  0.358308  0.500000  1
  Co  Co12  1  0.130958  0.644131  0.500000  1
  Co  Co13  1  0.513713  0.869377  0.500000  1
  Co  Co14  1  0.357064  0.483623  0.500000  1
  Co  Co15  1  0.715967  0.718075  0.500000  1
  Co  Co16  1  0.281248  0.997968  0.500000  1
  Co  Co17  1  0.002746  0.283122  0.500000  1
  Co  Co18  1  0.999221  0.999036  0.000000  1
  P  P19  1  0.363281  0.362972  0.000000  1
  P  P20  1  0.634055  0.995287  0.000000  1
  P  P21  1  0.004363  0.639489  0.000000  1
  P  P22  1  0.838788  0.313946  0.500000  1
  P  P23  1  0.681667  0.522389  0.500000  1
  P  P24  1  0.473496  0.166198  0.500000  1
  P  P25  1  0.312732  0.834600  0.500000  1
  P  P26  1  0.520707  0.685891  0.500000  1
  P  P27  1  0.166994  0.477825  0.500000  1
  P  P28  1  0.819182  0.821242  0.000000  1
  P  P29  1  0.179622  0.999553  0.000000  1
  P  P30  1  0.002099  0.179607  0.000000  1
  Ru  Ru31  1  0.551512  0.553579  0.000000  1
  Ru  Ru32  1  0.441145  0.991467  0.000000  1
  Ru  Ru33  1  0.009197  0.450569  0.000000  1
  Ru  Ru34  1  0.642472  0.123907  0.500000  1
  Ru  Ru35  1  0.876316  0.521124  0.500000  1
