# generated using pymatgen
data_Ho3Er7Tl3Ru
_symmetry_space_group_name_H-M   'P 1'
_cell_length_a   9.57854800
_cell_length_b   9.57918069
_cell_length_c   9.78367300
_cell_angle_alpha   90.00000000
_cell_angle_beta   90.00000000
_cell_angle_gamma   120.00102670
_symmetry_Int_Tables_number   1
_chemical_formula_structural   Ho3Er7Tl3Ru
_chemical_formula_sum   'Ho6 Er14 Tl6 Ru2'
_cell_volume   777.42072244
_cell_formula_units_Z   2
loop_
 _symmetry_equiv_pos_site_id
 _symmetry_equiv_pos_as_xyz
  1  'x, y, z'
loop_
 _atom_site_type_symbol
 _atom_site_label
 _atom_site_symmetry_multiplicity
 _atom_site_fract_x
 _atom_site_fract_y
 _atom_site_fract_z
 _atom_site_occupancy
  Ho  Ho0  1  0.539198  0.460727  0.250000  1
  Ho  Ho1  1  0.539401  0.078579  0.250000  1
  Ho  Ho2  1  0.921473  0.460594  0.250000  1
  Ho  Ho3  1  0.460802  0.539273  0.750000  1
  Ho  Ho4  1  0.460599  0.921421  0.750000  1
  Ho  Ho5  1  0.078527  0.539406  0.750000  1
  Er  Er6  1  0.000000  0.000000  0.500000  1
  Er  Er7  1  0.000000  0.000000  0.000000  1
  Er  Er8  1  0.210303  0.789638  0.438992  1
  Er  Er9  1  0.210411  0.420715  0.438910  1
  Er  Er10  1  0.579295  0.789579  0.438932  1
  Er  Er11  1  0.789697  0.210362  0.561008  1
  Er  Er12  1  0.789589  0.579285  0.561090  1
  Er  Er13  1  0.420705  0.210421  0.561068  1
  Er  Er14  1  0.789697  0.210362  0.938992  1
  Er  Er15  1  0.789589  0.579285  0.938910  1
  Er  Er16  1  0.420705  0.210421  0.938932  1
  Er  Er17  1  0.210303  0.789638  0.061008  1
  Er  Er18  1  0.210411  0.420715  0.061090  1
  Er  Er19  1  0.579295  0.789579  0.061068  1
  Tl  Tl20  1  0.883421  0.116628  0.250000  1
  Tl  Tl21  1  0.883326  0.766977  0.250000  1
  Tl  Tl22  1  0.233066  0.116710  0.250000  1
  Tl  Tl23  1  0.116579  0.883372  0.750000  1
  Tl  Tl24  1  0.116674  0.233023  0.750000  1
  Tl  Tl25  1  0.766934  0.883290  0.750000  1
  Ru  Ru26  1  0.333291  0.666656  0.250000  1
  Ru  Ru27  1  0.666709  0.333344  0.750000  1
