# generated using pymatgen
data_CsKPr2(GeSe4)2
_symmetry_space_group_name_H-M   'P 1'
_cell_length_a   6.96765541
_cell_length_b   7.18284100
_cell_length_c   9.55872567
_cell_angle_alpha   90.30172496
_cell_angle_beta   107.75592799
_cell_angle_gamma   90.20109515
_symmetry_Int_Tables_number   1
_chemical_formula_structural   CsKPr2(GeSe4)2
_chemical_formula_sum   'Cs1 K1 Pr2 Ge2 Se8'
_cell_volume   455.58950702
_cell_formula_units_Z   1
loop_
 _symmetry_equiv_pos_site_id
 _symmetry_equiv_pos_as_xyz
  1  'x, y, z'
loop_
 _atom_site_type_symbol
 _atom_site_label
 _atom_site_symmetry_multiplicity
 _atom_site_fract_x
 _atom_site_fract_y
 _atom_site_fract_z
 _atom_site_occupancy
  Cs  Cs0  1  0.259999  0.011764  0.061664  1
  K  K1  1  0.742695  0.508197  0.934260  1
  Pr  Pr2  1  0.770141  0.498386  0.450136  1
  Pr  Pr3  1  0.227575  0.999396  0.550154  1
  Ge  Ge4  1  0.219425  0.531235  0.325805  1
  Ge  Ge5  1  0.781273  0.032760  0.674808  1
  Se  Se6  1  0.422716  0.526096  0.168498  1
  Se  Se7  1  0.968125  0.769142  0.278723  1
  Se  Se8  1  0.012879  0.258302  0.297620  1
  Se  Se9  1  0.574761  0.094296  0.431077  1
  Se  Se10  1  0.424191  0.597449  0.570942  1
  Se  Se11  1  0.983266  0.758554  0.703621  1
  Se  Se12  1  0.031318  0.273913  0.718921  1
  Se  Se13  1  0.581634  0.033909  0.833774  1
