# generated using pymatgen
data_Nb4Tc3NiP4
_symmetry_space_group_name_H-M   'P 1'
_cell_length_a   3.73498800
_cell_length_b   6.34719956
_cell_length_c   7.27842344
_cell_angle_alpha   90.40950439
_cell_angle_beta   90.00000000
_cell_angle_gamma   90.00000000
_symmetry_Int_Tables_number   1
_chemical_formula_structural   Nb4Tc3NiP4
_chemical_formula_sum   'Nb4 Tc3 Ni1 P4'
_cell_volume   172.54309717
_cell_formula_units_Z   1
loop_
 _symmetry_equiv_pos_site_id
 _symmetry_equiv_pos_as_xyz
  1  'x, y, z'
loop_
 _atom_site_type_symbol
 _atom_site_label
 _atom_site_symmetry_multiplicity
 _atom_site_fract_x
 _atom_site_fract_y
 _atom_site_fract_z
 _atom_site_occupancy
  Nb  Nb0  1  0.250000  0.527574  0.667644  1
  Nb  Nb1  1  0.250000  0.023590  0.826568  1
  Nb  Nb2  1  0.750000  0.972216  0.174002  1
  Nb  Nb3  1  0.750000  0.467429  0.326446  1
  Tc  Tc4  1  0.750000  0.364421  0.946307  1
  Tc  Tc5  1  0.250000  0.150930  0.438949  1
  Tc  Tc6  1  0.750000  0.852026  0.557127  1
  Ni  Ni7  1  0.250000  0.652514  0.064558  1
  P  P8  1  0.250000  0.765148  0.367972  1
  P  P9  1  0.250000  0.265408  0.122642  1
  P  P10  1  0.750000  0.229117  0.632757  1
  P  P11  1  0.750000  0.729627  0.875028  1
