# generated using pymatgen
data_TbCe2Er5(ReB6)4
_symmetry_space_group_name_H-M   'P 1'
_cell_length_a   3.69171500
_cell_length_b   9.16687981
_cell_length_c   11.55406309
_cell_angle_alpha   90.11187466
_cell_angle_beta   90.00000000
_cell_angle_gamma   90.00000000
_symmetry_Int_Tables_number   1
_chemical_formula_structural   TbCe2Er5(ReB6)4
_chemical_formula_sum   'Tb1 Ce2 Er5 Re4 B24'
_cell_volume   391.00616984
_cell_formula_units_Z   1
loop_
 _symmetry_equiv_pos_site_id
 _symmetry_equiv_pos_as_xyz
  1  'x, y, z'
loop_
 _atom_site_type_symbol
 _atom_site_label
 _atom_site_symmetry_multiplicity
 _atom_site_fract_x
 _atom_site_fract_y
 _atom_site_fract_z
 _atom_site_occupancy
  Tb  Tb0  1  0.000000  0.823873  0.085479  1
  Ce  Ce1  1  0.000000  0.321882  0.413679  1
  Ce  Ce2  1  0.000000  0.678065  0.586400  1
  Er  Er3  1  0.000000  0.175949  0.914514  1
  Er  Er4  1  0.000000  0.943603  0.370393  1
  Er  Er5  1  0.000000  0.056467  0.629696  1
  Er  Er6  1  0.000000  0.442889  0.128345  1
  Er  Er7  1  0.000000  0.556868  0.871452  1
  Re  Re8  1  0.000000  0.637680  0.321304  1
  Re  Re9  1  0.000000  0.362094  0.679129  1
  Re  Re10  1  0.000000  0.139231  0.179498  1
  Re  Re11  1  0.000000  0.861367  0.820082  1
  B  B12  1  0.500000  0.554266  0.431417  1
  B  B13  1  0.500000  0.445599  0.568748  1
  B  B14  1  0.500000  0.053878  0.066389  1
  B  B15  1  0.500000  0.946923  0.933115  1
  B  B16  1  0.500000  0.749887  0.417314  1
  B  B17  1  0.500000  0.250099  0.582939  1
  B  B18  1  0.500000  0.249139  0.080208  1
  B  B19  1  0.500000  0.750985  0.918990  1
  B  B20  1  0.500000  0.792223  0.264951  1
  B  B21  1  0.500000  0.207484  0.735602  1
  B  B22  1  0.500000  0.291451  0.233236  1
  B  B23  1  0.500000  0.708593  0.766574  1
  B  B24  1  0.500000  0.630715  0.184786  1
  B  B25  1  0.500000  0.368740  0.815647  1
  B  B26  1  0.500000  0.130675  0.313538  1
  B  B27  1  0.500000  0.869556  0.686484  1
  B  B28  1  0.500000  0.982700  0.211606  1
  B  B29  1  0.500000  0.018123  0.788569  1
  B  B30  1  0.500000  0.483196  0.286394  1
  B  B31  1  0.500000  0.516579  0.713715  1
  B  B32  1  0.500000  0.600636  0.028012  1
  B  B33  1  0.500000  0.398554  0.971719  1
  B  B34  1  0.500000  0.101600  0.471761  1
  B  B35  1  0.500000  0.898431  0.528314  1
