# generated using pymatgen
data_Ba5Tb5Y2ErNi4O21
_symmetry_space_group_name_H-M   'P 1'
_cell_length_a   10.20592129
_cell_length_b   10.20592146
_cell_length_c   10.21455221
_cell_angle_alpha   94.53993431
_cell_angle_beta   94.54799001
_cell_angle_gamma   147.29014847
_symmetry_Int_Tables_number   1
_chemical_formula_structural   Ba5Tb5Y2ErNi4O21
_chemical_formula_sum   'Ba5 Tb5 Y2 Er1 Ni4 O21'
_cell_volume   551.72143334
_cell_formula_units_Z   1
loop_
 _symmetry_equiv_pos_site_id
 _symmetry_equiv_pos_as_xyz
  1  'x, y, z'
loop_
 _atom_site_type_symbol
 _atom_site_label
 _atom_site_symmetry_multiplicity
 _atom_site_fract_x
 _atom_site_fract_y
 _atom_site_fract_z
 _atom_site_occupancy
  Ba  Ba0  1  0.000503  0.000281  0.000784  1
  Ba  Ba1  1  0.137827  0.535953  0.673779  1
  Ba  Ba2  1  0.861616  0.464319  0.325935  1
  Ba  Ba3  1  0.464204  0.137830  0.602033  1
  Ba  Ba4  1  0.536433  0.861884  0.398319  1
  Tb  Tb5  1  0.166651  0.249148  0.415799  1
  Tb  Tb6  1  0.832586  0.749884  0.582470  1
  Tb  Tb7  1  0.750498  0.166978  0.917475  1
  Tb  Tb8  1  0.249856  0.833526  0.083384  1
  Tb  Tb9  1  0.357119  0.411224  0.768344  1
  Y  Y10  1  0.588983  0.357584  0.946567  1
  Y  Y11  1  0.411608  0.642818  0.054427  1
  Er  Er12  1  0.642287  0.588596  0.230883  1
  Ni  Ni13  1  0.245418  0.040972  0.286391  1
  Ni  Ni14  1  0.754377  0.959213  0.713589  1
  Ni  Ni15  1  0.959595  0.245910  0.205506  1
  Ni  Ni16  1  0.040457  0.754023  0.794479  1
  O  O17  1  0.501016  0.500599  0.001615  1
  O  O18  1  0.963431  0.629972  0.593403  1
  O  O19  1  0.036697  0.369561  0.406258  1
  O  O20  1  0.369705  0.963754  0.333461  1
  O  O21  1  0.630223  0.036458  0.666678  1
  O  O22  1  0.297284  0.427694  0.225340  1
  O  O23  1  0.201814  0.069823  0.774328  1
  O  O24  1  0.069994  0.295542  0.868447  1
  O  O25  1  0.428271  0.203879  0.132581  1
  O  O26  1  0.704504  0.572514  0.774328  1
  O  O27  1  0.797648  0.928058  0.225340  1
  O  O28  1  0.928703  0.704310  0.132581  1
  O  O29  1  0.572905  0.798453  0.868447  1
  O  O30  1  0.496680  0.608125  0.594540  1
  O  O31  1  0.009541  0.898850  0.402975  1
  O  O32  1  0.901944  0.497137  0.889040  1
  O  O33  1  0.608456  0.013235  0.111959  1
  O  O34  1  0.504126  0.393437  0.402975  1
  O  O35  1  0.986413  0.097858  0.594540  1
  O  O36  1  0.098725  0.503504  0.111959  1
  O  O37  1  0.391903  0.987096  0.889040  1
