# generated using pymatgen
data_Tb2Lu6Hf11Si16Hg
_symmetry_space_group_name_H-M   'P 1'
_cell_length_a   7.26270693
_cell_length_b   7.26083399
_cell_length_c   13.20325073
_cell_angle_alpha   89.80908184
_cell_angle_beta   90.19252055
_cell_angle_gamma   89.93758432
_symmetry_Int_Tables_number   1
_chemical_formula_structural   Tb2Lu6Hf11Si16Hg
_chemical_formula_sum   'Tb2 Lu6 Hf11 Si16 Hg1'
_cell_volume   696.24288765
_cell_formula_units_Z   1
loop_
 _symmetry_equiv_pos_site_id
 _symmetry_equiv_pos_as_xyz
  1  'x, y, z'
loop_
 _atom_site_type_symbol
 _atom_site_label
 _atom_site_symmetry_multiplicity
 _atom_site_fract_x
 _atom_site_fract_y
 _atom_site_fract_z
 _atom_site_occupancy
  Tb  Tb0  1  0.346318  0.996436  0.788601  1
  Tb  Tb1  1  0.656349  0.005751  0.283913  1
  Lu  Lu2  1  0.997334  0.347896  0.212120  1
  Lu  Lu3  1  0.003720  0.655319  0.715841  1
  Lu  Lu4  1  0.154859  0.496744  0.465430  1
  Lu  Lu5  1  0.499367  0.846258  0.032835  1
  Lu  Lu6  1  0.846552  0.499123  0.967267  1
  Lu  Lu7  1  0.496607  0.155127  0.534747  1
  Hf  Hf8  1  0.825209  0.824257  0.500217  1
  Hf  Hf9  1  0.322464  0.676457  0.249760  1
  Hf  Hf10  1  0.677542  0.323733  0.749979  1
  Hf  Hf11  1  0.144555  0.998380  0.375634  1
  Hf  Hf12  1  0.856137  0.001385  0.878296  1
  Hf  Hf13  1  0.504453  0.645571  0.626231  1
  Hf  Hf14  1  0.357205  0.492157  0.877235  1
  Hf  Hf15  1  0.491796  0.357200  0.122448  1
  Hf  Hf16  1  0.645723  0.503868  0.373751  1
  Hf  Hf17  1  0.998902  0.144680  0.624494  1
  Hf  Hf18  1  0.001286  0.855517  0.121229  1
  Si  Si19  1  0.356089  0.297466  0.317804  1
  Si  Si20  1  0.644110  0.702094  0.820086  1
  Si  Si21  1  0.206769  0.858028  0.569665  1
  Si  Si22  1  0.130460  0.770320  0.925394  1
  Si  Si23  1  0.774087  0.132909  0.074396  1
  Si  Si24  1  0.859878  0.208620  0.431549  1
  Si  Si25  1  0.295645  0.359375  0.681403  1
  Si  Si26  1  0.704103  0.640755  0.179309  1
  Si  Si27  1  0.297531  0.049235  0.191362  1
  Si  Si28  1  0.704947  0.950720  0.685891  1
  Si  Si29  1  0.449384  0.796467  0.436777  1
  Si  Si30  1  0.208712  0.567895  0.064851  1
  Si  Si31  1  0.570312  0.210283  0.935622  1
  Si  Si32  1  0.797895  0.450993  0.563812  1
  Si  Si33  1  0.047669  0.301357  0.807821  1
  Si  Si34  1  0.952053  0.702325  0.313667  1
  Hg  Hg35  1  0.173978  0.175298  0.000565  1
