# generated using pymatgen
data_Hf15Sc3ZnRe8P
_symmetry_space_group_name_H-M   'P 1'
_cell_length_a   8.60315700
_cell_length_b   8.60315630
_cell_length_c   8.55996200
_cell_angle_alpha   90.00000000
_cell_angle_beta   90.00000000
_cell_angle_gamma   119.99999883
_symmetry_Int_Tables_number   1
_chemical_formula_structural   Hf15Sc3ZnRe8P
_chemical_formula_sum   'Hf15 Sc3 Zn1 Re8 P1'
_cell_volume   548.67874342
_cell_formula_units_Z   1
loop_
 _symmetry_equiv_pos_site_id
 _symmetry_equiv_pos_as_xyz
  1  'x, y, z'
loop_
 _atom_site_type_symbol
 _atom_site_label
 _atom_site_symmetry_multiplicity
 _atom_site_fract_x
 _atom_site_fract_y
 _atom_site_fract_z
 _atom_site_occupancy
  Hf  Hf0  1  0.194282  0.805718  0.450711  1
  Hf  Hf1  1  0.194282  0.388563  0.450711  1
  Hf  Hf2  1  0.611437  0.805718  0.450711  1
  Hf  Hf3  1  0.804367  0.195633  0.549020  1
  Hf  Hf4  1  0.804367  0.608737  0.549020  1
  Hf  Hf5  1  0.391263  0.195633  0.549020  1
  Hf  Hf6  1  0.804367  0.195633  0.950980  1
  Hf  Hf7  1  0.804367  0.608737  0.950980  1
  Hf  Hf8  1  0.391263  0.195633  0.950980  1
  Hf  Hf9  1  0.194282  0.805718  0.049289  1
  Hf  Hf10  1  0.194282  0.388563  0.049289  1
  Hf  Hf11  1  0.611437  0.805718  0.049289  1
  Hf  Hf12  1  0.542061  0.457939  0.250000  1
  Hf  Hf13  1  0.542061  0.084121  0.250000  1
  Hf  Hf14  1  0.915879  0.457939  0.250000  1
  Sc  Sc15  1  0.459720  0.540280  0.750000  1
  Sc  Sc16  1  0.459720  0.919441  0.750000  1
  Sc  Sc17  1  0.080559  0.540280  0.750000  1
  Zn  Zn18  1  0.333333  0.666667  0.250000  1
  Re  Re19  1  0.889650  0.110350  0.250000  1
  Re  Re20  1  0.889650  0.779298  0.250000  1
  Re  Re21  1  0.220702  0.110350  0.250000  1
  Re  Re22  1  0.109451  0.890549  0.750000  1
  Re  Re23  1  0.109451  0.218902  0.750000  1
  Re  Re24  1  0.781098  0.890549  0.750000  1
  Re  Re25  1  0.000000  0.000000  0.500109  1
  Re  Re26  1  0.000000  0.000000  0.999891  1
  P  P27  1  0.666667  0.333333  0.750000  1
