# generated using pymatgen
data_Tb2Y3Bi2Rh
_symmetry_space_group_name_H-M   'P 1'
_cell_length_a   8.08834100
_cell_length_b   8.97642500
_cell_length_c   12.50894900
_cell_angle_alpha   90.00000000
_cell_angle_beta   90.00000000
_cell_angle_gamma   90.00000000
_symmetry_Int_Tables_number   1
_chemical_formula_structural   Tb2Y3Bi2Rh
_chemical_formula_sum   'Tb8 Y12 Bi8 Rh4'
_cell_volume   908.20456617
_cell_formula_units_Z   4
loop_
 _symmetry_equiv_pos_site_id
 _symmetry_equiv_pos_as_xyz
  1  'x, y, z'
loop_
 _atom_site_type_symbol
 _atom_site_label
 _atom_site_symmetry_multiplicity
 _atom_site_fract_x
 _atom_site_fract_y
 _atom_site_fract_z
 _atom_site_occupancy
  Tb  Tb0  1  0.678136  0.041130  0.565734  1
  Tb  Tb1  1  0.321864  0.958870  0.434266  1
  Tb  Tb2  1  0.178136  0.958870  0.934266  1
  Tb  Tb3  1  0.321864  0.541130  0.434266  1
  Tb  Tb4  1  0.821864  0.041130  0.065734  1
  Tb  Tb5  1  0.678136  0.458870  0.565734  1
  Tb  Tb6  1  0.821864  0.458870  0.065734  1
  Tb  Tb7  1  0.178136  0.541130  0.934266  1
  Y  Y8  1  0.840799  0.750000  0.792895  1
  Y  Y9  1  0.159201  0.250000  0.207105  1
  Y  Y10  1  0.340799  0.250000  0.707105  1
  Y  Y11  1  0.659201  0.750000  0.292895  1
  Y  Y12  1  0.374784  0.750000  0.696142  1
  Y  Y13  1  0.625216  0.250000  0.303858  1
  Y  Y14  1  0.874784  0.250000  0.803858  1
  Y  Y15  1  0.125216  0.750000  0.196142  1
  Y  Y16  1  0.953540  0.750000  0.500850  1
  Y  Y17  1  0.046460  0.250000  0.499150  1
  Y  Y18  1  0.453540  0.250000  0.999150  1
  Y  Y19  1  0.546460  0.750000  0.000850  1
  Bi  Bi20  1  0.569756  0.491118  0.826664  1
  Bi  Bi21  1  0.430244  0.508882  0.173336  1
  Bi  Bi22  1  0.069756  0.508882  0.673336  1
  Bi  Bi23  1  0.430244  0.991118  0.173336  1
  Bi  Bi24  1  0.930244  0.491118  0.326664  1
  Bi  Bi25  1  0.569756  0.008882  0.826664  1
  Bi  Bi26  1  0.930244  0.008882  0.326664  1
  Bi  Bi27  1  0.069756  0.991118  0.673336  1
  Rh  Rh28  1  0.569611  0.750000  0.510543  1
  Rh  Rh29  1  0.430389  0.250000  0.489457  1
  Rh  Rh30  1  0.069611  0.250000  0.989457  1
  Rh  Rh31  1  0.930389  0.750000  0.010543  1
