# generated using pymatgen
data_PaTlRhS3
_symmetry_space_group_name_H-M   'P 1'
_cell_length_a   7.78859300
_cell_length_b   7.78859356
_cell_length_c   10.02868600
_cell_angle_alpha   90.00000000
_cell_angle_beta   90.00000000
_cell_angle_gamma   152.74201317
_symmetry_Int_Tables_number   1
_chemical_formula_structural   PaTlRhS3
_chemical_formula_sum   'Pa2 Tl2 Rh2 S6'
_cell_volume   278.62848360
_cell_formula_units_Z   2
loop_
 _symmetry_equiv_pos_site_id
 _symmetry_equiv_pos_as_xyz
  1  'x, y, z'
loop_
 _atom_site_type_symbol
 _atom_site_label
 _atom_site_symmetry_multiplicity
 _atom_site_fract_x
 _atom_site_fract_y
 _atom_site_fract_z
 _atom_site_occupancy
  Pa  Pa0  1  0.499999  0.499999  0.000000  1
  Pa  Pa1  1  0.499999  0.499999  0.500000  1
  Tl  Tl2  1  0.256514  0.743483  0.250000  1
  Tl  Tl3  1  0.743483  0.256514  0.750000  1
  Rh  Rh4  1  0.968612  0.031385  0.250000  1
  Rh  Rh5  1  0.031385  0.968612  0.750000  1
  S  S6  1  0.872375  0.127622  0.053332  1
  S  S7  1  0.566284  0.433713  0.250000  1
  S  S8  1  0.872375  0.127622  0.446668  1
  S  S9  1  0.127622  0.872375  0.553332  1
  S  S10  1  0.433713  0.566284  0.750000  1
  S  S11  1  0.127622  0.872375  0.946667  1
