# generated using pymatgen
data_Li4Tb(DySi2)3
_symmetry_space_group_name_H-M   'P 1'
_cell_length_a   9.28520800
_cell_length_b   9.28520659
_cell_length_c   6.68979400
_cell_angle_alpha   90.00000000
_cell_angle_beta   90.00000000
_cell_angle_gamma   153.50271650
_symmetry_Int_Tables_number   1
_chemical_formula_structural   Li4Tb(DySi2)3
_chemical_formula_sum   'Li4 Tb1 Dy3 Si6'
_cell_volume   257.32506358
_cell_formula_units_Z   1
loop_
 _symmetry_equiv_pos_site_id
 _symmetry_equiv_pos_as_xyz
  1  'x, y, z'
loop_
 _atom_site_type_symbol
 _atom_site_label
 _atom_site_symmetry_multiplicity
 _atom_site_fract_x
 _atom_site_fract_y
 _atom_site_fract_z
 _atom_site_occupancy
  Li  Li0  1  0.809893  0.190107  0.558872  1
  Li  Li1  1  0.190119  0.809881  0.441144  1
  Li  Li2  1  0.190119  0.809881  0.058856  1
  Li  Li3  1  0.809893  0.190107  0.941128  1
  Tb  Tb4  1  0.552088  0.447912  0.250000  1
  Dy  Dy5  1  0.447901  0.552099  0.750000  1
  Dy  Dy6  1  0.344611  0.655389  0.250000  1
  Dy  Dy7  1  0.655388  0.344612  0.750000  1
  Si  Si8  1  0.940566  0.059434  0.072397  1
  Si  Si9  1  0.059400  0.940600  0.927342  1
  Si  Si10  1  0.059400  0.940600  0.572658  1
  Si  Si11  1  0.940566  0.059434  0.427603  1
  Si  Si12  1  0.719788  0.280212  0.250000  1
  Si  Si13  1  0.280270  0.719730  0.750000  1
