# generated using pymatgen
data_CaAcPr3Sn4
_symmetry_space_group_name_H-M   'P 1'
_cell_length_a   8.24287400
_cell_length_b   8.57786100
_cell_length_c   16.46015500
_cell_angle_alpha   90.00000000
_cell_angle_beta   90.00000000
_cell_angle_gamma   90.00000000
_symmetry_Int_Tables_number   1
_chemical_formula_structural   CaAcPr3Sn4
_chemical_formula_sum   'Ca4 Ac4 Pr12 Sn16'
_cell_volume   1163.83546268
_cell_formula_units_Z   4
loop_
 _symmetry_equiv_pos_site_id
 _symmetry_equiv_pos_as_xyz
  1  'x, y, z'
loop_
 _atom_site_type_symbol
 _atom_site_label
 _atom_site_symmetry_multiplicity
 _atom_site_fract_x
 _atom_site_fract_y
 _atom_site_fract_z
 _atom_site_occupancy
  Ca  Ca0  1  0.824330  0.502539  0.749716  1
  Ca  Ca1  1  0.324330  0.997461  0.750284  1
  Ca  Ca2  1  0.175670  0.497461  0.249716  1
  Ca  Ca3  1  0.675670  0.002539  0.250284  1
  Ac  Ac4  1  0.498990  0.320439  0.404335  1
  Ac  Ac5  1  0.998990  0.179561  0.095665  1
  Ac  Ac6  1  0.501010  0.679561  0.904335  1
  Ac  Ac7  1  0.001010  0.820439  0.595665  1
  Pr  Pr8  1  0.659488  0.169229  0.624431  1
  Pr  Pr9  1  0.159488  0.330771  0.875569  1
  Pr  Pr10  1  0.340512  0.830771  0.124431  1
  Pr  Pr11  1  0.840512  0.669229  0.375569  1
  Pr  Pr12  1  0.343414  0.827234  0.376415  1
  Pr  Pr13  1  0.843414  0.672766  0.123585  1
  Pr  Pr14  1  0.656586  0.172766  0.876415  1
  Pr  Pr15  1  0.156586  0.327234  0.623585  1
  Pr  Pr16  1  0.502856  0.683889  0.598167  1
  Pr  Pr17  1  0.002856  0.816111  0.901833  1
  Pr  Pr18  1  0.497144  0.316111  0.098167  1
  Pr  Pr19  1  0.997144  0.183889  0.401833  1
  Sn  Sn20  1  0.680093  0.959798  0.462451  1
  Sn  Sn21  1  0.180093  0.540202  0.037549  1
  Sn  Sn22  1  0.319907  0.040202  0.962451  1
  Sn  Sn23  1  0.819907  0.459798  0.537549  1
  Sn  Sn24  1  0.324895  0.038012  0.537065  1
  Sn  Sn25  1  0.824895  0.461988  0.962935  1
  Sn  Sn26  1  0.675105  0.961988  0.037065  1
  Sn  Sn27  1  0.175105  0.538012  0.462935  1
  Sn  Sn28  1  0.458019  0.389208  0.747563  1
  Sn  Sn29  1  0.958019  0.110792  0.752437  1
  Sn  Sn30  1  0.541981  0.610792  0.247563  1
  Sn  Sn31  1  0.041981  0.889208  0.252437  1
  Sn  Sn32  1  0.698204  0.863249  0.750039  1
  Sn  Sn33  1  0.198204  0.636751  0.749961  1
  Sn  Sn34  1  0.301796  0.136751  0.250039  1
  Sn  Sn35  1  0.801796  0.363249  0.249961  1
