# generated using pymatgen
data_Sr4TbDy(OsO6)2
_symmetry_space_group_name_H-M   'P 1'
_cell_length_a   5.84515023
_cell_length_b   5.89092801
_cell_length_c   10.11366402
_cell_angle_alpha   90.00762529
_cell_angle_beta   125.01885404
_cell_angle_gamma   89.99643441
_symmetry_Int_Tables_number   1
_chemical_formula_structural   Sr4TbDy(OsO6)2
_chemical_formula_sum   'Sr4 Tb1 Dy1 Os2 O12'
_cell_volume   285.20184364
_cell_formula_units_Z   1
loop_
 _symmetry_equiv_pos_site_id
 _symmetry_equiv_pos_as_xyz
  1  'x, y, z'
loop_
 _atom_site_type_symbol
 _atom_site_label
 _atom_site_symmetry_multiplicity
 _atom_site_fract_x
 _atom_site_fract_y
 _atom_site_fract_z
 _atom_site_occupancy
  Sr  Sr0  1  0.258155  0.033985  0.750934  1
  Sr  Sr1  1  0.258048  0.465991  0.250842  1
  Sr  Sr2  1  0.741845  0.966015  0.249066  1
  Sr  Sr3  1  0.741952  0.534009  0.749158  1
  Tb  Tb4  1  0.000000  0.500000  0.500000  1
  Dy  Dy5  1  0.000000  0.000000  0.000000  1
  Os  Os6  1  0.500000  0.000000  0.500000  1
  Os  Os7  1  0.500000  0.500000  0.000000  1
  O  O8  1  0.191245  0.480716  0.766314  1
  O  O9  1  0.190663  0.019247  0.265574  1
  O  O10  1  0.808755  0.519284  0.233686  1
  O  O11  1  0.809337  0.980753  0.734426  1
  O  O12  1  0.730756  0.199266  0.461170  1
  O  O13  1  0.731477  0.299916  0.961258  1
  O  O14  1  0.269244  0.800734  0.538830  1
  O  O15  1  0.268523  0.700084  0.038742  1
  O  O16  1  0.655883  0.728814  0.459687  1
  O  O17  1  0.656765  0.771805  0.959768  1
  O  O18  1  0.344117  0.271186  0.540313  1
  O  O19  1  0.343235  0.228195  0.040232  1
