# generated using pymatgen
data_Nd2HoLu3Ta2O14
_symmetry_space_group_name_H-M   'P 1'
_cell_length_a   6.43510156
_cell_length_b   6.43083357
_cell_length_c   7.54537600
_cell_angle_alpha   90.00024875
_cell_angle_beta   89.99977161
_cell_angle_gamma   109.23025148
_symmetry_Int_Tables_number   1
_chemical_formula_structural   Nd2HoLu3Ta2O14
_chemical_formula_sum   'Nd2 Ho1 Lu3 Ta2 O14'
_cell_volume   294.82801913
_cell_formula_units_Z   1
loop_
 _symmetry_equiv_pos_site_id
 _symmetry_equiv_pos_as_xyz
  1  'x, y, z'
loop_
 _atom_site_type_symbol
 _atom_site_label
 _atom_site_symmetry_multiplicity
 _atom_site_fract_x
 _atom_site_fract_y
 _atom_site_fract_z
 _atom_site_occupancy
  Nd  Nd0  1  0.502652  0.502888  0.500803  1
  Nd  Nd1  1  0.502426  0.502676  0.999195  1
  Ho  Ho2  1  0.466530  0.999053  0.250049  1
  Lu  Lu3  1  0.002694  0.530831  0.249950  1
  Lu  Lu4  1  0.997987  0.468267  0.749956  1
  Lu  Lu5  1  0.531979  0.002117  0.750041  1
  Ta  Ta6  1  0.000389  0.000186  0.500944  1
  Ta  Ta7  1  0.000355  0.000153  0.999070  1
  O  O8  1  0.933947  0.071014  0.750005  1
  O  O9  1  0.064920  0.931461  0.250005  1
  O  O10  1  0.353247  0.642337  0.250020  1
  O  O11  1  0.647474  0.353190  0.750006  1
  O  O12  1  0.358979  0.639763  0.749989  1
  O  O13  1  0.643308  0.365927  0.249981  1
  O  O14  1  0.321939  0.069680  0.963187  1
  O  O15  1  0.675486  0.926946  0.470592  1
  O  O16  1  0.321899  0.069630  0.536887  1
  O  O17  1  0.675567  0.926995  0.029489  1
  O  O18  1  0.066001  0.321209  0.463731  1
  O  O19  1  0.933092  0.677230  0.964806  1
  O  O20  1  0.933014  0.677164  0.535114  1
  O  O21  1  0.066117  0.321282  0.036181  1
