# generated using pymatgen
data_Yb3Fe3O8
_symmetry_space_group_name_H-M   'P 1'
_cell_length_a   5.41707400
_cell_length_b   5.50398401
_cell_length_c   11.06033600
_cell_angle_alpha   90.00311255
_cell_angle_beta   90.00000000
_cell_angle_gamma   90.00000000
_symmetry_Int_Tables_number   1
_chemical_formula_structural   Yb3Fe3O8
_chemical_formula_sum   'Yb6 Fe6 O16'
_cell_volume   329.76932217
_cell_formula_units_Z   2
loop_
 _symmetry_equiv_pos_site_id
 _symmetry_equiv_pos_as_xyz
  1  'x, y, z'
loop_
 _atom_site_type_symbol
 _atom_site_label
 _atom_site_symmetry_multiplicity
 _atom_site_fract_x
 _atom_site_fract_y
 _atom_site_fract_z
 _atom_site_occupancy
  Yb  Yb0  1  0.967046  0.224521  0.809629  1
  Yb  Yb1  1  0.967311  0.225609  0.190732  1
  Yb  Yb2  1  0.467046  0.775479  0.190371  1
  Yb  Yb3  1  0.467311  0.774391  0.809268  1
  Yb  Yb4  1  0.038079  0.232537  0.500290  1
  Yb  Yb5  1  0.538079  0.767463  0.499710  1
  Fe  Fe6  1  0.498312  0.259481  0.331303  1
  Fe  Fe7  1  0.998312  0.740519  0.668697  1
  Fe  Fe8  1  0.440855  0.314898  0.000068  1
  Fe  Fe9  1  0.940855  0.685102  0.999932  1
  Fe  Fe10  1  0.498331  0.258134  0.668696  1
  Fe  Fe11  1  0.998331  0.741866  0.331304  1
  O  O12  1  0.270025  0.978469  0.644047  1
  O  O13  1  0.269920  0.979632  0.355705  1
  O  O14  1  0.770025  0.021531  0.355953  1
  O  O15  1  0.769920  0.020368  0.644295  1
  O  O16  1  0.225642  0.474242  0.704070  1
  O  O17  1  0.225921  0.476233  0.295744  1
  O  O18  1  0.725642  0.525758  0.295930  1
  O  O19  1  0.725921  0.523767  0.704256  1
  O  O20  1  0.084518  0.363267  0.000108  1
  O  O21  1  0.584518  0.636733  0.999892  1
  O  O22  1  0.535240  0.169946  0.854633  1
  O  O23  1  0.535472  0.171501  0.145833  1
  O  O24  1  0.035240  0.830054  0.145367  1
  O  O25  1  0.035472  0.828499  0.854167  1
  O  O26  1  0.475327  0.343280  0.499946  1
  O  O27  1  0.975327  0.656720  0.500054  1
