# generated using pymatgen
data_Y4Si10(OsPt)3
_symmetry_space_group_name_H-M   'P 1'
_cell_length_a   8.16286698
_cell_length_b   8.16162113
_cell_length_c   8.16162090
_cell_angle_alpha   137.39926893
_cell_angle_beta   104.85559948
_cell_angle_gamma   90.42899893
_symmetry_Int_Tables_number   1
_chemical_formula_structural   Y4Si10(OsPt)3
_chemical_formula_sum   'Y4 Si10 Os3 Pt3'
_cell_volume   339.37683421
_cell_formula_units_Z   1
loop_
 _symmetry_equiv_pos_site_id
 _symmetry_equiv_pos_as_xyz
  1  'x, y, z'
loop_
 _atom_site_type_symbol
 _atom_site_label
 _atom_site_symmetry_multiplicity
 _atom_site_fract_x
 _atom_site_fract_y
 _atom_site_fract_z
 _atom_site_occupancy
  Y  Y0  1  0.864155  0.628827  0.235329  1
  Y  Y1  1  0.138431  0.370798  0.767633  1
  Y  Y2  1  0.397034  0.131335  0.265699  1
  Y  Y3  1  0.603232  0.870644  0.732588  1
  Si  Si4  1  0.494424  0.754058  0.254387  1
  Si  Si5  1  0.494424  0.240037  0.740366  1
  Si  Si6  1  0.221197  0.973076  0.744751  1
  Si  Si7  1  0.776618  0.523779  0.746653  1
  Si  Si8  1  0.776618  0.029965  0.252840  1
  Si  Si9  1  0.221197  0.476446  0.248121  1
  Si  Si10  1  0.054152  0.898231  0.155921  1
  Si  Si11  1  0.955339  0.104614  0.850724  1
  Si  Si12  1  0.745096  0.394834  0.350262  1
  Si  Si13  1  0.255107  0.604106  0.651000  1
  Os  Os14  1  0.999478  0.750269  0.750816  1
  Os  Os15  1  0.999478  0.248662  0.249209  1
  Os  Os16  1  0.245436  0.859839  0.385598  1
  Pt  Pt17  1  0.753837  0.139283  0.614553  1
  Pt  Pt18  1  0.475550  0.360386  0.115165  1
  Pt  Pt19  1  0.529199  0.640813  0.888387  1
