# generated using pymatgen
data_Er3ScHg5
_symmetry_space_group_name_H-M   'P 1'
_cell_length_a   8.15182296
_cell_length_b   8.15182239
_cell_length_c   8.15182213
_cell_angle_alpha   66.48892206
_cell_angle_beta   66.48891207
_cell_angle_gamma   66.48890926
_symmetry_Int_Tables_number   1
_chemical_formula_structural   Er3ScHg5
_chemical_formula_sum   'Er6 Sc2 Hg10'
_cell_volume   436.58500711
_cell_formula_units_Z   2
loop_
 _symmetry_equiv_pos_site_id
 _symmetry_equiv_pos_as_xyz
  1  'x, y, z'
loop_
 _atom_site_type_symbol
 _atom_site_label
 _atom_site_symmetry_multiplicity
 _atom_site_fract_x
 _atom_site_fract_y
 _atom_site_fract_z
 _atom_site_occupancy
  Er  Er0  1  0.890034  0.187043  0.619100  1
  Er  Er1  1  0.619100  0.890034  0.187043  1
  Er  Er2  1  0.187043  0.619100  0.890034  1
  Er  Er3  1  0.109966  0.812957  0.380900  1
  Er  Er4  1  0.380900  0.109966  0.812957  1
  Er  Er5  1  0.812957  0.380900  0.109966  1
  Sc  Sc6  1  0.658795  0.658795  0.658795  1
  Sc  Sc7  1  0.341205  0.341205  0.341205  1
  Hg  Hg8  1  0.000000  0.000000  0.000000  1
  Hg  Hg9  1  0.500000  0.500000  0.500000  1
  Hg  Hg10  1  0.810224  0.810224  0.810224  1
  Hg  Hg11  1  0.189776  0.189776  0.189776  1
  Hg  Hg12  1  0.940586  0.557191  0.312711  1
  Hg  Hg13  1  0.312711  0.940586  0.557191  1
  Hg  Hg14  1  0.557191  0.312711  0.940586  1
  Hg  Hg15  1  0.059414  0.442809  0.687289  1
  Hg  Hg16  1  0.687289  0.059414  0.442809  1
  Hg  Hg17  1  0.442809  0.687289  0.059414  1
