# generated using pymatgen
data_Y3ErAl18(Ir2Pd)2
_symmetry_space_group_name_H-M   'P 1'
_cell_length_a   7.58144132
_cell_length_b   7.58207579
_cell_length_c   9.47174600
_cell_angle_alpha   90.00000000
_cell_angle_beta   90.00000000
_cell_angle_gamma   119.56364062
_symmetry_Int_Tables_number   1
_chemical_formula_structural   Y3ErAl18(Ir2Pd)2
_chemical_formula_sum   'Y3 Er1 Al18 Ir4 Pd2'
_cell_volume   473.58009777
_cell_formula_units_Z   1
loop_
 _symmetry_equiv_pos_site_id
 _symmetry_equiv_pos_as_xyz
  1  'x, y, z'
loop_
 _atom_site_type_symbol
 _atom_site_label
 _atom_site_symmetry_multiplicity
 _atom_site_fract_x
 _atom_site_fract_y
 _atom_site_fract_z
 _atom_site_occupancy
  Y  Y0  1  0.995605  0.671288  0.250000  1
  Y  Y1  1  0.004571  0.328637  0.750000  1
  Y  Y2  1  0.671173  0.995607  0.250000  1
  Er  Er3  1  0.328936  0.004365  0.750000  1
  Al  Al4  1  0.131028  0.130869  0.250000  1
  Al  Al5  1  0.869571  0.869067  0.750000  1
  Al  Al6  1  0.001181  0.338813  0.076193  1
  Al  Al7  1  0.999429  0.661848  0.923025  1
  Al  Al8  1  0.999429  0.661848  0.576975  1
  Al  Al9  1  0.338716  0.001187  0.424343  1
  Al  Al10  1  0.001181  0.338813  0.423807  1
  Al  Al11  1  0.660699  0.998885  0.577000  1
  Al  Al12  1  0.660699  0.998885  0.923000  1
  Al  Al13  1  0.338716  0.001187  0.075657  1
  Al  Al14  1  0.336955  0.336504  0.555322  1
  Al  Al15  1  0.663032  0.663027  0.445631  1
  Al  Al16  1  0.663032  0.663027  0.054369  1
  Al  Al17  1  0.336955  0.336504  0.944678  1
  Al  Al18  1  0.338304  0.548438  0.250000  1
  Al  Al19  1  0.660967  0.450897  0.750000  1
  Al  Al20  1  0.548341  0.338132  0.250000  1
  Al  Al21  1  0.451563  0.662151  0.750000  1
  Ir  Ir22  1  0.671879  0.327855  0.999812  1
  Ir  Ir23  1  0.327980  0.672137  0.999823  1
  Ir  Ir24  1  0.327980  0.672137  0.500177  1
  Ir  Ir25  1  0.671879  0.327855  0.500188  1
  Pd  Pd26  1  0.000100  0.000018  0.999926  1
  Pd  Pd27  1  0.000100  0.000018  0.500074  1
