# generated using pymatgen
data_Sc3Ga5Au
_symmetry_space_group_name_H-M   'P 1'
_cell_length_a   6.74278900
_cell_length_b   6.74278826
_cell_length_c   8.31988800
_cell_angle_alpha   90.00000000
_cell_angle_beta   90.00000000
_cell_angle_gamma   119.99999873
_symmetry_Int_Tables_number   1
_chemical_formula_structural   Sc3Ga5Au
_chemical_formula_sum   'Sc6 Ga10 Au2'
_cell_volume   327.58741487
_cell_formula_units_Z   2
loop_
 _symmetry_equiv_pos_site_id
 _symmetry_equiv_pos_as_xyz
  1  'x, y, z'
loop_
 _atom_site_type_symbol
 _atom_site_label
 _atom_site_symmetry_multiplicity
 _atom_site_fract_x
 _atom_site_fract_y
 _atom_site_fract_z
 _atom_site_occupancy
  Sc  Sc0  1  0.574350  0.999515  0.750000  1
  Sc  Sc1  1  0.000485  0.574834  0.750000  1
  Sc  Sc2  1  0.425166  0.425650  0.750000  1
  Sc  Sc3  1  0.999515  0.574350  0.250000  1
  Sc  Sc4  1  0.574834  0.000485  0.250000  1
  Sc  Sc5  1  0.425650  0.425166  0.250000  1
  Ga  Ga6  1  0.747140  0.747140  0.000000  1
  Ga  Ga7  1  0.252860  0.000000  0.000000  1
  Ga  Ga8  1  0.000000  0.252860  0.000000  1
  Ga  Ga9  1  0.747140  0.747140  0.500000  1
  Ga  Ga10  1  0.252860  0.000000  0.500000  1
  Ga  Ga11  1  0.000000  0.252860  0.500000  1
  Ga  Ga12  1  0.666667  0.333333  0.999616  1
  Ga  Ga13  1  0.666667  0.333333  0.500384  1
  Ga  Ga14  1  0.333333  0.666667  0.499616  1
  Ga  Ga15  1  0.333333  0.666667  0.000384  1
  Au  Au16  1  0.000000  0.000000  0.750000  1
  Au  Au17  1  0.000000  0.000000  0.250000  1
