# generated using pymatgen
data_Zr10InSnBi3Sb
_symmetry_space_group_name_H-M   'P 1'
_cell_length_a   5.74513192
_cell_length_b   8.52912183
_cell_length_c   8.55140765
_cell_angle_alpha   96.48705706
_cell_angle_beta   109.60006145
_cell_angle_gamma   70.31826264
_symmetry_Int_Tables_number   1
_chemical_formula_structural   Zr10InSnBi3Sb
_chemical_formula_sum   'Zr10 In1 Sn1 Bi3 Sb1'
_cell_volume   371.68534157
_cell_formula_units_Z   1
loop_
 _symmetry_equiv_pos_site_id
 _symmetry_equiv_pos_as_xyz
  1  'x, y, z'
loop_
 _atom_site_type_symbol
 _atom_site_label
 _atom_site_symmetry_multiplicity
 _atom_site_fract_x
 _atom_site_fract_y
 _atom_site_fract_z
 _atom_site_occupancy
  Zr  Zr0  1  0.421503  0.858804  0.702883  1
  Zr  Zr1  1  0.575392  0.146040  0.298053  1
  Zr  Zr2  1  0.929033  0.294580  0.151537  1
  Zr  Zr3  1  0.075185  0.704685  0.853695  1
  Zr  Zr4  1  0.720128  0.704685  0.146305  1
  Zr  Zr5  1  0.276385  0.294580  0.848463  1
  Zr  Zr6  1  0.778569  0.146040  0.701947  1
  Zr  Zr7  1  0.219694  0.858804  0.297117  1
  Zr  Zr8  1  0.251643  0.494754  0.500121  1
  Zr  Zr9  1  0.753603  0.494754  0.499879  1
  In  In10  1  0.749664  0.000673  0.000000  1
  Sn  Sn11  1  0.249671  0.000657  0.000000  1
  Bi  Bi12  1  0.333814  0.500943  0.168572  1
  Bi  Bi13  1  0.665244  0.500943  0.831428  1
  Bi  Bi14  1  0.835696  0.828607  0.500000  1
  Sb  Sb15  1  0.164776  0.170448  0.500000  1
