# generated using pymatgen
data_YTm7InHgRh2
_symmetry_space_group_name_H-M   'P 1'
_cell_length_a   9.54949513
_cell_length_b   9.52583037
_cell_length_c   9.53073459
_cell_angle_alpha   59.86503762
_cell_angle_beta   59.93486613
_cell_angle_gamma   59.91778915
_symmetry_Int_Tables_number   1
_chemical_formula_structural   YTm7InHgRh2
_chemical_formula_sum   'Y2 Tm14 In2 Hg2 Rh4'
_cell_volume   611.73898843
_cell_formula_units_Z   2
loop_
 _symmetry_equiv_pos_site_id
 _symmetry_equiv_pos_as_xyz
  1  'x, y, z'
loop_
 _atom_site_type_symbol
 _atom_site_label
 _atom_site_symmetry_multiplicity
 _atom_site_fract_x
 _atom_site_fract_y
 _atom_site_fract_z
 _atom_site_occupancy
  Y  Y0  1  0.060436  0.065202  0.437373  1
  Y  Y1  1  0.436988  0.065202  0.437373  1
  Tm  Tm2  1  0.060735  0.438899  0.064079  1
  Tm  Tm3  1  0.050165  0.649319  0.650266  1
  Tm  Tm4  1  0.436287  0.438899  0.064079  1
  Tm  Tm5  1  0.649150  0.052759  0.648942  1
  Tm  Tm6  1  0.189644  0.810907  0.189776  1
  Tm  Tm7  1  0.188952  0.190066  0.812551  1
  Tm  Tm8  1  0.809674  0.810907  0.189776  1
  Tm  Tm9  1  0.437974  0.062963  0.061090  1
  Tm  Tm10  1  0.811468  0.189040  0.188025  1
  Tm  Tm11  1  0.061569  0.439544  0.437319  1
  Tm  Tm12  1  0.808433  0.190066  0.812551  1
  Tm  Tm13  1  0.190580  0.808047  0.810792  1
  Tm  Tm14  1  0.649384  0.648126  0.053108  1
  Tm  Tm15  1  0.650251  0.649319  0.650266  1
  In  In16  1  0.418865  0.745026  0.417243  1
  In  In17  1  0.418008  0.416849  0.747133  1
  Hg  Hg18  1  0.413237  0.415356  0.413638  1
  Hg  Hg19  1  0.757769  0.415356  0.413638  1
  Rh  Rh20  1  0.858020  0.856308  0.427650  1
  Rh  Rh21  1  0.856813  0.856813  0.858078  1
  Rh  Rh22  1  0.428296  0.856813  0.858078  1
  Rh  Rh23  1  0.857303  0.428217  0.857177  1
