# generated using pymatgen
data_Dy9Ho7(ZrIr3)4
_symmetry_space_group_name_H-M   'P 1'
_cell_length_a   10.83153401
_cell_length_b   10.82935000
_cell_length_c   6.25956300
_cell_angle_alpha   89.99956334
_cell_angle_beta   90.00401854
_cell_angle_gamma   90.00338577
_symmetry_Int_Tables_number   1
_chemical_formula_structural   Dy9Ho7(ZrIr3)4
_chemical_formula_sum   'Dy9 Ho7 Zr4 Ir12'
_cell_volume   734.23717826
_cell_formula_units_Z   1
loop_
 _symmetry_equiv_pos_site_id
 _symmetry_equiv_pos_as_xyz
  1  'x, y, z'
loop_
 _atom_site_type_symbol
 _atom_site_label
 _atom_site_symmetry_multiplicity
 _atom_site_fract_x
 _atom_site_fract_y
 _atom_site_fract_z
 _atom_site_occupancy
  Dy  Dy0  1  0.289833  0.087129  0.373911  1
  Dy  Dy1  1  0.289807  0.912850  0.873972  1
  Dy  Dy2  1  0.710179  0.087153  0.873967  1
  Dy  Dy3  1  0.710181  0.912840  0.373977  1
  Dy  Dy4  1  0.587156  0.789825  0.873964  1
  Dy  Dy5  1  0.587169  0.210170  0.373966  1
  Dy  Dy6  1  0.412832  0.789836  0.373936  1
  Dy  Dy7  1  0.412944  0.210100  0.874061  1
  Dy  Dy8  1  0.209887  0.413140  0.625911  1
  Ho  Ho9  1  0.209717  0.586853  0.125730  1
  Ho  Ho10  1  0.790289  0.413239  0.125685  1
  Ho  Ho11  1  0.790254  0.586762  0.625718  1
  Ho  Ho12  1  0.913261  0.709745  0.125703  1
  Ho  Ho13  1  0.913124  0.290222  0.625719  1
  Ho  Ho14  1  0.086702  0.709838  0.625658  1
  Ho  Ho15  1  0.086674  0.290208  0.125719  1
  Zr  Zr16  1  0.999988  0.999999  0.500287  1
  Zr  Zr17  1  0.999982  0.999988  0.000337  1
  Zr  Zr18  1  0.500035  0.500012  0.000339  1
  Zr  Zr19  1  0.500179  0.500077  0.500239  1
  Ir  Ir20  1  0.854826  0.145840  0.250147  1
  Ir  Ir21  1  0.854845  0.854139  0.750141  1
  Ir  Ir22  1  0.145107  0.145647  0.750257  1
  Ir  Ir23  1  0.145165  0.854144  0.250148  1
  Ir  Ir24  1  0.645844  0.354826  0.750139  1
  Ir  Ir25  1  0.645856  0.645164  0.250160  1
  Ir  Ir26  1  0.354309  0.354753  0.249785  1
  Ir  Ir27  1  0.354255  0.645339  0.750255  1
  Ir  Ir28  1  0.500000  0.000003  0.120723  1
  Ir  Ir29  1  0.500007  0.999976  0.620725  1
  Ir  Ir30  1  0.999807  0.500087  0.879552  1
  Ir  Ir31  1  0.999784  0.500098  0.379169  1
