# generated using pymatgen
data_Y3Hf3Mg2(Co4P3)4
_symmetry_space_group_name_H-M   'P 1'
_cell_length_a   12.11373059
_cell_length_b   12.13715354
_cell_length_c   3.69295300
_cell_angle_alpha   90.00000000
_cell_angle_beta   90.00000000
_cell_angle_gamma   120.05489646
_symmetry_Int_Tables_number   1
_chemical_formula_structural   Y3Hf3Mg2(Co4P3)4
_chemical_formula_sum   'Y3 Hf3 Mg2 Co16 P12'
_cell_volume   469.95758422
_cell_formula_units_Z   1
loop_
 _symmetry_equiv_pos_site_id
 _symmetry_equiv_pos_as_xyz
  1  'x, y, z'
loop_
 _atom_site_type_symbol
 _atom_site_label
 _atom_site_symmetry_multiplicity
 _atom_site_fract_x
 _atom_site_fract_y
 _atom_site_fract_z
 _atom_site_occupancy
  Y  Y0  1  0.817836  0.816774  0.500000  1
  Y  Y1  1  0.332692  0.665924  0.000000  1
  Y  Y2  1  0.667167  0.333208  0.000000  1
  Hf  Hf3  1  0.000130  0.182934  0.500000  1
  Hf  Hf4  1  0.000452  0.557158  0.000000  1
  Hf  Hf5  1  0.184859  0.998042  0.500000  1
  Mg  Mg6  1  0.441625  0.440623  0.000000  1
  Mg  Mg7  1  0.556006  0.999803  0.000000  1
  Co  Co8  1  0.626293  0.825290  0.000000  1
  Co  Co9  1  0.369687  0.193940  0.000000  1
  Co  Co10  1  0.003771  0.725148  0.500000  1
  Co  Co11  1  0.277050  0.277101  0.500000  1
  Co  Co12  1  0.876952  0.352481  0.500000  1
  Co  Co13  1  0.721678  0.002771  0.500000  1
  Co  Co14  1  0.823159  0.629440  0.000000  1
  Co  Co15  1  0.178308  0.810290  0.000000  1
  Co  Co16  1  0.354547  0.874984  0.500000  1
  Co  Co17  1  0.123591  0.474963  0.500000  1
  Co  Co18  1  0.642359  0.516609  0.500000  1
  Co  Co19  1  0.003383  0.005723  0.000000  1
  Co  Co20  1  0.519323  0.644060  0.500000  1
  Co  Co21  1  0.476854  0.123570  0.500000  1
  Co  Co22  1  0.195206  0.369911  0.000000  1
  Co  Co23  1  0.804784  0.176316  0.000000  1
  P  P24  1  0.000116  0.346165  0.000000  1
  P  P25  1  0.829352  0.523282  0.500000  1
  P  P26  1  0.689860  0.169561  0.500000  1
  P  P27  1  0.176878  0.176187  0.000000  1
  P  P28  1  0.641302  0.643737  0.000000  1
  P  P29  1  0.825644  0.003616  0.000000  1
  P  P30  1  0.521351  0.830022  0.500000  1
  P  P31  1  0.171516  0.692631  0.500000  1
  P  P32  1  0.354412  0.002129  0.000000  1
  P  P33  1  0.478148  0.307930  0.500000  1
  P  P34  1  0.004045  0.829400  0.000000  1
  P  P35  1  0.309663  0.478274  0.500000  1
