# generated using pymatgen
data_Cs6VPWS7
_symmetry_space_group_name_H-M   'P 1'
_cell_length_a   9.95480800
_cell_length_b   10.02913845
_cell_length_c   11.77322509
_cell_angle_alpha   90.10721976
_cell_angle_beta   90.00000000
_cell_angle_gamma   90.00000000
_symmetry_Int_Tables_number   1
_chemical_formula_structural   Cs6VPWS7
_chemical_formula_sum   'Cs12 V2 P2 W2 S14'
_cell_volume   1175.41492643
_cell_formula_units_Z   2
loop_
 _symmetry_equiv_pos_site_id
 _symmetry_equiv_pos_as_xyz
  1  'x, y, z'
loop_
 _atom_site_type_symbol
 _atom_site_label
 _atom_site_symmetry_multiplicity
 _atom_site_fract_x
 _atom_site_fract_y
 _atom_site_fract_z
 _atom_site_occupancy
  Cs  Cs0  1  0.546991  0.209606  0.045901  1
  Cs  Cs1  1  0.046991  0.290394  0.454099  1
  Cs  Cs2  1  0.454451  0.792213  0.537647  1
  Cs  Cs3  1  0.954451  0.707787  0.962353  1
  Cs  Cs4  1  0.452812  0.791765  0.960242  1
  Cs  Cs5  1  0.952812  0.708235  0.539758  1
  Cs  Cs6  1  0.546635  0.209736  0.455533  1
  Cs  Cs7  1  0.046635  0.290264  0.044467  1
  Cs  Cs8  1  0.648001  0.412270  0.748069  1
  Cs  Cs9  1  0.148001  0.087730  0.751931  1
  Cs  Cs10  1  0.352269  0.582916  0.248171  1
  Cs  Cs11  1  0.852269  0.917084  0.251829  1
  V  V12  1  0.277185  0.016296  0.250134  1
  V  V13  1  0.777185  0.483704  0.249866  1
  P  P14  1  0.828807  0.046689  0.594994  1
  P  P15  1  0.328807  0.453311  0.905006  1
  W  W16  1  0.721863  0.982102  0.750483  1
  W  W17  1  0.221863  0.517898  0.749517  1
  S  S18  1  0.171432  0.953289  0.098589  1
  S  S19  1  0.671432  0.546711  0.401411  1
  S  S20  1  0.172377  0.953310  0.401751  1
  S  S21  1  0.672377  0.546690  0.098249  1
  S  S22  1  0.834419  0.049021  0.906297  1
  S  S23  1  0.334419  0.450979  0.593703  1
  S  S24  1  0.513105  0.069821  0.748505  1
  S  S25  1  0.013105  0.430179  0.751495  1
  S  S26  1  0.479051  0.933289  0.249754  1
  S  S27  1  0.979051  0.566711  0.250246  1
  S  S28  1  0.710257  0.757722  0.748876  1
  S  S29  1  0.210257  0.742278  0.751124  1
  S  S30  1  0.290347  0.232467  0.250259  1
  S  S31  1  0.790347  0.267533  0.249741  1
