# generated using pymatgen
data_HoLu7Re2(B12Ir)2
_symmetry_space_group_name_H-M   'P 1'
_cell_length_a   3.61524300
_cell_length_b   9.05011903
_cell_length_c   11.43196201
_cell_angle_alpha   90.28805071
_cell_angle_beta   90.00000000
_cell_angle_gamma   90.00000000
_symmetry_Int_Tables_number   1
_chemical_formula_structural   HoLu7Re2(B12Ir)2
_chemical_formula_sum   'Ho1 Lu7 Re2 B24 Ir2'
_cell_volume   374.03054431
_cell_formula_units_Z   1
loop_
 _symmetry_equiv_pos_site_id
 _symmetry_equiv_pos_as_xyz
  1  'x, y, z'
loop_
 _atom_site_type_symbol
 _atom_site_label
 _atom_site_symmetry_multiplicity
 _atom_site_fract_x
 _atom_site_fract_y
 _atom_site_fract_z
 _atom_site_occupancy
  Ho  Ho0  1  0.000000  0.316610  0.410140  1
  Lu  Lu1  1  0.000000  0.684677  0.590435  1
  Lu  Lu2  1  0.000000  0.825920  0.081695  1
  Lu  Lu3  1  0.000000  0.173993  0.918183  1
  Lu  Lu4  1  0.000000  0.946163  0.372421  1
  Lu  Lu5  1  0.000000  0.053336  0.627729  1
  Lu  Lu6  1  0.000000  0.441792  0.125384  1
  Lu  Lu7  1  0.000000  0.558298  0.874503  1
  Re  Re8  1  0.000000  0.137900  0.179604  1
  Re  Re9  1  0.000000  0.861561  0.819906  1
  B  B10  1  0.500000  0.554758  0.434751  1
  B  B11  1  0.500000  0.446272  0.565883  1
  B  B12  1  0.500000  0.052881  0.066315  1
  B  B13  1  0.500000  0.946890  0.933412  1
  B  B14  1  0.500000  0.750654  0.421890  1
  B  B15  1  0.500000  0.249138  0.579103  1
  B  B16  1  0.500000  0.249075  0.079683  1
  B  B17  1  0.500000  0.750851  0.919990  1
  B  B18  1  0.500000  0.792184  0.265220  1
  B  B19  1  0.500000  0.207831  0.734965  1
  B  B20  1  0.500000  0.293151  0.234261  1
  B  B21  1  0.500000  0.706478  0.764995  1
  B  B22  1  0.500000  0.631654  0.182874  1
  B  B23  1  0.500000  0.368579  0.817076  1
  B  B24  1  0.500000  0.130608  0.315262  1
  B  B25  1  0.500000  0.868637  0.684278  1
  B  B26  1  0.500000  0.981052  0.213017  1
  B  B27  1  0.500000  0.018547  0.786830  1
  B  B28  1  0.500000  0.482101  0.286727  1
  B  B29  1  0.500000  0.518822  0.712933  1
  B  B30  1  0.500000  0.604971  0.029326  1
  B  B31  1  0.500000  0.395129  0.970552  1
  B  B32  1  0.500000  0.104145  0.471846  1
  B  B33  1  0.500000  0.894582  0.528528  1
  Ir  Ir34  1  0.000000  0.637654  0.321666  1
  Ir  Ir35  1  0.000000  0.363106  0.678617  1
