# generated using pymatgen
data_Tm3Al4Ni9B2
_symmetry_space_group_name_H-M   'P 1'
_cell_length_a   5.13334207
_cell_length_b   5.14176179
_cell_length_c   10.57195610
_cell_angle_alpha   89.99339638
_cell_angle_beta   90.01497021
_cell_angle_gamma   119.97865540
_symmetry_Int_Tables_number   1
_chemical_formula_structural   Tm3Al4Ni9B2
_chemical_formula_sum   'Tm3 Al4 Ni9 B2'
_cell_volume   241.70826136
_cell_formula_units_Z   1
loop_
 _symmetry_equiv_pos_site_id
 _symmetry_equiv_pos_as_xyz
  1  'x, y, z'
loop_
 _atom_site_type_symbol
 _atom_site_label
 _atom_site_symmetry_multiplicity
 _atom_site_fract_x
 _atom_site_fract_y
 _atom_site_fract_z
 _atom_site_occupancy
  Tm  Tm0  1  0.000108  0.000175  0.999961  1
  Tm  Tm1  1  0.999879  0.999869  0.338759  1
  Tm  Tm2  1  0.999951  0.999911  0.661184  1
  Al  Al3  1  0.332932  0.666109  0.315870  1
  Al  Al4  1  0.666930  0.333661  0.315908  1
  Al  Al5  1  0.666919  0.333679  0.684207  1
  Al  Al6  1  0.332942  0.666263  0.684109  1
  Ni  Ni7  1  0.499912  0.999890  0.500090  1
  Ni  Ni8  1  0.499843  0.499868  0.500065  1
  Ni  Ni9  1  0.999785  0.499714  0.500037  1
  Ni  Ni10  1  0.500584  0.000247  0.129508  1
  Ni  Ni11  1  0.500244  0.499729  0.129381  1
  Ni  Ni12  1  0.999987  0.499889  0.129208  1
  Ni  Ni13  1  0.499546  0.999812  0.870475  1
  Ni  Ni14  1  0.500039  0.500492  0.870535  1
  Ni  Ni15  1  0.000138  0.500569  0.870757  1
  B  B16  1  0.334020  0.667411  0.000078  1
  B  B17  1  0.666140  0.332712  0.999867  1
