# generated using pymatgen
data_Dy4Tm6OsRu3
_symmetry_space_group_name_H-M   'P 1'
_cell_length_a   6.30247049
_cell_length_b   7.26355245
_cell_length_c   8.37961344
_cell_angle_alpha   96.79644091
_cell_angle_beta   112.14111078
_cell_angle_gamma   90.00779129
_symmetry_Int_Tables_number   1
_chemical_formula_structural   Dy4Tm6OsRu3
_chemical_formula_sum   'Dy4 Tm6 Os1 Ru3'
_cell_volume   352.40256975
_cell_formula_units_Z   1
loop_
 _symmetry_equiv_pos_site_id
 _symmetry_equiv_pos_as_xyz
  1  'x, y, z'
loop_
 _atom_site_type_symbol
 _atom_site_label
 _atom_site_symmetry_multiplicity
 _atom_site_fract_x
 _atom_site_fract_y
 _atom_site_fract_z
 _atom_site_occupancy
  Dy  Dy0  1  0.790375  0.082327  0.812274  1
  Dy  Dy1  1  0.975177  0.416076  0.184560  1
  Dy  Dy2  1  0.209276  0.916197  0.187337  1
  Dy  Dy3  1  0.024407  0.583757  0.813024  1
  Tm  Tm4  1  0.206189  0.184642  0.566348  1
  Tm  Tm5  1  0.639606  0.317165  0.436181  1
  Tm  Tm6  1  0.795016  0.815967  0.433952  1
  Tm  Tm7  1  0.359491  0.683430  0.565018  1
  Tm  Tm8  1  0.420326  0.249921  0.999216  1
  Tm  Tm9  1  0.580159  0.750261  0.000000  1
  Os  Os10  1  0.600154  0.423922  0.780394  1
  Ru  Ru11  1  0.822359  0.076794  0.221858  1
  Ru  Ru12  1  0.399028  0.576440  0.220860  1
  Ru  Ru13  1  0.178437  0.923099  0.778979  1
