# generated using pymatgen
data_Ta5Ga2C3
_symmetry_space_group_name_H-M   'P 1'
_cell_length_a   16.45053734
_cell_length_b   16.45053719
_cell_length_c   16.45053715
_cell_angle_alpha   10.86356208
_cell_angle_beta   10.86356570
_cell_angle_gamma   10.86355793
_symmetry_Int_Tables_number   1
_chemical_formula_structural   Ta5Ga2C3
_chemical_formula_sum   'Ta5 Ga2 C3'
_cell_volume   137.35948657
_cell_formula_units_Z   1
loop_
 _symmetry_equiv_pos_site_id
 _symmetry_equiv_pos_as_xyz
  1  'x, y, z'
loop_
 _atom_site_type_symbol
 _atom_site_label
 _atom_site_symmetry_multiplicity
 _atom_site_fract_x
 _atom_site_fract_y
 _atom_site_fract_z
 _atom_site_occupancy
  Ta  Ta0  1  0.500000  0.500000  0.500000  1
  Ta  Ta1  1  0.219360  0.219360  0.219360  1
  Ta  Ta2  1  0.308031  0.308031  0.308031  1
  Ta  Ta3  1  0.691969  0.691969  0.691969  1
  Ta  Ta4  1  0.780640  0.780640  0.780640  1
  Ga  Ga5  1  0.402996  0.402996  0.402996  1
  Ga  Ga6  1  0.597004  0.597004  0.597004  1
  C  C7  1  0.140094  0.140094  0.140094  1
  C  C8  1  0.859906  0.859906  0.859906  1
  C  C9  1  0.000000  0.000000  0.000000  1
