# generated using pymatgen
data_Tb3Y4Ho(CdPt)2
_symmetry_space_group_name_H-M   'P 1'
_cell_length_a   9.72225101
_cell_length_b   9.71835492
_cell_length_c   9.73140637
_cell_angle_alpha   59.98206715
_cell_angle_beta   59.94236480
_cell_angle_gamma   60.07558297
_symmetry_Int_Tables_number   1
_chemical_formula_structural   Tb3Y4Ho(CdPt)2
_chemical_formula_sum   'Tb6 Y8 Ho2 Cd4 Pt4'
_cell_volume   650.15814292
_cell_formula_units_Z   2
loop_
 _symmetry_equiv_pos_site_id
 _symmetry_equiv_pos_as_xyz
  1  'x, y, z'
loop_
 _atom_site_type_symbol
 _atom_site_label
 _atom_site_symmetry_multiplicity
 _atom_site_fract_x
 _atom_site_fract_y
 _atom_site_fract_z
 _atom_site_occupancy
  Tb  Tb0  1  0.352034  0.352781  0.352497  1
  Tb  Tb1  1  0.352781  0.352034  0.942687  1
  Tb  Tb2  1  0.352497  0.942687  0.352034  1
  Tb  Tb3  1  0.942687  0.352497  0.352781  1
  Tb  Tb4  1  0.811017  0.188983  0.188983  1
  Tb  Tb5  1  0.188983  0.811017  0.811017  1
  Y  Y6  1  0.189802  0.189802  0.810198  1
  Y  Y7  1  0.810198  0.810198  0.189802  1
  Y  Y8  1  0.935424  0.564576  0.564576  1
  Y  Y9  1  0.564576  0.935424  0.935424  1
  Y  Y10  1  0.564364  0.935636  0.564364  1
  Y  Y11  1  0.935636  0.564364  0.935636  1
  Y  Y12  1  0.564193  0.564193  0.935807  1
  Y  Y13  1  0.935807  0.935807  0.564193  1
  Ho  Ho14  1  0.189802  0.810198  0.189802  1
  Ho  Ho15  1  0.810198  0.189802  0.810198  1
  Cd  Cd16  1  0.582516  0.581797  0.581717  1
  Cd  Cd17  1  0.581797  0.582516  0.253970  1
  Cd  Cd18  1  0.581717  0.253970  0.582516  1
  Cd  Cd19  1  0.253970  0.581717  0.581797  1
  Pt  Pt20  1  0.143413  0.142184  0.144553  1
  Pt  Pt21  1  0.142184  0.143413  0.569850  1
  Pt  Pt22  1  0.144553  0.569850  0.143413  1
  Pt  Pt23  1  0.569850  0.144553  0.142184  1
