# generated using pymatgen
data_Nb5Al17Ir7
_symmetry_space_group_name_H-M   'P 1'
_cell_length_a   8.65255158
_cell_length_b   8.65255234
_cell_length_c   8.58471900
_cell_angle_alpha   60.25900163
_cell_angle_beta   60.25899877
_cell_angle_gamma   59.48200957
_symmetry_Int_Tables_number   1
_chemical_formula_structural   Nb5Al17Ir7
_chemical_formula_sum   'Nb5 Al17 Ir7'
_cell_volume   454.40863834
_cell_formula_units_Z   1
loop_
 _symmetry_equiv_pos_site_id
 _symmetry_equiv_pos_as_xyz
  1  'x, y, z'
loop_
 _atom_site_type_symbol
 _atom_site_label
 _atom_site_symmetry_multiplicity
 _atom_site_fract_x
 _atom_site_fract_y
 _atom_site_fract_z
 _atom_site_occupancy
  Nb  Nb0  1  0.207068  0.791225  0.792932  1
  Nb  Nb1  1  0.791225  0.207068  0.208775  1
  Nb  Nb2  1  0.791225  0.207068  0.792932  1
  Nb  Nb3  1  0.822722  0.822722  0.177278  1
  Nb  Nb4  1  0.207068  0.791225  0.208775  1
  Al  Al5  1  0.055907  0.055907  0.944093  1
  Al  Al6  1  0.848080  0.848080  0.829070  1
  Al  Al7  1  0.848080  0.848080  0.474771  1
  Al  Al8  1  0.450667  0.870322  0.839505  1
  Al  Al9  1  0.870322  0.450667  0.839505  1
  Al  Al10  1  0.160495  0.160495  0.129678  1
  Al  Al11  1  0.160495  0.160495  0.549333  1
  Al  Al12  1  0.170930  0.525229  0.151920  1
  Al  Al13  1  0.525229  0.170930  0.151920  1
  Al  Al14  1  0.627499  0.627499  0.617319  1
  Al  Al15  1  0.627499  0.627499  0.127683  1
  Al  Al16  1  0.146584  0.616878  0.618268  1
  Al  Al17  1  0.616878  0.146584  0.618268  1
  Al  Al18  1  0.381732  0.381732  0.383122  1
  Al  Al19  1  0.381732  0.381732  0.853416  1
  Al  Al20  1  0.382681  0.872317  0.372501  1
  Al  Al21  1  0.872317  0.382681  0.372501  1
  Ir  Ir22  1  0.509466  0.509466  0.490534  1
  Ir  Ir23  1  0.002099  0.510711  0.489289  1
  Ir  Ir24  1  0.510711  0.002099  0.997901  1
  Ir  Ir25  1  0.510711  0.002099  0.489289  1
  Ir  Ir26  1  0.509240  0.509240  0.990760  1
  Ir  Ir27  1  0.002099  0.510711  0.997901  1
  Ir  Ir28  1  0.009240  0.009240  0.490760  1
