# generated using pymatgen
data_La7Ce(ZnIr)8
_symmetry_space_group_name_H-M   'P 1'
_cell_length_a   4.05199200
_cell_length_b   7.47970307
_cell_length_c   16.68430694
_cell_angle_alpha   89.96353209
_cell_angle_beta   90.00000000
_cell_angle_gamma   90.00000000
_symmetry_Int_Tables_number   1
_chemical_formula_structural   La7Ce(ZnIr)8
_chemical_formula_sum   'La7 Ce1 Zn8 Ir8'
_cell_volume   505.66281680
_cell_formula_units_Z   1
loop_
 _symmetry_equiv_pos_site_id
 _symmetry_equiv_pos_as_xyz
  1  'x, y, z'
loop_
 _atom_site_type_symbol
 _atom_site_label
 _atom_site_symmetry_multiplicity
 _atom_site_fract_x
 _atom_site_fract_y
 _atom_site_fract_z
 _atom_site_occupancy
  La  La0  1  0.250000  0.049275  0.716607  1
  La  La1  1  0.250000  0.549093  0.781771  1
  La  La2  1  0.250000  0.669178  0.558766  1
  La  La3  1  0.750000  0.829683  0.060194  1
  La  La4  1  0.250000  0.171584  0.940151  1
  La  La5  1  0.750000  0.452486  0.218621  1
  La  La6  1  0.750000  0.949790  0.283898  1
  Ce  Ce7  1  0.750000  0.325068  0.441126  1
  Zn  Zn8  1  0.250000  0.123322  0.149488  1
  Zn  Zn9  1  0.250000  0.994784  0.439860  1
  Zn  Zn10  1  0.750000  0.874435  0.850452  1
  Zn  Zn11  1  0.750000  0.000965  0.557769  1
  Zn  Zn12  1  0.250000  0.498762  0.059627  1
  Zn  Zn13  1  0.750000  0.373321  0.647074  1
  Zn  Zn14  1  0.750000  0.502103  0.940595  1
  Zn  Zn15  1  0.250000  0.617200  0.352376  1
  Ir  Ir16  1  0.750000  0.257911  0.812197  1
  Ir  Ir17  1  0.250000  0.252078  0.324272  1
  Ir  Ir18  1  0.250000  0.740338  0.934222  1
  Ir  Ir19  1  0.250000  0.246678  0.558319  1
  Ir  Ir20  1  0.250000  0.745967  0.186373  1
  Ir  Ir21  1  0.750000  0.754232  0.433992  1
  Ir  Ir22  1  0.750000  0.260690  0.067060  1
  Ir  Ir23  1  0.750000  0.761054  0.685193  1
