# generated using pymatgen
data_KBa3InSb7Au8
_symmetry_space_group_name_H-M   'P 1'
_cell_length_a   4.84048200
_cell_length_b   9.04457993
_cell_length_c   12.53639290
_cell_angle_alpha   90.01309289
_cell_angle_beta   90.00000000
_cell_angle_gamma   90.00000000
_symmetry_Int_Tables_number   1
_chemical_formula_structural   KBa3InSb7Au8
_chemical_formula_sum   'K1 Ba3 In1 Sb7 Au8'
_cell_volume   548.84485063
_cell_formula_units_Z   1
loop_
 _symmetry_equiv_pos_site_id
 _symmetry_equiv_pos_as_xyz
  1  'x, y, z'
loop_
 _atom_site_type_symbol
 _atom_site_label
 _atom_site_symmetry_multiplicity
 _atom_site_fract_x
 _atom_site_fract_y
 _atom_site_fract_z
 _atom_site_occupancy
  K  K0  1  0.750000  0.746911  0.336677  1
  Ba  Ba1  1  0.250000  0.764091  0.837488  1
  Ba  Ba2  1  0.250000  0.252284  0.661112  1
  Ba  Ba3  1  0.750000  0.240471  0.162773  1
  In  In4  1  0.250000  0.389362  0.954213  1
  Sb  Sb5  1  0.250000  0.405435  0.344333  1
  Sb  Sb6  1  0.250000  0.905090  0.157956  1
  Sb  Sb7  1  0.750000  0.600512  0.038327  1
  Sb  Sb8  1  0.750000  0.599865  0.653832  1
  Sb  Sb9  1  0.750000  0.099499  0.848289  1
  Sb  Sb10  1  0.250000  0.891470  0.542105  1
  Sb  Sb11  1  0.750000  0.108560  0.458924  1
  Au  Au12  1  0.250000  0.088496  0.976657  1
  Au  Au13  1  0.750000  0.429870  0.837362  1
  Au  Au14  1  0.750000  0.926764  0.662310  1
  Au  Au15  1  0.250000  0.565616  0.154913  1
  Au  Au16  1  0.250000  0.080577  0.341094  1
  Au  Au17  1  0.750000  0.904847  0.033870  1
  Au  Au18  1  0.250000  0.583177  0.533942  1
  Au  Au19  1  0.750000  0.417105  0.463822  1
