# generated using pymatgen
data_Sr4YHo(GaO5)2
_symmetry_space_group_name_H-M   'P 1'
_cell_length_a   5.96333100
_cell_length_b   7.63223583
_cell_length_c   12.48016294
_cell_angle_alpha   91.45435356
_cell_angle_beta   90.00000000
_cell_angle_gamma   90.00000000
_symmetry_Int_Tables_number   1
_chemical_formula_structural   Sr4YHo(GaO5)2
_chemical_formula_sum   'Sr8 Y2 Ho2 Ga4 O20'
_cell_volume   567.83352226
_cell_formula_units_Z   2
loop_
 _symmetry_equiv_pos_site_id
 _symmetry_equiv_pos_as_xyz
  1  'x, y, z'
loop_
 _atom_site_type_symbol
 _atom_site_label
 _atom_site_symmetry_multiplicity
 _atom_site_fract_x
 _atom_site_fract_y
 _atom_site_fract_z
 _atom_site_occupancy
  Sr  Sr0  1  0.772583  0.486381  0.330076  1
  Sr  Sr1  1  0.727417  0.986381  0.830076  1
  Sr  Sr2  1  0.227611  0.513266  0.669874  1
  Sr  Sr3  1  0.272389  0.013266  0.169874  1
  Sr  Sr4  1  0.772051  0.985548  0.367530  1
  Sr  Sr5  1  0.727949  0.485548  0.867530  1
  Sr  Sr6  1  0.228223  0.014943  0.632386  1
  Sr  Sr7  1  0.271777  0.514943  0.132386  1
  Y  Y8  1  0.244869  0.728992  0.380083  1
  Y  Y9  1  0.255131  0.228992  0.880083  1
  Ho  Ho10  1  0.755760  0.270573  0.620247  1
  Ho  Ho11  1  0.744240  0.770573  0.120247  1
  Ga  Ga12  1  0.719787  0.742194  0.580253  1
  Ga  Ga13  1  0.780213  0.242194  0.080253  1
  Ga  Ga14  1  0.280469  0.258000  0.420339  1
  Ga  Ga15  1  0.219531  0.758000  0.920339  1
  O  O16  1  0.789206  0.971709  0.628352  1
  O  O17  1  0.710794  0.471709  0.128352  1
  O  O18  1  0.210519  0.029453  0.371438  1
  O  O19  1  0.289481  0.529453  0.871438  1
  O  O20  1  0.716638  0.066932  0.176853  1
  O  O21  1  0.783362  0.566932  0.676853  1
  O  O22  1  0.283410  0.931734  0.822713  1
  O  O23  1  0.216590  0.431734  0.322713  1
  O  O24  1  0.541491  0.747266  0.274900  1
  O  O25  1  0.958509  0.247266  0.774900  1
  O  O26  1  0.460244  0.252781  0.723861  1
  O  O27  1  0.039756  0.752781  0.223861  1
  O  O28  1  0.597347  0.212774  0.959901  1
  O  O29  1  0.902653  0.712774  0.459901  1
  O  O30  1  0.404348  0.787222  0.040167  1
  O  O31  1  0.095652  0.287222  0.540167  1
  O  O32  1  0.089848  0.236972  0.046870  1
  O  O33  1  0.410152  0.736972  0.546870  1
  O  O34  1  0.909938  0.763261  0.954156  1
  O  O35  1  0.590062  0.263261  0.454156  1
