# generated using pymatgen
data_Nd3Cd3Pt2Au
_symmetry_space_group_name_H-M   'P 1'
_cell_length_a   7.91360100
_cell_length_b   7.91360118
_cell_length_c   3.94421000
_cell_angle_alpha   90.00000000
_cell_angle_beta   90.00000000
_cell_angle_gamma   119.99999506
_symmetry_Int_Tables_number   1
_chemical_formula_structural   Nd3Cd3Pt2Au
_chemical_formula_sum   'Nd3 Cd3 Pt2 Au1'
_cell_volume   213.91389339
_cell_formula_units_Z   1
loop_
 _symmetry_equiv_pos_site_id
 _symmetry_equiv_pos_as_xyz
  1  'x, y, z'
loop_
 _atom_site_type_symbol
 _atom_site_label
 _atom_site_symmetry_multiplicity
 _atom_site_fract_x
 _atom_site_fract_y
 _atom_site_fract_z
 _atom_site_occupancy
  Nd  Nd0  1  0.589959  0.000000  0.000000  1
  Nd  Nd1  1  0.000000  0.589959  0.000000  1
  Nd  Nd2  1  0.410041  0.410041  0.000000  1
  Cd  Cd3  1  0.260556  0.000000  0.500000  1
  Cd  Cd4  1  0.000000  0.260556  0.500000  1
  Cd  Cd5  1  0.739444  0.739444  0.500000  1
  Pt  Pt6  1  0.333333  0.666667  0.500000  1
  Pt  Pt7  1  0.666667  0.333333  0.500000  1
  Au  Au8  1  0.000000  0.000000  0.000000  1
