# generated using pymatgen
data_Hf8FeOs2Pt
_symmetry_space_group_name_H-M   'P 1'
_cell_length_a   8.71091587
_cell_length_b   8.71091568
_cell_length_c   8.63780400
_cell_angle_alpha   60.27725565
_cell_angle_beta   60.27725638
_cell_angle_gamma   60.38464709
_symmetry_Int_Tables_number   1
_chemical_formula_structural   Hf8FeOs2Pt
_chemical_formula_sum   'Hf16 Fe2 Os4 Pt2'
_cell_volume   466.74585620
_cell_formula_units_Z   2
loop_
 _symmetry_equiv_pos_site_id
 _symmetry_equiv_pos_as_xyz
  1  'x, y, z'
loop_
 _atom_site_type_symbol
 _atom_site_label
 _atom_site_symmetry_multiplicity
 _atom_site_fract_x
 _atom_site_fract_y
 _atom_site_fract_z
 _atom_site_occupancy
  Hf  Hf0  1  0.164728  0.621631  0.606820  1
  Hf  Hf1  1  0.621631  0.164728  0.606820  1
  Hf  Hf2  1  0.604183  0.604183  0.202031  1
  Hf  Hf3  1  0.604183  0.604183  0.589604  1
  Hf  Hf4  1  0.818597  0.818597  0.181403  1
  Hf  Hf5  1  0.185553  0.185553  0.814447  1
  Hf  Hf6  1  0.819799  0.185906  0.811134  1
  Hf  Hf7  1  0.185906  0.819799  0.183160  1
  Hf  Hf8  1  0.185906  0.819799  0.811134  1
  Hf  Hf9  1  0.819799  0.185906  0.183160  1
  Hf  Hf10  1  0.473507  0.473507  0.026493  1
  Hf  Hf11  1  0.056017  0.056017  0.443983  1
  Hf  Hf12  1  0.462013  0.030839  0.453198  1
  Hf  Hf13  1  0.030839  0.462013  0.053950  1
  Hf  Hf14  1  0.030839  0.462013  0.453198  1
  Hf  Hf15  1  0.462013  0.030839  0.053950  1
  Fe  Fe16  1  0.828691  0.381438  0.394935  1
  Fe  Fe17  1  0.381438  0.828691  0.394935  1
  Os  Os18  1  0.497871  0.832142  0.834993  1
  Os  Os19  1  0.832142  0.497871  0.834993  1
  Os  Os20  1  0.830585  0.830585  0.501221  1
  Os  Os21  1  0.830585  0.830585  0.837609  1
  Pt  Pt22  1  0.386587  0.386587  0.828449  1
  Pt  Pt23  1  0.386587  0.386587  0.398375  1
