# generated using pymatgen
data_Nd8SiPd23Pt
_symmetry_space_group_name_H-M   'P 1'
_cell_length_a   8.46828400
_cell_length_b   8.48164800
_cell_length_c   8.48164800
_cell_angle_alpha   90.00000000
_cell_angle_beta   90.00000000
_cell_angle_gamma   90.00000000
_symmetry_Int_Tables_number   1
_chemical_formula_structural   Nd8SiPd23Pt
_chemical_formula_sum   'Nd8 Si1 Pd23 Pt1'
_cell_volume   609.19440197
_cell_formula_units_Z   1
loop_
 _symmetry_equiv_pos_site_id
 _symmetry_equiv_pos_as_xyz
  1  'x, y, z'
loop_
 _atom_site_type_symbol
 _atom_site_label
 _atom_site_symmetry_multiplicity
 _atom_site_fract_x
 _atom_site_fract_y
 _atom_site_fract_z
 _atom_site_occupancy
  Nd  Nd0  1  0.253059  0.253304  0.253304  1
  Nd  Nd1  1  0.746438  0.746210  0.746210  1
  Nd  Nd2  1  0.746438  0.746210  0.253790  1
  Nd  Nd3  1  0.746438  0.253790  0.746210  1
  Nd  Nd4  1  0.253059  0.253304  0.746696  1
  Nd  Nd5  1  0.253059  0.746696  0.253304  1
  Nd  Nd6  1  0.253059  0.746696  0.746696  1
  Nd  Nd7  1  0.746438  0.253790  0.253790  1
  Si  Si8  1  0.003852  0.000000  0.000000  1
  Pd  Pd9  1  0.256591  0.500000  0.000000  1
  Pd  Pd10  1  0.742309  0.500000  0.000000  1
  Pd  Pd11  1  0.999832  0.257273  0.500000  1
  Pd  Pd12  1  0.499851  0.256827  0.000000  1
  Pd  Pd13  1  0.999832  0.742727  0.500000  1
  Pd  Pd14  1  0.499851  0.743173  0.000000  1
  Pd  Pd15  1  0.499851  0.000000  0.256827  1
  Pd  Pd16  1  0.256591  0.000000  0.500000  1
  Pd  Pd17  1  0.499851  0.000000  0.743173  1
  Pd  Pd18  1  0.742309  0.000000  0.500000  1
  Pd  Pd19  1  0.999832  0.500000  0.257273  1
  Pd  Pd20  1  0.999832  0.500000  0.742727  1
  Pd  Pd21  1  0.252105  0.500000  0.500000  1
  Pd  Pd22  1  0.748187  0.500000  0.500000  1
  Pd  Pd23  1  0.499991  0.252069  0.500000  1
  Pd  Pd24  1  0.499991  0.747931  0.500000  1
  Pd  Pd25  1  0.499991  0.500000  0.252069  1
  Pd  Pd26  1  0.499991  0.500000  0.747931  1
  Pd  Pd27  1  0.722960  0.000000  0.000000  1
  Pd  Pd28  1  0.999156  0.280833  0.000000  1
  Pd  Pd29  1  0.999156  0.719167  0.000000  1
  Pd  Pd30  1  0.999156  0.000000  0.280833  1
  Pd  Pd31  1  0.999156  0.000000  0.719167  1
  Pt  Pt32  1  0.281789  0.000000  0.000000  1
