# generated using pymatgen
data_Nd10Os3Pd
_symmetry_space_group_name_H-M   'P 1'
_cell_length_a   8.97276079
_cell_length_b   8.99530670
_cell_length_c   7.44247186
_cell_angle_alpha   83.45421684
_cell_angle_beta   83.33974649
_cell_angle_gamma   43.40536037
_symmetry_Int_Tables_number   1
_chemical_formula_structural   Nd10Os3Pd
_chemical_formula_sum   'Nd10 Os3 Pd1'
_cell_volume   409.60089082
_cell_formula_units_Z   1
loop_
 _symmetry_equiv_pos_site_id
 _symmetry_equiv_pos_as_xyz
  1  'x, y, z'
loop_
 _atom_site_type_symbol
 _atom_site_label
 _atom_site_symmetry_multiplicity
 _atom_site_fract_x
 _atom_site_fract_y
 _atom_site_fract_z
 _atom_site_occupancy
  Nd  Nd0  1  0.013548  0.802741  0.924969  1
  Nd  Nd1  1  0.202265  0.986967  0.585034  1
  Nd  Nd2  1  0.982966  0.200069  0.085631  1
  Nd  Nd3  1  0.787796  0.029948  0.411002  1
  Nd  Nd4  1  0.365901  0.194931  0.819095  1
  Nd  Nd5  1  0.785332  0.641381  0.685923  1
  Nd  Nd6  1  0.647353  0.788477  0.187171  1
  Nd  Nd7  1  0.208486  0.350679  0.310155  1
  Nd  Nd8  1  0.573270  0.428244  0.752043  1
  Nd  Nd9  1  0.430771  0.575739  0.241378  1
  Os  Os10  1  0.402963  0.822271  0.924181  1
  Os  Os11  1  0.820475  0.399184  0.428321  1
  Os  Os12  1  0.596158  0.182348  0.073918  1
  Pd  Pd13  1  0.182719  0.597024  0.571178  1
