# generated using pymatgen
data_Tb(YCu6)2
_symmetry_space_group_name_H-M   'P 1'
_cell_length_a   5.03436018
_cell_length_b   5.03435976
_cell_length_c   10.60814683
_cell_angle_alpha   94.84093223
_cell_angle_beta   94.84094532
_cell_angle_gamma   119.58690769
_symmetry_Int_Tables_number   1
_chemical_formula_structural   Tb(YCu6)2
_chemical_formula_sum   'Tb1 Y2 Cu12'
_cell_volume   230.49130562
_cell_formula_units_Z   1
loop_
 _symmetry_equiv_pos_site_id
 _symmetry_equiv_pos_as_xyz
  1  'x, y, z'
loop_
 _atom_site_type_symbol
 _atom_site_label
 _atom_site_symmetry_multiplicity
 _atom_site_fract_x
 _atom_site_fract_y
 _atom_site_fract_z
 _atom_site_occupancy
  Tb  Tb0  1  0.866818  0.866818  0.642230  1
  Y  Y1  1  0.000051  0.000051  0.000081  1
  Y  Y2  1  0.133055  0.133055  0.357786  1
  Cu  Cu3  1  0.663667  0.336332  0.999989  1
  Cu  Cu4  1  0.336332  0.663667  0.999989  1
  Cu  Cu5  1  0.568352  0.066739  0.196038  1
  Cu  Cu6  1  0.066739  0.568352  0.196038  1
  Cu  Cu7  1  0.569796  0.569796  0.201528  1
  Cu  Cu8  1  0.807575  0.471136  0.405556  1
  Cu  Cu9  1  0.471136  0.807575  0.405556  1
  Cu  Cu10  1  0.528924  0.192463  0.594461  1
  Cu  Cu11  1  0.192463  0.528924  0.594461  1
  Cu  Cu12  1  0.430250  0.430250  0.798445  1
  Cu  Cu13  1  0.933209  0.431635  0.803922  1
  Cu  Cu14  1  0.431635  0.933209  0.803922  1
