# generated using pymatgen
data_CeHo3(BRu)16
_symmetry_space_group_name_H-M   'P 1'
_cell_length_a   9.21488430
_cell_length_b   7.48931573
_cell_length_c   7.48931627
_cell_angle_alpha   90.03066229
_cell_angle_beta   113.96340706
_cell_angle_gamma   113.96340102
_symmetry_Int_Tables_number   1
_chemical_formula_structural   CeHo3(BRu)16
_chemical_formula_sum   'Ce1 Ho3 B16 Ru16'
_cell_volume   423.03861195
_cell_formula_units_Z   1
loop_
 _symmetry_equiv_pos_site_id
 _symmetry_equiv_pos_as_xyz
  1  'x, y, z'
loop_
 _atom_site_type_symbol
 _atom_site_label
 _atom_site_symmetry_multiplicity
 _atom_site_fract_x
 _atom_site_fract_y
 _atom_site_fract_z
 _atom_site_occupancy
  Ce  Ce0  1  0.750000  0.875000  0.125000  1
  Ho  Ho1  1  0.249999  0.625000  0.374999  1
  Ho  Ho2  1  0.750000  0.375000  0.624999  1
  Ho  Ho3  1  0.249999  0.125000  0.875000  1
  B  B4  1  0.915125  0.290387  0.067429  1
  B  B5  1  0.411883  0.566200  0.125032  1
  B  B6  1  0.088117  0.213150  0.154317  1
  B  B7  1  0.585826  0.152362  0.211402  1
  B  B8  1  0.413815  0.066725  0.289235  1
  B  B9  1  0.915125  0.624739  0.347696  1
  B  B10  1  0.584874  0.652303  0.375262  1
  B  B11  1  0.088117  0.874968  0.433800  1
  B  B12  1  0.914173  0.125576  0.566536  1
  B  B13  1  0.413815  0.347090  0.624581  1
  B  B14  1  0.086185  0.375419  0.652910  1
  B  B15  1  0.584874  0.932570  0.709613  1
  B  B16  1  0.411883  0.845683  0.786850  1
  B  B17  1  0.914173  0.788597  0.847637  1
  B  B18  1  0.585826  0.433464  0.874423  1
  B  B19  1  0.086185  0.710765  0.933275  1
  Ru  Ru20  1  0.872781  0.550918  0.037315  1
  Ru  Ru21  1  0.373465  0.835135  0.051177  1
  Ru  Ru22  1  0.126535  0.948823  0.164865  1
  Ru  Ru23  1  0.626773  0.463333  0.178708  1
  Ru  Ru24  1  0.373824  0.335266  0.321792  1
  Ru  Ru25  1  0.872781  0.321863  0.335467  1
  Ru  Ru26  1  0.627220  0.962686  0.449082  1
  Ru  Ru27  1  0.126535  0.177712  0.461669  1
  Ru  Ru28  1  0.873228  0.821294  0.536667  1
  Ru  Ru29  1  0.373824  0.038558  0.552031  1
  Ru  Ru30  1  0.126176  0.678209  0.664734  1
  Ru  Ru31  1  0.627220  0.664534  0.678137  1
  Ru  Ru32  1  0.373465  0.538331  0.822288  1
  Ru  Ru33  1  0.873228  0.051934  0.836560  1
  Ru  Ru34  1  0.626773  0.163440  0.948065  1
  Ru  Ru35  1  0.126176  0.447969  0.961442  1
