# generated using pymatgen
data_Y4Co7Ni7P8
_symmetry_space_group_name_H-M   'P 1'
_cell_length_a   3.67029900
_cell_length_b   9.11552546
_cell_length_c   10.29697049
_cell_angle_alpha   89.79542057
_cell_angle_beta   90.00000000
_cell_angle_gamma   90.00000000
_symmetry_Int_Tables_number   1
_chemical_formula_structural   Y4Co7Ni7P8
_chemical_formula_sum   'Y4 Co7 Ni7 P8'
_cell_volume   344.50049738
_cell_formula_units_Z   1
loop_
 _symmetry_equiv_pos_site_id
 _symmetry_equiv_pos_as_xyz
  1  'x, y, z'
loop_
 _atom_site_type_symbol
 _atom_site_label
 _atom_site_symmetry_multiplicity
 _atom_site_fract_x
 _atom_site_fract_y
 _atom_site_fract_z
 _atom_site_occupancy
  Y  Y0  1  0.000000  0.058697  0.395257  1
  Y  Y1  1  0.500000  0.940121  0.895208  1
  Y  Y2  1  0.000000  0.439275  0.179484  1
  Y  Y3  1  0.500000  0.563543  0.678155  1
  Co  Co4  1  0.000000  0.064017  0.701938  1
  Co  Co5  1  0.500000  0.936360  0.201265  1
  Co  Co6  1  0.000000  0.728721  0.509051  1
  Co  Co7  1  0.500000  0.271193  0.008073  1
  Co  Co8  1  0.000000  0.096213  0.099213  1
  Co  Co9  1  0.500000  0.904024  0.597466  1
  Co  Co10  1  0.000000  0.751293  0.272982  1
  Ni  Ni11  1  0.500000  0.251152  0.771761  1
  Ni  Ni12  1  0.000000  0.309195  0.600096  1
  Ni  Ni13  1  0.500000  0.691092  0.100925  1
  Ni  Ni14  1  0.000000  0.685836  0.910500  1
  Ni  Ni15  1  0.500000  0.312542  0.409154  1
  Ni  Ni16  1  0.000000  0.414705  0.869345  1
  Ni  Ni17  1  0.500000  0.583899  0.369294  1
  P  P18  1  0.000000  0.179150  0.896869  1
  P  P19  1  0.500000  0.819084  0.393589  1
  P  P20  1  0.000000  0.849278  0.086067  1
  P  P21  1  0.500000  0.150339  0.585198  1
  P  P22  1  0.000000  0.817114  0.708570  1
  P  P23  1  0.500000  0.183419  0.208435  1
  P  P24  1  0.000000  0.483929  0.459771  1
  P  P25  1  0.500000  0.515808  0.960530  1
