# generated using pymatgen
data_DyYPu2(ReB6)2
_symmetry_space_group_name_H-M   'P 1'
_cell_length_a   3.67769400
_cell_length_b   9.22303506
_cell_length_c   11.54325908
_cell_angle_alpha   90.01345847
_cell_angle_beta   90.00000000
_cell_angle_gamma   90.00000000
_symmetry_Int_Tables_number   1
_chemical_formula_structural   DyYPu2(ReB6)2
_chemical_formula_sum   'Dy2 Y2 Pu4 Re4 B24'
_cell_volume   391.54157381
_cell_formula_units_Z   2
loop_
 _symmetry_equiv_pos_site_id
 _symmetry_equiv_pos_as_xyz
  1  'x, y, z'
loop_
 _atom_site_type_symbol
 _atom_site_label
 _atom_site_symmetry_multiplicity
 _atom_site_fract_x
 _atom_site_fract_y
 _atom_site_fract_z
 _atom_site_occupancy
  Dy  Dy0  1  0.000000  0.445281  0.125395  1
  Dy  Dy1  1  0.000000  0.554719  0.874605  1
  Y  Y2  1  0.000000  0.945333  0.374698  1
  Y  Y3  1  0.000000  0.054667  0.625302  1
  Pu  Pu4  1  0.000000  0.824950  0.087104  1
  Pu  Pu5  1  0.000000  0.175050  0.912896  1
  Pu  Pu6  1  0.000000  0.324982  0.412802  1
  Pu  Pu7  1  0.000000  0.675018  0.587198  1
  Re  Re8  1  0.000000  0.138347  0.177563  1
  Re  Re9  1  0.000000  0.861653  0.822437  1
  Re  Re10  1  0.000000  0.638093  0.322339  1
  Re  Re11  1  0.000000  0.361907  0.677661  1
  B  B12  1  0.500000  0.052142  0.066705  1
  B  B13  1  0.500000  0.947858  0.933296  1
  B  B14  1  0.500000  0.552132  0.433302  1
  B  B15  1  0.500000  0.447868  0.566697  1
  B  B16  1  0.500000  0.246385  0.078830  1
  B  B17  1  0.500000  0.753615  0.921170  1
  B  B18  1  0.500000  0.746326  0.421229  1
  B  B19  1  0.500000  0.253674  0.578771  1
  B  B20  1  0.500000  0.293644  0.232810  1
  B  B21  1  0.500000  0.706356  0.767190  1
  B  B22  1  0.500000  0.793582  0.267127  1
  B  B23  1  0.500000  0.206418  0.732873  1
  B  B24  1  0.500000  0.134794  0.313521  1
  B  B25  1  0.500000  0.865206  0.686479  1
  B  B26  1  0.500000  0.634705  0.186503  1
  B  B27  1  0.500000  0.365295  0.813497  1
  B  B28  1  0.500000  0.482676  0.286829  1
  B  B29  1  0.500000  0.517324  0.713171  1
  B  B30  1  0.500000  0.982665  0.213098  1
  B  B31  1  0.500000  0.017335  0.786902  1
  B  B32  1  0.500000  0.119495  0.466462  1
  B  B33  1  0.500000  0.880505  0.533538  1
  B  B34  1  0.500000  0.619394  0.033506  1
  B  B35  1  0.500000  0.380606  0.966494  1
