# generated using pymatgen
data_Zr10BeSi(Bi2Pb)2
_symmetry_space_group_name_H-M   'P 1'
_cell_length_a   8.80308188
_cell_length_b   8.80308169
_cell_length_c   5.92730000
_cell_angle_alpha   89.99971154
_cell_angle_beta   89.99971170
_cell_angle_gamma   119.94885693
_symmetry_Int_Tables_number   1
_chemical_formula_structural   Zr10BeSi(Bi2Pb)2
_chemical_formula_sum   'Zr10 Be1 Si1 Bi4 Pb2'
_cell_volume   397.99773235
_cell_formula_units_Z   1
loop_
 _symmetry_equiv_pos_site_id
 _symmetry_equiv_pos_as_xyz
  1  'x, y, z'
loop_
 _atom_site_type_symbol
 _atom_site_label
 _atom_site_symmetry_multiplicity
 _atom_site_fract_x
 _atom_site_fract_y
 _atom_site_fract_z
 _atom_site_occupancy
  Zr  Zr0  1  0.666769  0.333885  0.501258  1
  Zr  Zr1  1  0.333885  0.666769  0.501258  1
  Zr  Zr2  1  0.332871  0.666360  0.998563  1
  Zr  Zr3  1  0.666360  0.332871  0.998563  1
  Zr  Zr4  1  0.748821  0.748821  0.255731  1
  Zr  Zr5  1  0.251103  0.000249  0.255648  1
  Zr  Zr6  1  0.000249  0.251103  0.255648  1
  Zr  Zr7  1  0.251297  0.251297  0.744074  1
  Zr  Zr8  1  0.748916  0.000535  0.744586  1
  Zr  Zr9  1  0.000535  0.748916  0.744586  1
  Be  Be10  1  0.000278  0.000278  0.499549  1
  Si  Si11  1  0.000133  0.000133  0.000496  1
  Bi  Bi12  1  0.392341  0.392341  0.248802  1
  Bi  Bi13  1  0.606177  0.000862  0.249311  1
  Bi  Bi14  1  0.000862  0.606177  0.249311  1
  Bi  Bi15  1  0.607591  0.607591  0.750732  1
  Pb  Pb16  1  0.391581  0.000231  0.750942  1
  Pb  Pb17  1  0.000231  0.391581  0.750942  1
