# generated using pymatgen
data_Dy10Sn5Bi
_symmetry_space_group_name_H-M   'P 1'
_cell_length_a   9.00965700
_cell_length_b   9.00692385
_cell_length_c   6.51932100
_cell_angle_alpha   90.00000000
_cell_angle_beta   90.00000000
_cell_angle_gamma   120.01003488
_symmetry_Int_Tables_number   1
_chemical_formula_structural   Dy10Sn5Bi
_chemical_formula_sum   'Dy10 Sn5 Bi1'
_cell_volume   458.11427187
_cell_formula_units_Z   1
loop_
 _symmetry_equiv_pos_site_id
 _symmetry_equiv_pos_as_xyz
  1  'x, y, z'
loop_
 _atom_site_type_symbol
 _atom_site_label
 _atom_site_symmetry_multiplicity
 _atom_site_fract_x
 _atom_site_fract_y
 _atom_site_fract_z
 _atom_site_occupancy
  Dy  Dy0  1  0.995125  0.757928  0.750000  1
  Dy  Dy1  1  0.000329  0.239109  0.250000  1
  Dy  Dy2  1  0.761220  0.760891  0.250000  1
  Dy  Dy3  1  0.764378  0.000000  0.750000  1
  Dy  Dy4  1  0.237197  0.242072  0.750000  1
  Dy  Dy5  1  0.237767  0.000000  0.250000  1
  Dy  Dy6  1  0.332607  0.663125  0.498276  1
  Dy  Dy7  1  0.669483  0.336875  0.001724  1
  Dy  Dy8  1  0.669483  0.336875  0.498276  1
  Dy  Dy9  1  0.332607  0.663125  0.001724  1
  Sn  Sn10  1  0.395284  0.394359  0.250000  1
  Sn  Sn11  1  0.000925  0.605641  0.250000  1
  Sn  Sn12  1  0.999817  0.395492  0.750000  1
  Sn  Sn13  1  0.604324  0.604508  0.750000  1
  Sn  Sn14  1  0.605279  0.000000  0.250000  1
  Bi  Bi15  1  0.394175  0.000000  0.750000  1
