# generated using pymatgen
data_Tb14Dy2In3HgRh4
_symmetry_space_group_name_H-M   'P 1'
_cell_length_a   9.68008549
_cell_length_b   9.67999180
_cell_length_c   9.69027876
_cell_angle_alpha   60.03509982
_cell_angle_beta   60.05934359
_cell_angle_gamma   60.00032050
_symmetry_Int_Tables_number   1
_chemical_formula_structural   Tb14Dy2In3HgRh4
_chemical_formula_sum   'Tb14 Dy2 In3 Hg1 Rh4'
_cell_volume   642.51915721
_cell_formula_units_Z   1
loop_
 _symmetry_equiv_pos_site_id
 _symmetry_equiv_pos_as_xyz
  1  'x, y, z'
loop_
 _atom_site_type_symbol
 _atom_site_label
 _atom_site_symmetry_multiplicity
 _atom_site_fract_x
 _atom_site_fract_y
 _atom_site_fract_z
 _atom_site_occupancy
  Tb  Tb0  1  0.689377  0.310297  0.311931  1
  Tb  Tb1  1  0.689377  0.688393  0.311931  1
  Tb  Tb2  1  0.312073  0.688872  0.310182  1
  Tb  Tb3  1  0.937141  0.938052  0.559320  1
  Tb  Tb4  1  0.148403  0.150909  0.549780  1
  Tb  Tb5  1  0.563562  0.938935  0.558567  1
  Tb  Tb6  1  0.150323  0.152388  0.149741  1
  Tb  Tb7  1  0.311738  0.308836  0.690403  1
  Tb  Tb8  1  0.937141  0.565486  0.559320  1
  Tb  Tb9  1  0.562929  0.563051  0.935765  1
  Tb  Tb10  1  0.562929  0.938256  0.935765  1
  Tb  Tb11  1  0.937084  0.564083  0.934751  1
  Tb  Tb12  1  0.150323  0.547546  0.149741  1
  Tb  Tb13  1  0.311738  0.689023  0.690403  1
  Dy  Dy14  1  0.689957  0.309947  0.690151  1
  Dy  Dy15  1  0.550285  0.150754  0.148205  1
  In  In16  1  0.246066  0.917139  0.919655  1
  In  In17  1  0.917334  0.246395  0.919141  1
  In  In18  1  0.917334  0.917130  0.919141  1
  Hg  Hg19  1  0.914570  0.914107  0.257216  1
  Rh  Rh20  1  0.357508  0.357066  0.357306  1
  Rh  Rh21  1  0.926415  0.357730  0.358127  1
  Rh  Rh22  1  0.358886  0.357484  0.926147  1
  Rh  Rh23  1  0.357508  0.928122  0.357306  1
