# generated using pymatgen
data_Sc2HgPd2
_symmetry_space_group_name_H-M   'P 1'
_cell_length_a   7.51716600
_cell_length_b   7.51716600
_cell_length_c   6.85007400
_cell_angle_alpha   90.00000000
_cell_angle_beta   90.00000000
_cell_angle_gamma   90.00000000
_symmetry_Int_Tables_number   1
_chemical_formula_structural   Sc2HgPd2
_chemical_formula_sum   'Sc8 Hg4 Pd8'
_cell_volume   387.08250658
_cell_formula_units_Z   4
loop_
 _symmetry_equiv_pos_site_id
 _symmetry_equiv_pos_as_xyz
  1  'x, y, z'
loop_
 _atom_site_type_symbol
 _atom_site_label
 _atom_site_symmetry_multiplicity
 _atom_site_fract_x
 _atom_site_fract_y
 _atom_site_fract_z
 _atom_site_occupancy
  Sc  Sc0  1  0.158200  0.158200  0.000000  1
  Sc  Sc1  1  0.841800  0.841800  0.000000  1
  Sc  Sc2  1  0.658200  0.341800  0.500000  1
  Sc  Sc3  1  0.341800  0.658200  0.500000  1
  Sc  Sc4  1  0.686234  0.313766  0.000000  1
  Sc  Sc5  1  0.313766  0.686234  0.000000  1
  Sc  Sc6  1  0.813766  0.813766  0.500000  1
  Sc  Sc7  1  0.186234  0.186234  0.500000  1
  Hg  Hg8  1  0.500000  0.000000  0.250000  1
  Hg  Hg9  1  0.500000  0.000000  0.750000  1
  Hg  Hg10  1  0.000000  0.500000  0.250000  1
  Hg  Hg11  1  0.000000  0.500000  0.750000  1
  Pd  Pd12  1  0.370757  0.370757  0.222918  1
  Pd  Pd13  1  0.629243  0.629243  0.777082  1
  Pd  Pd14  1  0.629243  0.629243  0.222918  1
  Pd  Pd15  1  0.870757  0.129243  0.722918  1
  Pd  Pd16  1  0.870757  0.129243  0.277082  1
  Pd  Pd17  1  0.370757  0.370757  0.777082  1
  Pd  Pd18  1  0.129243  0.870757  0.277082  1
  Pd  Pd19  1  0.129243  0.870757  0.722918  1
