# generated using pymatgen
data_Yb4GaSi3Ag4
_symmetry_space_group_name_H-M   'P 1'
_cell_length_a   5.70922969
_cell_length_b   5.70923000
_cell_length_c   10.49291632
_cell_angle_alpha   84.13081132
_cell_angle_beta   84.13080947
_cell_angle_gamma   46.93069456
_symmetry_Int_Tables_number   1
_chemical_formula_structural   Yb4GaSi3Ag4
_chemical_formula_sum   'Yb4 Ga1 Si3 Ag4'
_cell_volume   248.29779047
_cell_formula_units_Z   1
loop_
 _symmetry_equiv_pos_site_id
 _symmetry_equiv_pos_as_xyz
  1  'x, y, z'
loop_
 _atom_site_type_symbol
 _atom_site_label
 _atom_site_symmetry_multiplicity
 _atom_site_fract_x
 _atom_site_fract_y
 _atom_site_fract_z
 _atom_site_occupancy
  Yb  Yb0  1  0.682826  0.682826  0.682496  1
  Yb  Yb1  1  0.186309  0.186309  0.185283  1
  Yb  Yb2  1  0.399035  0.399035  0.899935  1
  Yb  Yb3  1  0.897083  0.897083  0.397635  1
  Ga  Ga4  1  0.676172  0.676172  0.989447  1
  Si  Si5  1  0.169783  0.169783  0.491274  1
  Si  Si6  1  0.988636  0.988636  0.670648  1
  Si  Si7  1  0.488564  0.488564  0.180025  1
  Ag  Ag8  1  0.385394  0.385394  0.606665  1
  Ag  Ag9  1  0.894893  0.894893  0.108261  1
  Ag  Ag10  1  0.105258  0.105258  0.881403  1
  Ag  Ag11  1  0.607246  0.607246  0.388127  1
