# generated using pymatgen
data_YbEu2(Co3P2)3
_symmetry_space_group_name_H-M   'P 1'
_cell_length_a   3.73927200
_cell_length_b   10.62170800
_cell_length_c   12.28764500
_cell_angle_alpha   90.00000000
_cell_angle_beta   90.00000000
_cell_angle_gamma   90.00000000
_symmetry_Int_Tables_number   1
_chemical_formula_structural   YbEu2(Co3P2)3
_chemical_formula_sum   'Yb2 Eu4 Co18 P12'
_cell_volume   488.03399123
_cell_formula_units_Z   2
loop_
 _symmetry_equiv_pos_site_id
 _symmetry_equiv_pos_as_xyz
  1  'x, y, z'
loop_
 _atom_site_type_symbol
 _atom_site_label
 _atom_site_symmetry_multiplicity
 _atom_site_fract_x
 _atom_site_fract_y
 _atom_site_fract_z
 _atom_site_occupancy
  Yb  Yb0  1  0.500000  0.818739  0.202399  1
  Yb  Yb1  1  0.500000  0.181261  0.202399  1
  Eu  Eu2  1  0.000000  0.500000  0.520505  1
  Eu  Eu3  1  0.500000  0.000000  0.474144  1
  Eu  Eu4  1  0.000000  0.679829  0.800428  1
  Eu  Eu5  1  0.000000  0.320171  0.800428  1
  Co  Co6  1  0.500000  0.500000  0.154109  1
  Co  Co7  1  0.000000  0.000000  0.848586  1
  Co  Co8  1  0.500000  0.500000  0.700078  1
  Co  Co9  1  0.000000  0.000000  0.300696  1
  Co  Co10  1  0.000000  0.500000  0.990081  1
  Co  Co11  1  0.500000  0.000000  0.013225  1
  Co  Co12  1  0.500000  0.331310  0.997561  1
  Co  Co13  1  0.500000  0.668690  0.997561  1
  Co  Co14  1  0.000000  0.166587  0.005381  1
  Co  Co15  1  0.000000  0.833413  0.005381  1
  Co  Co16  1  0.500000  0.296137  0.428110  1
  Co  Co17  1  0.500000  0.703863  0.428110  1
  Co  Co18  1  0.000000  0.199713  0.567736  1
  Co  Co19  1  0.000000  0.800287  0.567736  1
  Co  Co20  1  0.500000  0.881596  0.706264  1
  Co  Co21  1  0.500000  0.118404  0.706264  1
  Co  Co22  1  0.000000  0.621721  0.291294  1
  Co  Co23  1  0.000000  0.378279  0.291294  1
  P  P24  1  0.500000  0.500000  0.884925  1
  P  P25  1  0.000000  0.000000  0.119627  1
  P  P26  1  0.500000  0.500000  0.340748  1
  P  P27  1  0.000000  0.000000  0.657907  1
  P  P28  1  0.500000  0.306832  0.614324  1
  P  P29  1  0.500000  0.693168  0.614324  1
  P  P30  1  0.000000  0.191589  0.380595  1
  P  P31  1  0.000000  0.808411  0.380595  1
  P  P32  1  0.500000  0.847786  0.893648  1
  P  P33  1  0.500000  0.152214  0.893648  1
  P  P34  1  0.000000  0.657023  0.109945  1
  P  P35  1  0.000000  0.342977  0.109945  1
