# generated using pymatgen
data_Er3U2P12Ru19
_symmetry_space_group_name_H-M   'P 1'
_cell_length_a   12.53328900
_cell_length_b   12.53328954
_cell_length_c   3.95612300
_cell_angle_alpha   90.00000000
_cell_angle_beta   90.00000000
_cell_angle_gamma   120.00000122
_symmetry_Int_Tables_number   1
_chemical_formula_structural   Er3U2P12Ru19
_chemical_formula_sum   'Er3 U2 P12 Ru19'
_cell_volume   538.18369840
_cell_formula_units_Z   1
loop_
 _symmetry_equiv_pos_site_id
 _symmetry_equiv_pos_as_xyz
  1  'x, y, z'
loop_
 _atom_site_type_symbol
 _atom_site_label
 _atom_site_symmetry_multiplicity
 _atom_site_fract_x
 _atom_site_fract_y
 _atom_site_fract_z
 _atom_site_occupancy
  Er  Er0  1  0.186412  0.186412  0.500000  1
  Er  Er1  1  0.813588  0.000000  0.500000  1
  Er  Er2  1  0.000000  0.813588  0.500000  1
  U  U3  1  0.333333  0.666667  0.000000  1
  U  U4  1  0.666667  0.333333  0.000000  1
  P  P5  1  0.817437  0.817437  0.000000  1
  P  P6  1  0.182563  0.000000  0.000000  1
  P  P7  1  0.000000  0.182563  0.000000  1
  P  P8  1  0.170074  0.476366  0.500000  1
  P  P9  1  0.523634  0.693708  0.500000  1
  P  P10  1  0.306292  0.829926  0.500000  1
  P  P11  1  0.693708  0.523634  0.500000  1
  P  P12  1  0.829926  0.306292  0.500000  1
  P  P13  1  0.476366  0.170074  0.500000  1
  P  P14  1  0.369484  0.369484  0.000000  1
  P  P15  1  0.630516  0.000000  0.000000  1
  P  P16  1  0.000000  0.630516  0.000000  1
  Ru  Ru17  1  0.552597  0.552597  0.000000  1
  Ru  Ru18  1  0.447403  0.000000  0.000000  1
  Ru  Ru19  1  0.000000  0.447403  0.000000  1
  Ru  Ru20  1  0.717918  0.717918  0.500000  1
  Ru  Ru21  1  0.282082  0.000000  0.500000  1
  Ru  Ru22  1  0.000000  0.282082  0.500000  1
  Ru  Ru23  1  0.184686  0.379125  0.000000  1
  Ru  Ru24  1  0.620875  0.805561  0.000000  1
  Ru  Ru25  1  0.194439  0.815314  0.000000  1
  Ru  Ru26  1  0.805561  0.620875  0.000000  1
  Ru  Ru27  1  0.815314  0.194439  0.000000  1
  Ru  Ru28  1  0.379125  0.184686  0.000000  1
  Ru  Ru29  1  0.366041  0.495093  0.500000  1
  Ru  Ru30  1  0.504907  0.870948  0.500000  1
  Ru  Ru31  1  0.129052  0.633959  0.500000  1
  Ru  Ru32  1  0.870948  0.504907  0.500000  1
  Ru  Ru33  1  0.633959  0.129052  0.500000  1
  Ru  Ru34  1  0.495093  0.366041  0.500000  1
  Ru  Ru35  1  0.000000  0.000000  0.000000  1
