# generated using pymatgen
data_HoTm5Fe2(Co4P3)4
_symmetry_space_group_name_H-M   'P 1'
_cell_length_a   3.66810400
_cell_length_b   10.48499300
_cell_length_c   12.11089500
_cell_angle_alpha   90.00000000
_cell_angle_beta   90.00000000
_cell_angle_gamma   90.00000000
_symmetry_Int_Tables_number   1
_chemical_formula_structural   HoTm5Fe2(Co4P3)4
_chemical_formula_sum   'Ho1 Tm5 Fe2 Co16 P12'
_cell_volume   465.78556382
_cell_formula_units_Z   1
loop_
 _symmetry_equiv_pos_site_id
 _symmetry_equiv_pos_as_xyz
  1  'x, y, z'
loop_
 _atom_site_type_symbol
 _atom_site_label
 _atom_site_symmetry_multiplicity
 _atom_site_fract_x
 _atom_site_fract_y
 _atom_site_fract_z
 _atom_site_occupancy
  Ho  Ho0  1  0.000000  0.500000  0.522457  1
  Tm  Tm1  1  0.500000  0.000000  0.477376  1
  Tm  Tm2  1  0.500000  0.818080  0.205042  1
  Tm  Tm3  1  0.500000  0.181920  0.205042  1
  Tm  Tm4  1  0.000000  0.682064  0.795105  1
  Tm  Tm5  1  0.000000  0.317936  0.795105  1
  Fe  Fe6  1  0.500000  0.500000  0.157735  1
  Fe  Fe7  1  0.000000  0.000000  0.842230  1
  Co  Co8  1  0.500000  0.500000  0.702211  1
  Co  Co9  1  0.000000  0.000000  0.298296  1
  Co  Co10  1  0.000000  0.500000  0.986166  1
  Co  Co11  1  0.500000  0.000000  0.013793  1
  Co  Co12  1  0.500000  0.332886  0.993903  1
  Co  Co13  1  0.500000  0.667114  0.993903  1
  Co  Co14  1  0.000000  0.167001  0.006095  1
  Co  Co15  1  0.000000  0.832999  0.006095  1
  Co  Co16  1  0.500000  0.296643  0.430739  1
  Co  Co17  1  0.500000  0.703357  0.430739  1
  Co  Co18  1  0.000000  0.202856  0.569115  1
  Co  Co19  1  0.000000  0.797144  0.569115  1
  Co  Co20  1  0.500000  0.878354  0.708776  1
  Co  Co21  1  0.500000  0.121646  0.708776  1
  Co  Co22  1  0.000000  0.621815  0.291137  1
  Co  Co23  1  0.000000  0.378185  0.291137  1
  P  P24  1  0.500000  0.500000  0.881544  1
  P  P25  1  0.000000  0.000000  0.118529  1
  P  P26  1  0.500000  0.500000  0.343685  1
  P  P27  1  0.000000  0.000000  0.655921  1
  P  P28  1  0.500000  0.310900  0.616748  1
  P  P29  1  0.500000  0.689100  0.616748  1
  P  P30  1  0.000000  0.188710  0.383396  1
  P  P31  1  0.000000  0.811290  0.383396  1
  P  P32  1  0.500000  0.847110  0.891951  1
  P  P33  1  0.500000  0.152890  0.891951  1
  P  P34  1  0.000000  0.653028  0.108021  1
  P  P35  1  0.000000  0.346972  0.108021  1
