# generated using pymatgen
data_CePt2PbF14
_symmetry_space_group_name_H-M   'P 1'
_cell_length_a   5.67821609
_cell_length_b   9.16841949
_cell_length_c   12.24689800
_cell_angle_alpha   61.86563215
_cell_angle_beta   90.25917420
_cell_angle_gamma   89.73998449
_symmetry_Int_Tables_number   1
_chemical_formula_structural   CePt2PbF14
_chemical_formula_sum   'Ce2 Pt4 Pb2 F28'
_cell_volume   562.22153215
_cell_formula_units_Z   2
loop_
 _symmetry_equiv_pos_site_id
 _symmetry_equiv_pos_as_xyz
  1  'x, y, z'
loop_
 _atom_site_type_symbol
 _atom_site_label
 _atom_site_symmetry_multiplicity
 _atom_site_fract_x
 _atom_site_fract_y
 _atom_site_fract_z
 _atom_site_occupancy
  Ce  Ce0  1  0.762940  0.190955  0.235501  1
  Ce  Ce1  1  0.237060  0.809045  0.764499  1
  Pt  Pt2  1  0.755792  0.721486  0.040776  1
  Pt  Pt3  1  0.244208  0.278514  0.959224  1
  Pt  Pt4  1  0.259354  0.267687  0.454505  1
  Pt  Pt5  1  0.740646  0.732313  0.545495  1
  Pb  Pb6  1  0.259703  0.809393  0.264004  1
  Pb  Pb7  1  0.740297  0.190607  0.735996  1
  F  F8  1  0.920334  0.709517  0.419659  1
  F  F9  1  0.079666  0.290483  0.580341  1
  F  F10  1  0.431706  0.297288  0.089439  1
  F  F11  1  0.568294  0.702712  0.910561  1
  F  F12  1  0.464539  0.718820  0.124380  1
  F  F13  1  0.535461  0.281180  0.875620  1
  F  F14  1  0.962676  0.270596  0.366268  1
  F  F15  1  0.037324  0.729404  0.633732  1
  F  F16  1  0.930959  0.730836  0.174269  1
  F  F17  1  0.069041  0.269164  0.825731  1
  F  F18  1  0.443869  0.250569  0.323108  1
  F  F19  1  0.556131  0.749431  0.676892  1
  F  F20  1  0.771006  0.476424  0.135881  1
  F  F21  1  0.228994  0.523576  0.864119  1
  F  F22  1  0.266115  0.506711  0.356161  1
  F  F23  1  0.733885  0.493289  0.643839  1
  F  F24  1  0.942562  0.282546  0.041006  1
  F  F25  1  0.057438  0.717454  0.958994  1
  F  F26  1  0.446648  0.722527  0.467213  1
  F  F27  1  0.553352  0.277473  0.532787  1
  F  F28  1  0.738083  0.978114  0.448545  1
  F  F29  1  0.261917  0.021886  0.551455  1
  F  F30  1  0.247916  0.037994  0.045536  1
  F  F31  1  0.752084  0.962006  0.954464  1
  F  F32  1  0.617514  0.986604  0.225867  1
  F  F33  1  0.382486  0.013396  0.774133  1
  F  F34  1  0.087855  0.058280  0.269379  1
  F  F35  1  0.912145  0.941720  0.730621  1
