# generated using pymatgen
data_Nb2CoB3Mo
_symmetry_space_group_name_H-M   'P 1'
_cell_length_a   3.22894000
_cell_length_b   4.61065046
_cell_length_c   10.99053600
_cell_angle_alpha   90.00000000
_cell_angle_beta   90.00000000
_cell_angle_gamma   110.49716323
_symmetry_Int_Tables_number   1
_chemical_formula_structural   Nb2CoB3Mo
_chemical_formula_sum   'Nb4 Co2 B6 Mo2'
_cell_volume   153.26278456
_cell_formula_units_Z   2
loop_
 _symmetry_equiv_pos_site_id
 _symmetry_equiv_pos_as_xyz
  1  'x, y, z'
loop_
 _atom_site_type_symbol
 _atom_site_label
 _atom_site_symmetry_multiplicity
 _atom_site_fract_x
 _atom_site_fract_y
 _atom_site_fract_z
 _atom_site_occupancy
  Nb  Nb0  1  0.208639  0.417279  0.393339  1
  Nb  Nb1  1  0.791361  0.582721  0.606661  1
  Nb  Nb2  1  0.208639  0.417279  0.106661  1
  Nb  Nb3  1  0.791361  0.582721  0.893339  1
  Co  Co4  1  0.500000  0.000000  0.500000  1
  Co  Co5  1  0.500000  0.000000  0.000000  1
  B  B6  1  0.913462  0.826924  0.393326  1
  B  B7  1  0.086538  0.173076  0.606674  1
  B  B8  1  0.913462  0.826924  0.106674  1
  B  B9  1  0.086538  0.173076  0.893326  1
  B  B10  1  0.796745  0.593490  0.250000  1
  B  B11  1  0.203255  0.406510  0.750000  1
  Mo  Mo12  1  0.498617  0.997234  0.250000  1
  Mo  Mo13  1  0.501383  0.002766  0.750000  1
