# generated using pymatgen
data_Zr6GeSe
_symmetry_space_group_name_H-M   'P 1'
_cell_length_a   11.06700000
_cell_length_b   11.06700000
_cell_length_c   5.49118800
_cell_angle_alpha   90.00000000
_cell_angle_beta   90.00000000
_cell_angle_gamma   90.00000000
_symmetry_Int_Tables_number   1
_chemical_formula_structural   Zr6GeSe
_chemical_formula_sum   'Zr24 Ge4 Se4'
_cell_volume   672.55240905
_cell_formula_units_Z   4
loop_
 _symmetry_equiv_pos_site_id
 _symmetry_equiv_pos_as_xyz
  1  'x, y, z'
loop_
 _atom_site_type_symbol
 _atom_site_label
 _atom_site_symmetry_multiplicity
 _atom_site_fract_x
 _atom_site_fract_y
 _atom_site_fract_z
 _atom_site_occupancy
  Zr  Zr0  1  0.917201  0.606216  0.535864  1
  Zr  Zr1  1  0.082799  0.393784  0.535864  1
  Zr  Zr2  1  0.893784  0.417201  0.035864  1
  Zr  Zr3  1  0.106216  0.582799  0.035864  1
  Zr  Zr4  1  0.582546  0.895541  0.965036  1
  Zr  Zr5  1  0.417454  0.104459  0.965036  1
  Zr  Zr6  1  0.604459  0.082546  0.465036  1
  Zr  Zr7  1  0.395541  0.917454  0.465036  1
  Zr  Zr8  1  0.860664  0.972830  0.716874  1
  Zr  Zr9  1  0.139336  0.027170  0.716874  1
  Zr  Zr10  1  0.527170  0.360664  0.216874  1
  Zr  Zr11  1  0.472830  0.639336  0.216874  1
  Zr  Zr12  1  0.639547  0.526189  0.782326  1
  Zr  Zr13  1  0.360453  0.473811  0.782326  1
  Zr  Zr14  1  0.973811  0.139547  0.282326  1
  Zr  Zr15  1  0.026189  0.860453  0.282326  1
  Zr  Zr16  1  0.818077  0.714865  0.008542  1
  Zr  Zr17  1  0.181923  0.285135  0.008542  1
  Zr  Zr18  1  0.785135  0.318077  0.508542  1
  Zr  Zr19  1  0.214865  0.681923  0.508542  1
  Zr  Zr20  1  0.681154  0.784774  0.490644  1
  Zr  Zr21  1  0.318846  0.215226  0.490644  1
  Zr  Zr22  1  0.715226  0.181154  0.990644  1
  Zr  Zr23  1  0.284774  0.818846  0.990644  1
  Ge  Ge24  1  0.704913  0.540515  0.288148  1
  Ge  Ge25  1  0.295087  0.459485  0.288148  1
  Ge  Ge26  1  0.959485  0.204913  0.788148  1
  Ge  Ge27  1  0.040515  0.795087  0.788148  1
  Se  Se28  1  0.792963  0.959779  0.212566  1
  Se  Se29  1  0.207037  0.040221  0.212566  1
  Se  Se30  1  0.540221  0.292963  0.712566  1
  Se  Se31  1  0.459779  0.707037  0.712566  1
