# generated using pymatgen
data_Tm20IrRu2Pt9
_symmetry_space_group_name_H-M   'P 1'
_cell_length_a   10.90081200
_cell_length_b   10.90081200
_cell_length_c   6.27280300
_cell_angle_alpha   90.00000000
_cell_angle_beta   90.00000000
_cell_angle_gamma   90.00000000
_symmetry_Int_Tables_number   1
_chemical_formula_structural   Tm20IrRu2Pt9
_chemical_formula_sum   'Tm20 Ir1 Ru2 Pt9'
_cell_volume   745.38276722
_cell_formula_units_Z   1
loop_
 _symmetry_equiv_pos_site_id
 _symmetry_equiv_pos_as_xyz
  1  'x, y, z'
loop_
 _atom_site_type_symbol
 _atom_site_label
 _atom_site_symmetry_multiplicity
 _atom_site_fract_x
 _atom_site_fract_y
 _atom_site_fract_z
 _atom_site_occupancy
  Tm  Tm0  1  0.292528  0.088023  0.367616  1
  Tm  Tm1  1  0.294006  0.912015  0.876607  1
  Tm  Tm2  1  0.705994  0.087985  0.876607  1
  Tm  Tm3  1  0.707472  0.911977  0.367616  1
  Tm  Tm4  1  0.587985  0.794006  0.876607  1
  Tm  Tm5  1  0.588023  0.207472  0.367616  1
  Tm  Tm6  1  0.411977  0.792528  0.367616  1
  Tm  Tm7  1  0.412015  0.205994  0.876607  1
  Tm  Tm8  1  0.204162  0.412939  0.629153  1
  Tm  Tm9  1  0.203645  0.586194  0.125750  1
  Tm  Tm10  1  0.796355  0.413806  0.125750  1
  Tm  Tm11  1  0.795838  0.587061  0.629153  1
  Tm  Tm12  1  0.913806  0.703645  0.125750  1
  Tm  Tm13  1  0.912939  0.295838  0.629153  1
  Tm  Tm14  1  0.087061  0.704162  0.629153  1
  Tm  Tm15  1  0.086194  0.296355  0.125750  1
  Tm  Tm16  1  0.000000  0.000000  0.501377  1
  Tm  Tm17  1  0.000000  0.000000  0.000857  1
  Tm  Tm18  1  0.500000  0.500000  0.000857  1
  Tm  Tm19  1  0.500000  0.500000  0.501377  1
  Ir  Ir20  1  0.000000  0.500000  0.378154  1
  Ru  Ru21  1  0.500000  0.000000  0.123797  1
  Ru  Ru22  1  0.000000  0.500000  0.875392  1
  Pt  Pt23  1  0.845998  0.153312  0.250692  1
  Pt  Pt24  1  0.845529  0.846850  0.750022  1
  Pt  Pt25  1  0.154471  0.153150  0.750022  1
  Pt  Pt26  1  0.154002  0.846688  0.250692  1
  Pt  Pt27  1  0.653150  0.345529  0.750022  1
  Pt  Pt28  1  0.653312  0.654002  0.250692  1
  Pt  Pt29  1  0.346688  0.345998  0.250692  1
  Pt  Pt30  1  0.346850  0.654471  0.750022  1
  Pt  Pt31  1  0.500000  0.000000  0.618826  1
