# generated using pymatgen
data_Dy5Ho11(In3Pt)2
_symmetry_space_group_name_H-M   'P 1'
_cell_length_a   10.46067416
_cell_length_b   10.46067299
_cell_length_c   6.98555901
_cell_angle_alpha   89.99473877
_cell_angle_beta   90.00525947
_cell_angle_gamma   120.01939957
_symmetry_Int_Tables_number   1
_chemical_formula_structural   Dy5Ho11(In3Pt)2
_chemical_formula_sum   'Dy5 Ho11 In6 Pt2'
_cell_volume   661.86004592
_cell_formula_units_Z   1
loop_
 _symmetry_equiv_pos_site_id
 _symmetry_equiv_pos_as_xyz
  1  'x, y, z'
loop_
 _atom_site_type_symbol
 _atom_site_label
 _atom_site_symmetry_multiplicity
 _atom_site_fract_x
 _atom_site_fract_y
 _atom_site_fract_z
 _atom_site_occupancy
  Dy  Dy0  1  0.530809  0.061696  0.508350  1
  Dy  Dy1  1  0.938304  0.469191  0.508350  1
  Dy  Dy2  1  0.530803  0.469197  0.508445  1
  Dy  Dy3  1  0.469182  0.938287  0.008311  1
  Dy  Dy4  1  0.061713  0.530818  0.008311  1
  Ho  Ho5  1  0.469025  0.530975  0.008442  1
  Ho  Ho6  1  0.175292  0.350439  0.715479  1
  Ho  Ho7  1  0.649561  0.824708  0.715479  1
  Ho  Ho8  1  0.175186  0.824814  0.715325  1
  Ho  Ho9  1  0.824634  0.649570  0.215263  1
  Ho  Ho10  1  0.350430  0.175366  0.215263  1
  Ho  Ho11  1  0.824825  0.175175  0.215309  1
  Ho  Ho12  1  0.666590  0.333410  0.883597  1
  Ho  Ho13  1  0.333412  0.666588  0.383456  1
  Ho  Ho14  1  0.000028  0.999972  0.489150  1
  Ho  Ho15  1  0.999990  0.000010  0.989225  1
  In  In16  1  0.837292  0.674636  0.751363  1
  In  In17  1  0.325364  0.162708  0.751363  1
  In  In18  1  0.837319  0.162681  0.751311  1
  In  In19  1  0.162865  0.325480  0.251160  1
  In  In20  1  0.674520  0.837135  0.251160  1
  In  In21  1  0.162655  0.837345  0.251349  1
  Pt  Pt22  1  0.666701  0.333299  0.281171  1
  Pt  Pt23  1  0.333500  0.666500  0.781418  1
