# generated using pymatgen
data_Ta3Ga2SiTc3
_symmetry_space_group_name_H-M   'P 1'
_cell_length_a   7.01906600
_cell_length_b   7.01906473
_cell_length_c   3.24284100
_cell_angle_alpha   90.00000000
_cell_angle_beta   90.00000000
_cell_angle_gamma   120.00000599
_symmetry_Int_Tables_number   1
_chemical_formula_structural   Ta3Ga2SiTc3
_chemical_formula_sum   'Ta3 Ga2 Si1 Tc3'
_cell_volume   138.36136387
_cell_formula_units_Z   1
loop_
 _symmetry_equiv_pos_site_id
 _symmetry_equiv_pos_as_xyz
  1  'x, y, z'
loop_
 _atom_site_type_symbol
 _atom_site_label
 _atom_site_symmetry_multiplicity
 _atom_site_fract_x
 _atom_site_fract_y
 _atom_site_fract_z
 _atom_site_occupancy
  Ta  Ta0  1  0.395406  0.395406  0.500000  1
  Ta  Ta1  1  0.604594  0.000000  0.500000  1
  Ta  Ta2  1  0.000000  0.604594  0.500000  1
  Ga  Ga3  1  0.666667  0.333333  0.000000  1
  Ga  Ga4  1  0.333333  0.666667  0.000000  1
  Si  Si5  1  0.000000  0.000000  0.500000  1
  Tc  Tc6  1  0.746431  0.746431  0.000000  1
  Tc  Tc7  1  0.253569  0.000000  0.000000  1
  Tc  Tc8  1  0.000000  0.253569  0.000000  1
