# generated using pymatgen
data_DyY5Tm14(Hg3Ru)2
_symmetry_space_group_name_H-M   'P 1'
_cell_length_a   9.49074328
_cell_length_b   9.49074264
_cell_length_c   9.63759200
_cell_angle_alpha   90.00000000
_cell_angle_beta   90.00000000
_cell_angle_gamma   119.93029636
_symmetry_Int_Tables_number   1
_chemical_formula_structural   DyY5Tm14(Hg3Ru)2
_chemical_formula_sum   'Dy1 Y5 Tm14 Hg6 Ru2'
_cell_volume   752.32276382
_cell_formula_units_Z   1
loop_
 _symmetry_equiv_pos_site_id
 _symmetry_equiv_pos_as_xyz
  1  'x, y, z'
loop_
 _atom_site_type_symbol
 _atom_site_label
 _atom_site_symmetry_multiplicity
 _atom_site_fract_x
 _atom_site_fract_y
 _atom_site_fract_z
 _atom_site_occupancy
  Dy  Dy0  1  0.539987  0.460013  0.250000  1
  Y  Y1  1  0.540434  0.080895  0.250000  1
  Y  Y2  1  0.919105  0.459566  0.250000  1
  Y  Y3  1  0.459760  0.540240  0.750000  1
  Y  Y4  1  0.459667  0.919434  0.750000  1
  Y  Y5  1  0.080566  0.540333  0.750000  1
  Tm  Tm6  1  0.000065  0.999935  0.500038  1
  Tm  Tm7  1  0.000065  0.999935  0.999962  1
  Tm  Tm8  1  0.209624  0.790376  0.440152  1
  Tm  Tm9  1  0.209705  0.419029  0.440114  1
  Tm  Tm10  1  0.580971  0.790295  0.440114  1
  Tm  Tm11  1  0.790463  0.209537  0.559976  1
  Tm  Tm12  1  0.790211  0.580718  0.559687  1
  Tm  Tm13  1  0.419282  0.209789  0.559687  1
  Tm  Tm14  1  0.790463  0.209537  0.940024  1
  Tm  Tm15  1  0.790211  0.580718  0.940313  1
  Tm  Tm16  1  0.419282  0.209789  0.940313  1
  Tm  Tm17  1  0.209624  0.790376  0.059848  1
  Tm  Tm18  1  0.209705  0.419029  0.059886  1
  Tm  Tm19  1  0.580971  0.790295  0.059886  1
  Hg  Hg20  1  0.883511  0.116489  0.250000  1
  Hg  Hg21  1  0.883095  0.766659  0.250000  1
  Hg  Hg22  1  0.233341  0.116905  0.250000  1
  Hg  Hg23  1  0.116523  0.883477  0.750000  1
  Hg  Hg24  1  0.116360  0.233111  0.750000  1
  Hg  Hg25  1  0.766889  0.883640  0.750000  1
  Ru  Ru26  1  0.333438  0.666562  0.250000  1
  Ru  Ru27  1  0.666685  0.333315  0.750000  1
