# generated using pymatgen
data_Nd4Cd2Cu3Pt
_symmetry_space_group_name_H-M   'P 1'
_cell_length_a   7.80117893
_cell_length_b   7.80117893
_cell_length_c   3.85048800
_cell_angle_alpha   90.00000000
_cell_angle_beta   90.00000000
_cell_angle_gamma   89.84724899
_symmetry_Int_Tables_number   1
_chemical_formula_structural   Nd4Cd2Cu3Pt
_chemical_formula_sum   'Nd4 Cd2 Cu3 Pt1'
_cell_volume   234.33367806
_cell_formula_units_Z   1
loop_
 _symmetry_equiv_pos_site_id
 _symmetry_equiv_pos_as_xyz
  1  'x, y, z'
loop_
 _atom_site_type_symbol
 _atom_site_label
 _atom_site_symmetry_multiplicity
 _atom_site_fract_x
 _atom_site_fract_y
 _atom_site_fract_z
 _atom_site_occupancy
  Nd  Nd0  1  0.678852  0.178852  0.000000  1
  Nd  Nd1  1  0.325419  0.825419  0.000000  1
  Nd  Nd2  1  0.170546  0.322225  0.000000  1
  Nd  Nd3  1  0.822225  0.670546  0.000000  1
  Cd  Cd4  1  0.495902  0.501945  0.500000  1
  Cd  Cd5  1  0.001945  0.995902  0.500000  1
  Cu  Cu6  1  0.123734  0.623734  0.500000  1
  Cu  Cu7  1  0.382909  0.115772  0.500000  1
  Cu  Cu8  1  0.615772  0.882909  0.500000  1
  Pt  Pt9  1  0.882697  0.382697  0.500000  1
