# generated using pymatgen
data_NdSm2CI3
_symmetry_space_group_name_H-M   'P 1'
_cell_length_a   4.00555300
_cell_length_b   8.93781252
_cell_length_c   12.10723508
_cell_angle_alpha   92.32129881
_cell_angle_beta   90.00000000
_cell_angle_gamma   90.00000000
_symmetry_Int_Tables_number   1
_chemical_formula_structural   NdSm2CI3
_chemical_formula_sum   'Nd2 Sm4 C2 I6'
_cell_volume   433.09400594
_cell_formula_units_Z   2
loop_
 _symmetry_equiv_pos_site_id
 _symmetry_equiv_pos_as_xyz
  1  'x, y, z'
loop_
 _atom_site_type_symbol
 _atom_site_label
 _atom_site_symmetry_multiplicity
 _atom_site_fract_x
 _atom_site_fract_y
 _atom_site_fract_z
 _atom_site_occupancy
  Nd  Nd0  1  0.250000  0.914237  0.602235  1
  Nd  Nd1  1  0.750000  0.085763  0.397765  1
  Sm  Sm2  1  0.250000  0.886185  0.181404  1
  Sm  Sm3  1  0.750000  0.113815  0.818596  1
  Sm  Sm4  1  0.250000  0.296807  0.616329  1
  Sm  Sm5  1  0.750000  0.703193  0.383671  1
  C  C6  1  0.250000  0.878034  0.382870  1
  C  C7  1  0.750000  0.121966  0.617130  1
  I  I8  1  0.250000  0.857726  0.876147  1
  I  I9  1  0.750000  0.142274  0.123853  1
  I  I10  1  0.250000  0.376760  0.872624  1
  I  I11  1  0.750000  0.623240  0.127376  1
  I  I12  1  0.250000  0.385278  0.365903  1
  I  I13  1  0.750000  0.614722  0.634097  1
