# generated using pymatgen
data_Dy12AlIn(CoSi)2
_symmetry_space_group_name_H-M   'P 1'
_cell_length_a   8.43053583
_cell_length_b   8.43053742
_cell_length_c   8.43053566
_cell_angle_alpha   113.32552417
_cell_angle_beta   110.99142756
_cell_angle_gamma   104.23012797
_symmetry_Int_Tables_number   1
_chemical_formula_structural   Dy12AlIn(CoSi)2
_chemical_formula_sum   'Dy12 Al1 In1 Co2 Si2'
_cell_volume   458.18832699
_cell_formula_units_Z   1
loop_
 _symmetry_equiv_pos_site_id
 _symmetry_equiv_pos_as_xyz
  1  'x, y, z'
loop_
 _atom_site_type_symbol
 _atom_site_label
 _atom_site_symmetry_multiplicity
 _atom_site_fract_x
 _atom_site_fract_y
 _atom_site_fract_z
 _atom_site_occupancy
  Dy  Dy0  1  0.436508  0.238202  0.198306  1
  Dy  Dy1  1  0.563492  0.761798  0.801694  1
  Dy  Dy2  1  0.039896  0.238202  0.801694  1
  Dy  Dy3  1  0.960104  0.761798  0.198306  1
  Dy  Dy4  1  0.186427  0.285600  0.472027  1
  Dy  Dy5  1  0.813573  0.714400  0.527973  1
  Dy  Dy6  1  0.186427  0.714400  0.900826  1
  Dy  Dy7  1  0.813573  0.285600  0.099174  1
  Dy  Dy8  1  0.305200  0.614941  0.309740  1
  Dy  Dy9  1  0.694800  0.385059  0.690260  1
  Dy  Dy10  1  0.305200  0.995460  0.690260  1
  Dy  Dy11  1  0.694800  0.004540  0.309740  1
  Al  Al12  1  0.000000  0.000000  0.000000  1
  In  In13  1  0.500000  0.500000  0.000000  1
  Co  Co14  1  0.107825  0.607825  0.500000  1
  Co  Co15  1  0.892175  0.392175  0.500000  1
  Si  Si16  1  0.362150  0.000000  0.362150  1
  Si  Si17  1  0.637850  0.000000  0.637850  1
