# generated using pymatgen
data_YbEr3(TcB4)4
_symmetry_space_group_name_H-M   'P 1'
_cell_length_a   3.58056000
_cell_length_b   5.94592126
_cell_length_c   11.50260677
_cell_angle_alpha   89.98378654
_cell_angle_beta   90.00000000
_cell_angle_gamma   90.00000000
_symmetry_Int_Tables_number   1
_chemical_formula_structural   YbEr3(TcB4)4
_chemical_formula_sum   'Yb1 Er3 Tc4 B16'
_cell_volume   244.88735757
_cell_formula_units_Z   1
loop_
 _symmetry_equiv_pos_site_id
 _symmetry_equiv_pos_as_xyz
  1  'x, y, z'
loop_
 _atom_site_type_symbol
 _atom_site_label
 _atom_site_symmetry_multiplicity
 _atom_site_fract_x
 _atom_site_fract_y
 _atom_site_fract_z
 _atom_site_occupancy
  Yb  Yb0  1  0.500000  0.871841  0.650094  1
  Er  Er1  1  0.500000  0.628197  0.150155  1
  Er  Er2  1  0.500000  0.371475  0.848937  1
  Er  Er3  1  0.500000  0.127171  0.350436  1
  Tc  Tc4  1  0.500000  0.631239  0.413675  1
  Tc  Tc5  1  0.500000  0.368247  0.584897  1
  Tc  Tc6  1  0.500000  0.133352  0.087162  1
  Tc  Tc7  1  0.500000  0.865710  0.914070  1
  B  B8  1  0.000000  0.977655  0.193132  1
  B  B9  1  0.000000  0.022754  0.807114  1
  B  B10  1  0.000000  0.478250  0.306999  1
  B  B11  1  0.000000  0.521364  0.692685  1
  B  B12  1  0.000000  0.788562  0.315232  1
  B  B13  1  0.000000  0.212640  0.684934  1
  B  B14  1  0.000000  0.288105  0.185478  1
  B  B15  1  0.000000  0.712803  0.814683  1
  B  B16  1  0.000000  0.865121  0.468186  1
  B  B17  1  0.000000  0.134749  0.531631  1
  B  B18  1  0.000000  0.364834  0.031408  1
  B  B19  1  0.000000  0.634960  0.968797  1
  B  B20  1  0.000000  0.886374  0.047764  1
  B  B21  1  0.000000  0.113544  0.952469  1
  B  B22  1  0.000000  0.386525  0.452529  1
  B  B23  1  0.000000  0.614525  0.547533  1
