# generated using pymatgen
data_Cs2TiTc11S14
_symmetry_space_group_name_H-M   'P 1'
_cell_length_a   9.56739988
_cell_length_b   9.54753517
_cell_length_c   9.56141682
_cell_angle_alpha   60.29252223
_cell_angle_beta   60.12385365
_cell_angle_gamma   60.58006065
_symmetry_Int_Tables_number   1
_chemical_formula_structural   Cs2TiTc11S14
_chemical_formula_sum   'Cs2 Ti1 Tc11 S14'
_cell_volume   622.19978400
_cell_formula_units_Z   1
loop_
 _symmetry_equiv_pos_site_id
 _symmetry_equiv_pos_as_xyz
  1  'x, y, z'
loop_
 _atom_site_type_symbol
 _atom_site_label
 _atom_site_symmetry_multiplicity
 _atom_site_fract_x
 _atom_site_fract_y
 _atom_site_fract_z
 _atom_site_occupancy
  Cs  Cs0  1  0.375625  0.376439  0.375315  1
  Cs  Cs1  1  0.624512  0.623852  0.623959  1
  Ti  Ti2  1  0.309397  0.127207  0.995584  1
  Tc  Tc3  1  0.198468  0.879580  0.063426  1
  Tc  Tc4  1  0.883540  0.063017  0.198446  1
  Tc  Tc5  1  0.938341  0.801509  0.114770  1
  Tc  Tc6  1  0.804078  0.117190  0.935790  1
  Tc  Tc7  1  0.117481  0.938425  0.802671  1
  Tc  Tc8  1  0.992656  0.308852  0.124347  1
  Tc  Tc9  1  0.874336  0.007940  0.689055  1
  Tc  Tc10  1  0.126263  0.991282  0.306861  1
  Tc  Tc11  1  0.007482  0.689581  0.871488  1
  Tc  Tc12  1  0.689888  0.872479  0.010341  1
  Tc  Tc13  1  0.060553  0.201942  0.878724  1
  S  S14  1  0.985818  0.231043  0.649977  1
  S  S15  1  0.230053  0.651036  0.983508  1
  S  S16  1  0.653224  0.984482  0.229787  1
  S  S17  1  0.015221  0.768904  0.348421  1
  S  S18  1  0.770083  0.349508  0.013488  1
  S  S19  1  0.345161  0.014740  0.768465  1
  S  S20  1  0.162078  0.414299  0.825830  1
  S  S21  1  0.410352  0.819947  0.172321  1
  S  S22  1  0.829901  0.165798  0.410435  1
  S  S23  1  0.830567  0.589967  0.177877  1
  S  S24  1  0.594638  0.173676  0.830675  1
  S  S25  1  0.176450  0.833186  0.589629  1
  S  S26  1  0.780928  0.782705  0.783188  1
  S  S27  1  0.212905  0.221413  0.225623  1
