# generated using pymatgen
data_NpSi3Pd
_symmetry_space_group_name_H-M   'P 1'
_cell_length_a   5.65448822
_cell_length_b   5.65448860
_cell_length_c   5.65448855
_cell_angle_alpha   135.88689771
_cell_angle_beta   135.48075690
_cell_angle_gamma   64.47009292
_symmetry_Int_Tables_number   1
_chemical_formula_structural   NpSi3Pd
_chemical_formula_sum   'Np1 Si3 Pd1'
_cell_volume   87.01447922
_cell_formula_units_Z   1
loop_
 _symmetry_equiv_pos_site_id
 _symmetry_equiv_pos_as_xyz
  1  'x, y, z'
loop_
 _atom_site_type_symbol
 _atom_site_label
 _atom_site_symmetry_multiplicity
 _atom_site_fract_x
 _atom_site_fract_y
 _atom_site_fract_z
 _atom_site_occupancy
  Np  Np0  1  0.417071  0.417071  0.000000  1
  Si  Si1  1  0.016311  0.016311  0.000000  1
  Si  Si2  1  0.651098  0.151097  0.500001  1
  Si  Si3  1  0.152408  0.652409  0.500001  1
  Pd  Pd4  1  0.768052  0.768052  0.000000  1
