# generated using pymatgen
data_Pr5P12Ir16Rh3
_symmetry_space_group_name_H-M   'P 1'
_cell_length_a   12.83458600
_cell_length_b   12.83458641
_cell_length_c   4.02192400
_cell_angle_alpha   90.00000000
_cell_angle_beta   90.00000000
_cell_angle_gamma   119.99999894
_symmetry_Int_Tables_number   1
_chemical_formula_structural   Pr5P12Ir16Rh3
_chemical_formula_sum   'Pr5 P12 Ir16 Rh3'
_cell_volume   573.75731933
_cell_formula_units_Z   1
loop_
 _symmetry_equiv_pos_site_id
 _symmetry_equiv_pos_as_xyz
  1  'x, y, z'
loop_
 _atom_site_type_symbol
 _atom_site_label
 _atom_site_symmetry_multiplicity
 _atom_site_fract_x
 _atom_site_fract_y
 _atom_site_fract_z
 _atom_site_occupancy
  Pr  Pr0  1  0.187961  0.187961  0.500000  1
  Pr  Pr1  1  0.812039  0.000000  0.500000  1
  Pr  Pr2  1  0.000000  0.812039  0.500000  1
  Pr  Pr3  1  0.333333  0.666667  0.000000  1
  Pr  Pr4  1  0.666667  0.333333  0.000000  1
  P  P5  1  0.818973  0.818973  0.000000  1
  P  P6  1  0.181027  0.000000  0.000000  1
  P  P7  1  0.000000  0.181027  0.000000  1
  P  P8  1  0.170005  0.481425  0.500000  1
  P  P9  1  0.518575  0.688578  0.500000  1
  P  P10  1  0.311422  0.829995  0.500000  1
  P  P11  1  0.688578  0.518575  0.500000  1
  P  P12  1  0.829995  0.311422  0.500000  1
  P  P13  1  0.481425  0.170005  0.500000  1
  P  P14  1  0.364619  0.364619  0.000000  1
  P  P15  1  0.635381  0.000000  0.000000  1
  P  P16  1  0.000000  0.635381  0.000000  1
  Ir  Ir17  1  0.715544  0.715544  0.500000  1
  Ir  Ir18  1  0.284456  0.000000  0.500000  1
  Ir  Ir19  1  0.000000  0.284456  0.500000  1
  Ir  Ir20  1  0.180498  0.377550  0.000000  1
  Ir  Ir21  1  0.622450  0.802948  0.000000  1
  Ir  Ir22  1  0.197052  0.819502  0.000000  1
  Ir  Ir23  1  0.802948  0.622450  0.000000  1
  Ir  Ir24  1  0.819502  0.197052  0.000000  1
  Ir  Ir25  1  0.377550  0.180498  0.000000  1
  Ir  Ir26  1  0.361241  0.491255  0.500000  1
  Ir  Ir27  1  0.508745  0.869987  0.500000  1
  Ir  Ir28  1  0.130013  0.638759  0.500000  1
  Ir  Ir29  1  0.869987  0.508745  0.500000  1
  Ir  Ir30  1  0.638759  0.130013  0.500000  1
  Ir  Ir31  1  0.491255  0.361241  0.500000  1
  Ir  Ir32  1  0.000000  0.000000  0.000000  1
  Rh  Rh33  1  0.541598  0.541598  0.000000  1
  Rh  Rh34  1  0.458402  0.000000  0.000000  1
  Rh  Rh35  1  0.000000  0.458402  0.000000  1
