# generated using pymatgen
data_Ca5Yb3(SnN4)2
_symmetry_space_group_name_H-M   'P 1'
_cell_length_a   6.09514454
_cell_length_b   6.10821759
_cell_length_c   9.28541932
_cell_angle_alpha   69.92466161
_cell_angle_beta   80.68538368
_cell_angle_gamma   68.55612883
_symmetry_Int_Tables_number   1
_chemical_formula_structural   Ca5Yb3(SnN4)2
_chemical_formula_sum   'Ca5 Yb3 Sn2 N8'
_cell_volume   301.95815920
_cell_formula_units_Z   1
loop_
 _symmetry_equiv_pos_site_id
 _symmetry_equiv_pos_as_xyz
  1  'x, y, z'
loop_
 _atom_site_type_symbol
 _atom_site_label
 _atom_site_symmetry_multiplicity
 _atom_site_fract_x
 _atom_site_fract_y
 _atom_site_fract_z
 _atom_site_occupancy
  Ca  Ca0  1  0.732185  0.619264  0.196343  1
  Ca  Ca1  1  0.268456  0.380348  0.803912  1
  Ca  Ca2  1  0.749712  0.247679  0.995714  1
  Ca  Ca3  1  0.248528  0.754229  0.005273  1
  Ca  Ca4  1  0.740546  0.475171  0.575886  1
  Yb  Yb5  1  0.262812  0.520023  0.425285  1
  Yb  Yb6  1  0.251416  0.941679  0.591324  1
  Yb  Yb7  1  0.750260  0.055698  0.407548  1
  Sn  Sn8  1  0.719771  0.842556  0.760568  1
  Sn  Sn9  1  0.280304  0.158133  0.239277  1
  N  N10  1  0.993387  0.694319  0.608588  1
  N  N11  1  0.008449  0.305402  0.391444  1
  N  N12  1  0.848362  0.863444  0.947152  1
  N  N13  1  0.149278  0.140415  0.052496  1
  N  N14  1  0.506514  0.611933  0.801183  1
  N  N15  1  0.492020  0.389499  0.200060  1
  N  N16  1  0.497110  0.815434  0.385485  1
  N  N17  1  0.500890  0.184774  0.612462  1
