# generated using pymatgen
data_HoEr11Zn(InFe)2
_symmetry_space_group_name_H-M   'P 1'
_cell_length_a   8.32904117
_cell_length_b   8.32904075
_cell_length_c   8.32896100
_cell_angle_alpha   109.77993918
_cell_angle_beta   109.77994754
_cell_angle_gamma   108.85591792
_symmetry_Int_Tables_number   1
_chemical_formula_structural   HoEr11Zn(InFe)2
_chemical_formula_sum   'Ho1 Er11 Zn1 In2 Fe2'
_cell_volume   444.75340338
_cell_formula_units_Z   1
loop_
 _symmetry_equiv_pos_site_id
 _symmetry_equiv_pos_as_xyz
  1  'x, y, z'
loop_
 _atom_site_type_symbol
 _atom_site_label
 _atom_site_symmetry_multiplicity
 _atom_site_fract_x
 _atom_site_fract_y
 _atom_site_fract_z
 _atom_site_occupancy
  Ho  Ho0  1  0.305100  0.305100  0.610199  1
  Er  Er1  1  0.694829  0.694829  0.389660  1
  Er  Er2  1  0.305190  0.694850  0.000041  1
  Er  Er3  1  0.694850  0.305190  0.000041  1
  Er  Er4  1  0.446698  0.203205  0.243443  1
  Er  Er5  1  0.553377  0.796897  0.756526  1
  Er  Er6  1  0.959629  0.203149  0.756526  1
  Er  Er7  1  0.203149  0.959629  0.756526  1
  Er  Er8  1  0.040238  0.796745  0.243443  1
  Er  Er9  1  0.796745  0.040238  0.243443  1
  Er  Er10  1  0.203205  0.446698  0.243443  1
  Er  Er11  1  0.796897  0.553377  0.756526  1
  Zn  Zn12  1  0.999999  0.999999  0.999998  1
  In  In13  1  0.500014  0.999975  0.499988  1
  In  In14  1  0.999975  0.500014  0.499988  1
  Fe  Fe15  1  0.386950  0.386950  0.000105  1
  Fe  Fe16  1  0.613155  0.613155  0.000105  1
