# generated using pymatgen
data_Ac4PdO7
_symmetry_space_group_name_H-M   'P 1'
_cell_length_a   7.25740850
_cell_length_b   7.25740867
_cell_length_c   9.70889405
_cell_angle_alpha   49.54874285
_cell_angle_beta   49.54874045
_cell_angle_gamma   33.65062981
_symmetry_Int_Tables_number   1
_chemical_formula_structural   Ac4PdO7
_chemical_formula_sum   'Ac4 Pd1 O7'
_cell_volume   208.33681947
_cell_formula_units_Z   1
loop_
 _symmetry_equiv_pos_site_id
 _symmetry_equiv_pos_as_xyz
  1  'x, y, z'
loop_
 _atom_site_type_symbol
 _atom_site_label
 _atom_site_symmetry_multiplicity
 _atom_site_fract_x
 _atom_site_fract_y
 _atom_site_fract_z
 _atom_site_occupancy
  Ac  Ac0  1  0.583452  0.583452  0.615541  1
  Ac  Ac1  1  0.416548  0.416548  0.384459  1
  Ac  Ac2  1  0.747224  0.747224  0.842777  1
  Ac  Ac3  1  0.252776  0.252776  0.157223  1
  Pd  Pd4  1  0.000000  0.000000  0.000000  1
  O  O5  1  0.796724  0.796724  0.553684  1
  O  O6  1  0.203276  0.203276  0.446316  1
  O  O7  1  0.087988  0.087988  0.107108  1
  O  O8  1  0.912012  0.912012  0.892892  1
  O  O9  1  0.368041  0.368041  0.693121  1
  O  O10  1  0.500000  0.500000  0.000000  1
  O  O11  1  0.631959  0.631959  0.306879  1
