# generated using pymatgen
data_Dy3Y(Nb3Si4)2
_symmetry_space_group_name_H-M   'P 1'
_cell_length_a   7.07339192
_cell_length_b   7.07342913
_cell_length_c   13.05089400
_cell_angle_alpha   90.00000000
_cell_angle_beta   90.00000000
_cell_angle_gamma   90.07198739
_symmetry_Int_Tables_number   1
_chemical_formula_structural   Dy3Y(Nb3Si4)2
_chemical_formula_sum   'Dy6 Y2 Nb12 Si16'
_cell_volume   652.97664491
_cell_formula_units_Z   2
loop_
 _symmetry_equiv_pos_site_id
 _symmetry_equiv_pos_as_xyz
  1  'x, y, z'
loop_
 _atom_site_type_symbol
 _atom_site_label
 _atom_site_symmetry_multiplicity
 _atom_site_fract_x
 _atom_site_fract_y
 _atom_site_fract_z
 _atom_site_occupancy
  Dy  Dy0  1  0.159440  0.498366  0.467799  1
  Dy  Dy1  1  0.501585  0.840581  0.032134  1
  Dy  Dy2  1  0.840560  0.501634  0.967799  1
  Dy  Dy3  1  0.498415  0.159419  0.532134  1
  Dy  Dy4  1  0.340929  0.999373  0.782083  1
  Dy  Dy5  1  0.659071  0.000627  0.282083  1
  Y  Y6  1  0.998765  0.340358  0.217934  1
  Y  Y7  1  0.001235  0.659642  0.717934  1
  Nb  Nb8  1  0.170839  0.170720  0.999986  1
  Nb  Nb9  1  0.829161  0.829280  0.499986  1
  Nb  Nb10  1  0.329502  0.670411  0.250080  1
  Nb  Nb11  1  0.670498  0.329589  0.750080  1
  Nb  Nb12  1  0.154158  0.992310  0.375854  1
  Nb  Nb13  1  0.845842  0.007690  0.875854  1
  Nb  Nb14  1  0.507282  0.654333  0.626200  1
  Nb  Nb15  1  0.346073  0.492997  0.873859  1
  Nb  Nb16  1  0.492718  0.345667  0.126200  1
  Nb  Nb17  1  0.653927  0.507003  0.373859  1
  Nb  Nb18  1  0.992846  0.154428  0.624093  1
  Nb  Nb19  1  0.007154  0.845572  0.124093  1
  Si  Si20  1  0.293820  0.044342  0.186235  1
  Si  Si21  1  0.706180  0.955658  0.686235  1
  Si  Si22  1  0.455212  0.793650  0.436463  1
  Si  Si23  1  0.206428  0.544875  0.063513  1
  Si  Si24  1  0.544788  0.206350  0.936463  1
  Si  Si25  1  0.793572  0.455125  0.563513  1
  Si  Si26  1  0.044995  0.293928  0.813721  1
  Si  Si27  1  0.955005  0.706072  0.313721  1
  Si  Si28  1  0.368265  0.294436  0.317858  1
  Si  Si29  1  0.631735  0.705564  0.817858  1
  Si  Si30  1  0.204774  0.868145  0.567733  1
  Si  Si31  1  0.132200  0.795679  0.932219  1
  Si  Si32  1  0.795226  0.131855  0.067733  1
  Si  Si33  1  0.867800  0.204321  0.432219  1
  Si  Si34  1  0.295198  0.368226  0.682234  1
  Si  Si35  1  0.704802  0.631774  0.182234  1
