# generated using pymatgen
data_LuTiF7
_symmetry_space_group_name_H-M   'P 1'
_cell_length_a   5.46514400
_cell_length_b   8.67541389
_cell_length_c   11.65263485
_cell_angle_alpha   62.62734650
_cell_angle_beta   90.00000000
_cell_angle_gamma   90.00000000
_symmetry_Int_Tables_number   1
_chemical_formula_structural   LuTiF7
_chemical_formula_sum   'Lu4 Ti4 F28'
_cell_volume   490.62084932
_cell_formula_units_Z   4
loop_
 _symmetry_equiv_pos_site_id
 _symmetry_equiv_pos_as_xyz
  1  'x, y, z'
loop_
 _atom_site_type_symbol
 _atom_site_label
 _atom_site_symmetry_multiplicity
 _atom_site_fract_x
 _atom_site_fract_y
 _atom_site_fract_z
 _atom_site_occupancy
  Lu  Lu0  1  0.259539  0.813452  0.265572  1
  Lu  Lu1  1  0.740461  0.186548  0.734428  1
  Lu  Lu2  1  0.759539  0.186548  0.234428  1
  Lu  Lu3  1  0.240461  0.813452  0.765572  1
  Ti  Ti4  1  0.757687  0.725313  0.044762  1
  Ti  Ti5  1  0.242313  0.274687  0.955238  1
  Ti  Ti6  1  0.257687  0.274687  0.455238  1
  Ti  Ti7  1  0.742313  0.725313  0.544762  1
  F  F8  1  0.952060  0.706895  0.424515  1
  F  F9  1  0.047940  0.293105  0.575485  1
  F  F10  1  0.452060  0.293105  0.075485  1
  F  F11  1  0.547940  0.706895  0.924515  1
  F  F12  1  0.488767  0.731911  0.144169  1
  F  F13  1  0.511233  0.268089  0.855831  1
  F  F14  1  0.988767  0.268089  0.355831  1
  F  F15  1  0.011233  0.731911  0.644169  1
  F  F16  1  0.963328  0.745196  0.170488  1
  F  F17  1  0.036672  0.254804  0.829512  1
  F  F18  1  0.463328  0.254804  0.329512  1
  F  F19  1  0.536672  0.745196  0.670488  1
  F  F20  1  0.772070  0.481550  0.139963  1
  F  F21  1  0.227930  0.518450  0.860037  1
  F  F22  1  0.272070  0.518450  0.360037  1
  F  F23  1  0.727930  0.481550  0.639963  1
  F  F24  1  0.955924  0.280214  0.046626  1
  F  F25  1  0.044076  0.719786  0.953374  1
  F  F26  1  0.455924  0.719786  0.453374  1
  F  F27  1  0.544076  0.280214  0.546626  1
  F  F28  1  0.741022  0.967726  0.448125  1
  F  F29  1  0.258978  0.032274  0.551875  1
  F  F30  1  0.241022  0.032274  0.051875  1
  F  F31  1  0.758978  0.967726  0.948125  1
  F  F32  1  0.578413  0.973806  0.230959  1
  F  F33  1  0.421587  0.026194  0.769041  1
  F  F34  1  0.078413  0.026194  0.269041  1
  F  F35  1  0.921587  0.973806  0.730959  1
