# generated using pymatgen
data_Dy2TmTh5(ReC2)4
_symmetry_space_group_name_H-M   'P 1'
_cell_length_a   5.30246600
_cell_length_b   6.66239391
_cell_length_c   9.92745131
_cell_angle_alpha   90.25986842
_cell_angle_beta   90.00000000
_cell_angle_gamma   90.00000000
_symmetry_Int_Tables_number   1
_chemical_formula_structural   Dy2TmTh5(ReC2)4
_chemical_formula_sum   'Dy2 Tm1 Th5 Re4 C8'
_cell_volume   350.70462820
_cell_formula_units_Z   1
loop_
 _symmetry_equiv_pos_site_id
 _symmetry_equiv_pos_as_xyz
  1  'x, y, z'
loop_
 _atom_site_type_symbol
 _atom_site_label
 _atom_site_symmetry_multiplicity
 _atom_site_fract_x
 _atom_site_fract_y
 _atom_site_fract_z
 _atom_site_occupancy
  Dy  Dy0  1  0.750000  0.676629  0.551146  1
  Dy  Dy1  1  0.750000  0.180903  0.947072  1
  Tm  Tm2  1  0.250000  0.325236  0.447427  1
  Th  Th3  1  0.250000  0.469643  0.780656  1
  Th  Th4  1  0.750000  0.029048  0.285422  1
  Th  Th5  1  0.250000  0.973233  0.712397  1
  Th  Th6  1  0.750000  0.525208  0.221123  1
  Th  Th7  1  0.250000  0.814476  0.047640  1
  Re  Re8  1  0.250000  0.273616  0.137539  1
  Re  Re9  1  0.750000  0.228320  0.635237  1
  Re  Re10  1  0.250000  0.772557  0.366798  1
  Re  Re11  1  0.750000  0.728864  0.860968  1
  C  C12  1  0.250000  0.170573  0.947633  1
  C  C13  1  0.750000  0.832637  0.052414  1
  C  C14  1  0.250000  0.668062  0.552927  1
  C  C15  1  0.750000  0.330922  0.447727  1
  C  C16  1  0.250000  0.041513  0.263762  1
  C  C17  1  0.750000  0.461745  0.758891  1
  C  C18  1  0.250000  0.534955  0.245241  1
  C  C19  1  0.750000  0.961858  0.737976  1
