# generated using pymatgen
data_VCo20ReB6W
_symmetry_space_group_name_H-M   'P 1'
_cell_length_a   7.38628002
_cell_length_b   7.38562302
_cell_length_c   7.38564900
_cell_angle_alpha   59.99987914
_cell_angle_beta   60.00282155
_cell_angle_gamma   60.00147221
_symmetry_Int_Tables_number   1
_chemical_formula_structural   VCo20ReB6W
_chemical_formula_sum   'V1 Co20 Re1 B6 W1'
_cell_volume   284.90512792
_cell_formula_units_Z   1
loop_
 _symmetry_equiv_pos_site_id
 _symmetry_equiv_pos_as_xyz
  1  'x, y, z'
loop_
 _atom_site_type_symbol
 _atom_site_label
 _atom_site_symmetry_multiplicity
 _atom_site_fract_x
 _atom_site_fract_y
 _atom_site_fract_z
 _atom_site_occupancy
  V  V0  1  0.999913  0.999738  0.000174  1
  Co  Co1  1  0.617446  0.617432  0.147815  1
  Co  Co2  1  0.617432  0.147857  0.617356  1
  Co  Co3  1  0.147935  0.617395  0.617335  1
  Co  Co4  1  0.617446  0.617432  0.617306  1
  Co  Co5  1  0.380955  0.381062  0.856927  1
  Co  Co6  1  0.380997  0.856947  0.381028  1
  Co  Co7  1  0.856927  0.381072  0.381000  1
  Co  Co8  1  0.380955  0.381062  0.381057  1
  Co  Co9  1  0.000270  0.000248  0.339081  1
  Co  Co10  1  0.660410  0.000238  0.339052  1
  Co  Co11  1  0.000264  0.660397  0.339038  1
  Co  Co12  1  0.660381  0.339012  0.000303  1
  Co  Co13  1  0.000325  0.339104  0.000256  1
  Co  Co14  1  0.000325  0.339104  0.660313  1
  Co  Co15  1  0.338976  0.660407  0.000308  1
  Co  Co16  1  0.339079  0.000305  0.660354  1
  Co  Co17  1  0.339079  0.000305  0.000262  1
  Co  Co18  1  0.000270  0.000248  0.660401  1
  Co  Co19  1  0.000264  0.660397  0.000303  1
  Co  Co20  1  0.660410  0.000238  0.000301  1
  Re  Re21  1  0.249928  0.249897  0.250088  1
  B  B22  1  0.726237  0.726208  0.273778  1
  B  B23  1  0.273733  0.726163  0.273927  1
  B  B24  1  0.726181  0.273781  0.273899  1
  B  B25  1  0.273861  0.273959  0.726089  1
  B  B26  1  0.726181  0.273781  0.726139  1
  B  B27  1  0.273733  0.726163  0.726177  1
  W  W28  1  0.750086  0.750048  0.749933  1
