# generated using pymatgen
data_Nb2Ni7(B3Ru7)2
_symmetry_space_group_name_H-M   'P 1'
_cell_length_a   7.84252381
_cell_length_b   7.84252397
_cell_length_c   7.84252386
_cell_angle_alpha   60.58565405
_cell_angle_beta   60.58565169
_cell_angle_gamma   60.58565210
_symmetry_Int_Tables_number   1
_chemical_formula_structural   Nb2Ni7(B3Ru7)2
_chemical_formula_sum   'Nb2 Ni7 B6 Ru14'
_cell_volume   345.58894876
_cell_formula_units_Z   1
loop_
 _symmetry_equiv_pos_site_id
 _symmetry_equiv_pos_as_xyz
  1  'x, y, z'
loop_
 _atom_site_type_symbol
 _atom_site_label
 _atom_site_symmetry_multiplicity
 _atom_site_fract_x
 _atom_site_fract_y
 _atom_site_fract_z
 _atom_site_occupancy
  Nb  Nb0  1  0.252722  0.252722  0.252722  1
  Nb  Nb1  1  0.747278  0.747278  0.747278  1
  Ni  Ni2  1  0.380893  0.380893  0.848948  1
  Ni  Ni3  1  0.380893  0.848948  0.380893  1
  Ni  Ni4  1  0.619107  0.619107  0.151052  1
  Ni  Ni5  1  0.619107  0.151052  0.619107  1
  Ni  Ni6  1  0.848948  0.380893  0.380893  1
  Ni  Ni7  1  0.151052  0.619107  0.619107  1
  Ni  Ni8  1  0.000000  0.000000  0.000000  1
  B  B9  1  0.723936  0.279894  0.279894  1
  B  B10  1  0.276064  0.720106  0.720106  1
  B  B11  1  0.279894  0.723936  0.279894  1
  B  B12  1  0.720106  0.276064  0.720106  1
  B  B13  1  0.279894  0.279894  0.723936  1
  B  B14  1  0.720106  0.720106  0.276064  1
  Ru  Ru15  1  0.337227  0.002108  0.002108  1
  Ru  Ru16  1  0.662773  0.997892  0.997892  1
  Ru  Ru17  1  0.000000  0.339188  0.660812  1
  Ru  Ru18  1  0.000000  0.660812  0.339188  1
  Ru  Ru19  1  0.002108  0.337227  0.002108  1
  Ru  Ru20  1  0.660812  0.000000  0.339188  1
  Ru  Ru21  1  0.997892  0.662773  0.997892  1
  Ru  Ru22  1  0.339188  0.000000  0.660812  1
  Ru  Ru23  1  0.002108  0.002108  0.337227  1
  Ru  Ru24  1  0.997892  0.997892  0.662773  1
  Ru  Ru25  1  0.660812  0.339188  0.000000  1
  Ru  Ru26  1  0.339188  0.660812  0.000000  1
  Ru  Ru27  1  0.386557  0.386557  0.386557  1
  Ru  Ru28  1  0.613443  0.613443  0.613443  1
