# generated using pymatgen
data_Ho3B4Mo3Ru10
_symmetry_space_group_name_H-M   'P 1'
_cell_length_a   9.57932000
_cell_length_b   9.57931945
_cell_length_c   3.06168500
_cell_angle_alpha   90.00000000
_cell_angle_beta   90.00000000
_cell_angle_gamma   89.71287204
_symmetry_Int_Tables_number   1
_chemical_formula_structural   Ho3B4Mo3Ru10
_chemical_formula_sum   'Ho3 B4 Mo3 Ru10'
_cell_volume   280.94699470
_cell_formula_units_Z   1
loop_
 _symmetry_equiv_pos_site_id
 _symmetry_equiv_pos_as_xyz
  1  'x, y, z'
loop_
 _atom_site_type_symbol
 _atom_site_label
 _atom_site_symmetry_multiplicity
 _atom_site_fract_x
 _atom_site_fract_y
 _atom_site_fract_z
 _atom_site_occupancy
  Ho  Ho0  1  0.174961  0.825039  0.000000  1
  Ho  Ho1  1  0.323910  0.324500  0.000000  1
  Ho  Ho2  1  0.675500  0.676090  0.000000  1
  B  B3  1  0.623375  0.376625  0.000000  1
  B  B4  1  0.381345  0.618655  0.000000  1
  B  B5  1  0.119625  0.121879  0.000000  1
  B  B6  1  0.878121  0.880375  0.000000  1
  Mo  Mo7  1  0.496627  0.997907  0.000000  1
  Mo  Mo8  1  0.002093  0.503373  0.000000  1
  Mo  Mo9  1  0.822915  0.177085  0.000000  1
  Ru  Ru10  1  0.503576  0.496424  0.500000  1
  Ru  Ru11  1  0.989971  0.010029  0.500000  1
  Ru  Ru12  1  0.584446  0.211476  0.500000  1
  Ru  Ru13  1  0.432206  0.782868  0.500000  1
  Ru  Ru14  1  0.056521  0.280739  0.500000  1
  Ru  Ru15  1  0.929205  0.719314  0.500000  1
  Ru  Ru16  1  0.280686  0.070795  0.500000  1
  Ru  Ru17  1  0.719261  0.943479  0.500000  1
  Ru  Ru18  1  0.217132  0.567794  0.500000  1
  Ru  Ru19  1  0.788524  0.415554  0.500000  1
