# generated using pymatgen
data_Nd4Ga9Ge(IrRh)3
_symmetry_space_group_name_H-M   'P 1'
_cell_length_a   8.63905736
_cell_length_b   8.68561824
_cell_length_c   8.68561897
_cell_angle_alpha   140.96694327
_cell_angle_beta   108.22880442
_cell_angle_gamma   84.92888379
_symmetry_Int_Tables_number   1
_chemical_formula_structural   Nd4Ga9Ge(IrRh)3
_chemical_formula_sum   'Nd4 Ga9 Ge1 Ir3 Rh3'
_cell_volume   376.59638393
_cell_formula_units_Z   1
loop_
 _symmetry_equiv_pos_site_id
 _symmetry_equiv_pos_as_xyz
  1  'x, y, z'
loop_
 _atom_site_type_symbol
 _atom_site_label
 _atom_site_symmetry_multiplicity
 _atom_site_fract_x
 _atom_site_fract_y
 _atom_site_fract_z
 _atom_site_occupancy
  Nd  Nd0  1  0.864463  0.636588  0.227876  1
  Nd  Nd1  1  0.134925  0.364238  0.770687  1
  Nd  Nd2  1  0.406530  0.136609  0.269922  1
  Nd  Nd3  1  0.588944  0.861530  0.727413  1
  Ga  Ga4  1  0.501322  0.750631  0.251334  1
  Ga  Ga5  1  0.501322  0.249988  0.750691  1
  Ga  Ga6  1  0.208307  0.957595  0.748022  1
  Ga  Ga7  1  0.791568  0.542521  0.750362  1
  Ga  Ga8  1  0.791568  0.041206  0.249047  1
  Ga  Ga9  1  0.208307  0.460286  0.250711  1
  Ga  Ga10  1  0.078383  0.907635  0.170750  1
  Ga  Ga11  1  0.920639  0.089402  0.831237  1
  Ga  Ga12  1  0.739916  0.409623  0.330293  1
  Ge  Ge13  1  0.259512  0.591390  0.668122  1
  Ir  Ir14  1  0.745605  0.147983  0.597621  1
  Ir  Ir15  1  0.448116  0.352891  0.095225  1
  Ir  Ir16  1  0.547236  0.646576  0.900659  1
  Rh  Rh17  1  0.002547  0.749945  0.752575  1
  Rh  Rh18  1  0.002547  0.249971  0.252602  1
  Rh  Rh19  1  0.258244  0.853389  0.404856  1
