# generated using pymatgen
data_Ca13(DySb4)3
_symmetry_space_group_name_H-M   'P 1'
_cell_length_a   9.44986337
_cell_length_b   9.44986317
_cell_length_c   9.44986402
_cell_angle_alpha   90.31046051
_cell_angle_beta   90.31045838
_cell_angle_gamma   89.68954203
_symmetry_Int_Tables_number   1
_chemical_formula_structural   Ca13(DySb4)3
_chemical_formula_sum   'Ca13 Dy3 Sb12'
_cell_volume   843.83503103
_cell_formula_units_Z   1
loop_
 _symmetry_equiv_pos_site_id
 _symmetry_equiv_pos_as_xyz
  1  'x, y, z'
loop_
 _atom_site_type_symbol
 _atom_site_label
 _atom_site_symmetry_multiplicity
 _atom_site_fract_x
 _atom_site_fract_y
 _atom_site_fract_z
 _atom_site_occupancy
  Ca  Ca0  1  0.072986  0.572986  0.927014  1
  Ca  Ca1  1  0.824623  0.324623  0.175377  1
  Ca  Ca2  1  0.931041  0.927732  0.930640  1
  Ca  Ca3  1  0.826544  0.674183  0.325463  1
  Ca  Ca4  1  0.176797  0.822293  0.322524  1
  Ca  Ca5  1  0.174183  0.174537  0.173456  1
  Ca  Ca6  1  0.324898  0.824898  0.675102  1
  Ca  Ca7  1  0.069360  0.431041  0.572268  1
  Ca  Ca8  1  0.322293  0.177476  0.823203  1
  Ca  Ca9  1  0.674537  0.326544  0.825817  1
  Ca  Ca10  1  0.677476  0.676797  0.677707  1
  Ca  Ca11  1  0.569169  0.069169  0.430831  1
  Ca  Ca12  1  0.427732  0.569360  0.068959  1
  Dy  Dy13  1  0.930072  0.071523  0.572321  1
  Dy  Dy14  1  0.427679  0.430072  0.428477  1
  Dy  Dy15  1  0.571523  0.927679  0.069928  1
  Sb  Sb16  1  0.745766  0.368837  0.499968  1
  Sb  Sb17  1  0.868837  0.000032  0.254234  1
  Sb  Sb18  1  0.998949  0.757554  0.625895  1
  Sb  Sb19  1  0.245642  0.129451  0.499297  1
  Sb  Sb20  1  0.131420  0.498154  0.251527  1
  Sb  Sb21  1  0.998154  0.248473  0.868580  1
  Sb  Sb22  1  0.257554  0.874105  0.001051  1
  Sb  Sb23  1  0.374105  0.498949  0.742446  1
  Sb  Sb24  1  0.500032  0.245766  0.131163  1
  Sb  Sb25  1  0.748473  0.631420  0.001846  1
  Sb  Sb26  1  0.629451  0.000703  0.754358  1
  Sb  Sb27  1  0.500703  0.745642  0.370549  1
