# generated using pymatgen
data_Tm12InCo2Ni2Ir
_symmetry_space_group_name_H-M   'P 1'
_cell_length_a   8.17860802
_cell_length_b   8.17860837
_cell_length_c   8.17860782
_cell_angle_alpha   111.03409446
_cell_angle_beta   109.95941607
_cell_angle_gamma   107.44091026
_symmetry_Int_Tables_number   1
_chemical_formula_structural   Tm12InCo2Ni2Ir
_chemical_formula_sum   'Tm12 In1 Co2 Ni2 Ir1'
_cell_volume   420.69683533
_cell_formula_units_Z   1
loop_
 _symmetry_equiv_pos_site_id
 _symmetry_equiv_pos_as_xyz
  1  'x, y, z'
loop_
 _atom_site_type_symbol
 _atom_site_label
 _atom_site_symmetry_multiplicity
 _atom_site_fract_x
 _atom_site_fract_y
 _atom_site_fract_z
 _atom_site_occupancy
  Tm  Tm0  1  0.414369  0.221340  0.193028  1
  Tm  Tm1  1  0.585631  0.778660  0.806972  1
  Tm  Tm2  1  0.028313  0.221340  0.806972  1
  Tm  Tm3  1  0.971687  0.778660  0.193028  1
  Tm  Tm4  1  0.181418  0.285547  0.466964  1
  Tm  Tm5  1  0.818582  0.714453  0.533036  1
  Tm  Tm6  1  0.181418  0.714453  0.895871  1
  Tm  Tm7  1  0.818582  0.285547  0.104129  1
  Tm  Tm8  1  0.317194  0.622646  0.305452  1
  Tm  Tm9  1  0.682806  0.377354  0.694548  1
  Tm  Tm10  1  0.317194  0.011743  0.694548  1
  Tm  Tm11  1  0.682806  0.988257  0.305452  1
  In  In12  1  0.500000  0.500000  0.000000  1
  Co  Co13  1  0.114450  0.614450  0.500000  1
  Co  Co14  1  0.885550  0.385550  0.500000  1
  Ni  Ni15  1  0.363948  0.000000  0.363948  1
  Ni  Ni16  1  0.636052  0.000000  0.636052  1
  Ir  Ir17  1  0.000000  0.000000  0.000000  1
