# generated using pymatgen
data_PrNd5(SiPd5)2
_symmetry_space_group_name_H-M   'P 1'
_cell_length_a   8.43656914
_cell_length_b   8.43657019
_cell_length_c   8.43657064
_cell_angle_alpha   127.24241813
_cell_angle_beta   126.18360979
_cell_angle_gamma   78.72236897
_symmetry_Int_Tables_number   1
_chemical_formula_structural   PrNd5(SiPd5)2
_chemical_formula_sum   'Pr1 Nd5 Si2 Pd10'
_cell_volume   373.41105547
_cell_formula_units_Z   1
loop_
 _symmetry_equiv_pos_site_id
 _symmetry_equiv_pos_as_xyz
  1  'x, y, z'
loop_
 _atom_site_type_symbol
 _atom_site_label
 _atom_site_symmetry_multiplicity
 _atom_site_fract_x
 _atom_site_fract_y
 _atom_site_fract_z
 _atom_site_occupancy
  Pr  Pr0  1  0.612164  0.750000  0.862164  1
  Nd  Nd1  1  0.823073  0.049799  0.773274  1
  Nd  Nd2  1  0.223474  0.450201  0.773274  1
  Nd  Nd3  1  0.176914  0.950277  0.226636  1
  Nd  Nd4  1  0.389071  0.250000  0.139071  1
  Nd  Nd5  1  0.776360  0.549723  0.226636  1
  Si  Si6  1  0.212219  0.750000  0.462219  1
  Si  Si7  1  0.786158  0.250000  0.536158  1
  Pd  Pd8  1  0.831586  0.593045  0.638066  1
  Pd  Pd9  1  0.545021  0.306480  0.638066  1
  Pd  Pd10  1  0.453582  0.092971  0.761657  1
  Pd  Pd11  1  0.831586  0.193520  0.238541  1
  Pd  Pd12  1  0.168685  0.407029  0.360610  1
  Pd  Pd13  1  0.453582  0.691925  0.360610  1
  Pd  Pd14  1  0.545021  0.906955  0.238541  1
  Pd  Pd15  1  0.168685  0.808075  0.761657  1
  Pd  Pd16  1  0.001411  0.002561  0.503972  1
  Pd  Pd17  1  0.001411  0.497439  0.998850  1
