# generated using pymatgen
data_ErLu3(B6Rh)2
_symmetry_space_group_name_H-M   'P 1'
_cell_length_a   3.59849400
_cell_length_b   9.08398507
_cell_length_c   11.40975309
_cell_angle_alpha   90.01427065
_cell_angle_beta   90.00000000
_cell_angle_gamma   90.00000000
_symmetry_Int_Tables_number   1
_chemical_formula_structural   ErLu3(B6Rh)2
_chemical_formula_sum   'Er2 Lu6 B24 Rh4'
_cell_volume   372.96959368
_cell_formula_units_Z   2
loop_
 _symmetry_equiv_pos_site_id
 _symmetry_equiv_pos_as_xyz
  1  'x, y, z'
loop_
 _atom_site_type_symbol
 _atom_site_label
 _atom_site_symmetry_multiplicity
 _atom_site_fract_x
 _atom_site_fract_y
 _atom_site_fract_z
 _atom_site_occupancy
  Er  Er0  1  0.500000  0.321727  0.413469  1
  Er  Er1  1  0.500000  0.678273  0.586531  1
  Lu  Lu2  1  0.500000  0.178641  0.913758  1
  Lu  Lu3  1  0.500000  0.821359  0.086242  1
  Lu  Lu4  1  0.500000  0.444594  0.126271  1
  Lu  Lu5  1  0.500000  0.555406  0.873729  1
  Lu  Lu6  1  0.500000  0.055509  0.626740  1
  Lu  Lu7  1  0.500000  0.944491  0.373260  1
  B  B8  1  0.000000  0.106921  0.471002  1
  B  B9  1  0.000000  0.893079  0.528998  1
  B  B10  1  0.000000  0.391490  0.970580  1
  B  B11  1  0.000000  0.608510  0.029420  1
  B  B12  1  0.000000  0.132295  0.316368  1
  B  B13  1  0.000000  0.867705  0.683632  1
  B  B14  1  0.000000  0.367064  0.816985  1
  B  B15  1  0.000000  0.632936  0.183015  1
  B  B16  1  0.000000  0.053986  0.064595  1
  B  B17  1  0.000000  0.946014  0.935405  1
  B  B18  1  0.000000  0.445832  0.565310  1
  B  B19  1  0.000000  0.554168  0.434690  1
  B  B20  1  0.000000  0.482371  0.285963  1
  B  B21  1  0.000000  0.517629  0.714037  1
  B  B22  1  0.000000  0.018121  0.786861  1
  B  B23  1  0.000000  0.981879  0.213139  1
  B  B24  1  0.000000  0.250286  0.078576  1
  B  B25  1  0.000000  0.749714  0.921424  1
  B  B26  1  0.000000  0.249141  0.579481  1
  B  B27  1  0.000000  0.750859  0.420519  1
  B  B28  1  0.000000  0.294938  0.235649  1
  B  B29  1  0.000000  0.705062  0.764351  1
  B  B30  1  0.000000  0.204725  0.736819  1
  B  B31  1  0.000000  0.795275  0.263181  1
  Rh  Rh32  1  0.500000  0.139945  0.178750  1
  Rh  Rh33  1  0.500000  0.860055  0.821250  1
  Rh  Rh34  1  0.500000  0.359588  0.679376  1
  Rh  Rh35  1  0.500000  0.640412  0.320624  1
