# generated using pymatgen
data_Tb11Si12AgAu12
_symmetry_space_group_name_H-M   'P 1'
_cell_length_a   4.35509300
_cell_length_b   7.52489690
_cell_length_c   22.60499400
_cell_angle_alpha   89.97204841
_cell_angle_beta   90.00000000
_cell_angle_gamma   90.00000000
_symmetry_Int_Tables_number   1
_chemical_formula_structural   Tb11Si12AgAu12
_chemical_formula_sum   'Tb11 Si12 Ag1 Au12'
_cell_volume   740.80231631
_cell_formula_units_Z   1
loop_
 _symmetry_equiv_pos_site_id
 _symmetry_equiv_pos_as_xyz
  1  'x, y, z'
loop_
 _atom_site_type_symbol
 _atom_site_label
 _atom_site_symmetry_multiplicity
 _atom_site_fract_x
 _atom_site_fract_y
 _atom_site_fract_z
 _atom_site_occupancy
  Tb  Tb0  1  0.750000  0.256402  0.665543  1
  Tb  Tb1  1  0.750000  0.228335  0.171948  1
  Tb  Tb2  1  0.250000  0.755181  0.834258  1
  Tb  Tb3  1  0.250000  0.771500  0.171005  1
  Tb  Tb4  1  0.750000  0.245819  0.832529  1
  Tb  Tb5  1  0.750000  0.291580  0.333196  1
  Tb  Tb6  1  0.250000  0.743056  0.662946  1
  Tb  Tb7  1  0.250000  0.737365  0.002474  1
  Tb  Tb8  1  0.750000  0.263170  0.003053  1
  Tb  Tb9  1  0.750000  0.226323  0.495633  1
  Tb  Tb10  1  0.250000  0.772546  0.492981  1
  Si  Si11  1  0.250000  0.085785  0.092782  1
  Si  Si12  1  0.750000  0.919052  0.929504  1
  Si  Si13  1  0.750000  0.582297  0.432345  1
  Si  Si14  1  0.250000  0.413964  0.580803  1
  Si  Si15  1  0.250000  0.084104  0.272105  1
  Si  Si16  1  0.750000  0.916689  0.753559  1
  Si  Si17  1  0.750000  0.589719  0.239437  1
  Si  Si18  1  0.250000  0.419712  0.746488  1
  Si  Si19  1  0.250000  0.077198  0.389617  1
  Si  Si20  1  0.750000  0.913252  0.581995  1
  Si  Si21  1  0.750000  0.586391  0.090220  1
  Si  Si22  1  0.250000  0.413699  0.917081  1
  Ag  Ag23  1  0.250000  0.708495  0.332549  1
  Au  Au24  1  0.250000  0.420685  0.245548  1
  Au  Au25  1  0.750000  0.585388  0.751190  1
  Au  Au26  1  0.750000  0.917133  0.260842  1
  Au  Au27  1  0.250000  0.082740  0.746309  1
  Au  Au28  1  0.250000  0.413999  0.420571  1
  Au  Au29  1  0.750000  0.578930  0.570435  1
  Au  Au30  1  0.750000  0.919964  0.075314  1
  Au  Au31  1  0.250000  0.082404  0.916200  1
  Au  Au32  1  0.250000  0.417727  0.089884  1
  Au  Au33  1  0.750000  0.584381  0.914183  1
  Au  Au34  1  0.750000  0.911481  0.402777  1
  Au  Au35  1  0.250000  0.083534  0.582687  1
