# generated using pymatgen
data_SmBeAl2Ga
_symmetry_space_group_name_H-M   'P 1'
_cell_length_a   4.09881830
_cell_length_b   4.09881834
_cell_length_c   6.01011560
_cell_angle_alpha   70.06260273
_cell_angle_beta   70.06260173
_cell_angle_gamma   90.00000314
_symmetry_Int_Tables_number   1
_chemical_formula_structural   SmBeAl2Ga
_chemical_formula_sum   'Sm1 Be1 Al2 Ga1'
_cell_volume   88.45541559
_cell_formula_units_Z   1
loop_
 _symmetry_equiv_pos_site_id
 _symmetry_equiv_pos_as_xyz
  1  'x, y, z'
loop_
 _atom_site_type_symbol
 _atom_site_label
 _atom_site_symmetry_multiplicity
 _atom_site_fract_x
 _atom_site_fract_y
 _atom_site_fract_z
 _atom_site_occupancy
  Sm  Sm0  1  0.000863  0.000863  0.998273  1
  Be  Be1  1  0.615947  0.615947  0.768106  1
  Al  Al2  1  0.741374  0.241374  0.517251  1
  Al  Al3  1  0.241374  0.741374  0.517251  1
  Ga  Ga4  1  0.400440  0.400440  0.199120  1
