# generated using pymatgen
data_ZrMo(SeO3)4
_symmetry_space_group_name_H-M   'P 1'
_cell_length_a   8.50764000
_cell_length_b   8.62674213
_cell_length_c   8.53257758
_cell_angle_alpha   90.07107958
_cell_angle_beta   90.00001027
_cell_angle_gamma   90.00084275
_symmetry_Int_Tables_number   1
_chemical_formula_structural   ZrMo(SeO3)4
_chemical_formula_sum   'Zr2 Mo2 Se8 O24'
_cell_volume   626.23283140
_cell_formula_units_Z   2
loop_
 _symmetry_equiv_pos_site_id
 _symmetry_equiv_pos_as_xyz
  1  'x, y, z'
loop_
 _atom_site_type_symbol
 _atom_site_label
 _atom_site_symmetry_multiplicity
 _atom_site_fract_x
 _atom_site_fract_y
 _atom_site_fract_z
 _atom_site_occupancy
  Zr  Zr0  1  0.000000  0.000000  0.500000  1
  Zr  Zr1  1  0.500000  0.000000  0.000000  1
  Mo  Mo2  1  0.000000  0.500000  0.000000  1
  Mo  Mo3  1  0.500000  0.500000  0.500000  1
  Se  Se4  1  0.313628  0.665236  0.192977  1
  Se  Se5  1  0.813608  0.334741  0.307038  1
  Se  Se6  1  0.676555  0.803736  0.670972  1
  Se  Se7  1  0.176535  0.196310  0.829044  1
  Se  Se8  1  0.686372  0.334764  0.807023  1
  Se  Se9  1  0.186392  0.665259  0.692962  1
  Se  Se10  1  0.323445  0.196264  0.329028  1
  Se  Se11  1  0.823465  0.803690  0.170956  1
  O  O12  1  0.230802  0.550156  0.045815  1
  O  O13  1  0.730794  0.449719  0.454292  1
  O  O14  1  0.766621  0.947940  0.564293  1
  O  O15  1  0.266638  0.052128  0.935714  1
  O  O16  1  0.539056  0.908845  0.772836  1
  O  O17  1  0.451201  0.533546  0.260859  1
  O  O18  1  0.951079  0.466518  0.239127  1
  O  O19  1  0.039087  0.091182  0.727144  1
  O  O20  1  0.931079  0.220796  0.423227  1
  O  O21  1  0.556233  0.729683  0.521886  1
  O  O22  1  0.430984  0.779208  0.076689  1
  O  O23  1  0.056151  0.270296  0.978110  1
  O  O24  1  0.769198  0.449844  0.954185  1
  O  O25  1  0.269206  0.550281  0.545708  1
  O  O26  1  0.233379  0.052060  0.435707  1
  O  O27  1  0.733362  0.947872  0.064286  1
  O  O28  1  0.460944  0.091155  0.227164  1
  O  O29  1  0.548799  0.466454  0.739141  1
  O  O30  1  0.048921  0.533482  0.760873  1
  O  O31  1  0.960913  0.908818  0.272856  1
  O  O32  1  0.068921  0.779204  0.576773  1
  O  O33  1  0.443767  0.270317  0.478114  1
  O  O34  1  0.569016  0.220792  0.923311  1
  O  O35  1  0.943849  0.729704  0.021890  1
