# generated using pymatgen
data_Gd7LuC14
_symmetry_space_group_name_H-M   'P 1'
_cell_length_a   13.83367273
_cell_length_b   3.74506714
_cell_length_c   6.53733091
_cell_angle_alpha   75.05208258
_cell_angle_beta   89.64418841
_cell_angle_gamma   89.50207834
_symmetry_Int_Tables_number   1
_chemical_formula_structural   Gd7LuC14
_chemical_formula_sum   'Gd7 Lu1 C14'
_cell_volume   327.21023361
_cell_formula_units_Z   1
loop_
 _symmetry_equiv_pos_site_id
 _symmetry_equiv_pos_as_xyz
  1  'x, y, z'
loop_
 _atom_site_type_symbol
 _atom_site_label
 _atom_site_symmetry_multiplicity
 _atom_site_fract_x
 _atom_site_fract_y
 _atom_site_fract_z
 _atom_site_occupancy
  Gd  Gd0  1  0.941424  0.374021  0.261880  1
  Gd  Gd1  1  0.444618  0.632823  0.238885  1
  Gd  Gd2  1  0.055225  0.637007  0.737143  1
  Gd  Gd3  1  0.557351  0.362021  0.762694  1
  Gd  Gd4  1  0.665997  0.052317  0.335294  1
  Gd  Gd5  1  0.161368  0.943281  0.162108  1
  Gd  Gd6  1  0.337263  0.943428  0.663765  1
  Lu  Lu7  1  0.840782  0.063235  0.840035  1
  C  C8  1  0.501126  0.998735  0.499429  1
  C  C9  1  0.997289  0.002365  0.000100  1
  C  C10  1  0.784312  0.481402  0.059385  1
  C  C11  1  0.281431  0.530377  0.426840  1
  C  C12  1  0.216809  0.528773  0.926076  1
  C  C13  1  0.718936  0.448299  0.575153  1
  C  C14  1  0.194754  0.376443  0.455485  1
  C  C15  1  0.696327  0.630054  0.036779  1
  C  C16  1  0.395967  0.266339  0.950257  1
  C  C17  1  0.893557  0.738976  0.560483  1
  C  C18  1  0.604363  0.731221  0.050868  1
  C  C19  1  0.103092  0.270232  0.448098  1
  C  C20  1  0.304102  0.374725  0.956509  1
  C  C21  1  0.803906  0.613927  0.552733  1
