# generated using pymatgen
data_Dy7ErSc12Si15Hg
_symmetry_space_group_name_H-M   'P 1'
_cell_length_a   7.12536583
_cell_length_b   7.38907128
_cell_length_c   14.07565014
_cell_angle_alpha   89.91410856
_cell_angle_beta   89.55200113
_cell_angle_gamma   90.14233660
_symmetry_Int_Tables_number   1
_chemical_formula_structural   Dy7ErSc12Si15Hg
_chemical_formula_sum   'Dy7 Er1 Sc12 Si15 Hg1'
_cell_volume   741.05487703
_cell_formula_units_Z   1
loop_
 _symmetry_equiv_pos_site_id
 _symmetry_equiv_pos_as_xyz
  1  'x, y, z'
loop_
 _atom_site_type_symbol
 _atom_site_label
 _atom_site_symmetry_multiplicity
 _atom_site_fract_x
 _atom_site_fract_y
 _atom_site_fract_z
 _atom_site_occupancy
  Dy  Dy0  1  0.011397  0.175569  0.097149  1
  Dy  Dy1  1  0.988130  0.825342  0.904615  1
  Dy  Dy2  1  0.487936  0.676964  0.904326  1
  Dy  Dy3  1  0.989776  0.831304  0.598044  1
  Dy  Dy4  1  0.511308  0.323562  0.096283  1
  Dy  Dy5  1  0.006923  0.171049  0.398256  1
  Dy  Dy6  1  0.510847  0.321772  0.399130  1
  Er  Er7  1  0.496898  0.682368  0.600357  1
  Sc  Sc8  1  0.163351  0.501673  0.754238  1
  Sc  Sc9  1  0.836295  0.498271  0.249943  1
  Sc  Sc10  1  0.336576  0.000816  0.248742  1
  Sc  Sc11  1  0.665773  0.996600  0.751643  1
  Sc  Sc12  1  0.343391  0.168291  0.628966  1
  Sc  Sc13  1  0.663257  0.824286  0.372865  1
  Sc  Sc14  1  0.165747  0.677881  0.370425  1
  Sc  Sc15  1  0.668662  0.823601  0.124317  1
  Sc  Sc16  1  0.826207  0.325313  0.626324  1
  Sc  Sc17  1  0.329655  0.175252  0.876194  1
  Sc  Sc18  1  0.830949  0.322681  0.876175  1
  Sc  Sc19  1  0.168219  0.676913  0.125021  1
  Si  Si20  1  0.036523  0.120289  0.751465  1
  Si  Si21  1  0.963234  0.884206  0.247750  1
  Si  Si22  1  0.465317  0.614714  0.247846  1
  Si  Si23  1  0.534456  0.386917  0.752175  1
  Si  Si24  1  0.285929  0.871794  0.751732  1
  Si  Si25  1  0.711819  0.127720  0.247609  1
  Si  Si26  1  0.212517  0.370814  0.247998  1
  Si  Si27  1  0.789134  0.628773  0.752591  1
  Si  Si28  1  0.831857  0.538335  0.459139  1
  Si  Si29  1  0.337664  0.961830  0.460067  1
  Si  Si30  1  0.842993  0.535181  0.038899  1
  Si  Si31  1  0.661069  0.037019  0.537535  1
  Si  Si32  1  0.156761  0.464156  0.962347  1
  Si  Si33  1  0.656728  0.034891  0.960705  1
  Si  Si34  1  0.342242  0.965032  0.039916  1
  Hg  Hg35  1  0.170458  0.458825  0.539212  1
