# generated using pymatgen
data_CaGa4Cu9
_symmetry_space_group_name_H-M   'P 1'
_cell_length_a   8.33671781
_cell_length_b   8.33673573
_cell_length_c   8.33674332
_cell_angle_alpha   120.78654206
_cell_angle_beta   120.78645969
_cell_angle_gamma   88.64363803
_symmetry_Int_Tables_number   1
_chemical_formula_structural   CaGa4Cu9
_chemical_formula_sum   'Ca2 Ga8 Cu18'
_cell_volume   404.71050957
_cell_formula_units_Z   2
loop_
 _symmetry_equiv_pos_site_id
 _symmetry_equiv_pos_as_xyz
  1  'x, y, z'
loop_
 _atom_site_type_symbol
 _atom_site_label
 _atom_site_symmetry_multiplicity
 _atom_site_fract_x
 _atom_site_fract_y
 _atom_site_fract_z
 _atom_site_occupancy
  Ca  Ca0  1  0.250000  0.250000  0.000000  1
  Ca  Ca1  1  0.750000  0.750000  0.000000  1
  Ga  Ga2  1  0.559801  0.059801  0.862954  1
  Ga  Ga3  1  0.803153  0.303153  0.862954  1
  Ga  Ga4  1  0.940199  0.803153  0.500000  1
  Ga  Ga5  1  0.696848  0.559801  0.500000  1
  Ga  Ga6  1  0.196847  0.696847  0.137046  1
  Ga  Ga7  1  0.303152  0.440199  0.500000  1
  Ga  Ga8  1  0.059801  0.196847  0.500000  1
  Ga  Ga9  1  0.440199  0.940199  0.137046  1
  Cu  Cu10  1  0.562528  0.702794  0.265321  1
  Cu  Cu11  1  0.797206  0.937472  0.734679  1
  Cu  Cu12  1  0.937472  0.202794  0.140266  1
  Cu  Cu13  1  0.202794  0.062528  0.265321  1
  Cu  Cu14  1  0.563633  0.295833  0.500000  1
  Cu  Cu15  1  0.704169  0.204168  0.267803  1
  Cu  Cu16  1  0.204168  0.936366  0.500000  1
  Cu  Cu17  1  0.795832  0.063634  0.500000  1
  Cu  Cu18  1  0.936366  0.436366  0.732198  1
  Cu  Cu19  1  0.063634  0.563634  0.267802  1
  Cu  Cu20  1  0.437472  0.297206  0.734679  1
  Cu  Cu21  1  0.062528  0.797206  0.859734  1
  Cu  Cu22  1  0.436367  0.704167  0.500000  1
  Cu  Cu23  1  0.702794  0.437473  0.140266  1
  Cu  Cu24  1  0.500000  0.000000  0.500000  1
  Cu  Cu25  1  0.295831  0.795832  0.732197  1
  Cu  Cu26  1  0.297206  0.562527  0.859734  1
  Cu  Cu27  1  0.000000  0.500000  0.500000  1
