# generated using pymatgen
data_GdNpTcB6
_symmetry_space_group_name_H-M   'P 1'
_cell_length_a   3.64028700
_cell_length_b   9.28414600
_cell_length_c   11.35866200
_cell_angle_alpha   90.00000000
_cell_angle_beta   90.00000000
_cell_angle_gamma   90.00000000
_symmetry_Int_Tables_number   1
_chemical_formula_structural   GdNpTcB6
_chemical_formula_sum   'Gd4 Np4 Tc4 B24'
_cell_volume   383.88819972
_cell_formula_units_Z   4
loop_
 _symmetry_equiv_pos_site_id
 _symmetry_equiv_pos_as_xyz
  1  'x, y, z'
loop_
 _atom_site_type_symbol
 _atom_site_label
 _atom_site_symmetry_multiplicity
 _atom_site_fract_x
 _atom_site_fract_y
 _atom_site_fract_z
 _atom_site_occupancy
  Gd  Gd0  1  0.000000  0.337788  0.406934  1
  Gd  Gd1  1  0.000000  0.662212  0.593066  1
  Gd  Gd2  1  0.000000  0.837788  0.093066  1
  Gd  Gd3  1  0.000000  0.162212  0.906934  1
  Np  Np4  1  0.000000  0.959264  0.401073  1
  Np  Np5  1  0.000000  0.040736  0.598927  1
  Np  Np6  1  0.000000  0.459264  0.098927  1
  Np  Np7  1  0.000000  0.540736  0.901073  1
  Tc  Tc8  1  0.000000  0.647254  0.318087  1
  Tc  Tc9  1  0.000000  0.352746  0.681913  1
  Tc  Tc10  1  0.000000  0.147254  0.181913  1
  Tc  Tc11  1  0.000000  0.852746  0.818087  1
  B  B12  1  0.500000  0.553226  0.430453  1
  B  B13  1  0.500000  0.446774  0.569547  1
  B  B14  1  0.500000  0.053226  0.069547  1
  B  B15  1  0.500000  0.946774  0.930453  1
  B  B16  1  0.500000  0.744684  0.422523  1
  B  B17  1  0.500000  0.255316  0.577477  1
  B  B18  1  0.500000  0.244684  0.077477  1
  B  B19  1  0.500000  0.755316  0.922523  1
  B  B20  1  0.500000  0.804371  0.275246  1
  B  B21  1  0.500000  0.195629  0.724754  1
  B  B22  1  0.500000  0.304371  0.224754  1
  B  B23  1  0.500000  0.695629  0.775246  1
  B  B24  1  0.500000  0.644379  0.188321  1
  B  B25  1  0.500000  0.355621  0.811679  1
  B  B26  1  0.500000  0.144379  0.311679  1
  B  B27  1  0.500000  0.855621  0.688321  1
  B  B28  1  0.500000  0.989918  0.220854  1
  B  B29  1  0.500000  0.010082  0.779146  1
  B  B30  1  0.500000  0.489918  0.279146  1
  B  B31  1  0.500000  0.510082  0.720854  1
  B  B32  1  0.500000  0.639096  0.038465  1
  B  B33  1  0.500000  0.360904  0.961535  1
  B  B34  1  0.500000  0.139096  0.461535  1
  B  B35  1  0.500000  0.860904  0.538465  1
