# generated using pymatgen
data_TlPt2F9
_symmetry_space_group_name_H-M   'P 1'
_cell_length_a   5.59288054
_cell_length_b   10.32020843
_cell_length_c   9.87994500
_cell_angle_alpha   128.66476324
_cell_angle_beta   103.27482449
_cell_angle_gamma   80.40718225
_symmetry_Int_Tables_number   1
_chemical_formula_structural   TlPt2F9
_chemical_formula_sum   'Tl2 Pt4 F18'
_cell_volume   433.17369925
_cell_formula_units_Z   2
loop_
 _symmetry_equiv_pos_site_id
 _symmetry_equiv_pos_as_xyz
  1  'x, y, z'
loop_
 _atom_site_type_symbol
 _atom_site_label
 _atom_site_symmetry_multiplicity
 _atom_site_fract_x
 _atom_site_fract_y
 _atom_site_fract_z
 _atom_site_occupancy
  Tl  Tl0  1  0.542649  0.773890  0.671447  1
  Tl  Tl1  1  0.457351  0.226110  0.328553  1
  Pt  Pt2  1  0.677322  0.772959  0.137810  1
  Pt  Pt3  1  0.322678  0.227041  0.862190  1
  Pt  Pt4  1  0.889804  0.439944  0.186892  1
  Pt  Pt5  1  0.110196  0.560056  0.813108  1
  F  F6  1  0.358332  0.644780  0.036704  1
  F  F7  1  0.641668  0.355220  0.963296  1
  F  F8  1  0.445379  0.123772  0.974987  1
  F  F9  1  0.554621  0.876228  0.025013  1
  F  F10  1  0.837226  0.575049  0.929058  1
  F  F11  1  0.162774  0.424951  0.070942  1
  F  F12  1  0.131914  0.529844  0.397916  1
  F  F13  1  0.868086  0.470156  0.602084  1
  F  F14  1  0.977543  0.222856  0.127214  1
  F  F15  1  0.022457  0.777144  0.872786  1
  F  F16  1  0.480052  0.048729  0.666153  1
  F  F17  1  0.519948  0.951271  0.333847  1
  F  F18  1  0.366216  0.531501  0.693110  1
  F  F19  1  0.633784  0.468499  0.306890  1
  F  F20  1  0.027014  0.104617  0.755271  1
  F  F21  1  0.972986  0.895383  0.244729  1
  F  F22  1  0.194012  0.321341  0.727454  1
  F  F23  1  0.805988  0.678659  0.272546  1
