# generated using pymatgen
data_LaThP4RuRh3
_symmetry_space_group_name_H-M   'P 1'
_cell_length_a   4.20297200
_cell_length_b   4.20204900
_cell_length_c   9.61271100
_cell_angle_alpha   90.00000000
_cell_angle_beta   90.00000000
_cell_angle_gamma   90.00000000
_symmetry_Int_Tables_number   1
_chemical_formula_structural   LaThP4RuRh3
_chemical_formula_sum   'La1 Th1 P4 Ru1 Rh3'
_cell_volume   169.77099535
_cell_formula_units_Z   1
loop_
 _symmetry_equiv_pos_site_id
 _symmetry_equiv_pos_as_xyz
  1  'x, y, z'
loop_
 _atom_site_type_symbol
 _atom_site_label
 _atom_site_symmetry_multiplicity
 _atom_site_fract_x
 _atom_site_fract_y
 _atom_site_fract_z
 _atom_site_occupancy
  La  La0  1  0.500000  0.000000  0.742507  1
  Th  Th1  1  0.000000  0.500000  0.257172  1
  P  P2  1  0.000000  0.000000  0.498546  1
  P  P3  1  0.500000  0.500000  0.498714  1
  P  P4  1  0.000000  0.500000  0.864941  1
  P  P5  1  0.500000  0.000000  0.133961  1
  Ru  Ru6  1  0.000000  0.000000  0.005316  1
  Rh  Rh7  1  0.500000  0.500000  0.004785  1
  Rh  Rh8  1  0.000000  0.500000  0.607916  1
  Rh  Rh9  1  0.500000  0.000000  0.386141  1
