# generated using pymatgen
data_Dy8ZrTi3(Si2Mo)8
_symmetry_space_group_name_H-M   'P 1'
_cell_length_a   6.95631866
_cell_length_b   6.95631844
_cell_length_c   12.86035714
_cell_angle_alpha   90.05922202
_cell_angle_beta   89.94077818
_cell_angle_gamma   89.93423242
_symmetry_Int_Tables_number   1
_chemical_formula_structural   Dy8ZrTi3(Si2Mo)8
_chemical_formula_sum   'Dy8 Zr1 Ti3 Si16 Mo8'
_cell_volume   622.31633543
_cell_formula_units_Z   1
loop_
 _symmetry_equiv_pos_site_id
 _symmetry_equiv_pos_as_xyz
  1  'x, y, z'
loop_
 _atom_site_type_symbol
 _atom_site_label
 _atom_site_symmetry_multiplicity
 _atom_site_fract_x
 _atom_site_fract_y
 _atom_site_fract_z
 _atom_site_occupancy
  Dy  Dy0  1  0.997413  0.659884  0.031291  1
  Dy  Dy1  1  0.003423  0.339110  0.531416  1
  Dy  Dy2  1  0.659884  0.997413  0.968709  1
  Dy  Dy3  1  0.160894  0.501993  0.782527  1
  Dy  Dy4  1  0.840488  0.497450  0.280776  1
  Dy  Dy5  1  0.501993  0.160894  0.217473  1
  Dy  Dy6  1  0.497450  0.840488  0.719224  1
  Dy  Dy7  1  0.339110  0.003423  0.468584  1
  Zr  Zr8  1  0.669146  0.669146  0.500000  1
  Ti  Ti9  1  0.831104  0.168605  0.750875  1
  Ti  Ti10  1  0.168605  0.831104  0.249125  1
  Ti  Ti11  1  0.330318  0.330318  0.000000  1
  Si  Si12  1  0.046155  0.712250  0.435523  1
  Si  Si13  1  0.958804  0.288425  0.936889  1
  Si  Si14  1  0.712250  0.046155  0.564477  1
  Si  Si15  1  0.210592  0.458613  0.186221  1
  Si  Si16  1  0.791076  0.537881  0.690541  1
  Si  Si17  1  0.458613  0.210592  0.813779  1
  Si  Si18  1  0.537881  0.791076  0.309459  1
  Si  Si19  1  0.288425  0.958804  0.063111  1
  Si  Si20  1  0.799846  0.872847  0.183386  1
  Si  Si21  1  0.293393  0.627027  0.568188  1
  Si  Si22  1  0.700472  0.372165  0.065894  1
  Si  Si23  1  0.627027  0.293393  0.431812  1
  Si  Si24  1  0.372165  0.700472  0.934106  1
  Si  Si25  1  0.127985  0.201667  0.315839  1
  Si  Si26  1  0.201667  0.127985  0.684161  1
  Si  Si27  1  0.872847  0.799846  0.816614  1
  Mo  Mo28  1  0.338678  0.506679  0.374512  1
  Mo  Mo29  1  0.841784  0.995074  0.372477  1
  Mo  Mo30  1  0.007220  0.159944  0.125467  1
  Mo  Mo31  1  0.995074  0.841784  0.627523  1
  Mo  Mo32  1  0.506679  0.338678  0.625488  1
  Mo  Mo33  1  0.159944  0.007220  0.874533  1
  Mo  Mo34  1  0.492101  0.659494  0.123361  1
  Mo  Mo35  1  0.659494  0.492101  0.876639  1
