# generated using pymatgen
data_Cs4Na2DyHoAs4
_symmetry_space_group_name_H-M   'P 1'
_cell_length_a   9.78144164
_cell_length_b   9.78144227
_cell_length_c   9.78144289
_cell_angle_alpha   136.31599910
_cell_angle_beta   136.50952833
_cell_angle_gamma   63.34297002
_symmetry_Int_Tables_number   1
_chemical_formula_structural   Cs4Na2DyHoAs4
_chemical_formula_sum   'Cs4 Na2 Dy1 Ho1 As4'
_cell_volume   439.13661405
_cell_formula_units_Z   1
loop_
 _symmetry_equiv_pos_site_id
 _symmetry_equiv_pos_as_xyz
  1  'x, y, z'
loop_
 _atom_site_type_symbol
 _atom_site_label
 _atom_site_symmetry_multiplicity
 _atom_site_fract_x
 _atom_site_fract_y
 _atom_site_fract_z
 _atom_site_occupancy
  Cs  Cs0  1  0.681184  0.397316  0.716109  1
  Cs  Cs1  1  0.818816  0.034925  0.216131  1
  Cs  Cs2  1  0.181205  0.965075  0.783891  1
  Cs  Cs3  1  0.318795  0.602684  0.283869  1
  Na  Na4  1  0.750000  0.000000  0.750000  1
  Na  Na5  1  0.250000  0.000000  0.250000  1
  Dy  Dy6  1  0.750000  0.500000  0.250000  1
  Ho  Ho7  1  0.250000  0.500000  0.750000  1
  As  As8  1  0.409329  0.189077  0.778875  1
  As  As9  1  0.589798  0.810923  0.220252  1
  As  As10  1  0.090671  0.369545  0.279748  1
  As  As11  1  0.910202  0.630455  0.721125  1
