# generated using pymatgen
data_CsMnZnF6
_symmetry_space_group_name_H-M   'P 1'
_cell_length_a   7.47218569
_cell_length_b   7.47218647
_cell_length_c   7.47218728
_cell_angle_alpha   121.33719468
_cell_angle_beta   116.79740892
_cell_angle_gamma   91.66692148
_symmetry_Int_Tables_number   1
_chemical_formula_structural   CsMnZnF6
_chemical_formula_sum   'Cs2 Mn2 Zn2 F12'
_cell_volume   298.45964752
_cell_formula_units_Z   2
loop_
 _symmetry_equiv_pos_site_id
 _symmetry_equiv_pos_as_xyz
  1  'x, y, z'
loop_
 _atom_site_type_symbol
 _atom_site_label
 _atom_site_symmetry_multiplicity
 _atom_site_fract_x
 _atom_site_fract_y
 _atom_site_fract_z
 _atom_site_occupancy
  Cs  Cs0  1  0.872305  0.622305  0.250000  1
  Cs  Cs1  1  0.127695  0.377695  0.750000  1
  Mn  Mn2  1  0.500000  0.000000  0.500000  1
  Mn  Mn3  1  0.000000  0.000000  0.000000  1
  Zn  Zn4  1  0.500000  0.000000  0.000000  1
  Zn  Zn5  1  0.500000  0.500000  0.500000  1
  F  F6  1  0.825765  0.075765  0.750000  1
  F  F7  1  0.424417  0.674417  0.750000  1
  F  F8  1  0.825088  0.692599  0.757952  1
  F  F9  1  0.434647  0.067136  0.742048  1
  F  F10  1  0.825088  0.067136  0.132489  1
  F  F11  1  0.434647  0.692599  0.367511  1
  F  F12  1  0.174235  0.924235  0.250000  1
  F  F13  1  0.575583  0.325583  0.250000  1
  F  F14  1  0.174912  0.307401  0.242048  1
  F  F15  1  0.565353  0.932864  0.257952  1
  F  F16  1  0.174912  0.932864  0.867511  1
  F  F17  1  0.565353  0.307401  0.632489  1
