# generated using pymatgen
data_Y2ScFe(WO6)2
_symmetry_space_group_name_H-M   'P 1'
_cell_length_a   5.25965124
_cell_length_b   7.51262516
_cell_length_c   11.21109300
_cell_angle_alpha   90.00000000
_cell_angle_beta   90.00000000
_cell_angle_gamma   90.10541976
_symmetry_Int_Tables_number   1
_chemical_formula_structural   Y2ScFe(WO6)2
_chemical_formula_sum   'Y4 Sc2 Fe2 W4 O24'
_cell_volume   442.99200481
_cell_formula_units_Z   2
loop_
 _symmetry_equiv_pos_site_id
 _symmetry_equiv_pos_as_xyz
  1  'x, y, z'
loop_
 _atom_site_type_symbol
 _atom_site_label
 _atom_site_symmetry_multiplicity
 _atom_site_fract_x
 _atom_site_fract_y
 _atom_site_fract_z
 _atom_site_occupancy
  Y  Y0  1  0.544170  0.252816  0.040305  1
  Y  Y1  1  0.044169  0.752816  0.459696  1
  Y  Y2  1  0.954522  0.250826  0.549271  1
  Y  Y3  1  0.454521  0.750826  0.950729  1
  Sc  Sc4  1  0.041941  0.995073  0.141622  1
  Sc  Sc5  1  0.541941  0.495073  0.358378  1
  Fe  Fe6  1  0.455782  0.995794  0.640052  1
  Fe  Fe7  1  0.955783  0.495794  0.859948  1
  W  W8  1  0.051488  0.507372  0.139085  1
  W  W9  1  0.551488  0.007371  0.360914  1
  W  W10  1  0.448022  0.506851  0.642564  1
  W  W11  1  0.948023  0.006850  0.857436  1
  O  O12  1  0.752961  0.961316  0.016343  1
  O  O13  1  0.763923  0.547967  0.026959  1
  O  O14  1  0.184694  0.743917  0.113867  1
  O  O15  1  0.926464  0.263989  0.142628  1
  O  O16  1  0.371293  0.428359  0.200241  1
  O  O17  1  0.403337  0.070279  0.214599  1
  O  O18  1  0.903338  0.570279  0.285401  1
  O  O19  1  0.871294  0.928359  0.299759  1
  O  O20  1  0.426464  0.763990  0.357372  1
  O  O21  1  0.684695  0.243917  0.386134  1
  O  O22  1  0.263922  0.047967  0.473041  1
  O  O23  1  0.252962  0.461316  0.483657  1
  O  O24  1  0.740284  0.960167  0.523063  1
  O  O25  1  0.736348  0.546174  0.530967  1
  O  O26  1  0.326032  0.747971  0.617895  1
  O  O27  1  0.562191  0.260037  0.643268  1
  O  O28  1  0.127298  0.434778  0.709230  1
  O  O29  1  0.109248  0.066516  0.713164  1
  O  O30  1  0.609249  0.566516  0.786836  1
  O  O31  1  0.627299  0.934778  0.790770  1
  O  O32  1  0.062190  0.760038  0.856732  1
  O  O33  1  0.826031  0.247971  0.882106  1
  O  O34  1  0.236349  0.046174  0.969033  1
  O  O35  1  0.240284  0.460167  0.976937  1
