# generated using pymatgen
data_Tb3Ho4Co2Sn23Os4
_symmetry_space_group_name_H-M   'P 1'
_cell_length_a   9.80375517
_cell_length_b   9.85773044
_cell_length_c   10.06550613
_cell_angle_alpha   90.00000142
_cell_angle_beta   89.73726737
_cell_angle_gamma   120.18229726
_symmetry_Int_Tables_number   1
_chemical_formula_structural   Tb3Ho4Co2Sn23Os4
_chemical_formula_sum   'Tb3 Ho4 Co2 Sn23 Os4'
_cell_volume   840.86993187
_cell_formula_units_Z   1
loop_
 _symmetry_equiv_pos_site_id
 _symmetry_equiv_pos_as_xyz
  1  'x, y, z'
loop_
 _atom_site_type_symbol
 _atom_site_label
 _atom_site_symmetry_multiplicity
 _atom_site_fract_x
 _atom_site_fract_y
 _atom_site_fract_z
 _atom_site_occupancy
  Tb  Tb0  1  0.000000  0.000000  0.000000  1
  Tb  Tb1  1  0.034762  0.517381  0.303950  1
  Tb  Tb2  1  0.965238  0.482619  0.696050  1
  Ho  Ho3  1  0.484684  0.518057  0.304963  1
  Ho  Ho4  1  0.515316  0.481943  0.695037  1
  Ho  Ho5  1  0.484684  0.966627  0.304963  1
  Ho  Ho6  1  0.515316  0.033373  0.695037  1
  Co  Co7  1  0.339201  0.169600  0.200063  1
  Co  Co8  1  0.660799  0.830400  0.799937  1
  Sn  Sn9  1  0.349274  0.002950  0.005115  1
  Sn  Sn10  1  0.650726  0.997050  0.994885  1
  Sn  Sn11  1  0.000000  0.349237  0.000000  1
  Sn  Sn12  1  0.000000  0.650763  0.000000  1
  Sn  Sn13  1  0.650726  0.653676  0.994885  1
  Sn  Sn14  1  0.349274  0.346324  0.005115  1
  Sn  Sn15  1  0.336399  0.668201  0.822790  1
  Sn  Sn16  1  0.663601  0.331799  0.177210  1
  Sn  Sn17  1  0.000000  0.000000  0.500000  1
  Sn  Sn18  1  0.779309  0.219799  0.461733  1
  Sn  Sn19  1  0.220691  0.780201  0.538267  1
  Sn  Sn20  1  0.779309  0.559510  0.461733  1
  Sn  Sn21  1  0.220691  0.440490  0.538267  1
  Sn  Sn22  1  0.438205  0.219102  0.455283  1
  Sn  Sn23  1  0.561795  0.780898  0.544717  1
  Sn  Sn24  1  0.336631  0.668316  0.125125  1
  Sn  Sn25  1  0.663369  0.331684  0.874875  1
  Sn  Sn26  1  0.120691  0.889348  0.276656  1
  Sn  Sn27  1  0.879309  0.110652  0.723344  1
  Sn  Sn28  1  0.120691  0.231344  0.276656  1
  Sn  Sn29  1  0.879309  0.768656  0.723344  1
  Sn  Sn30  1  0.763691  0.881846  0.277532  1
  Sn  Sn31  1  0.236309  0.118154  0.722468  1
  Os  Os32  1  0.828687  0.168017  0.201001  1
  Os  Os33  1  0.171313  0.831983  0.798999  1
  Os  Os34  1  0.828687  0.660669  0.201001  1
  Os  Os35  1  0.171313  0.339331  0.798999  1
