# generated using pymatgen
data_Fe(S8Cl)3
_symmetry_space_group_name_H-M   'P 1'
_cell_length_a   14.90540537
_cell_length_b   14.90540475
_cell_length_c   14.90540527
_cell_angle_alpha   118.77914697
_cell_angle_beta   118.77914890
_cell_angle_gamma   118.77913971
_symmetry_Int_Tables_number   1
_chemical_formula_structural   Fe(S8Cl)3
_chemical_formula_sum   'Fe1 S24 Cl3'
_cell_volume   945.32269055
_cell_formula_units_Z   1
loop_
 _symmetry_equiv_pos_site_id
 _symmetry_equiv_pos_as_xyz
  1  'x, y, z'
loop_
 _atom_site_type_symbol
 _atom_site_label
 _atom_site_symmetry_multiplicity
 _atom_site_fract_x
 _atom_site_fract_y
 _atom_site_fract_z
 _atom_site_occupancy
  Fe  Fe0  1  0.102351  0.102351  0.102351  1
  S  S1  1  0.013906  0.612532  0.612532  1
  S  S2  1  0.612532  0.612532  0.013906  1
  S  S3  1  0.612532  0.013906  0.612532  1
  S  S4  1  0.236510  0.849745  0.719287  1
  S  S5  1  0.849745  0.719287  0.236510  1
  S  S6  1  0.719287  0.236510  0.849745  1
  S  S7  1  0.849745  0.236510  0.719287  1
  S  S8  1  0.236510  0.719287  0.849745  1
  S  S9  1  0.719287  0.849745  0.236510  1
  S  S10  1  0.098601  0.628669  0.444112  1
  S  S11  1  0.628669  0.444112  0.098601  1
  S  S12  1  0.444112  0.098601  0.628669  1
  S  S13  1  0.628669  0.098601  0.444112  1
  S  S14  1  0.098601  0.444112  0.628669  1
  S  S15  1  0.444112  0.628669  0.098601  1
  S  S16  1  0.358964  0.746182  0.615109  1
  S  S17  1  0.746182  0.615109  0.358964  1
  S  S18  1  0.615109  0.358964  0.746182  1
  S  S19  1  0.746182  0.358964  0.615109  1
  S  S20  1  0.358964  0.615109  0.746182  1
  S  S21  1  0.615109  0.746182  0.358964  1
  S  S22  1  0.188442  0.465564  0.465564  1
  S  S23  1  0.465564  0.465564  0.188442  1
  S  S24  1  0.465564  0.188442  0.465564  1
  Cl  Cl25  1  0.159928  0.015961  0.015961  1
  Cl  Cl26  1  0.015961  0.015961  0.159928  1
  Cl  Cl27  1  0.015961  0.159928  0.015961  1
