# generated using pymatgen
data_Li8La7NdSnBi7
_symmetry_space_group_name_H-M   'P 1'
_cell_length_a   9.89080300
_cell_length_b   9.89080354
_cell_length_c   7.66898500
_cell_angle_alpha   90.00000000
_cell_angle_beta   90.00000000
_cell_angle_gamma   120.00000153
_symmetry_Int_Tables_number   1
_chemical_formula_structural   Li8La7NdSnBi7
_chemical_formula_sum   'Li8 La7 Nd1 Sn1 Bi7'
_cell_volume   649.72808658
_cell_formula_units_Z   1
loop_
 _symmetry_equiv_pos_site_id
 _symmetry_equiv_pos_as_xyz
  1  'x, y, z'
loop_
 _atom_site_type_symbol
 _atom_site_label
 _atom_site_symmetry_multiplicity
 _atom_site_fract_x
 _atom_site_fract_y
 _atom_site_fract_z
 _atom_site_occupancy
  Li  Li0  1  0.167409  0.334817  0.276729  1
  Li  Li1  1  0.167409  0.832591  0.276729  1
  Li  Li2  1  0.665183  0.832591  0.276729  1
  Li  Li3  1  0.831734  0.663468  0.776927  1
  Li  Li4  1  0.831734  0.168266  0.776927  1
  Li  Li5  1  0.336532  0.168266  0.776927  1
  Li  Li6  1  0.333333  0.666667  0.681906  1
  Li  Li7  1  0.666667  0.333333  0.181977  1
  La  La8  1  0.511585  0.023171  0.496354  1
  La  La9  1  0.511585  0.488415  0.496354  1
  La  La10  1  0.976829  0.488415  0.496354  1
  La  La11  1  0.494024  0.988048  0.992264  1
  La  La12  1  0.494024  0.505976  0.992264  1
  La  La13  1  0.011952  0.505976  0.992264  1
  La  La14  1  0.000000  0.000000  0.501583  1
  Nd  Nd15  1  0.000000  0.000000  0.001232  1
  Sn  Sn16  1  0.666667  0.333333  0.764029  1
  Bi  Bi17  1  0.166183  0.332368  0.738328  1
  Bi  Bi18  1  0.166183  0.833817  0.738328  1
  Bi  Bi19  1  0.667632  0.833817  0.738328  1
  Bi  Bi20  1  0.834657  0.669313  0.236174  1
  Bi  Bi21  1  0.834657  0.165343  0.236174  1
  Bi  Bi22  1  0.330687  0.165343  0.236174  1
  Bi  Bi23  1  0.333333  0.666667  0.260923  1
