# generated using pymatgen
data_Dy(GaNi)6
_symmetry_space_group_name_H-M   'P 1'
_cell_length_a   6.48580060
_cell_length_b   6.48580040
_cell_length_c   6.48579958
_cell_angle_alpha   134.33237259
_cell_angle_beta   101.02722071
_cell_angle_gamma   96.30984421
_symmetry_Int_Tables_number   1
_chemical_formula_structural   Dy(GaNi)6
_chemical_formula_sum   'Dy1 Ga6 Ni6'
_cell_volume   179.65428875
_cell_formula_units_Z   1
loop_
 _symmetry_equiv_pos_site_id
 _symmetry_equiv_pos_as_xyz
  1  'x, y, z'
loop_
 _atom_site_type_symbol
 _atom_site_label
 _atom_site_symmetry_multiplicity
 _atom_site_fract_x
 _atom_site_fract_y
 _atom_site_fract_z
 _atom_site_occupancy
  Dy  Dy0  1  0.000000  0.000000  0.000000  1
  Ga  Ga1  1  0.344827  0.344827  0.000000  1
  Ga  Ga2  1  0.655173  0.655173  0.000000  1
  Ga  Ga3  1  0.342517  0.000000  0.342517  1
  Ga  Ga4  1  0.657483  0.000000  0.657483  1
  Ga  Ga5  1  0.185971  0.685971  0.500000  1
  Ga  Ga6  1  0.814029  0.314029  0.500000  1
  Ni  Ni7  1  0.762910  0.500000  0.262910  1
  Ni  Ni8  1  0.237090  0.500000  0.737090  1
  Ni  Ni9  1  0.500000  0.500000  0.500000  1
  Ni  Ni10  1  0.000000  0.000000  0.500000  1
  Ni  Ni11  1  0.000000  0.500000  0.000000  1
  Ni  Ni12  1  0.500000  0.000000  0.000000  1
