# generated using pymatgen
data_Mn2BeB2Ir5
_symmetry_space_group_name_H-M   'P 1'
_cell_length_a   9.21373500
_cell_length_b   9.21373500
_cell_length_c   2.87388300
_cell_angle_alpha   90.00000000
_cell_angle_beta   90.00000000
_cell_angle_gamma   90.00000000
_symmetry_Int_Tables_number   1
_chemical_formula_structural   Mn2BeB2Ir5
_chemical_formula_sum   'Mn4 Be2 B4 Ir10'
_cell_volume   243.97229849
_cell_formula_units_Z   2
loop_
 _symmetry_equiv_pos_site_id
 _symmetry_equiv_pos_as_xyz
  1  'x, y, z'
loop_
 _atom_site_type_symbol
 _atom_site_label
 _atom_site_symmetry_multiplicity
 _atom_site_fract_x
 _atom_site_fract_y
 _atom_site_fract_z
 _atom_site_occupancy
  Mn  Mn0  1  0.677060  0.177060  0.000000  1
  Mn  Mn1  1  0.322940  0.822940  0.000000  1
  Mn  Mn2  1  0.177060  0.322940  0.000000  1
  Mn  Mn3  1  0.822940  0.677060  0.000000  1
  Be  Be4  1  0.000000  0.000000  0.000000  1
  Be  Be5  1  0.500000  0.500000  0.000000  1
  B  B6  1  0.130945  0.630945  0.000000  1
  B  B7  1  0.869055  0.369055  0.000000  1
  B  B8  1  0.630945  0.869055  0.000000  1
  B  B9  1  0.369055  0.130945  0.000000  1
  Ir  Ir10  1  0.204305  0.067911  0.500000  1
  Ir  Ir11  1  0.795695  0.932089  0.500000  1
  Ir  Ir12  1  0.067911  0.795695  0.500000  1
  Ir  Ir13  1  0.704305  0.432089  0.500000  1
  Ir  Ir14  1  0.932089  0.204305  0.500000  1
  Ir  Ir15  1  0.295695  0.567911  0.500000  1
  Ir  Ir16  1  0.567911  0.704305  0.500000  1
  Ir  Ir17  1  0.432089  0.295695  0.500000  1
  Ir  Ir18  1  0.500000  0.000000  0.500000  1
  Ir  Ir19  1  0.000000  0.500000  0.500000  1
