# generated using pymatgen
data_PrTh2In3PtRh2
_symmetry_space_group_name_H-M   'P 1'
_cell_length_a   7.72689202
_cell_length_b   7.75734685
_cell_length_c   4.02818700
_cell_angle_alpha   90.00000000
_cell_angle_beta   90.00000000
_cell_angle_gamma   120.11911118
_symmetry_Int_Tables_number   1
_chemical_formula_structural   PrTh2In3PtRh2
_chemical_formula_sum   'Pr1 Th2 In3 Pt1 Rh2'
_cell_volume   208.85063362
_cell_formula_units_Z   1
loop_
 _symmetry_equiv_pos_site_id
 _symmetry_equiv_pos_as_xyz
  1  'x, y, z'
loop_
 _atom_site_type_symbol
 _atom_site_label
 _atom_site_symmetry_multiplicity
 _atom_site_fract_x
 _atom_site_fract_y
 _atom_site_fract_z
 _atom_site_occupancy
  Pr  Pr0  1  0.590205  0.000659  0.500000  1
  Th  Th1  1  0.988436  0.585207  0.500000  1
  Th  Th2  1  0.410512  0.408573  0.500000  1
  In  In3  1  0.752265  0.760941  0.000000  1
  In  In4  1  0.987437  0.237842  0.000000  1
  In  In5  1  0.262077  0.001478  0.000000  1
  Pt  Pt6  1  0.316374  0.646573  0.000000  1
  Rh  Rh7  1  0.021862  0.000759  0.500000  1
  Rh  Rh8  1  0.670832  0.357968  0.000000  1
