# generated using pymatgen
data_Sr8Li3Fe(ReO6)4
_symmetry_space_group_name_H-M   'P 1'
_cell_length_a   7.94340197
_cell_length_b   7.90551044
_cell_length_c   9.86803456
_cell_angle_alpha   66.43795406
_cell_angle_beta   66.30196837
_cell_angle_gamma   90.09020455
_symmetry_Int_Tables_number   1
_chemical_formula_structural   Sr8Li3Fe(ReO6)4
_chemical_formula_sum   'Sr8 Li3 Fe1 Re4 O24'
_cell_volume   510.30946188
_cell_formula_units_Z   1
loop_
 _symmetry_equiv_pos_site_id
 _symmetry_equiv_pos_as_xyz
  1  'x, y, z'
loop_
 _atom_site_type_symbol
 _atom_site_label
 _atom_site_symmetry_multiplicity
 _atom_site_fract_x
 _atom_site_fract_y
 _atom_site_fract_z
 _atom_site_occupancy
  Sr  Sr0  1  0.131025  0.129689  0.246469  1
  Sr  Sr1  1  0.874500  0.368309  0.754515  1
  Sr  Sr2  1  0.370926  0.877283  0.754500  1
  Sr  Sr3  1  0.622370  0.623890  0.246541  1
  Sr  Sr4  1  0.625839  0.130319  0.245244  1
  Sr  Sr5  1  0.370485  0.370248  0.753764  1
  Sr  Sr6  1  0.875830  0.875920  0.753694  1
  Sr  Sr7  1  0.129010  0.624333  0.245294  1
  Li  Li8  1  0.249960  0.249948  0.500071  1
  Li  Li9  1  0.999715  0.499663  0.000588  1
  Li  Li10  1  0.500310  0.000355  0.999370  1
  Fe  Fe11  1  0.750075  0.750046  0.499857  1
  Re  Re12  1  0.249607  0.749638  0.500774  1
  Re  Re13  1  0.999948  0.999927  0.000107  1
  Re  Re14  1  0.500085  0.500072  0.999851  1
  Re  Re15  1  0.750349  0.250344  0.499295  1
  O  O16  1  0.367299  0.867033  0.265459  1
  O  O17  1  0.117828  0.117516  0.764440  1
  O  O18  1  0.619268  0.618903  0.761729  1
  O  O19  1  0.868038  0.367990  0.263877  1
  O  O20  1  0.382213  0.382452  0.235513  1
  O  O21  1  0.132220  0.632585  0.735501  1
  O  O22  1  0.632372  0.132411  0.735271  1
  O  O23  1  0.880762  0.881161  0.238197  1
  O  O24  1  0.541991  0.263231  0.999473  1
  O  O25  1  0.296566  0.514148  0.500724  1
  O  O26  1  0.797274  0.008795  0.499519  1
  O  O27  1  0.041585  0.762558  0.000781  1
  O  O28  1  0.763540  0.957505  0.001126  1
  O  O29  1  0.515858  0.205379  0.499682  1
  O  O30  1  0.013135  0.699925  0.500396  1
  O  O31  1  0.264744  0.458428  0.998847  1
  O  O32  1  0.235319  0.041415  0.001163  1
  O  O33  1  0.984432  0.294965  0.499702  1
  O  O34  1  0.486475  0.799698  0.500369  1
  O  O35  1  0.736429  0.542622  0.998864  1
  O  O36  1  0.458554  0.737351  0.999213  1
  O  O37  1  0.202826  0.985333  0.500364  1
  O  O38  1  0.703242  0.491725  0.499433  1
  O  O39  1  0.957989  0.236894  0.000419  1
