# generated using pymatgen
data_Tb6EuFeI12
_symmetry_space_group_name_H-M   'P 1'
_cell_length_a   9.76857835
_cell_length_b   9.76857829
_cell_length_c   9.76857804
_cell_angle_alpha   106.54692743
_cell_angle_beta   106.54693721
_cell_angle_gamma   106.54691947
_symmetry_Int_Tables_number   1
_chemical_formula_structural   Tb6EuFeI12
_chemical_formula_sum   'Tb6 Eu1 Fe1 I12'
_cell_volume   785.71555877
_cell_formula_units_Z   1
loop_
 _symmetry_equiv_pos_site_id
 _symmetry_equiv_pos_as_xyz
  1  'x, y, z'
loop_
 _atom_site_type_symbol
 _atom_site_label
 _atom_site_symmetry_multiplicity
 _atom_site_fract_x
 _atom_site_fract_y
 _atom_site_fract_z
 _atom_site_occupancy
  Tb  Tb0  1  0.091805  0.289767  0.020621  1
  Tb  Tb1  1  0.020621  0.091805  0.289767  1
  Tb  Tb2  1  0.289767  0.020621  0.091805  1
  Tb  Tb3  1  0.908195  0.710233  0.979379  1
  Tb  Tb4  1  0.979379  0.908195  0.710233  1
  Tb  Tb5  1  0.710233  0.979379  0.908195  1
  Eu  Eu6  1  0.500000  0.500000  0.500000  1
  Fe  Fe7  1  0.000000  0.000000  0.000000  1
  I  I8  1  0.449983  0.370155  0.137873  1
  I  I9  1  0.137873  0.449983  0.370155  1
  I  I10  1  0.370155  0.137873  0.449983  1
  I  I11  1  0.550017  0.629845  0.862127  1
  I  I12  1  0.862127  0.550017  0.629845  1
  I  I13  1  0.629845  0.862127  0.550017  1
  I  I14  1  0.775251  0.319478  0.926097  1
  I  I15  1  0.926097  0.775251  0.319478  1
  I  I16  1  0.319478  0.926097  0.775251  1
  I  I17  1  0.224749  0.680522  0.073903  1
  I  I18  1  0.073903  0.224749  0.680522  1
  I  I19  1  0.680522  0.073903  0.224749  1
