# generated using pymatgen
data_YFe3B4Os
_symmetry_space_group_name_H-M   'P 1'
_cell_length_a   7.00488312
_cell_length_b   7.22898873
_cell_length_c   3.87757200
_cell_angle_alpha   90.00000000
_cell_angle_beta   90.00000000
_cell_angle_gamma   91.83816892
_symmetry_Int_Tables_number   1
_chemical_formula_structural   YFe3B4Os
_chemical_formula_sum   'Y2 Fe6 B8 Os2'
_cell_volume   196.25230767
_cell_formula_units_Z   2
loop_
 _symmetry_equiv_pos_site_id
 _symmetry_equiv_pos_as_xyz
  1  'x, y, z'
loop_
 _atom_site_type_symbol
 _atom_site_label
 _atom_site_symmetry_multiplicity
 _atom_site_fract_x
 _atom_site_fract_y
 _atom_site_fract_z
 _atom_site_occupancy
  Y  Y0  1  0.000000  0.000000  0.920106  1
  Y  Y1  1  0.500000  0.500000  0.415543  1
  Fe  Fe2  1  0.889443  0.347784  0.394657  1
  Fe  Fe3  1  0.110557  0.652216  0.394657  1
  Fe  Fe4  1  0.378760  0.112800  0.623620  1
  Fe  Fe5  1  0.621240  0.887200  0.623620  1
  Fe  Fe6  1  0.622076  0.122166  0.124198  1
  Fe  Fe7  1  0.377924  0.877834  0.124198  1
  B  B8  1  0.660388  0.818282  0.121945  1
  B  B9  1  0.339612  0.181718  0.121945  1
  B  B10  1  0.312820  0.832860  0.619140  1
  B  B11  1  0.687180  0.167140  0.619140  1
  B  B12  1  0.828225  0.730141  0.402482  1
  B  B13  1  0.171775  0.269859  0.402482  1
  B  B14  1  0.207821  0.672637  0.899360  1
  B  B15  1  0.792179  0.327363  0.899360  1
  Os  Os16  1  0.147778  0.386967  0.896772  1
  Os  Os17  1  0.852222  0.613033  0.896772  1
