# generated using pymatgen
data_Gd2UN3
_symmetry_space_group_name_H-M   'P 1'
_cell_length_a   5.93777475
_cell_length_b   5.93777548
_cell_length_c   5.94553000
_cell_angle_alpha   99.57572689
_cell_angle_beta   99.57574764
_cell_angle_gamma   119.99111893
_symmetry_Int_Tables_number   1
_chemical_formula_structural   Gd2UN3
_chemical_formula_sum   'Gd4 U2 N6'
_cell_volume   171.21475251
_cell_formula_units_Z   2
loop_
 _symmetry_equiv_pos_site_id
 _symmetry_equiv_pos_as_xyz
  1  'x, y, z'
loop_
 _atom_site_type_symbol
 _atom_site_label
 _atom_site_symmetry_multiplicity
 _atom_site_fract_x
 _atom_site_fract_y
 _atom_site_fract_z
 _atom_site_occupancy
  Gd  Gd0  1  0.835824  0.164176  0.500000  1
  Gd  Gd1  1  0.164176  0.835824  0.500000  1
  Gd  Gd2  1  0.500000  0.500000  0.500000  1
  Gd  Gd3  1  0.000000  0.000000  0.000000  1
  U  U4  1  0.332687  0.667313  0.000000  1
  U  U5  1  0.667313  0.332687  0.000000  1
  N  N6  1  0.427141  0.076756  0.229782  1
  N  N7  1  0.923244  0.572859  0.770218  1
  N  N8  1  0.572859  0.923244  0.770218  1
  N  N9  1  0.076756  0.427141  0.229782  1
  N  N10  1  0.725579  0.725579  0.228425  1
  N  N11  1  0.274421  0.274421  0.771575  1
