# generated using pymatgen
data_Li8Ce3ThBr24
_symmetry_space_group_name_H-M   'P 1'
_cell_length_a   6.99774800
_cell_length_b   6.99774840
_cell_length_c   27.21590200
_cell_angle_alpha   90.00000000
_cell_angle_beta   90.00000000
_cell_angle_gamma   119.99999811
_symmetry_Int_Tables_number   1
_chemical_formula_structural   Li8Ce3ThBr24
_chemical_formula_sum   'Li8 Ce3 Th1 Br24'
_cell_volume   1154.17056676
_cell_formula_units_Z   1
loop_
 _symmetry_equiv_pos_site_id
 _symmetry_equiv_pos_as_xyz
  1  'x, y, z'
loop_
 _atom_site_type_symbol
 _atom_site_label
 _atom_site_symmetry_multiplicity
 _atom_site_fract_x
 _atom_site_fract_y
 _atom_site_fract_z
 _atom_site_occupancy
  Li  Li0  1  0.000000  0.000000  0.249963  1
  Li  Li1  1  0.000000  0.000000  0.750037  1
  Li  Li2  1  0.333333  0.666667  0.001167  1
  Li  Li3  1  0.333333  0.666667  0.498813  1
  Li  Li4  1  0.333333  0.666667  0.249970  1
  Li  Li5  1  0.666667  0.333333  0.750030  1
  Li  Li6  1  0.666667  0.333333  0.998833  1
  Li  Li7  1  0.666667  0.333333  0.501187  1
  Ce  Ce8  1  0.000000  0.000000  0.000000  1
  Ce  Ce9  1  0.333333  0.666667  0.750188  1
  Ce  Ce10  1  0.666667  0.333333  0.249812  1
  Th  Th11  1  0.000000  0.000000  0.500000  1
  Br  Br12  1  0.331553  0.998199  0.306521  1
  Br  Br13  1  0.333462  0.001744  0.806849  1
  Br  Br14  1  0.999230  0.334600  0.056760  1
  Br  Br15  1  0.000557  0.340131  0.557670  1
  Br  Br16  1  0.001801  0.333354  0.306521  1
  Br  Br17  1  0.998256  0.331719  0.806849  1
  Br  Br18  1  0.331719  0.333462  0.193151  1
  Br  Br19  1  0.333354  0.331553  0.693479  1
  Br  Br20  1  0.340131  0.339573  0.442330  1
  Br  Br21  1  0.334600  0.335370  0.943240  1
  Br  Br22  1  0.660427  0.000557  0.442330  1
  Br  Br23  1  0.335370  0.000770  0.056760  1
  Br  Br24  1  0.339573  0.999443  0.557670  1
  Br  Br25  1  0.665400  0.664630  0.056760  1
  Br  Br26  1  0.659869  0.660427  0.557670  1
  Br  Br27  1  0.666646  0.668447  0.306521  1
  Br  Br28  1  0.668281  0.666538  0.806849  1
  Br  Br29  1  0.001744  0.668281  0.193151  1
  Br  Br30  1  0.998199  0.666646  0.693479  1
  Br  Br31  1  0.999443  0.659869  0.442330  1
  Br  Br32  1  0.000770  0.665400  0.943240  1
  Br  Br33  1  0.664630  0.999230  0.943240  1
  Br  Br34  1  0.666538  0.998256  0.193151  1
  Br  Br35  1  0.668447  0.001801  0.693479  1
