# generated using pymatgen
data_Ho2Co9P6Os
_symmetry_space_group_name_H-M   'P 1'
_cell_length_a   3.67750000
_cell_length_b   10.32395600
_cell_length_c   11.72609200
_cell_angle_alpha   90.00000000
_cell_angle_beta   90.00000000
_cell_angle_gamma   90.00000000
_symmetry_Int_Tables_number   1
_chemical_formula_structural   Ho2Co9P6Os
_chemical_formula_sum   'Ho4 Co18 P12 Os2'
_cell_volume   445.19689178
_cell_formula_units_Z   2
loop_
 _symmetry_equiv_pos_site_id
 _symmetry_equiv_pos_as_xyz
  1  'x, y, z'
loop_
 _atom_site_type_symbol
 _atom_site_label
 _atom_site_symmetry_multiplicity
 _atom_site_fract_x
 _atom_site_fract_y
 _atom_site_fract_z
 _atom_site_occupancy
  Ho  Ho0  1  0.250000  0.582371  0.702047  1
  Ho  Ho1  1  0.250000  0.917629  0.202047  1
  Ho  Ho2  1  0.750000  0.413584  0.295157  1
  Ho  Ho3  1  0.750000  0.086416  0.795157  1
  Co  Co4  1  0.750000  0.283373  0.008910  1
  Co  Co5  1  0.750000  0.216627  0.508910  1
  Co  Co6  1  0.250000  0.406413  0.487941  1
  Co  Co7  1  0.250000  0.093587  0.987941  1
  Co  Co8  1  0.750000  0.591827  0.510333  1
  Co  Co9  1  0.750000  0.908173  0.010333  1
  Co  Co10  1  0.250000  0.220352  0.177115  1
  Co  Co11  1  0.250000  0.279648  0.677115  1
  Co  Co12  1  0.750000  0.777293  0.822659  1
  Co  Co13  1  0.750000  0.722707  0.322659  1
  Co  Co14  1  0.250000  0.887265  0.701858  1
  Co  Co15  1  0.250000  0.612735  0.201858  1
  Co  Co16  1  0.750000  0.115960  0.300908  1
  Co  Co17  1  0.750000  0.384040  0.800908  1
  Co  Co18  1  0.250000  0.464972  0.932653  1
  Co  Co19  1  0.250000  0.035028  0.432653  1
  Co  Co20  1  0.750000  0.533473  0.068985  1
  Co  Co21  1  0.750000  0.966527  0.568985  1
  P  P22  1  0.250000  0.416202  0.112517  1
  P  P23  1  0.250000  0.083798  0.612517  1
  P  P24  1  0.750000  0.578333  0.886426  1
  P  P25  1  0.750000  0.921667  0.386426  1
  P  P26  1  0.250000  0.270111  0.869533  1
  P  P27  1  0.250000  0.229889  0.369533  1
  P  P28  1  0.750000  0.729584  0.132436  1
  P  P29  1  0.750000  0.770416  0.632436  1
  P  P30  1  0.250000  0.593564  0.389989  1
  P  P31  1  0.250000  0.906436  0.889989  1
  P  P32  1  0.750000  0.397524  0.608758  1
  P  P33  1  0.750000  0.102476  0.108758  1
  Os  Os34  1  0.250000  0.715175  0.991775  1
  Os  Os35  1  0.250000  0.784825  0.491775  1
