# generated using pymatgen
data_Th8Mn3Si12Pd
_symmetry_space_group_name_H-M   'P 1'
_cell_length_a   8.23878800
_cell_length_b   8.23878489
_cell_length_c   8.33725500
_cell_angle_alpha   90.00000000
_cell_angle_beta   90.00000000
_cell_angle_gamma   119.99993756
_symmetry_Int_Tables_number   1
_chemical_formula_structural   Th8Mn3Si12Pd
_chemical_formula_sum   'Th8 Mn3 Si12 Pd1'
_cell_volume   490.09523648
_cell_formula_units_Z   1
loop_
 _symmetry_equiv_pos_site_id
 _symmetry_equiv_pos_as_xyz
  1  'x, y, z'
loop_
 _atom_site_type_symbol
 _atom_site_label
 _atom_site_symmetry_multiplicity
 _atom_site_fract_x
 _atom_site_fract_y
 _atom_site_fract_z
 _atom_site_occupancy
  Th  Th0  1  0.497838  0.502161  0.756243  1
  Th  Th1  1  0.498109  0.501890  0.243756  1
  Th  Th2  1  0.004321  0.502161  0.756243  1
  Th  Th3  1  0.003781  0.501890  0.243756  1
  Th  Th4  1  0.497838  0.995678  0.756243  1
  Th  Th5  1  0.498109  0.996220  0.243755  1
  Th  Th6  1  0.999999  0.000000  0.750159  1
  Th  Th7  1  0.000000  0.000000  0.249863  1
  Mn  Mn8  1  0.666668  0.333332  0.999839  1
  Mn  Mn9  1  0.333348  0.666663  0.000208  1
  Mn  Mn10  1  0.333330  0.666670  0.499626  1
  Si  Si11  1  0.831412  0.168587  0.999781  1
  Si  Si12  1  0.169882  0.830117  0.000212  1
  Si  Si13  1  0.337174  0.168588  0.999781  1
  Si  Si14  1  0.170098  0.829901  0.499789  1
  Si  Si15  1  0.660234  0.830117  0.000212  1
  Si  Si16  1  0.836034  0.163966  0.500202  1
  Si  Si17  1  0.831412  0.662826  0.999781  1
  Si  Si18  1  0.659802  0.829901  0.499789  1
  Si  Si19  1  0.169883  0.339766  0.000212  1
  Si  Si20  1  0.327931  0.163966  0.500201  1
  Si  Si21  1  0.170099  0.340198  0.499789  1
  Si  Si22  1  0.836033  0.672069  0.500201  1
  Pd  Pd23  1  0.666666  0.333333  0.500360  1
