# generated using pymatgen
data_CaDy6CoCl12
_symmetry_space_group_name_H-M   'P 1'
_cell_length_a   8.79753269
_cell_length_b   8.79753298
_cell_length_c   8.79753305
_cell_angle_alpha   106.34186112
_cell_angle_beta   106.34185087
_cell_angle_gamma   106.34185935
_symmetry_Int_Tables_number   1
_chemical_formula_structural   CaDy6CoCl12
_chemical_formula_sum   'Ca1 Dy6 Co1 Cl12'
_cell_volume   576.93721962
_cell_formula_units_Z   1
loop_
 _symmetry_equiv_pos_site_id
 _symmetry_equiv_pos_as_xyz
  1  'x, y, z'
loop_
 _atom_site_type_symbol
 _atom_site_label
 _atom_site_symmetry_multiplicity
 _atom_site_fract_x
 _atom_site_fract_y
 _atom_site_fract_z
 _atom_site_occupancy
  Ca  Ca0  1  0.500000  0.500000  0.500000  1
  Dy  Dy1  1  0.313256  0.103521  0.021583  1
  Dy  Dy2  1  0.103521  0.021583  0.313256  1
  Dy  Dy3  1  0.021583  0.313256  0.103521  1
  Dy  Dy4  1  0.686744  0.896479  0.978417  1
  Dy  Dy5  1  0.896479  0.978417  0.686744  1
  Dy  Dy6  1  0.978417  0.686744  0.896479  1
  Co  Co7  1  0.000000  0.000000  0.000000  1
  Cl  Cl8  1  0.217399  0.071699  0.678206  1
  Cl  Cl9  1  0.071699  0.678206  0.217399  1
  Cl  Cl10  1  0.678206  0.217399  0.071699  1
  Cl  Cl11  1  0.782601  0.928301  0.321794  1
  Cl  Cl12  1  0.928301  0.321794  0.782601  1
  Cl  Cl13  1  0.321794  0.782601  0.928301  1
  Cl  Cl14  1  0.370946  0.448311  0.156744  1
  Cl  Cl15  1  0.448311  0.156744  0.370946  1
  Cl  Cl16  1  0.156744  0.370946  0.448311  1
  Cl  Cl17  1  0.629054  0.551689  0.843256  1
  Cl  Cl18  1  0.551689  0.843256  0.629054  1
  Cl  Cl19  1  0.843256  0.629054  0.551689  1
