# generated using pymatgen
data_La4Zn4Pd3Rh
_symmetry_space_group_name_H-M   'P 1'
_cell_length_a   4.09838100
_cell_length_b   7.59687403
_cell_length_c   16.83780731
_cell_angle_alpha   90.49856485
_cell_angle_beta   90.00000000
_cell_angle_gamma   90.00000000
_symmetry_Int_Tables_number   1
_chemical_formula_structural   La4Zn4Pd3Rh
_chemical_formula_sum   'La8 Zn8 Pd6 Rh2'
_cell_volume   524.22333336
_cell_formula_units_Z   2
loop_
 _symmetry_equiv_pos_site_id
 _symmetry_equiv_pos_as_xyz
  1  'x, y, z'
loop_
 _atom_site_type_symbol
 _atom_site_label
 _atom_site_symmetry_multiplicity
 _atom_site_fract_x
 _atom_site_fract_y
 _atom_site_fract_z
 _atom_site_occupancy
  La  La0  1  0.750000  0.327670  0.442335  1
  La  La1  1  0.250000  0.042279  0.716926  1
  La  La2  1  0.250000  0.553981  0.780529  1
  La  La3  1  0.250000  0.676830  0.562464  1
  La  La4  1  0.750000  0.829023  0.058507  1
  La  La5  1  0.250000  0.175944  0.945945  1
  La  La6  1  0.750000  0.443868  0.212768  1
  La  La7  1  0.750000  0.949784  0.283002  1
  Zn  Zn8  1  0.250000  0.122477  0.147869  1
  Zn  Zn9  1  0.250000  0.999581  0.439950  1
  Zn  Zn10  1  0.750000  0.877279  0.848466  1
  Zn  Zn11  1  0.750000  0.000220  0.561654  1
  Zn  Zn12  1  0.250000  0.499876  0.060175  1
  Zn  Zn13  1  0.750000  0.381766  0.650952  1
  Zn  Zn14  1  0.750000  0.499894  0.940126  1
  Zn  Zn15  1  0.250000  0.620037  0.348998  1
  Pd  Pd16  1  0.750000  0.252986  0.815325  1
  Pd  Pd17  1  0.250000  0.245531  0.316145  1
  Pd  Pd18  1  0.250000  0.740835  0.932918  1
  Pd  Pd19  1  0.250000  0.238637  0.568206  1
  Pd  Pd20  1  0.250000  0.746396  0.184854  1
  Pd  Pd21  1  0.750000  0.762049  0.432275  1
  Rh  Rh22  1  0.750000  0.263765  0.066871  1
  Rh  Rh23  1  0.750000  0.749291  0.682739  1
