# generated using pymatgen
data_Er7Co6Sn22Au
_symmetry_space_group_name_H-M   'P 1'
_cell_length_a   9.63764300
_cell_length_b   9.63764267
_cell_length_c   9.93636600
_cell_angle_alpha   90.00000000
_cell_angle_beta   90.00000000
_cell_angle_gamma   120.00000457
_symmetry_Int_Tables_number   1
_chemical_formula_structural   Er7Co6Sn22Au
_chemical_formula_sum   'Er7 Co6 Sn22 Au1'
_cell_volume   799.28165816
_cell_formula_units_Z   1
loop_
 _symmetry_equiv_pos_site_id
 _symmetry_equiv_pos_as_xyz
  1  'x, y, z'
loop_
 _atom_site_type_symbol
 _atom_site_label
 _atom_site_symmetry_multiplicity
 _atom_site_fract_x
 _atom_site_fract_y
 _atom_site_fract_z
 _atom_site_occupancy
  Er  Er0  1  0.479325  0.520675  0.306523  1
  Er  Er1  1  0.520675  0.479325  0.693477  1
  Er  Er2  1  0.479325  0.958651  0.306523  1
  Er  Er3  1  0.520675  0.041349  0.693477  1
  Er  Er4  1  0.041349  0.520675  0.306523  1
  Er  Er5  1  0.958651  0.479325  0.693477  1
  Er  Er6  1  0.000000  0.000000  0.000000  1
  Co  Co7  1  0.832109  0.167891  0.197242  1
  Co  Co8  1  0.167891  0.832109  0.802758  1
  Co  Co9  1  0.832109  0.664219  0.197242  1
  Co  Co10  1  0.167891  0.335781  0.802758  1
  Co  Co11  1  0.335781  0.167891  0.197242  1
  Co  Co12  1  0.664219  0.832109  0.802758  1
  Sn  Sn13  1  0.114354  0.885646  0.277244  1
  Sn  Sn14  1  0.885646  0.114354  0.722756  1
  Sn  Sn15  1  0.114354  0.228707  0.277244  1
  Sn  Sn16  1  0.885646  0.771293  0.722756  1
  Sn  Sn17  1  0.771293  0.885646  0.277244  1
  Sn  Sn18  1  0.228707  0.114354  0.722756  1
  Sn  Sn19  1  0.782285  0.217715  0.453556  1
  Sn  Sn20  1  0.217715  0.782285  0.546444  1
  Sn  Sn21  1  0.782285  0.564570  0.453556  1
  Sn  Sn22  1  0.217715  0.435430  0.546444  1
  Sn  Sn23  1  0.435430  0.217715  0.453556  1
  Sn  Sn24  1  0.564570  0.782285  0.546444  1
  Sn  Sn25  1  0.345971  0.000000  0.000000  1
  Sn  Sn26  1  0.654029  0.000000  0.000000  1
  Sn  Sn27  1  0.000000  0.345971  0.000000  1
  Sn  Sn28  1  0.000000  0.654029  0.000000  1
  Sn  Sn29  1  0.654029  0.654029  0.000000  1
  Sn  Sn30  1  0.345971  0.345971  0.000000  1
  Sn  Sn31  1  0.333333  0.666667  0.120775  1
  Sn  Sn32  1  0.666667  0.333333  0.879225  1
  Sn  Sn33  1  0.333333  0.666667  0.818703  1
  Sn  Sn34  1  0.666667  0.333333  0.181297  1
  Au  Au35  1  0.000000  0.000000  0.500000  1
