# generated using pymatgen
data_BaLiDyO3
_symmetry_space_group_name_H-M   'P 1'
_cell_length_a   6.08779069
_cell_length_b   6.08779075
_cell_length_c   8.77277200
_cell_angle_alpha   90.00000000
_cell_angle_beta   90.00000000
_cell_angle_gamma   146.35749247
_symmetry_Int_Tables_number   1
_chemical_formula_structural   BaLiDyO3
_chemical_formula_sum   'Ba2 Li2 Dy2 O6'
_cell_volume   180.12473524
_cell_formula_units_Z   2
loop_
 _symmetry_equiv_pos_site_id
 _symmetry_equiv_pos_as_xyz
  1  'x, y, z'
loop_
 _atom_site_type_symbol
 _atom_site_label
 _atom_site_symmetry_multiplicity
 _atom_site_fract_x
 _atom_site_fract_y
 _atom_site_fract_z
 _atom_site_occupancy
  Ba  Ba0  1  0.759305  0.240697  0.250000  1
  Ba  Ba1  1  0.240697  0.759305  0.750000  1
  Li  Li2  1  0.032488  0.967513  0.250000  1
  Li  Li3  1  0.967513  0.032488  0.750000  1
  Dy  Dy4  1  0.500001  0.500001  0.000000  1
  Dy  Dy5  1  0.500001  0.500001  0.500000  1
  O  O6  1  0.119611  0.880390  0.066095  1
  O  O7  1  0.444630  0.555372  0.250000  1
  O  O8  1  0.119611  0.880390  0.433905  1
  O  O9  1  0.880390  0.119611  0.566095  1
  O  O10  1  0.555372  0.444630  0.750000  1
  O  O11  1  0.880390  0.119611  0.933905  1
