# generated using pymatgen
data_Sc5U3(TcB6)4
_symmetry_space_group_name_H-M   'P 1'
_cell_length_a   3.58365500
_cell_length_b   8.94630584
_cell_length_c   11.28334407
_cell_angle_alpha   90.10126532
_cell_angle_beta   90.00000000
_cell_angle_gamma   90.00000000
_symmetry_Int_Tables_number   1
_chemical_formula_structural   Sc5U3(TcB6)4
_chemical_formula_sum   'Sc5 U3 Tc4 B24'
_cell_volume   361.74879057
_cell_formula_units_Z   1
loop_
 _symmetry_equiv_pos_site_id
 _symmetry_equiv_pos_as_xyz
  1  'x, y, z'
loop_
 _atom_site_type_symbol
 _atom_site_label
 _atom_site_symmetry_multiplicity
 _atom_site_fract_x
 _atom_site_fract_y
 _atom_site_fract_z
 _atom_site_occupancy
  Sc  Sc0  1  0.000000  0.183113  0.913631  1
  Sc  Sc1  1  0.000000  0.945887  0.373565  1
  Sc  Sc2  1  0.000000  0.055684  0.627816  1
  Sc  Sc3  1  0.000000  0.442980  0.124222  1
  Sc  Sc4  1  0.000000  0.553443  0.874229  1
  U  U5  1  0.000000  0.321426  0.413957  1
  U  U6  1  0.000000  0.678166  0.586952  1
  U  U7  1  0.000000  0.822589  0.085329  1
  Tc  Tc8  1  0.000000  0.640339  0.320059  1
  Tc  Tc9  1  0.000000  0.360405  0.679273  1
  Tc  Tc10  1  0.000000  0.139670  0.180850  1
  Tc  Tc11  1  0.000000  0.859369  0.819790  1
  B  B12  1  0.500000  0.553223  0.433787  1
  B  B13  1  0.500000  0.446560  0.566181  1
  B  B14  1  0.500000  0.053736  0.065596  1
  B  B15  1  0.500000  0.946296  0.933996  1
  B  B16  1  0.500000  0.753265  0.420160  1
  B  B17  1  0.500000  0.246674  0.580922  1
  B  B18  1  0.500000  0.252040  0.078014  1
  B  B19  1  0.500000  0.747292  0.920565  1
  B  B20  1  0.500000  0.795033  0.264239  1
  B  B21  1  0.500000  0.204698  0.736713  1
  B  B22  1  0.500000  0.295136  0.234186  1
  B  B23  1  0.500000  0.704885  0.765131  1
  B  B24  1  0.500000  0.630347  0.181732  1
  B  B25  1  0.500000  0.368785  0.818108  1
  B  B26  1  0.500000  0.131014  0.317377  1
  B  B27  1  0.500000  0.869690  0.683257  1
  B  B28  1  0.500000  0.980955  0.213065  1
  B  B29  1  0.500000  0.020477  0.787552  1
  B  B30  1  0.500000  0.480728  0.285256  1
  B  B31  1  0.500000  0.518444  0.714635  1
  B  B32  1  0.500000  0.600233  0.027444  1
  B  B33  1  0.500000  0.397136  0.971623  1
  B  B34  1  0.500000  0.101456  0.472681  1
  B  B35  1  0.500000  0.898828  0.528109  1
