# generated using pymatgen
data_Dy2(ThRu)3
_symmetry_space_group_name_H-M   'P 1'
_cell_length_a   6.56802200
_cell_length_b   8.27323203
_cell_length_c   8.27121905
_cell_angle_alpha   120.00805048
_cell_angle_beta   90.00000000
_cell_angle_gamma   90.00000000
_symmetry_Int_Tables_number   1
_chemical_formula_structural   Dy2(ThRu)3
_chemical_formula_sum   'Dy4 Th6 Ru6'
_cell_volume   389.20169377
_cell_formula_units_Z   2
loop_
 _symmetry_equiv_pos_site_id
 _symmetry_equiv_pos_as_xyz
  1  'x, y, z'
loop_
 _atom_site_type_symbol
 _atom_site_label
 _atom_site_symmetry_multiplicity
 _atom_site_fract_x
 _atom_site_fract_y
 _atom_site_fract_z
 _atom_site_occupancy
  Dy  Dy0  1  0.499996  0.333361  0.666719  1
  Dy  Dy1  1  0.499996  0.666643  0.333281  1
  Dy  Dy2  1  0.999996  0.666639  0.333281  1
  Dy  Dy3  1  0.999996  0.333358  0.666719  1
  Th  Th4  1  0.749997  0.251985  0.000000  1
  Th  Th5  1  0.750001  0.748020  0.747994  1
  Th  Th6  1  0.750001  0.000025  0.252006  1
  Th  Th7  1  0.249997  0.748015  0.000000  1
  Th  Th8  1  0.250001  0.251980  0.252006  1
  Th  Th9  1  0.250001  0.999975  0.747994  1
  Ru  Ru10  1  0.750014  0.628556  0.000000  1
  Ru  Ru11  1  0.749998  0.371435  0.371435  1
  Ru  Ru12  1  0.749998  0.000000  0.628565  1
  Ru  Ru13  1  0.250014  0.371444  0.000000  1
  Ru  Ru14  1  0.249998  0.628565  0.628565  1
  Ru  Ru15  1  0.249998  0.000000  0.371435  1
