# generated using pymatgen
data_Ca5Ga3As9Rh19
_symmetry_space_group_name_H-M   'P 1'
_cell_length_a   13.18823700
_cell_length_b   13.18823738
_cell_length_c   4.03184300
_cell_angle_alpha   90.00000000
_cell_angle_beta   90.00000000
_cell_angle_gamma   119.99999654
_symmetry_Int_Tables_number   1
_chemical_formula_structural   Ca5Ga3As9Rh19
_chemical_formula_sum   'Ca5 Ga3 As9 Rh19'
_cell_volume   607.30626002
_cell_formula_units_Z   1
loop_
 _symmetry_equiv_pos_site_id
 _symmetry_equiv_pos_as_xyz
  1  'x, y, z'
loop_
 _atom_site_type_symbol
 _atom_site_label
 _atom_site_symmetry_multiplicity
 _atom_site_fract_x
 _atom_site_fract_y
 _atom_site_fract_z
 _atom_site_occupancy
  Ca  Ca0  1  0.999073  0.184349  0.500000  1
  Ca  Ca1  1  0.815651  0.814724  0.500000  1
  Ca  Ca2  1  0.185276  0.000927  0.500000  1
  Ca  Ca3  1  0.666667  0.333333  0.000000  1
  Ca  Ca4  1  0.333333  0.666667  0.000000  1
  Ga  Ga5  1  0.482490  0.320473  0.500000  1
  Ga  Ga6  1  0.679527  0.162017  0.500000  1
  Ga  Ga7  1  0.837983  0.517510  0.500000  1
  As  As8  1  0.819288  0.999177  0.000000  1
  As  As9  1  0.179889  0.180712  0.000000  1
  As  As10  1  0.000823  0.820111  0.000000  1
  As  As11  1  0.368912  0.002657  0.000000  1
  As  As12  1  0.517578  0.833743  0.500000  1
  As  As13  1  0.166257  0.683835  0.500000  1
  As  As14  1  0.316165  0.482422  0.500000  1
  As  As15  1  0.997343  0.366256  0.000000  1
  As  As16  1  0.633744  0.631088  0.000000  1
  Rh  Rh17  1  0.806865  0.178120  0.000000  1
  Rh  Rh18  1  0.371255  0.193135  0.000000  1
  Rh  Rh19  1  0.647058  0.524425  0.500000  1
  Rh  Rh20  1  0.877367  0.352942  0.500000  1
  Rh  Rh21  1  0.357252  0.871746  0.500000  1
  Rh  Rh22  1  0.514494  0.642748  0.500000  1
  Rh  Rh23  1  0.128254  0.485506  0.500000  1
  Rh  Rh24  1  0.821880  0.628745  0.000000  1
  Rh  Rh25  1  0.623064  0.817083  0.000000  1
  Rh  Rh26  1  0.182917  0.805981  0.000000  1
  Rh  Rh27  1  0.194019  0.376936  0.000000  1
  Rh  Rh28  1  0.005016  0.720700  0.500000  1
  Rh  Rh29  1  0.279300  0.284316  0.500000  1
  Rh  Rh30  1  0.715684  0.994984  0.500000  1
  Rh  Rh31  1  0.001192  0.552163  0.000000  1
  Rh  Rh32  1  0.447837  0.449028  0.000000  1
  Rh  Rh33  1  0.550972  0.998808  0.000000  1
  Rh  Rh34  1  0.000000  0.000000  0.000000  1
  Rh  Rh35  1  0.475575  0.122633  0.500000  1
