# generated using pymatgen
data_Sr7Nd(BeSi3)4
_symmetry_space_group_name_H-M   'P 1'
_cell_length_a   8.01528500
_cell_length_b   8.02764573
_cell_length_c   9.30277500
_cell_angle_alpha   90.00000000
_cell_angle_beta   90.00000000
_cell_angle_gamma   119.94907374
_symmetry_Int_Tables_number   1
_chemical_formula_structural   Sr7Nd(BeSi3)4
_chemical_formula_sum   'Sr7 Nd1 Be4 Si12'
_cell_volume   518.64829345
_cell_formula_units_Z   1
loop_
 _symmetry_equiv_pos_site_id
 _symmetry_equiv_pos_as_xyz
  1  'x, y, z'
loop_
 _atom_site_type_symbol
 _atom_site_label
 _atom_site_symmetry_multiplicity
 _atom_site_fract_x
 _atom_site_fract_y
 _atom_site_fract_z
 _atom_site_occupancy
  Sr  Sr0  1  0.000011  0.000022  0.750000  1
  Sr  Sr1  1  0.000034  0.000068  0.250000  1
  Sr  Sr2  1  0.499947  0.499953  0.750000  1
  Sr  Sr3  1  0.499974  0.999949  0.750000  1
  Sr  Sr4  1  0.000005  0.499953  0.750000  1
  Sr  Sr5  1  0.500152  0.499884  0.250000  1
  Sr  Sr6  1  0.999732  0.499884  0.250000  1
  Nd  Nd7  1  0.499839  0.999676  0.250000  1
  Be  Be8  1  0.666257  0.332513  0.009742  1
  Be  Be9  1  0.666257  0.332513  0.490258  1
  Be  Be10  1  0.333808  0.667618  0.489701  1
  Be  Be11  1  0.333808  0.667618  0.010299  1
  Si  Si12  1  0.825251  0.170655  0.003862  1
  Si  Si13  1  0.828780  0.657560  0.000391  1
  Si  Si14  1  0.345404  0.170655  0.003862  1
  Si  Si15  1  0.825251  0.170655  0.496138  1
  Si  Si16  1  0.828780  0.657560  0.499609  1
  Si  Si17  1  0.345404  0.170655  0.496138  1
  Si  Si18  1  0.174706  0.829359  0.495819  1
  Si  Si19  1  0.654653  0.829359  0.495819  1
  Si  Si20  1  0.171293  0.342586  0.498919  1
  Si  Si21  1  0.174706  0.829359  0.004181  1
  Si  Si22  1  0.654653  0.829359  0.004181  1
  Si  Si23  1  0.171293  0.342586  0.001081  1
