# generated using pymatgen
data_LaCdInIr9
_symmetry_space_group_name_H-M   'P 1'
_cell_length_a   8.94866710
_cell_length_b   8.94866710
_cell_length_c   5.19902300
_cell_angle_alpha   90.00000000
_cell_angle_beta   90.00000000
_cell_angle_gamma   89.89035986
_symmetry_Int_Tables_number   1
_chemical_formula_structural   LaCdInIr9
_chemical_formula_sum   'La2 Cd2 In2 Ir18'
_cell_volume   416.32994344
_cell_formula_units_Z   2
loop_
 _symmetry_equiv_pos_site_id
 _symmetry_equiv_pos_as_xyz
  1  'x, y, z'
loop_
 _atom_site_type_symbol
 _atom_site_label
 _atom_site_symmetry_multiplicity
 _atom_site_fract_x
 _atom_site_fract_y
 _atom_site_fract_z
 _atom_site_occupancy
  La  La0  1  0.500000  0.500000  0.000000  1
  La  La1  1  0.000000  0.000000  0.000000  1
  Cd  Cd2  1  0.618543  0.118543  0.000000  1
  Cd  Cd3  1  0.381457  0.881457  0.000000  1
  In  In4  1  0.120631  0.379369  0.000000  1
  In  In5  1  0.879369  0.620631  0.000000  1
  Ir  Ir6  1  0.500000  0.000000  0.500000  1
  Ir  Ir7  1  0.000000  0.500000  0.500000  1
  Ir  Ir8  1  0.703281  0.557166  0.500000  1
  Ir  Ir9  1  0.296719  0.442834  0.500000  1
  Ir  Ir10  1  0.204441  0.942334  0.500000  1
  Ir  Ir11  1  0.795559  0.057666  0.500000  1
  Ir  Ir12  1  0.442334  0.704441  0.500000  1
  Ir  Ir13  1  0.557666  0.295559  0.500000  1
  Ir  Ir14  1  0.057166  0.203281  0.500000  1
  Ir  Ir15  1  0.942834  0.796719  0.500000  1
  Ir  Ir16  1  0.820023  0.320023  0.757384  1
  Ir  Ir17  1  0.179977  0.679977  0.757384  1
  Ir  Ir18  1  0.319365  0.180635  0.757324  1
  Ir  Ir19  1  0.680635  0.819365  0.757324  1
  Ir  Ir20  1  0.179977  0.679977  0.242616  1
  Ir  Ir21  1  0.820023  0.320023  0.242616  1
  Ir  Ir22  1  0.680635  0.819365  0.242676  1
  Ir  Ir23  1  0.319365  0.180635  0.242676  1
