# generated using pymatgen
data_Ho2Tm14In6NiRu
_symmetry_space_group_name_H-M   'P 1'
_cell_length_a   10.28742140
_cell_length_b   10.28746553
_cell_length_c   6.92558002
_cell_angle_alpha   90.00654096
_cell_angle_beta   89.99329754
_cell_angle_gamma   119.96619050
_symmetry_Int_Tables_number   1
_chemical_formula_structural   Ho2Tm14In6NiRu
_chemical_formula_sum   'Ho2 Tm14 In6 Ni1 Ru1'
_cell_volume   634.96466819
_cell_formula_units_Z   1
loop_
 _symmetry_equiv_pos_site_id
 _symmetry_equiv_pos_as_xyz
  1  'x, y, z'
loop_
 _atom_site_type_symbol
 _atom_site_label
 _atom_site_symmetry_multiplicity
 _atom_site_fract_x
 _atom_site_fract_y
 _atom_site_fract_z
 _atom_site_occupancy
  Ho  Ho0  1  0.532175  0.064026  0.515769  1
  Ho  Ho1  1  0.935966  0.467822  0.515760  1
  Tm  Tm2  1  0.532246  0.467754  0.516438  1
  Tm  Tm3  1  0.465964  0.932315  0.016480  1
  Tm  Tm4  1  0.067689  0.534037  0.016476  1
  Tm  Tm5  1  0.466412  0.533586  0.017191  1
  Tm  Tm6  1  0.177695  0.354132  0.722205  1
  Tm  Tm7  1  0.645869  0.822305  0.722204  1
  Tm  Tm8  1  0.176917  0.823084  0.722130  1
  Tm  Tm9  1  0.821817  0.644324  0.220077  1
  Tm  Tm10  1  0.355671  0.178180  0.220077  1
  Tm  Tm11  1  0.821949  0.178050  0.218309  1
  Tm  Tm12  1  0.666429  0.333571  0.901782  1
  Tm  Tm13  1  0.333591  0.666410  0.393885  1
  Tm  Tm14  1  0.999880  0.000120  0.497451  1
  Tm  Tm15  1  0.000102  0.999897  0.003198  1
  In  In16  1  0.836798  0.673387  0.760013  1
  In  In17  1  0.326620  0.163205  0.760014  1
  In  In18  1  0.837208  0.162788  0.759286  1
  In  In19  1  0.161233  0.323097  0.260261  1
  In  In20  1  0.676904  0.838768  0.260275  1
  In  In21  1  0.161555  0.838454  0.260323  1
  Ni  Ni22  1  0.665912  0.334083  0.288134  1
  Ru  Ru23  1  0.333399  0.666603  0.790263  1
