# generated using pymatgen
data_Li4Ca3TmSi7Ge
_symmetry_space_group_name_H-M   'P 1'
_cell_length_a   3.80491700
_cell_length_b   7.87179138
_cell_length_c   10.50135655
_cell_angle_alpha   89.88235287
_cell_angle_beta   90.00000000
_cell_angle_gamma   90.00000000
_symmetry_Int_Tables_number   1
_chemical_formula_structural   Li4Ca3TmSi7Ge
_chemical_formula_sum   'Li4 Ca3 Tm1 Si7 Ge1'
_cell_volume   314.53085263
_cell_formula_units_Z   1
loop_
 _symmetry_equiv_pos_site_id
 _symmetry_equiv_pos_as_xyz
  1  'x, y, z'
loop_
 _atom_site_type_symbol
 _atom_site_label
 _atom_site_symmetry_multiplicity
 _atom_site_fract_x
 _atom_site_fract_y
 _atom_site_fract_z
 _atom_site_occupancy
  Li  Li0  1  0.250000  0.997224  0.388347  1
  Li  Li1  1  0.750000  0.001158  0.609716  1
  Li  Li2  1  0.250000  0.495959  0.109041  1
  Li  Li3  1  0.750000  0.509443  0.888313  1
  Ca  Ca4  1  0.750000  0.867755  0.136275  1
  Ca  Ca5  1  0.250000  0.634438  0.637141  1
  Ca  Ca6  1  0.750000  0.362443  0.365263  1
  Tm  Tm7  1  0.250000  0.128979  0.865121  1
  Si  Si8  1  0.750000  0.266373  0.058532  1
  Si  Si9  1  0.750000  0.766497  0.432136  1
  Si  Si10  1  0.250000  0.225771  0.575607  1
  Si  Si11  1  0.750000  0.849555  0.821074  1
  Si  Si12  1  0.250000  0.163669  0.168199  1
  Si  Si13  1  0.750000  0.329896  0.684605  1
  Si  Si14  1  0.250000  0.663081  0.324514  1
  Ge  Ge15  1  0.250000  0.737758  0.936115  1
