# generated using pymatgen
data_TiBeSi5W9
_symmetry_space_group_name_H-M   'P 1'
_cell_length_a   7.25345348
_cell_length_b   7.25267249
_cell_length_c   7.23510565
_cell_angle_alpha   96.71664410
_cell_angle_beta   96.84511034
_cell_angle_gamma   139.87400263
_symmetry_Int_Tables_number   1
_chemical_formula_structural   TiBeSi5W9
_chemical_formula_sum   'Ti1 Be1 Si5 W9'
_cell_volume   230.30925396
_cell_formula_units_Z   1
loop_
 _symmetry_equiv_pos_site_id
 _symmetry_equiv_pos_as_xyz
  1  'x, y, z'
loop_
 _atom_site_type_symbol
 _atom_site_label
 _atom_site_symmetry_multiplicity
 _atom_site_fract_x
 _atom_site_fract_y
 _atom_site_fract_z
 _atom_site_occupancy
  Ti  Ti0  1  0.726614  0.578807  0.295599  1
  Be  Be1  1  0.750737  0.750524  0.999148  1
  Si  Si2  1  0.249021  0.248174  0.000133  1
  Si  Si3  1  0.331573  0.168079  0.499520  1
  Si  Si4  1  0.830370  0.332459  0.162364  1
  Si  Si5  1  0.170198  0.668970  0.838922  1
  Si  Si6  1  0.669037  0.831625  0.500398  1
  W  W7  1  0.281169  0.429567  0.702447  1
  W  W8  1  0.749777  0.251521  0.499653  1
  W  W9  1  0.248380  0.750172  0.499545  1
  W  W10  1  0.579326  0.283170  0.854657  1
  W  W11  1  0.432819  0.725230  0.149208  1
  W  W12  1  0.773248  0.068625  0.851419  1
  W  W13  1  0.921966  0.774132  0.704934  1
  W  W14  1  0.067736  0.216373  0.294590  1
  W  W15  1  0.218030  0.922572  0.147459  1
