# generated using pymatgen
data_Cd5Pd12PbAu6
_symmetry_space_group_name_H-M   'P 1'
_cell_length_a   4.29644300
_cell_length_b   7.53991100
_cell_length_c   12.86682300
_cell_angle_alpha   89.99989337
_cell_angle_beta   90.00084392
_cell_angle_gamma   89.99975080
_symmetry_Int_Tables_number   1
_chemical_formula_structural   Cd5Pd12PbAu6
_chemical_formula_sum   'Cd5 Pd12 Pb1 Au6'
_cell_volume   416.81812994
_cell_formula_units_Z   1
loop_
 _symmetry_equiv_pos_site_id
 _symmetry_equiv_pos_as_xyz
  1  'x, y, z'
loop_
 _atom_site_type_symbol
 _atom_site_label
 _atom_site_symmetry_multiplicity
 _atom_site_fract_x
 _atom_site_fract_y
 _atom_site_fract_z
 _atom_site_occupancy
  Cd  Cd0  1  0.500003  0.500000  0.166582  1
  Cd  Cd1  1  0.999998  0.000000  0.335256  1
  Cd  Cd2  1  0.500001  0.500000  0.500000  1
  Cd  Cd3  1  0.000002  0.000000  0.664744  1
  Cd  Cd4  1  0.499997  0.500000  0.833419  1
  Pd  Pd5  1  0.500000  0.246612  0.000000  1
  Pd  Pd6  1  0.500000  0.753388  0.000000  1
  Pd  Pd7  1  0.000002  0.250711  0.166592  1
  Pd  Pd8  1  0.000002  0.749290  0.166592  1
  Pd  Pd9  1  0.500001  0.253444  0.334559  1
  Pd  Pd10  1  0.499998  0.746556  0.334559  1
  Pd  Pd11  1  0.000000  0.249631  0.500000  1
  Pd  Pd12  1  0.000000  0.750369  0.500000  1
  Pd  Pd13  1  0.500001  0.253443  0.665441  1
  Pd  Pd14  1  0.499998  0.746555  0.665441  1
  Pd  Pd15  1  0.999998  0.250710  0.833408  1
  Pd  Pd16  1  0.999998  0.749289  0.833408  1
  Pb  Pb17  1  0.000000  0.000000  0.000000  1
  Au  Au18  1  0.000000  0.500000  0.000000  1
  Au  Au19  1  0.500008  0.000001  0.175143  1
  Au  Au20  1  0.000002  0.500000  0.334029  1
  Au  Au21  1  0.500001  0.000000  0.500000  1
  Au  Au22  1  0.999998  0.500000  0.665970  1
  Au  Au23  1  0.499992  0.999999  0.824857  1
