# generated using pymatgen
data_Sr5Ac3(FeO3)8
_symmetry_space_group_name_H-M   'P 1'
_cell_length_a   7.84243601
_cell_length_b   7.84243602
_cell_length_c   7.84881100
_cell_angle_alpha   90.00271778
_cell_angle_beta   90.00271778
_cell_angle_gamma   90.00316331
_symmetry_Int_Tables_number   1
_chemical_formula_structural   Sr5Ac3(FeO3)8
_chemical_formula_sum   'Sr5 Ac3 Fe8 O24'
_cell_volume   482.73172093
_cell_formula_units_Z   1
loop_
 _symmetry_equiv_pos_site_id
 _symmetry_equiv_pos_as_xyz
  1  'x, y, z'
loop_
 _atom_site_type_symbol
 _atom_site_label
 _atom_site_symmetry_multiplicity
 _atom_site_fract_x
 _atom_site_fract_y
 _atom_site_fract_z
 _atom_site_occupancy
  Sr  Sr0  1  0.249991  0.750014  0.750000  1
  Sr  Sr1  1  0.749999  0.749999  0.750001  1
  Sr  Sr2  1  0.249999  0.249999  0.750002  1
  Sr  Sr3  1  0.750014  0.249991  0.750000  1
  Sr  Sr4  1  0.249997  0.249997  0.249992  1
  Ac  Ac5  1  0.250007  0.749995  0.249996  1
  Ac  Ac6  1  0.749998  0.749998  0.249997  1
  Ac  Ac7  1  0.749995  0.250007  0.249996  1
  Fe  Fe8  1  0.498677  0.498677  0.503889  1
  Fe  Fe9  1  0.001322  0.498636  0.996145  1
  Fe  Fe10  1  0.498679  0.498679  0.996066  1
  Fe  Fe11  1  0.001349  0.498666  0.503886  1
  Fe  Fe12  1  0.001317  0.001317  0.996149  1
  Fe  Fe13  1  0.498636  0.001322  0.996145  1
  Fe  Fe14  1  0.001320  0.001320  0.503950  1
  Fe  Fe15  1  0.498666  0.001349  0.503886  1
  O  O16  1  0.999344  0.749968  0.005777  1
  O  O17  1  0.500647  0.750014  0.005762  1
  O  O18  1  0.999348  0.750012  0.494236  1
  O  O19  1  0.500664  0.750011  0.494207  1
  O  O20  1  0.997105  0.250014  0.004021  1
  O  O21  1  0.502890  0.249996  0.004008  1
  O  O22  1  0.997108  0.249997  0.496001  1
  O  O23  1  0.502910  0.249999  0.495960  1
  O  O24  1  0.999618  0.500383  0.749996  1
  O  O25  1  0.500390  0.500390  0.749988  1
  O  O26  1  0.997651  0.502351  0.249990  1
  O  O27  1  0.502366  0.502366  0.249976  1
  O  O28  1  0.999606  0.999606  0.749989  1
  O  O29  1  0.500383  0.999618  0.749996  1
  O  O30  1  0.997648  0.997648  0.250034  1
  O  O31  1  0.502351  0.997651  0.249990  1
  O  O32  1  0.249996  0.502890  0.004008  1
  O  O33  1  0.750014  0.500647  0.005762  1
  O  O34  1  0.249999  0.502910  0.495960  1
  O  O35  1  0.750011  0.500664  0.494207  1
  O  O36  1  0.250014  0.997105  0.004021  1
  O  O37  1  0.749968  0.999344  0.005777  1
  O  O38  1  0.249997  0.997108  0.496001  1
  O  O39  1  0.750012  0.999348  0.494236  1
