# generated using pymatgen
data_Sm2Y5Ho(WO6)4
_symmetry_space_group_name_H-M   'P 1'
_cell_length_a   5.43687503
_cell_length_b   7.75757038
_cell_length_c   11.53997902
_cell_angle_alpha   75.57245146
_cell_angle_beta   90.00235733
_cell_angle_gamma   89.98872178
_symmetry_Int_Tables_number   1
_chemical_formula_structural   Sm2Y5Ho(WO6)4
_chemical_formula_sum   'Sm2 Y5 Ho1 W4 O24'
_cell_volume   471.37151075
_cell_formula_units_Z   1
loop_
 _symmetry_equiv_pos_site_id
 _symmetry_equiv_pos_as_xyz
  1  'x, y, z'
loop_
 _atom_site_type_symbol
 _atom_site_label
 _atom_site_symmetry_multiplicity
 _atom_site_fract_x
 _atom_site_fract_y
 _atom_site_fract_z
 _atom_site_occupancy
  Sm  Sm0  1  0.683909  0.500241  0.749839  1
  Sm  Sm1  1  0.316009  0.500050  0.250003  1
  Y  Y2  1  0.740225  0.999813  0.749809  1
  Y  Y3  1  0.259742  0.999873  0.250176  1
  Y  Y4  1  0.813470  0.795951  0.077421  1
  Y  Y5  1  0.186582  0.204018  0.922638  1
  Y  Y6  1  0.813526  0.203811  0.422697  1
  Ho  Ho7  1  0.186362  0.795824  0.577519  1
  W  W8  1  0.253726  0.725504  0.884828  1
  W  W9  1  0.746005  0.725621  0.385285  1
  W  W10  1  0.253825  0.274736  0.614951  1
  W  W11  1  0.746146  0.274578  0.115000  1
  O  O12  1  0.042822  0.940100  0.895448  1
  O  O13  1  0.530950  0.847250  0.930364  1
  O  O14  1  0.957566  0.939794  0.395897  1
  O  O15  1  0.455244  0.791878  0.727289  1
  O  O16  1  0.467910  0.846689  0.431351  1
  O  O17  1  0.983799  0.714308  0.770908  1
  O  O18  1  0.543555  0.791821  0.228148  1
  O  O19  1  0.852707  0.639283  0.546883  1
  O  O20  1  0.354988  0.492309  0.886881  1
  O  O21  1  0.016463  0.714103  0.271571  1
  O  O22  1  0.354037  0.508395  0.613044  1
  O  O23  1  0.850995  0.361483  0.953211  1
  O  O24  1  0.149016  0.638596  0.046665  1
  O  O25  1  0.645267  0.492456  0.386992  1
  O  O26  1  0.983292  0.285734  0.728387  1
  O  O27  1  0.645062  0.507726  0.113125  1
  O  O28  1  0.148950  0.361378  0.453298  1
  O  O29  1  0.456469  0.208398  0.771955  1
  O  O30  1  0.016692  0.285882  0.228511  1
  O  O31  1  0.531062  0.152848  0.569448  1
  O  O32  1  0.543586  0.208255  0.272022  1
  O  O33  1  0.043908  0.058767  0.604451  1
  O  O34  1  0.469009  0.152671  0.069435  1
  O  O35  1  0.957124  0.059853  0.104549  1
