# generated using pymatgen
data_MgZrFe9Ni3P7
_symmetry_space_group_name_H-M   'P 1'
_cell_length_a   8.91126114
_cell_length_b   8.97437984
_cell_length_c   3.56299600
_cell_angle_alpha   90.00000000
_cell_angle_beta   90.00000000
_cell_angle_gamma   120.18927452
_symmetry_Int_Tables_number   1
_chemical_formula_structural   MgZrFe9Ni3P7
_chemical_formula_sum   'Mg1 Zr1 Fe9 Ni3 P7'
_cell_volume   246.29642599
_cell_formula_units_Z   1
loop_
 _symmetry_equiv_pos_site_id
 _symmetry_equiv_pos_as_xyz
  1  'x, y, z'
loop_
 _atom_site_type_symbol
 _atom_site_label
 _atom_site_symmetry_multiplicity
 _atom_site_fract_x
 _atom_site_fract_y
 _atom_site_fract_z
 _atom_site_occupancy
  Mg  Mg0  1  0.339701  0.664282  0.500000  1
  Zr  Zr1  1  0.997887  0.003230  0.000000  1
  Fe  Fe2  1  0.603199  0.704352  0.000000  1
  Fe  Fe3  1  0.824884  0.611818  0.000000  1
  Fe  Fe4  1  0.783766  0.177194  0.000000  1
  Fe  Fe5  1  0.387750  0.211719  0.000000  1
  Fe  Fe6  1  0.719701  0.949072  0.500000  1
  Fe  Fe7  1  0.228579  0.283276  0.500000  1
  Fe  Fe8  1  0.895244  0.433622  0.500000  1
  Fe  Fe9  1  0.540994  0.107282  0.500000  1
  Fe  Fe10  1  0.568829  0.455090  0.500000  1
  Ni  Ni11  1  0.104474  0.397703  0.000000  1
  Ni  Ni12  1  0.292840  0.893525  0.000000  1
  Ni  Ni13  1  0.052750  0.776483  0.500000  1
  P  P14  1  0.074923  0.624413  0.000000  1
  P  P15  1  0.553748  0.920884  0.000000  1
  P  P16  1  0.376956  0.449207  0.000000  1
  P  P17  1  0.774098  0.735559  0.500000  1
  P  P18  1  0.951047  0.212548  0.500000  1
  P  P19  1  0.262301  0.053485  0.500000  1
  P  P20  1  0.666331  0.335252  0.000000  1
