# generated using pymatgen
data_Sr2Rh3O8
_symmetry_space_group_name_H-M   'P 1'
_cell_length_a   6.57356385
_cell_length_b   6.57356346
_cell_length_c   5.36766026
_cell_angle_alpha   72.43230552
_cell_angle_beta   72.43230154
_cell_angle_gamma   57.42463080
_symmetry_Int_Tables_number   1
_chemical_formula_structural   Sr2Rh3O8
_chemical_formula_sum   'Sr2 Rh3 O8'
_cell_volume   183.51770650
_cell_formula_units_Z   1
loop_
 _symmetry_equiv_pos_site_id
 _symmetry_equiv_pos_as_xyz
  1  'x, y, z'
loop_
 _atom_site_type_symbol
 _atom_site_label
 _atom_site_symmetry_multiplicity
 _atom_site_fract_x
 _atom_site_fract_y
 _atom_site_fract_z
 _atom_site_occupancy
  Sr  Sr0  1  0.722255  0.722255  0.331549  1
  Sr  Sr1  1  0.277745  0.277745  0.668451  1
  Rh  Rh2  1  0.000000  0.000000  0.500000  1
  Rh  Rh3  1  0.744704  0.255296  0.000000  1
  Rh  Rh4  1  0.255296  0.744704  0.000000  1
  O  O5  1  0.399241  0.399241  0.960667  1
  O  O6  1  0.600759  0.600759  0.039333  1
  O  O7  1  0.905654  0.905654  0.906454  1
  O  O8  1  0.094346  0.094346  0.093546  1
  O  O9  1  0.317647  0.878131  0.612384  1
  O  O10  1  0.878131  0.317647  0.612384  1
  O  O11  1  0.121869  0.682353  0.387616  1
  O  O12  1  0.682353  0.121869  0.387616  1
