# generated using pymatgen
data_Tm3MnAl3Ga2
_symmetry_space_group_name_H-M   'P 1'
_cell_length_a   6.91741300
_cell_length_b   6.91741242
_cell_length_c   4.22516600
_cell_angle_alpha   90.00000000
_cell_angle_beta   90.00000000
_cell_angle_gamma   119.99999801
_symmetry_Int_Tables_number   1
_chemical_formula_structural   Tm3MnAl3Ga2
_chemical_formula_sum   'Tm3 Mn1 Al3 Ga2'
_cell_volume   175.09018094
_cell_formula_units_Z   1
loop_
 _symmetry_equiv_pos_site_id
 _symmetry_equiv_pos_as_xyz
  1  'x, y, z'
loop_
 _atom_site_type_symbol
 _atom_site_label
 _atom_site_symmetry_multiplicity
 _atom_site_fract_x
 _atom_site_fract_y
 _atom_site_fract_z
 _atom_site_occupancy
  Tm  Tm0  1  0.417402  0.000000  0.000000  1
  Tm  Tm1  1  0.000000  0.417401  0.000000  1
  Tm  Tm2  1  0.582598  0.582598  0.000000  1
  Mn  Mn3  1  0.000000  0.000000  0.000000  1
  Al  Al4  1  0.763097  0.000000  0.499999  1
  Al  Al5  1  0.236904  0.236904  0.499999  1
  Al  Al6  1  0.000000  0.763097  0.499999  1
  Ga  Ga7  1  0.666668  0.333334  0.499999  1
  Ga  Ga8  1  0.333334  0.666667  0.499999  1
