# generated using pymatgen
data_V2Ni3Te5
_symmetry_space_group_name_H-M   'P 1'
_cell_length_a   3.60995600
_cell_length_b   14.21677200
_cell_length_c   17.48011500
_cell_angle_alpha   90.00000000
_cell_angle_beta   90.00000000
_cell_angle_gamma   90.00000000
_symmetry_Int_Tables_number   1
_chemical_formula_structural   V2Ni3Te5
_chemical_formula_sum   'V8 Ni12 Te20'
_cell_volume   897.11308778
_cell_formula_units_Z   4
loop_
 _symmetry_equiv_pos_site_id
 _symmetry_equiv_pos_as_xyz
  1  'x, y, z'
loop_
 _atom_site_type_symbol
 _atom_site_label
 _atom_site_symmetry_multiplicity
 _atom_site_fract_x
 _atom_site_fract_y
 _atom_site_fract_z
 _atom_site_occupancy
  V  V0  1  0.250000  0.743284  0.911364  1
  V  V1  1  0.750000  0.256716  0.088636  1
  V  V2  1  0.750000  0.756716  0.411364  1
  V  V3  1  0.250000  0.243284  0.588636  1
  V  V4  1  0.250000  0.742241  0.167202  1
  V  V5  1  0.750000  0.257759  0.832798  1
  V  V6  1  0.750000  0.757759  0.667202  1
  V  V7  1  0.250000  0.242241  0.332798  1
  Ni  Ni8  1  0.250000  0.700468  0.768121  1
  Ni  Ni9  1  0.750000  0.299532  0.231879  1
  Ni  Ni10  1  0.750000  0.799532  0.268121  1
  Ni  Ni11  1  0.250000  0.200468  0.731879  1
  Ni  Ni12  1  0.250000  0.742810  0.539082  1
  Ni  Ni13  1  0.750000  0.257190  0.460918  1
  Ni  Ni14  1  0.750000  0.757190  0.039082  1
  Ni  Ni15  1  0.250000  0.242810  0.960918  1
  Ni  Ni16  1  0.250000  0.695747  0.309760  1
  Ni  Ni17  1  0.750000  0.304253  0.690240  1
  Ni  Ni18  1  0.750000  0.804253  0.809760  1
  Ni  Ni19  1  0.250000  0.195747  0.190240  1
  Te  Te20  1  0.250000  0.117384  0.061116  1
  Te  Te21  1  0.750000  0.882616  0.938884  1
  Te  Te22  1  0.750000  0.382616  0.561116  1
  Te  Te23  1  0.250000  0.617384  0.438884  1
  Te  Te24  1  0.250000  0.635540  0.038786  1
  Te  Te25  1  0.750000  0.364460  0.961214  1
  Te  Te26  1  0.750000  0.864460  0.538786  1
  Te  Te27  1  0.250000  0.135540  0.461214  1
  Te  Te28  1  0.250000  0.881541  0.345083  1
  Te  Te29  1  0.750000  0.118459  0.654917  1
  Te  Te30  1  0.750000  0.618459  0.845083  1
  Te  Te31  1  0.250000  0.381541  0.154917  1
  Te  Te32  1  0.250000  0.884606  0.731553  1
  Te  Te33  1  0.750000  0.115394  0.268447  1
  Te  Te34  1  0.750000  0.615394  0.231553  1
  Te  Te35  1  0.250000  0.384606  0.768447  1
  Te  Te36  1  0.250000  0.619014  0.640109  1
  Te  Te37  1  0.750000  0.380986  0.359891  1
  Te  Te38  1  0.750000  0.880986  0.140109  1
  Te  Te39  1  0.250000  0.119014  0.859891  1
