# generated using pymatgen
data_Dy4Ir7Ru
_symmetry_space_group_name_H-M   'P 1'
_cell_length_a   5.35188752
_cell_length_b   5.36801908
_cell_length_c   8.74043300
_cell_angle_alpha   90.00000000
_cell_angle_beta   90.00000000
_cell_angle_gamma   120.09527267
_symmetry_Int_Tables_number   1
_chemical_formula_structural   Dy4Ir7Ru
_chemical_formula_sum   'Dy4 Ir7 Ru1'
_cell_volume   217.25354449
_cell_formula_units_Z   1
loop_
 _symmetry_equiv_pos_site_id
 _symmetry_equiv_pos_as_xyz
  1  'x, y, z'
loop_
 _atom_site_type_symbol
 _atom_site_label
 _atom_site_symmetry_multiplicity
 _atom_site_fract_x
 _atom_site_fract_y
 _atom_site_fract_z
 _atom_site_occupancy
  Dy  Dy0  1  0.666814  0.333344  0.567855  1
  Dy  Dy1  1  0.333415  0.666771  0.432759  1
  Dy  Dy2  1  0.333415  0.666771  0.067241  1
  Dy  Dy3  1  0.666814  0.333344  0.932145  1
  Ir  Ir4  1  0.001761  0.000875  0.499082  1
  Ir  Ir5  1  0.001761  0.000875  0.000918  1
  Ir  Ir6  1  0.169673  0.338980  0.750000  1
  Ir  Ir7  1  0.169630  0.830677  0.750000  1
  Ir  Ir8  1  0.659855  0.829898  0.750000  1
  Ir  Ir9  1  0.828313  0.659604  0.250000  1
  Ir  Ir10  1  0.828380  0.168735  0.250000  1
  Ru  Ru11  1  0.340170  0.170127  0.250000  1
