# generated using pymatgen
data_Zr10SnBi3(BPb)2
_symmetry_space_group_name_H-M   'P 1'
_cell_length_a   8.70125312
_cell_length_b   8.67660334
_cell_length_c   5.88984000
_cell_angle_alpha   90.00000000
_cell_angle_beta   90.00000000
_cell_angle_gamma   119.90633442
_symmetry_Int_Tables_number   1
_chemical_formula_structural   Zr10SnBi3(BPb)2
_chemical_formula_sum   'Zr10 Sn1 Bi3 B2 Pb2'
_cell_volume   385.45599476
_cell_formula_units_Z   1
loop_
 _symmetry_equiv_pos_site_id
 _symmetry_equiv_pos_as_xyz
  1  'x, y, z'
loop_
 _atom_site_type_symbol
 _atom_site_label
 _atom_site_symmetry_multiplicity
 _atom_site_fract_x
 _atom_site_fract_y
 _atom_site_fract_z
 _atom_site_occupancy
  Zr  Zr0  1  0.669442  0.333816  0.002476  1
  Zr  Zr1  1  0.330558  0.664375  0.002476  1
  Zr  Zr2  1  0.330558  0.664375  0.497524  1
  Zr  Zr3  1  0.669442  0.333816  0.497524  1
  Zr  Zr4  1  0.775797  0.775190  0.750000  1
  Zr  Zr5  1  0.224203  0.999392  0.750000  1
  Zr  Zr6  1  0.000000  0.227283  0.750000  1
  Zr  Zr7  1  0.224176  0.227587  0.250000  1
  Zr  Zr8  1  0.775824  0.003412  0.250000  1
  Zr  Zr9  1  0.000000  0.771905  0.250000  1
  Sn  Sn10  1  0.000000  0.399332  0.250000  1
  Bi  Bi11  1  0.401078  0.399839  0.750000  1
  Bi  Bi12  1  0.598922  0.998760  0.750000  1
  Bi  Bi13  1  0.000000  0.598538  0.750000  1
  B  B14  1  0.000000  0.999780  0.000557  1
  B  B15  1  0.000000  0.999780  0.499443  1
  Pb  Pb16  1  0.601630  0.602226  0.250000  1
  Pb  Pb17  1  0.398370  0.000596  0.250000  1
