# generated using pymatgen
data_GdCr4AgO14
_symmetry_space_group_name_H-M   'P 1'
_cell_length_a   7.33024054
_cell_length_b   7.33131270
_cell_length_c   7.33145880
_cell_angle_alpha   112.03956445
_cell_angle_beta   108.20357639
_cell_angle_gamma   108.20608482
_symmetry_Int_Tables_number   1
_chemical_formula_structural   GdCr4AgO14
_chemical_formula_sum   'Gd1 Cr4 Ag1 O14'
_cell_volume   302.82101688
_cell_formula_units_Z   1
loop_
 _symmetry_equiv_pos_site_id
 _symmetry_equiv_pos_as_xyz
  1  'x, y, z'
loop_
 _atom_site_type_symbol
 _atom_site_label
 _atom_site_symmetry_multiplicity
 _atom_site_fract_x
 _atom_site_fract_y
 _atom_site_fract_z
 _atom_site_occupancy
  Gd  Gd0  1  0.999997  0.989814  0.989805  1
  Cr  Cr1  1  0.542051  0.953193  0.170287  1
  Cr  Cr2  1  0.457939  0.628257  0.411170  1
  Cr  Cr3  1  0.217047  0.170278  0.628225  1
  Cr  Cr4  1  0.782945  0.411177  0.953236  1
  Ag  Ag5  1  0.000001  0.570840  0.570835  1
  O  O6  1  0.299256  0.909545  0.005699  1
  O  O7  1  0.681749  0.917282  0.033965  1
  O  O8  1  0.818601  0.526077  0.206567  1
  O  O9  1  0.318261  0.352225  0.235546  1
  O  O10  1  0.499998  0.757377  0.257381  1
  O  O11  1  0.116659  0.033927  0.352216  1
  O  O12  1  0.680535  0.206567  0.387960  1
  O  O13  1  0.319476  0.707447  0.526052  1
  O  O14  1  0.700750  0.706433  0.610291  1
  O  O15  1  0.096129  0.005693  0.706410  1
  O  O16  1  0.181398  0.387968  0.707471  1
  O  O17  1  0.499997  0.257351  0.757350  1
  O  O18  1  0.903868  0.610285  0.909559  1
  O  O19  1  0.883341  0.235564  0.917275  1
