# generated using pymatgen
data_YEr2Al3NiPd2
_symmetry_space_group_name_H-M   'P 1'
_cell_length_a   7.20522900
_cell_length_b   7.22315392
_cell_length_c   3.84788400
_cell_angle_alpha   90.00000000
_cell_angle_beta   90.00000000
_cell_angle_gamma   119.91793893
_symmetry_Int_Tables_number   1
_chemical_formula_structural   YEr2Al3NiPd2
_chemical_formula_sum   'Y1 Er2 Al3 Ni1 Pd2'
_cell_volume   173.57444517
_cell_formula_units_Z   1
loop_
 _symmetry_equiv_pos_site_id
 _symmetry_equiv_pos_as_xyz
  1  'x, y, z'
loop_
 _atom_site_type_symbol
 _atom_site_label
 _atom_site_symmetry_multiplicity
 _atom_site_fract_x
 _atom_site_fract_y
 _atom_site_fract_z
 _atom_site_occupancy
  Y  Y0  1  0.407635  0.000000  0.500000  1
  Er  Er1  1  0.999986  0.406287  0.500000  1
  Er  Er2  1  0.593699  0.593713  0.500000  1
  Al  Al3  1  0.766806  0.000000  0.000000  1
  Al  Al4  1  0.999348  0.766437  0.000000  1
  Al  Al5  1  0.232910  0.233563  0.000000  1
  Ni  Ni6  1  0.997547  0.000000  0.500000  1
  Pd  Pd7  1  0.332209  0.662350  0.000000  1
  Pd  Pd8  1  0.669860  0.337650  0.000000  1
