# generated using pymatgen
data_Lu7FeRuSe2
_symmetry_space_group_name_H-M   'P 1'
_cell_length_a   8.89855389
_cell_length_b   8.87634413
_cell_length_c   8.87634326
_cell_angle_alpha   155.32179606
_cell_angle_beta   119.54569488
_cell_angle_gamma   66.29594084
_symmetry_Int_Tables_number   1
_chemical_formula_structural   Lu7FeRuSe2
_chemical_formula_sum   'Lu7 Fe1 Ru1 Se2'
_cell_volume   252.60727301
_cell_formula_units_Z   1
loop_
 _symmetry_equiv_pos_site_id
 _symmetry_equiv_pos_as_xyz
  1  'x, y, z'
loop_
 _atom_site_type_symbol
 _atom_site_label
 _atom_site_symmetry_multiplicity
 _atom_site_fract_x
 _atom_site_fract_y
 _atom_site_fract_z
 _atom_site_occupancy
  Lu  Lu0  1  0.612253  0.356889  0.255365  1
  Lu  Lu1  1  0.903003  0.643919  0.259084  1
  Lu  Lu2  1  0.000976  0.000778  0.000197  1
  Lu  Lu3  1  0.543129  0.126368  0.416761  1
  Lu  Lu4  1  0.288967  0.871132  0.417834  1
  Lu  Lu5  1  0.947926  0.316255  0.631672  1
  Lu  Lu6  1  0.310167  0.684704  0.625464  1
  Fe  Fe7  1  0.167526  0.237344  0.930182  1
  Ru  Ru8  1  0.692986  0.762611  0.930376  1
  Se  Se9  1  0.261677  0.499726  0.761952  1
  Se  Se10  1  0.662250  0.000273  0.661977  1
