# generated using pymatgen
data_La10Ga2Si3Hg
_symmetry_space_group_name_H-M   'P 1'
_cell_length_a   7.95356747
_cell_length_b   7.94857637
_cell_length_c   15.06484178
_cell_angle_alpha   90.07936601
_cell_angle_beta   90.06979149
_cell_angle_gamma   89.94445752
_symmetry_Int_Tables_number   1
_chemical_formula_structural   La10Ga2Si3Hg
_chemical_formula_sum   'La20 Ga4 Si6 Hg2'
_cell_volume   952.39027898
_cell_formula_units_Z   2
loop_
 _symmetry_equiv_pos_site_id
 _symmetry_equiv_pos_as_xyz
  1  'x, y, z'
loop_
 _atom_site_type_symbol
 _atom_site_label
 _atom_site_symmetry_multiplicity
 _atom_site_fract_x
 _atom_site_fract_y
 _atom_site_fract_z
 _atom_site_occupancy
  La  La0  1  0.495174  0.006704  0.780149  1
  La  La1  1  0.335933  0.308089  0.110626  1
  La  La2  1  0.837882  0.817925  0.892402  1
  La  La3  1  0.988498  0.500391  0.217879  1
  La  La4  1  0.837812  0.187692  0.390158  1
  La  La5  1  0.170097  0.182535  0.889426  1
  La  La6  1  0.664547  0.687895  0.109188  1
  La  La7  1  0.010037  0.500375  0.719901  1
  La  La8  1  0.818786  0.835439  0.607496  1
  La  La9  1  0.311913  0.333679  0.390413  1
  La  La10  1  0.185691  0.842478  0.107253  1
  La  La11  1  0.183305  0.168233  0.610207  1
  La  La12  1  0.811063  0.160454  0.110195  1
  La  La13  1  0.327401  0.681543  0.609724  1
  La  La14  1  0.502942  0.007601  0.282224  1
  La  La15  1  0.682644  0.326714  0.890143  1
  La  La16  1  0.671481  0.314623  0.610731  1
  La  La17  1  0.316013  0.670743  0.889532  1
  La  La18  1  0.156172  0.812396  0.392237  1
  La  La19  1  0.691717  0.662833  0.389899  1
  Ga  Ga20  1  0.380070  0.618776  0.249963  1
  Ga  Ga21  1  0.620218  0.618908  0.749659  1
  Ga  Ga22  1  0.501187  0.997597  0.995013  1
  Ga  Ga23  1  0.999600  0.495895  0.505280  1
  Si  Si24  1  0.615447  0.383711  0.250062  1
  Si  Si25  1  0.884801  0.113882  0.750284  1
  Si  Si26  1  0.885064  0.885248  0.249822  1
  Si  Si27  1  0.113780  0.885627  0.749672  1
  Si  Si28  1  0.385325  0.384155  0.749884  1
  Si  Si29  1  0.115098  0.114334  0.250360  1
  Hg  Hg30  1  0.498783  0.997250  0.498761  1
  Hg  Hg31  1  0.001519  0.496275  0.001453  1
