# generated using pymatgen
data_Eu3Dy4Ho13Pb16
_symmetry_space_group_name_H-M   'P 1'
_cell_length_a   8.19645424
_cell_length_b   8.27283831
_cell_length_c   15.61754400
_cell_angle_alpha   90.01148293
_cell_angle_beta   90.03146340
_cell_angle_gamma   89.98938342
_symmetry_Int_Tables_number   1
_chemical_formula_structural   Eu3Dy4Ho13Pb16
_chemical_formula_sum   'Eu3 Dy4 Ho13 Pb16'
_cell_volume   1058.99329665
_cell_formula_units_Z   1
loop_
 _symmetry_equiv_pos_site_id
 _symmetry_equiv_pos_as_xyz
  1  'x, y, z'
loop_
 _atom_site_type_symbol
 _atom_site_label
 _atom_site_symmetry_multiplicity
 _atom_site_fract_x
 _atom_site_fract_y
 _atom_site_fract_z
 _atom_site_occupancy
  Eu  Eu0  1  0.031901  0.178246  0.597702  1
  Eu  Eu1  1  0.469367  0.678313  0.404507  1
  Eu  Eu2  1  0.969622  0.820737  0.094389  1
  Dy  Dy3  1  0.467311  0.675868  0.098500  1
  Dy  Dy4  1  0.967631  0.821789  0.401776  1
  Dy  Dy5  1  0.533260  0.323496  0.599343  1
  Dy  Dy6  1  0.034016  0.178854  0.900580  1
  Ho  Ho7  1  0.374927  0.842935  0.878986  1
  Ho  Ho8  1  0.874774  0.657124  0.621571  1
  Ho  Ho9  1  0.624740  0.157210  0.379039  1
  Ho  Ho10  1  0.123305  0.343145  0.119603  1
  Ho  Ho11  1  0.624031  0.156101  0.119412  1
  Ho  Ho12  1  0.126094  0.343780  0.380680  1
  Ho  Ho13  1  0.373137  0.844056  0.621605  1
  Ho  Ho14  1  0.874619  0.656618  0.880932  1
  Ho  Ho15  1  0.533975  0.322217  0.901406  1
  Ho  Ho16  1  0.207843  0.503644  0.751389  1
  Ho  Ho17  1  0.708366  0.996090  0.749304  1
  Ho  Ho18  1  0.790688  0.495866  0.250484  1
  Ho  Ho19  1  0.290879  0.004091  0.249211  1
  Pb  Pb20  1  0.288433  0.039996  0.041003  1
  Pb  Pb21  1  0.787488  0.462221  0.457763  1
  Pb  Pb22  1  0.711718  0.962351  0.542695  1
  Pb  Pb23  1  0.219654  0.532343  0.956116  1
  Pb  Pb24  1  0.711508  0.969401  0.953428  1
  Pb  Pb25  1  0.212671  0.536506  0.546255  1
  Pb  Pb26  1  0.287279  0.035555  0.454665  1
  Pb  Pb27  1  0.780311  0.460435  0.042216  1
  Pb  Pb28  1  0.569513  0.625824  0.750394  1
  Pb  Pb29  1  0.069054  0.871516  0.752669  1
  Pb  Pb30  1  0.429397  0.373084  0.247989  1
  Pb  Pb31  1  0.930087  0.128034  0.250848  1
  Pb  Pb32  1  0.348377  0.153292  0.751400  1
  Pb  Pb33  1  0.840483  0.349894  0.752706  1
  Pb  Pb34  1  0.657147  0.850505  0.248468  1
  Pb  Pb35  1  0.156392  0.648863  0.250964  1
