# generated using pymatgen
data_TbY3OsI4
_symmetry_space_group_name_H-M   'P 1'
_cell_length_a   11.42740426
_cell_length_b   11.42740574
_cell_length_c   6.20335807
_cell_angle_alpha   90.02991101
_cell_angle_beta   90.02992785
_cell_angle_gamma   88.28097203
_symmetry_Int_Tables_number   1
_chemical_formula_structural   TbY3OsI4
_chemical_formula_sum   'Tb2 Y6 Os2 I8'
_cell_volume   809.70435956
_cell_formula_units_Z   2
loop_
 _symmetry_equiv_pos_site_id
 _symmetry_equiv_pos_as_xyz
  1  'x, y, z'
loop_
 _atom_site_type_symbol
 _atom_site_label
 _atom_site_symmetry_multiplicity
 _atom_site_fract_x
 _atom_site_fract_y
 _atom_site_fract_z
 _atom_site_occupancy
  Tb  Tb0  1  0.802216  0.084035  0.999172  1
  Tb  Tb1  1  0.084035  0.802216  0.499172  1
  Y  Y2  1  0.078667  0.195279  0.000401  1
  Y  Y3  1  0.195279  0.078667  0.500401  1
  Y  Y4  1  0.921529  0.804585  0.999612  1
  Y  Y5  1  0.915843  0.197874  0.500901  1
  Y  Y6  1  0.197874  0.915843  0.000901  1
  Y  Y7  1  0.804585  0.921529  0.499612  1
  Os  Os8  1  0.999798  0.000036  0.250017  1
  Os  Os9  1  0.000036  0.999798  0.750017  1
  I  I10  1  0.644987  0.152330  0.510221  1
  I  I11  1  0.858175  0.648575  0.505638  1
  I  I12  1  0.351400  0.141602  0.994357  1
  I  I13  1  0.141602  0.351400  0.494357  1
  I  I14  1  0.648575  0.858175  0.005638  1
  I  I15  1  0.355216  0.847853  0.489681  1
  I  I16  1  0.152330  0.644987  0.010221  1
  I  I17  1  0.847853  0.355216  0.989681  1
