# generated using pymatgen
data_Tm3Lu17(Bi2Sb)4
_symmetry_space_group_name_H-M   'P 1'
_cell_length_a   8.04971450
_cell_length_b   9.32427200
_cell_length_c   11.74123602
_cell_angle_alpha   90.00000000
_cell_angle_beta   90.03821579
_cell_angle_gamma   90.00000000
_symmetry_Int_Tables_number   1
_chemical_formula_structural   Tm3Lu17(Bi2Sb)4
_chemical_formula_sum   'Tm3 Lu17 Bi8 Sb4'
_cell_volume   881.27029738
_cell_formula_units_Z   1
loop_
 _symmetry_equiv_pos_site_id
 _symmetry_equiv_pos_as_xyz
  1  'x, y, z'
loop_
 _atom_site_type_symbol
 _atom_site_label
 _atom_site_symmetry_multiplicity
 _atom_site_fract_x
 _atom_site_fract_y
 _atom_site_fract_z
 _atom_site_occupancy
  Tm  Tm0  1  0.814720  0.750000  0.216930  1
  Tm  Tm1  1  0.314795  0.750000  0.283132  1
  Tm  Tm2  1  0.685436  0.250000  0.716763  1
  Lu  Lu3  1  0.027382  0.250000  0.511548  1
  Lu  Lu4  1  0.972760  0.750000  0.488793  1
  Lu  Lu5  1  0.472590  0.750000  0.011085  1
  Lu  Lu6  1  0.527368  0.250000  0.988590  1
  Lu  Lu7  1  0.355083  0.250000  0.284395  1
  Lu  Lu8  1  0.644736  0.750000  0.715645  1
  Lu  Lu9  1  0.144702  0.750000  0.784434  1
  Lu  Lu10  1  0.855337  0.250000  0.215348  1
  Lu  Lu11  1  0.185480  0.250000  0.783532  1
  Lu  Lu12  1  0.190088  0.065581  0.058938  1
  Lu  Lu13  1  0.809796  0.934372  0.940972  1
  Lu  Lu14  1  0.310097  0.934352  0.559022  1
  Lu  Lu15  1  0.809796  0.565628  0.940972  1
  Lu  Lu16  1  0.689897  0.065624  0.441090  1
  Lu  Lu17  1  0.190088  0.434419  0.058938  1
  Lu  Lu18  1  0.689897  0.434376  0.441090  1
  Lu  Lu19  1  0.310097  0.565648  0.559022  1
  Bi  Bi20  1  0.066790  0.004131  0.325576  1
  Bi  Bi21  1  0.933638  0.996118  0.674683  1
  Bi  Bi22  1  0.432469  0.996143  0.825600  1
  Bi  Bi23  1  0.933638  0.503882  0.674683  1
  Bi  Bi24  1  0.566983  0.004225  0.174234  1
  Bi  Bi25  1  0.066790  0.495869  0.325576  1
  Bi  Bi26  1  0.566983  0.495775  0.174234  1
  Bi  Bi27  1  0.432469  0.503857  0.825600  1
  Sb  Sb28  1  0.404736  0.250000  0.541350  1
  Sb  Sb29  1  0.595059  0.750000  0.458797  1
  Sb  Sb30  1  0.094797  0.750000  0.041234  1
  Sb  Sb31  1  0.905500  0.250000  0.958193  1
