# generated using pymatgen
data_Tm3FeCo6(P3Rh)2
_symmetry_space_group_name_H-M   'P 1'
_cell_length_a   3.70400500
_cell_length_b   10.67829200
_cell_length_c   12.24039300
_cell_angle_alpha   90.00000000
_cell_angle_beta   90.00000000
_cell_angle_gamma   90.00000000
_symmetry_Int_Tables_number   1
_chemical_formula_structural   Tm3FeCo6(P3Rh)2
_chemical_formula_sum   'Tm6 Fe2 Co12 P12 Rh4'
_cell_volume   484.13749490
_cell_formula_units_Z   2
loop_
 _symmetry_equiv_pos_site_id
 _symmetry_equiv_pos_as_xyz
  1  'x, y, z'
loop_
 _atom_site_type_symbol
 _atom_site_label
 _atom_site_symmetry_multiplicity
 _atom_site_fract_x
 _atom_site_fract_y
 _atom_site_fract_z
 _atom_site_occupancy
  Tm  Tm0  1  0.000000  0.500000  0.521094  1
  Tm  Tm1  1  0.500000  0.000000  0.478906  1
  Tm  Tm2  1  0.500000  0.815742  0.204597  1
  Tm  Tm3  1  0.500000  0.184258  0.204597  1
  Tm  Tm4  1  0.000000  0.684258  0.795403  1
  Tm  Tm5  1  0.000000  0.315742  0.795403  1
  Fe  Fe6  1  0.000000  0.500000  0.989839  1
  Fe  Fe7  1  0.500000  0.000000  0.010161  1
  Co  Co8  1  0.500000  0.331273  0.994326  1
  Co  Co9  1  0.500000  0.668727  0.994326  1
  Co  Co10  1  0.000000  0.168727  0.005674  1
  Co  Co11  1  0.000000  0.831273  0.005674  1
  Co  Co12  1  0.500000  0.299836  0.430110  1
  Co  Co13  1  0.500000  0.700164  0.430110  1
  Co  Co14  1  0.000000  0.200164  0.569890  1
  Co  Co15  1  0.000000  0.799836  0.569890  1
  Co  Co16  1  0.500000  0.879375  0.709324  1
  Co  Co17  1  0.500000  0.120625  0.709324  1
  Co  Co18  1  0.000000  0.620625  0.290676  1
  Co  Co19  1  0.000000  0.379375  0.290676  1
  P  P20  1  0.500000  0.500000  0.890735  1
  P  P21  1  0.000000  0.000000  0.109265  1
  P  P22  1  0.500000  0.500000  0.351361  1
  P  P23  1  0.000000  0.000000  0.648639  1
  P  P24  1  0.500000  0.303137  0.614605  1
  P  P25  1  0.500000  0.696863  0.614605  1
  P  P26  1  0.000000  0.196863  0.385395  1
  P  P27  1  0.000000  0.803137  0.385395  1
  P  P28  1  0.500000  0.844016  0.894692  1
  P  P29  1  0.500000  0.155984  0.894692  1
  P  P30  1  0.000000  0.655984  0.105308  1
  P  P31  1  0.000000  0.344016  0.105308  1
  Rh  Rh32  1  0.500000  0.500000  0.159744  1
  Rh  Rh33  1  0.000000  0.000000  0.840256  1
  Rh  Rh34  1  0.500000  0.500000  0.702145  1
  Rh  Rh35  1  0.000000  0.000000  0.297855  1
