# generated using pymatgen
data_Th2Fe2Hg
_symmetry_space_group_name_H-M   'P 1'
_cell_length_a   3.96822000
_cell_length_b   3.96822058
_cell_length_c   17.54147900
_cell_angle_alpha   90.00000000
_cell_angle_beta   90.00000000
_cell_angle_gamma   119.99999515
_symmetry_Int_Tables_number   1
_chemical_formula_structural   Th2Fe2Hg
_chemical_formula_sum   'Th4 Fe4 Hg2'
_cell_volume   239.21499953
_cell_formula_units_Z   2
loop_
 _symmetry_equiv_pos_site_id
 _symmetry_equiv_pos_as_xyz
  1  'x, y, z'
loop_
 _atom_site_type_symbol
 _atom_site_label
 _atom_site_symmetry_multiplicity
 _atom_site_fract_x
 _atom_site_fract_y
 _atom_site_fract_z
 _atom_site_occupancy
  Th  Th0  1  0.000000  0.000000  0.108916  1
  Th  Th1  1  0.000000  0.000000  0.608916  1
  Th  Th2  1  0.000000  0.000000  0.891084  1
  Th  Th3  1  0.000000  0.000000  0.391084  1
  Fe  Fe4  1  0.666667  0.333333  0.997248  1
  Fe  Fe5  1  0.333333  0.666667  0.497248  1
  Fe  Fe6  1  0.333333  0.666667  0.002752  1
  Fe  Fe7  1  0.666667  0.333333  0.502752  1
  Hg  Hg8  1  0.666667  0.333333  0.250000  1
  Hg  Hg9  1  0.333333  0.666667  0.750000  1
