# generated using pymatgen
data_NdTmFe2(Co3B)2
_symmetry_space_group_name_H-M   'P 1'
_cell_length_a   5.08127800
_cell_length_b   5.08127899
_cell_length_c   6.80056000
_cell_angle_alpha   90.00000000
_cell_angle_beta   90.00000000
_cell_angle_gamma   119.99708382
_symmetry_Int_Tables_number   1
_chemical_formula_structural   NdTmFe2(Co3B)2
_chemical_formula_sum   'Nd1 Tm1 Fe2 Co6 B2'
_cell_volume   152.06668082
_cell_formula_units_Z   1
loop_
 _symmetry_equiv_pos_site_id
 _symmetry_equiv_pos_as_xyz
  1  'x, y, z'
loop_
 _atom_site_type_symbol
 _atom_site_label
 _atom_site_symmetry_multiplicity
 _atom_site_fract_x
 _atom_site_fract_y
 _atom_site_fract_z
 _atom_site_occupancy
  Nd  Nd0  1  0.000012  0.000012  0.000000  1
  Tm  Tm1  1  0.000006  0.000006  0.500000  1
  Fe  Fe2  1  0.666682  0.333344  0.000000  1
  Fe  Fe3  1  0.333345  0.666682  0.000000  1
  Co  Co4  1  0.500015  0.000010  0.291581  1
  Co  Co5  1  0.500008  0.500007  0.291588  1
  Co  Co6  1  0.000010  0.500015  0.291581  1
  Co  Co7  1  0.500015  0.000010  0.708418  1
  Co  Co8  1  0.500008  0.500007  0.708411  1
  Co  Co9  1  0.000010  0.500015  0.708418  1
  B  B10  1  0.666673  0.333348  0.500000  1
  B  B11  1  0.333347  0.666672  0.500000  1
