# generated using pymatgen
data_ErLu5(Co3P2)6
_symmetry_space_group_name_H-M   'P 1'
_cell_length_a   3.65982100
_cell_length_b   10.47353400
_cell_length_c   12.08982100
_cell_angle_alpha   90.00000000
_cell_angle_beta   90.00000000
_cell_angle_gamma   90.00000000
_symmetry_Int_Tables_number   1
_chemical_formula_structural   ErLu5(Co3P2)6
_chemical_formula_sum   'Er1 Lu5 Co18 P12'
_cell_volume   463.41806820
_cell_formula_units_Z   1
loop_
 _symmetry_equiv_pos_site_id
 _symmetry_equiv_pos_as_xyz
  1  'x, y, z'
loop_
 _atom_site_type_symbol
 _atom_site_label
 _atom_site_symmetry_multiplicity
 _atom_site_fract_x
 _atom_site_fract_y
 _atom_site_fract_z
 _atom_site_occupancy
  Er  Er0  1  0.000000  0.500000  0.522897  1
  Lu  Lu1  1  0.500000  0.000000  0.477177  1
  Lu  Lu2  1  0.500000  0.819017  0.206200  1
  Lu  Lu3  1  0.500000  0.180983  0.206200  1
  Lu  Lu4  1  0.000000  0.681020  0.793897  1
  Lu  Lu5  1  0.000000  0.318980  0.793897  1
  Co  Co6  1  0.500000  0.500000  0.160158  1
  Co  Co7  1  0.000000  0.000000  0.839769  1
  Co  Co8  1  0.500000  0.500000  0.704158  1
  Co  Co9  1  0.000000  0.000000  0.296501  1
  Co  Co10  1  0.000000  0.500000  0.987285  1
  Co  Co11  1  0.500000  0.000000  0.012727  1
  Co  Co12  1  0.500000  0.333042  0.994745  1
  Co  Co13  1  0.500000  0.666958  0.994745  1
  Co  Co14  1  0.000000  0.167041  0.005258  1
  Co  Co15  1  0.000000  0.832959  0.005258  1
  Co  Co16  1  0.500000  0.297087  0.430745  1
  Co  Co17  1  0.500000  0.702913  0.430745  1
  Co  Co18  1  0.000000  0.202286  0.569095  1
  Co  Co19  1  0.000000  0.797714  0.569095  1
  Co  Co20  1  0.500000  0.877946  0.708918  1
  Co  Co21  1  0.500000  0.122054  0.708918  1
  Co  Co22  1  0.000000  0.622156  0.290875  1
  Co  Co23  1  0.000000  0.377844  0.290875  1
  P  P24  1  0.500000  0.500000  0.882453  1
  P  P25  1  0.000000  0.000000  0.117656  1
  P  P26  1  0.500000  0.500000  0.345523  1
  P  P27  1  0.000000  0.000000  0.653880  1
  P  P28  1  0.500000  0.312240  0.617058  1
  P  P29  1  0.500000  0.687760  0.617058  1
  P  P30  1  0.000000  0.187312  0.383139  1
  P  P31  1  0.000000  0.812688  0.383139  1
  P  P32  1  0.500000  0.846089  0.891279  1
  P  P33  1  0.500000  0.153911  0.891279  1
  P  P34  1  0.000000  0.653886  0.108700  1
  P  P35  1  0.000000  0.346114  0.108700  1
