# generated using pymatgen
data_Sm3Co8TcP6
_symmetry_space_group_name_H-M   'P 1'
_cell_length_a   3.74730500
_cell_length_b   10.59393800
_cell_length_c   12.32721400
_cell_angle_alpha   90.00000000
_cell_angle_beta   90.00000000
_cell_angle_gamma   90.00000000
_symmetry_Int_Tables_number   1
_chemical_formula_structural   Sm3Co8TcP6
_chemical_formula_sum   'Sm6 Co16 Tc2 P12'
_cell_volume   489.37457798
_cell_formula_units_Z   2
loop_
 _symmetry_equiv_pos_site_id
 _symmetry_equiv_pos_as_xyz
  1  'x, y, z'
loop_
 _atom_site_type_symbol
 _atom_site_label
 _atom_site_symmetry_multiplicity
 _atom_site_fract_x
 _atom_site_fract_y
 _atom_site_fract_z
 _atom_site_occupancy
  Sm  Sm0  1  0.000000  0.500000  0.523659  1
  Sm  Sm1  1  0.500000  0.000000  0.476341  1
  Sm  Sm2  1  0.500000  0.817426  0.205684  1
  Sm  Sm3  1  0.500000  0.182574  0.205684  1
  Sm  Sm4  1  0.000000  0.682574  0.794316  1
  Sm  Sm5  1  0.000000  0.317426  0.794316  1
  Co  Co6  1  0.500000  0.500000  0.703948  1
  Co  Co7  1  0.000000  0.000000  0.296052  1
  Co  Co8  1  0.000000  0.500000  0.987737  1
  Co  Co9  1  0.500000  0.000000  0.012263  1
  Co  Co10  1  0.500000  0.332169  0.991142  1
  Co  Co11  1  0.500000  0.667831  0.991142  1
  Co  Co12  1  0.000000  0.167831  0.008858  1
  Co  Co13  1  0.000000  0.832169  0.008858  1
  Co  Co14  1  0.500000  0.296706  0.430653  1
  Co  Co15  1  0.500000  0.703294  0.430653  1
  Co  Co16  1  0.000000  0.203294  0.569347  1
  Co  Co17  1  0.000000  0.796706  0.569347  1
  Co  Co18  1  0.500000  0.880516  0.708768  1
  Co  Co19  1  0.500000  0.119484  0.708768  1
  Co  Co20  1  0.000000  0.619484  0.291232  1
  Co  Co21  1  0.000000  0.380516  0.291232  1
  Tc  Tc22  1  0.500000  0.500000  0.155660  1
  Tc  Tc23  1  0.000000  0.000000  0.844340  1
  P  P24  1  0.500000  0.500000  0.883821  1
  P  P25  1  0.000000  0.000000  0.116179  1
  P  P26  1  0.500000  0.500000  0.346105  1
  P  P27  1  0.000000  0.000000  0.653895  1
  P  P28  1  0.500000  0.308901  0.615092  1
  P  P29  1  0.500000  0.691099  0.615092  1
  P  P30  1  0.000000  0.191099  0.384908  1
  P  P31  1  0.000000  0.808901  0.384908  1
  P  P32  1  0.500000  0.847264  0.894196  1
  P  P33  1  0.500000  0.152736  0.894196  1
  P  P34  1  0.000000  0.652736  0.105804  1
  P  P35  1  0.000000  0.347264  0.105804  1
