# generated using pymatgen
data_Y3Er7In3Ru
_symmetry_space_group_name_H-M   'P 1'
_cell_length_a   9.68327700
_cell_length_b   9.68327599
_cell_length_c   9.70898900
_cell_angle_alpha   90.00000000
_cell_angle_beta   90.00000000
_cell_angle_gamma   120.00000002
_symmetry_Int_Tables_number   1
_chemical_formula_structural   Y3Er7In3Ru
_chemical_formula_sum   'Y6 Er14 In6 Ru2'
_cell_volume   788.40488480
_cell_formula_units_Z   2
loop_
 _symmetry_equiv_pos_site_id
 _symmetry_equiv_pos_as_xyz
  1  'x, y, z'
loop_
 _atom_site_type_symbol
 _atom_site_label
 _atom_site_symmetry_multiplicity
 _atom_site_fract_x
 _atom_site_fract_y
 _atom_site_fract_z
 _atom_site_occupancy
  Y  Y0  1  0.539413  0.460587  0.250000  1
  Y  Y1  1  0.539413  0.078826  0.250000  1
  Y  Y2  1  0.921174  0.460587  0.250000  1
  Y  Y3  1  0.460587  0.539413  0.750000  1
  Y  Y4  1  0.460587  0.921174  0.750000  1
  Y  Y5  1  0.078826  0.539413  0.750000  1
  Er  Er6  1  0.000000  0.000000  0.500000  1
  Er  Er7  1  0.000000  0.000000  0.000000  1
  Er  Er8  1  0.209963  0.790037  0.438498  1
  Er  Er9  1  0.209963  0.419928  0.438498  1
  Er  Er10  1  0.580072  0.790037  0.438498  1
  Er  Er11  1  0.790037  0.209963  0.561502  1
  Er  Er12  1  0.790037  0.580072  0.561502  1
  Er  Er13  1  0.419928  0.209963  0.561502  1
  Er  Er14  1  0.790037  0.209963  0.938498  1
  Er  Er15  1  0.790037  0.580072  0.938498  1
  Er  Er16  1  0.419928  0.209963  0.938498  1
  Er  Er17  1  0.209963  0.790037  0.061502  1
  Er  Er18  1  0.209963  0.419928  0.061502  1
  Er  Er19  1  0.580072  0.790037  0.061502  1
  In  In20  1  0.884951  0.115049  0.250000  1
  In  In21  1  0.884951  0.769902  0.250000  1
  In  In22  1  0.230098  0.115049  0.250000  1
  In  In23  1  0.115049  0.884951  0.750000  1
  In  In24  1  0.115049  0.230098  0.750000  1
  In  In25  1  0.769902  0.884951  0.750000  1
  Ru  Ru26  1  0.333333  0.666667  0.250000  1
  Ru  Ru27  1  0.666667  0.333333  0.750000  1
