# generated using pymatgen
data_Zr2Pa2IrRh3
_symmetry_space_group_name_H-M   'P 1'
_cell_length_a   4.39831700
_cell_length_b   5.47241647
_cell_length_c   6.64221319
_cell_angle_alpha   89.56986855
_cell_angle_beta   90.00000000
_cell_angle_gamma   90.00000000
_symmetry_Int_Tables_number   1
_chemical_formula_structural   Zr2Pa2IrRh3
_chemical_formula_sum   'Zr2 Pa2 Ir1 Rh3'
_cell_volume   159.86972957
_cell_formula_units_Z   1
loop_
 _symmetry_equiv_pos_site_id
 _symmetry_equiv_pos_as_xyz
  1  'x, y, z'
loop_
 _atom_site_type_symbol
 _atom_site_label
 _atom_site_symmetry_multiplicity
 _atom_site_fract_x
 _atom_site_fract_y
 _atom_site_fract_z
 _atom_site_occupancy
  Zr  Zr0  1  0.750000  0.854248  0.820228  1
  Zr  Zr1  1  0.750000  0.646557  0.320387  1
  Pa  Pa2  1  0.250000  0.362559  0.680485  1
  Pa  Pa3  1  0.250000  0.137715  0.180503  1
  Ir  Ir4  1  0.750000  0.167651  0.451197  1
  Rh  Rh5  1  0.250000  0.832034  0.550569  1
  Rh  Rh6  1  0.250000  0.666275  0.047043  1
  Rh  Rh7  1  0.750000  0.332959  0.949587  1
