# generated using pymatgen
data_Ho8TaTi10NbSi16
_symmetry_space_group_name_H-M   'P 1'
_cell_length_a   7.03537010
_cell_length_b   7.03536991
_cell_length_c   12.94624039
_cell_angle_alpha   89.98861861
_cell_angle_beta   90.01138360
_cell_angle_gamma   90.06017557
_symmetry_Int_Tables_number   1
_chemical_formula_structural   Ho8TaTi10NbSi16
_chemical_formula_sum   'Ho8 Ta1 Ti10 Nb1 Si16'
_cell_volume   640.79231675
_cell_formula_units_Z   1
loop_
 _symmetry_equiv_pos_site_id
 _symmetry_equiv_pos_as_xyz
  1  'x, y, z'
loop_
 _atom_site_type_symbol
 _atom_site_label
 _atom_site_symmetry_multiplicity
 _atom_site_fract_x
 _atom_site_fract_y
 _atom_site_fract_z
 _atom_site_occupancy
  Ho  Ho0  1  0.341305  0.002567  0.466861  1
  Ho  Ho1  1  0.497837  0.840850  0.716519  1
  Ho  Ho2  1  0.501897  0.158965  0.216491  1
  Ho  Ho3  1  0.840850  0.497837  0.283481  1
  Ho  Ho4  1  0.158965  0.501897  0.783509  1
  Ho  Ho5  1  0.658446  0.997865  0.966748  1
  Ho  Ho6  1  0.002567  0.341305  0.533139  1
  Ho  Ho7  1  0.997865  0.658446  0.033252  1
  Ta  Ta8  1  0.673152  0.673152  0.500000  1
  Ti  Ti9  1  0.173427  0.826624  0.250172  1
  Ti  Ti10  1  0.826624  0.173427  0.749828  1
  Ti  Ti11  1  0.152767  0.008641  0.876181  1
  Ti  Ti12  1  0.492048  0.650913  0.124907  1
  Ti  Ti13  1  0.508034  0.348896  0.624831  1
  Ti  Ti14  1  0.650913  0.492048  0.875093  1
  Ti  Ti15  1  0.348896  0.508034  0.375169  1
  Ti  Ti16  1  0.847251  0.991738  0.376094  1
  Ti  Ti17  1  0.008641  0.152767  0.123819  1
  Ti  Ti18  1  0.991738  0.847251  0.623906  1
  Nb  Nb19  1  0.326707  0.326707  0.000000  1
  Si  Si20  1  0.202441  0.130791  0.684220  1
  Si  Si21  1  0.369324  0.703374  0.933932  1
  Si  Si22  1  0.630826  0.297694  0.434165  1
  Si  Si23  1  0.703374  0.369324  0.066068  1
  Si  Si24  1  0.297694  0.630826  0.565835  1
  Si  Si25  1  0.797790  0.869267  0.184324  1
  Si  Si26  1  0.130791  0.202441  0.315780  1
  Si  Si27  1  0.869267  0.797790  0.815676  1
  Si  Si28  1  0.291146  0.951704  0.064993  1
  Si  Si29  1  0.546252  0.792159  0.314196  1
  Si  Si30  1  0.454020  0.207678  0.813459  1
  Si  Si31  1  0.792159  0.546252  0.685804  1
  Si  Si32  1  0.207678  0.454020  0.186541  1
  Si  Si33  1  0.708540  0.047064  0.564794  1
  Si  Si34  1  0.951704  0.291146  0.935007  1
  Si  Si35  1  0.047064  0.708540  0.435206  1
