# generated using pymatgen
data_Tm6FeCo17P12
_symmetry_space_group_name_H-M   'P 1'
_cell_length_a   3.66998600
_cell_length_b   10.47589400
_cell_length_c   12.11622100
_cell_angle_alpha   90.00000000
_cell_angle_beta   90.00000000
_cell_angle_gamma   90.00000000
_symmetry_Int_Tables_number   1
_chemical_formula_structural   Tm6FeCo17P12
_chemical_formula_sum   'Tm6 Fe1 Co17 P12'
_cell_volume   465.82488904
_cell_formula_units_Z   1
loop_
 _symmetry_equiv_pos_site_id
 _symmetry_equiv_pos_as_xyz
  1  'x, y, z'
loop_
 _atom_site_type_symbol
 _atom_site_label
 _atom_site_symmetry_multiplicity
 _atom_site_fract_x
 _atom_site_fract_y
 _atom_site_fract_z
 _atom_site_occupancy
  Tm  Tm0  1  0.000000  0.500000  0.522934  1
  Tm  Tm1  1  0.500000  0.000000  0.476941  1
  Tm  Tm2  1  0.500000  0.817623  0.205724  1
  Tm  Tm3  1  0.500000  0.182377  0.205724  1
  Tm  Tm4  1  0.000000  0.682418  0.794613  1
  Tm  Tm5  1  0.000000  0.317582  0.794613  1
  Fe  Fe6  1  0.500000  0.500000  0.158643  1
  Co  Co7  1  0.000000  0.000000  0.840061  1
  Co  Co8  1  0.500000  0.500000  0.702435  1
  Co  Co9  1  0.000000  0.000000  0.297314  1
  Co  Co10  1  0.000000  0.500000  0.985780  1
  Co  Co11  1  0.500000  0.000000  0.014470  1
  Co  Co12  1  0.500000  0.332930  0.994118  1
  Co  Co13  1  0.500000  0.667070  0.994118  1
  Co  Co14  1  0.000000  0.166838  0.005991  1
  Co  Co15  1  0.000000  0.833162  0.005991  1
  Co  Co16  1  0.500000  0.297347  0.431036  1
  Co  Co17  1  0.500000  0.702653  0.431036  1
  Co  Co18  1  0.000000  0.202555  0.569128  1
  Co  Co19  1  0.000000  0.797445  0.569128  1
  Co  Co20  1  0.500000  0.878755  0.708971  1
  Co  Co21  1  0.500000  0.121245  0.708971  1
  Co  Co22  1  0.000000  0.621711  0.291173  1
  Co  Co23  1  0.000000  0.378289  0.291173  1
  P  P24  1  0.500000  0.500000  0.881380  1
  P  P25  1  0.000000  0.000000  0.118437  1
  P  P26  1  0.500000  0.500000  0.345201  1
  P  P27  1  0.000000  0.000000  0.654741  1
  P  P28  1  0.500000  0.311706  0.616586  1
  P  P29  1  0.500000  0.688294  0.616586  1
  P  P30  1  0.000000  0.188435  0.383406  1
  P  P31  1  0.000000  0.811565  0.383406  1
  P  P32  1  0.500000  0.847338  0.892295  1
  P  P33  1  0.500000  0.152662  0.892295  1
  P  P34  1  0.000000  0.652790  0.107791  1
  P  P35  1  0.000000  0.347210  0.107791  1
