# generated using pymatgen
data_TbSm2Er3NiBr10
_symmetry_space_group_name_H-M   'P 1'
_cell_length_a   7.32996542
_cell_length_b   9.14795032
_cell_length_c   9.32125150
_cell_angle_alpha   107.79047012
_cell_angle_beta   96.39041775
_cell_angle_gamma   105.93621895
_symmetry_Int_Tables_number   1
_chemical_formula_structural   TbSm2Er3NiBr10
_chemical_formula_sum   'Tb1 Sm2 Er3 Ni1 Br10'
_cell_volume   559.11159113
_cell_formula_units_Z   1
loop_
 _symmetry_equiv_pos_site_id
 _symmetry_equiv_pos_as_xyz
  1  'x, y, z'
loop_
 _atom_site_type_symbol
 _atom_site_label
 _atom_site_symmetry_multiplicity
 _atom_site_fract_x
 _atom_site_fract_y
 _atom_site_fract_z
 _atom_site_occupancy
  Tb  Tb0  1  0.644819  0.866332  0.827123  1
  Sm  Sm1  1  0.128420  0.048363  0.756080  1
  Sm  Sm2  1  0.874099  0.952939  0.244757  1
  Er  Er3  1  0.973381  0.292512  0.091578  1
  Er  Er4  1  0.028100  0.707856  0.909386  1
  Er  Er5  1  0.351279  0.131918  0.170611  1
  Ni  Ni6  1  0.000001  0.000064  0.999783  1
  Br  Br7  1  0.554030  0.181653  0.919751  1
  Br  Br8  1  0.445527  0.821728  0.084196  1
  Br  Br9  1  0.352183  0.452712  0.270030  1
  Br  Br10  1  0.650662  0.543780  0.730525  1
  Br  Br11  1  0.261097  0.084717  0.451631  1
  Br  Br12  1  0.742673  0.916951  0.546686  1
  Br  Br13  1  0.776215  0.260081  0.338782  1
  Br  Br14  1  0.216321  0.737652  0.657941  1
  Br  Br15  1  0.083886  0.377858  0.832629  1
  Br  Br16  1  0.917307  0.622882  0.168512  1
