# generated using pymatgen
data_SrNdAsPt8
_symmetry_space_group_name_H-M   'P 1'
_cell_length_a   9.32187763
_cell_length_b   9.39480067
_cell_length_c   4.33410300
_cell_angle_alpha   90.00000000
_cell_angle_beta   90.00000000
_cell_angle_gamma   145.70846767
_symmetry_Int_Tables_number   1
_chemical_formula_structural   SrNdAsPt8
_chemical_formula_sum   'Sr1 Nd1 As1 Pt8'
_cell_volume   213.85040990
_cell_formula_units_Z   1
loop_
 _symmetry_equiv_pos_site_id
 _symmetry_equiv_pos_as_xyz
  1  'x, y, z'
loop_
 _atom_site_type_symbol
 _atom_site_label
 _atom_site_symmetry_multiplicity
 _atom_site_fract_x
 _atom_site_fract_y
 _atom_site_fract_z
 _atom_site_occupancy
  Sr  Sr0  1  0.618242  0.375604  0.500000  1
  Nd  Nd1  1  0.372218  0.625838  0.500000  1
  As  As2  1  0.230805  0.224888  0.000000  1
  Pt  Pt3  1  0.100563  0.871044  0.000000  1
  Pt  Pt4  1  0.886297  0.111560  0.000000  1
  Pt  Pt5  1  0.490850  0.982058  0.000000  1
  Pt  Pt6  1  0.993183  0.489447  0.000000  1
  Pt  Pt7  1  0.197634  0.788847  0.500000  1
  Pt  Pt8  1  0.792399  0.195854  0.500000  1
  Pt  Pt9  1  0.988311  0.991196  0.500000  1
  Pt  Pt10  1  0.643095  0.657264  0.000000  1
