# generated using pymatgen
data_AcSnF7
_symmetry_space_group_name_H-M   'P 1'
_cell_length_a   6.00296300
_cell_length_b   9.62700363
_cell_length_c   12.87155852
_cell_angle_alpha   61.86044853
_cell_angle_beta   90.00000000
_cell_angle_gamma   90.00000000
_symmetry_Int_Tables_number   1
_chemical_formula_structural   AcSnF7
_chemical_formula_sum   'Ac4 Sn4 F28'
_cell_volume   655.93193835
_cell_formula_units_Z   4
loop_
 _symmetry_equiv_pos_site_id
 _symmetry_equiv_pos_as_xyz
  1  'x, y, z'
loop_
 _atom_site_type_symbol
 _atom_site_label
 _atom_site_symmetry_multiplicity
 _atom_site_fract_x
 _atom_site_fract_y
 _atom_site_fract_z
 _atom_site_occupancy
  Ac  Ac0  1  0.757681  0.808432  0.265205  1
  Ac  Ac1  1  0.257681  0.191568  0.234795  1
  Ac  Ac2  1  0.242319  0.191568  0.734795  1
  Ac  Ac3  1  0.742319  0.808432  0.765205  1
  Sn  Sn4  1  0.244394  0.726576  0.542771  1
  Sn  Sn5  1  0.744394  0.273424  0.957229  1
  Sn  Sn6  1  0.755606  0.273424  0.457229  1
  Sn  Sn7  1  0.255606  0.726576  0.042771  1
  F  F8  1  0.968266  0.714754  0.458956  1
  F  F9  1  0.468266  0.285246  0.041044  1
  F  F10  1  0.031734  0.285246  0.541044  1
  F  F11  1  0.531734  0.714754  0.958956  1
  F  F12  1  0.057934  0.709661  0.924013  1
  F  F13  1  0.557934  0.290339  0.575987  1
  F  F14  1  0.942066  0.290339  0.075987  1
  F  F15  1  0.442066  0.709661  0.424013  1
  F  F16  1  0.734353  0.508238  0.862802  1
  F  F17  1  0.234353  0.491762  0.637198  1
  F  F18  1  0.265647  0.491762  0.137198  1
  F  F19  1  0.765647  0.508238  0.362802  1
  F  F20  1  0.739528  0.038447  0.049867  1
  F  F21  1  0.239528  0.961553  0.450133  1
  F  F22  1  0.260472  0.961553  0.950133  1
  F  F23  1  0.760472  0.038447  0.549867  1
  F  F24  1  0.052545  0.742021  0.664970  1
  F  F25  1  0.552545  0.257979  0.835030  1
  F  F26  1  0.947455  0.257979  0.335030  1
  F  F27  1  0.447455  0.742021  0.164970  1
  F  F28  1  0.011669  0.269329  0.865430  1
  F  F29  1  0.511669  0.730671  0.634570  1
  F  F30  1  0.988331  0.730671  0.134570  1
  F  F31  1  0.488331  0.269329  0.365430  1
  F  F32  1  0.089081  0.967150  0.232061  1
  F  F33  1  0.589081  0.032850  0.267939  1
  F  F34  1  0.910919  0.032850  0.767939  1
  F  F35  1  0.410919  0.967150  0.732061  1
