# generated using pymatgen
data_Er4Hf3RuF28
_symmetry_space_group_name_H-M   'P 1'
_cell_length_a   5.62926702
_cell_length_b   8.94051800
_cell_length_c   12.00193318
_cell_angle_alpha   62.72349633
_cell_angle_beta   89.99254716
_cell_angle_gamma   89.98929827
_symmetry_Int_Tables_number   1
_chemical_formula_structural   Er4Hf3RuF28
_chemical_formula_sum   'Er4 Hf3 Ru1 F28'
_cell_volume   536.87395643
_cell_formula_units_Z   1
loop_
 _symmetry_equiv_pos_site_id
 _symmetry_equiv_pos_as_xyz
  1  'x, y, z'
loop_
 _atom_site_type_symbol
 _atom_site_label
 _atom_site_symmetry_multiplicity
 _atom_site_fract_x
 _atom_site_fract_y
 _atom_site_fract_z
 _atom_site_occupancy
  Er  Er0  1  0.757115  0.813065  0.768344  1
  Er  Er1  1  0.256581  0.185782  0.730147  1
  Er  Er2  1  0.242862  0.186742  0.237733  1
  Er  Er3  1  0.743567  0.818025  0.265872  1
  Hf  Hf4  1  0.755718  0.272998  0.955852  1
  Hf  Hf5  1  0.254731  0.726115  0.543679  1
  Hf  Hf6  1  0.245289  0.726064  0.045816  1
  Ru  Ru7  1  0.743823  0.273109  0.455052  1
  F  F8  1  0.462610  0.706493  0.921352  1
  F  F9  1  0.949471  0.291843  0.580986  1
  F  F10  1  0.535791  0.291143  0.079526  1
  F  F11  1  0.035054  0.709687  0.419172  1
  F  F12  1  0.454715  0.280061  0.547060  1
  F  F13  1  0.949660  0.720610  0.952374  1
  F  F14  1  0.547859  0.717790  0.449971  1
  F  F15  1  0.048612  0.277965  0.050682  1
  F  F16  1  0.772605  0.524058  0.857692  1
  F  F17  1  0.266627  0.475752  0.641657  1
  F  F18  1  0.226783  0.475606  0.143024  1
  F  F19  1  0.733876  0.512657  0.360567  1
  F  F20  1  0.757935  0.022368  0.057636  1
  F  F21  1  0.260065  0.976058  0.443104  1
  F  F22  1  0.243184  0.975383  0.942230  1
  F  F23  1  0.744431  0.034188  0.547560  1
  F  F24  1  0.978142  0.736417  0.645196  1
  F  F25  1  0.482518  0.266439  0.851018  1
  F  F26  1  0.024188  0.269738  0.358724  1
  F  F27  1  0.520665  0.730012  0.150232  1
  F  F28  1  0.037249  0.747902  0.174288  1
  F  F29  1  0.543753  0.254911  0.326061  1
  F  F30  1  0.965848  0.251046  0.827870  1
  F  F31  1  0.465683  0.750434  0.670752  1
  F  F32  1  0.425711  0.974446  0.234321  1
  F  F33  1  0.925583  0.028484  0.267120  1
  F  F34  1  0.570632  0.024563  0.764533  1
  F  F35  1  0.071066  0.972048  0.732798  1
