# generated using pymatgen
data_Dy4Lu16Bi11Au
_symmetry_space_group_name_H-M   'P 1'
_cell_length_a   8.11033615
_cell_length_b   9.37260300
_cell_length_c   11.86438424
_cell_angle_alpha   90.00000000
_cell_angle_beta   90.38119192
_cell_angle_gamma   90.00000000
_symmetry_Int_Tables_number   1
_chemical_formula_structural   Dy4Lu16Bi11Au
_chemical_formula_sum   'Dy4 Lu16 Bi11 Au1'
_cell_volume   901.85074482
_cell_formula_units_Z   1
loop_
 _symmetry_equiv_pos_site_id
 _symmetry_equiv_pos_as_xyz
  1  'x, y, z'
loop_
 _atom_site_type_symbol
 _atom_site_label
 _atom_site_symmetry_multiplicity
 _atom_site_fract_x
 _atom_site_fract_y
 _atom_site_fract_z
 _atom_site_occupancy
  Dy  Dy0  1  0.314230  0.250000  0.217952  1
  Dy  Dy1  1  0.810506  0.250000  0.284221  1
  Dy  Dy2  1  0.672443  0.750000  0.790083  1
  Dy  Dy3  1  0.193700  0.750000  0.719517  1
  Lu  Lu4  1  0.354780  0.750000  0.204640  1
  Lu  Lu5  1  0.848750  0.750000  0.283062  1
  Lu  Lu6  1  0.651872  0.250000  0.781439  1
  Lu  Lu7  1  0.150994  0.250000  0.719943  1
  Lu  Lu8  1  0.682599  0.572907  0.055512  1
  Lu  Lu9  1  0.190847  0.932575  0.436510  1
  Lu  Lu10  1  0.311264  0.046313  0.940277  1
  Lu  Lu11  1  0.808155  0.432688  0.560515  1
  Lu  Lu12  1  0.311264  0.453687  0.940277  1
  Lu  Lu13  1  0.808155  0.067312  0.560515  1
  Lu  Lu14  1  0.682599  0.927093  0.055512  1
  Lu  Lu15  1  0.190847  0.567425  0.436510  1
  Lu  Lu16  1  0.478132  0.250000  0.489930  1
  Lu  Lu17  1  0.983445  0.250000  0.008349  1
  Lu  Lu18  1  0.522231  0.750000  0.509659  1
  Lu  Lu19  1  0.039465  0.750000  0.992785  1
  Bi  Bi20  1  0.901336  0.750000  0.543766  1
  Bi  Bi21  1  0.598301  0.250000  0.040148  1
  Bi  Bi22  1  0.099571  0.250000  0.460328  1
  Bi  Bi23  1  0.562304  0.994284  0.326109  1
  Bi  Bi24  1  0.057803  0.502900  0.176425  1
  Bi  Bi25  1  0.437309  0.494364  0.673283  1
  Bi  Bi26  1  0.937489  0.002318  0.824901  1
  Bi  Bi27  1  0.437309  0.005636  0.673283  1
  Bi  Bi28  1  0.937489  0.497682  0.824901  1
  Bi  Bi29  1  0.562304  0.505716  0.326109  1
  Bi  Bi30  1  0.057803  0.997100  0.176425  1
  Au  Au31  1  0.404702  0.750000  0.967110  1
