# generated using pymatgen
data_Ca3Mo4(PO4)6
_symmetry_space_group_name_H-M   'P 1'
_cell_length_a   6.65050758
_cell_length_b   9.15989783
_cell_length_c   9.26906582
_cell_angle_alpha   90.22497003
_cell_angle_beta   108.12493637
_cell_angle_gamma   107.52964188
_symmetry_Int_Tables_number   1
_chemical_formula_structural   Ca3Mo4(PO4)6
_chemical_formula_sum   'Ca3 Mo4 P6 O24'
_cell_volume   508.73632414
_cell_formula_units_Z   1
loop_
 _symmetry_equiv_pos_site_id
 _symmetry_equiv_pos_as_xyz
  1  'x, y, z'
loop_
 _atom_site_type_symbol
 _atom_site_label
 _atom_site_symmetry_multiplicity
 _atom_site_fract_x
 _atom_site_fract_y
 _atom_site_fract_z
 _atom_site_occupancy
  Ca  Ca0  1  0.263071  0.757212  0.246551  1
  Ca  Ca1  1  0.747185  0.239829  0.761699  1
  Ca  Ca2  1  0.029714  0.985225  0.985247  1
  Mo  Mo3  1  0.140380  0.882452  0.568331  1
  Mo  Mo4  1  0.359729  0.432768  0.115911  1
  Mo  Mo5  1  0.856797  0.117446  0.428666  1
  Mo  Mo6  1  0.640535  0.566412  0.884412  1
  P  P7  1  0.242575  0.219192  0.776649  1
  P  P8  1  0.756792  0.782776  0.220276  1
  P  P9  1  0.353246  0.144673  0.358118  1
  P  P10  1  0.135586  0.643921  0.855987  1
  P  P11  1  0.647455  0.854049  0.641295  1
  P  P12  1  0.865029  0.355523  0.143049  1
  O  O13  1  0.260959  0.054889  0.764646  1
  O  O14  1  0.210181  0.238005  0.935594  1
  O  O15  1  0.724115  0.940760  0.237988  1
  O  O16  1  0.788928  0.765514  0.060990  1
  O  O17  1  0.969230  0.762610  0.339898  1
  O  O18  1  0.546585  0.658853  0.236188  1
  O  O19  1  0.033147  0.241192  0.656480  1
  O  O20  1  0.456825  0.337738  0.761962  1
  O  O21  1  0.140045  0.696251  0.700997  1
  O  O22  1  0.351833  0.300075  0.301399  1
  O  O23  1  0.858416  0.304903  0.298625  1
  O  O24  1  0.650933  0.698616  0.698052  1
  O  O25  1  0.417345  0.841238  0.521650  1
  O  O26  1  0.090295  0.488366  0.162802  1
  O  O27  1  0.581715  0.156821  0.479860  1
  O  O28  1  0.911687  0.512646  0.839046  1
  O  O29  1  0.288561  0.018414  0.226304  1
  O  O30  1  0.168165  0.773985  0.975025  1
  O  O31  1  0.717385  0.979499  0.774414  1
  O  O32  1  0.833471  0.227432  0.024407  1
  O  O33  1  0.177373  0.091481  0.446682  1
  O  O34  1  0.327225  0.566113  0.917555  1
  O  O35  1  0.820380  0.906888  0.550734  1
  O  O36  1  0.673403  0.435134  0.082009  1
