# generated using pymatgen
data_Zr4Co5Si2Ni
_symmetry_space_group_name_H-M   'P 1'
_cell_length_a   5.02881552
_cell_length_b   5.04662486
_cell_length_c   7.69854300
_cell_angle_alpha   90.00000000
_cell_angle_beta   90.00000000
_cell_angle_gamma   120.11721244
_symmetry_Int_Tables_number   1
_chemical_formula_structural   Zr4Co5Si2Ni
_chemical_formula_sum   'Zr4 Co5 Si2 Ni1'
_cell_volume   169.00195785
_cell_formula_units_Z   1
loop_
 _symmetry_equiv_pos_site_id
 _symmetry_equiv_pos_as_xyz
  1  'x, y, z'
loop_
 _atom_site_type_symbol
 _atom_site_label
 _atom_site_symmetry_multiplicity
 _atom_site_fract_x
 _atom_site_fract_y
 _atom_site_fract_z
 _atom_site_occupancy
  Zr  Zr0  1  0.329190  0.664596  0.438353  1
  Zr  Zr1  1  0.665350  0.332675  0.557460  1
  Zr  Zr2  1  0.665350  0.332675  0.942540  1
  Zr  Zr3  1  0.329190  0.664596  0.061647  1
  Co  Co4  1  0.832902  0.168538  0.250000  1
  Co  Co5  1  0.832902  0.664364  0.250000  1
  Co  Co6  1  0.337735  0.168867  0.250000  1
  Co  Co7  1  0.169030  0.832006  0.750000  1
  Co  Co8  1  0.169030  0.337024  0.750000  1
  Si  Si9  1  0.002197  0.001098  0.498774  1
  Si  Si10  1  0.002197  0.001098  0.001226  1
  Ni  Ni11  1  0.664926  0.832463  0.750000  1
