# generated using pymatgen
data_Tb3Er13(HgPd)4
_symmetry_space_group_name_H-M   'P 1'
_cell_length_a   9.63459292
_cell_length_b   9.63473909
_cell_length_c   9.62681700
_cell_angle_alpha   60.02770041
_cell_angle_beta   60.02723341
_cell_angle_gamma   60.05622111
_symmetry_Int_Tables_number   1
_chemical_formula_structural   Tb3Er13(HgPd)4
_chemical_formula_sum   'Tb3 Er13 Hg4 Pd4'
_cell_volume   632.41995592
_cell_formula_units_Z   1
loop_
 _symmetry_equiv_pos_site_id
 _symmetry_equiv_pos_as_xyz
  1  'x, y, z'
loop_
 _atom_site_type_symbol
 _atom_site_label
 _atom_site_symmetry_multiplicity
 _atom_site_fract_x
 _atom_site_fract_y
 _atom_site_fract_z
 _atom_site_occupancy
  Tb  Tb0  1  0.356745  0.356714  0.354196  1
  Tb  Tb1  1  0.356697  0.356729  0.932345  1
  Tb  Tb2  1  0.360034  0.925601  0.357144  1
  Er  Er3  1  0.925908  0.359862  0.357119  1
  Er  Er4  1  0.812310  0.188522  0.188387  1
  Er  Er5  1  0.188224  0.812374  0.811270  1
  Er  Er6  1  0.188221  0.812381  0.188136  1
  Er  Er7  1  0.812278  0.188521  0.810795  1
  Er  Er8  1  0.189043  0.189019  0.810977  1
  Er  Er9  1  0.812652  0.812236  0.187533  1
  Er  Er10  1  0.934829  0.565558  0.565212  1
  Er  Er11  1  0.565717  0.934734  0.934130  1
  Er  Er12  1  0.565733  0.934759  0.565462  1
  Er  Er13  1  0.934878  0.565487  0.934439  1
  Er  Er14  1  0.566479  0.566567  0.933481  1
  Er  Er15  1  0.935245  0.935548  0.564589  1
  Hg  Hg16  1  0.587210  0.586167  0.588811  1
  Hg  Hg17  1  0.587188  0.586253  0.237739  1
  Hg  Hg18  1  0.586355  0.237715  0.587986  1
  Hg  Hg19  1  0.237608  0.585684  0.588380  1
  Pd  Pd20  1  0.143733  0.145291  0.148078  1
  Pd  Pd21  1  0.143684  0.145326  0.562923  1
  Pd  Pd22  1  0.141933  0.566309  0.145894  1
  Pd  Pd23  1  0.567296  0.142645  0.144975  1
