# generated using pymatgen
data_Tm3Al12Ir3Os
_symmetry_space_group_name_H-M   'P 1'
_cell_length_a   8.80063600
_cell_length_b   8.80063657
_cell_length_c   9.49033000
_cell_angle_alpha   90.00000000
_cell_angle_beta   90.00000000
_cell_angle_gamma   119.99999787
_symmetry_Int_Tables_number   1
_chemical_formula_structural   Tm3Al12Ir3Os
_chemical_formula_sum   'Tm6 Al24 Ir6 Os2'
_cell_volume   636.56110714
_cell_formula_units_Z   2
loop_
 _symmetry_equiv_pos_site_id
 _symmetry_equiv_pos_as_xyz
  1  'x, y, z'
loop_
 _atom_site_type_symbol
 _atom_site_label
 _atom_site_symmetry_multiplicity
 _atom_site_fract_x
 _atom_site_fract_y
 _atom_site_fract_z
 _atom_site_occupancy
  Tm  Tm0  1  0.194091  0.388182  0.250000  1
  Tm  Tm1  1  0.805909  0.611818  0.750000  1
  Tm  Tm2  1  0.611818  0.805909  0.250000  1
  Tm  Tm3  1  0.388182  0.194091  0.750000  1
  Tm  Tm4  1  0.194091  0.805909  0.250000  1
  Tm  Tm5  1  0.805909  0.194091  0.750000  1
  Al  Al6  1  0.333333  0.666667  0.029617  1
  Al  Al7  1  0.666667  0.333333  0.970383  1
  Al  Al8  1  0.666667  0.333333  0.529617  1
  Al  Al9  1  0.333333  0.666667  0.470383  1
  Al  Al10  1  0.163642  0.327284  0.577931  1
  Al  Al11  1  0.836358  0.672716  0.422069  1
  Al  Al12  1  0.672716  0.836358  0.577931  1
  Al  Al13  1  0.836358  0.672716  0.077931  1
  Al  Al14  1  0.327284  0.163642  0.422069  1
  Al  Al15  1  0.163642  0.327284  0.922069  1
  Al  Al16  1  0.163642  0.836358  0.577931  1
  Al  Al17  1  0.327284  0.163642  0.077931  1
  Al  Al18  1  0.836358  0.163642  0.422069  1
  Al  Al19  1  0.672716  0.836358  0.922069  1
  Al  Al20  1  0.836358  0.163642  0.077931  1
  Al  Al21  1  0.163642  0.836358  0.922069  1
  Al  Al22  1  0.562251  0.124503  0.250000  1
  Al  Al23  1  0.437749  0.875497  0.750000  1
  Al  Al24  1  0.875497  0.437749  0.250000  1
  Al  Al25  1  0.124503  0.562251  0.750000  1
  Al  Al26  1  0.562251  0.437749  0.250000  1
  Al  Al27  1  0.437749  0.562251  0.750000  1
  Al  Al28  1  0.000000  0.000000  0.250000  1
  Al  Al29  1  0.000000  0.000000  0.750000  1
  Ir  Ir30  1  0.500000  0.000000  0.000000  1
  Ir  Ir31  1  0.000000  0.500000  0.000000  1
  Ir  Ir32  1  0.500000  0.000000  0.500000  1
  Ir  Ir33  1  0.500000  0.500000  0.000000  1
  Ir  Ir34  1  0.000000  0.500000  0.500000  1
  Ir  Ir35  1  0.500000  0.500000  0.500000  1
  Os  Os36  1  0.000000  0.000000  0.000000  1
  Os  Os37  1  0.000000  0.000000  0.500000  1
