# generated using pymatgen
data_DyY9Ir5Au
_symmetry_space_group_name_H-M   'P 1'
_cell_length_a   11.09170780
_cell_length_b   11.04122600
_cell_length_c   6.36821311
_cell_angle_alpha   90.00000000
_cell_angle_beta   89.86588661
_cell_angle_gamma   90.00000000
_symmetry_Int_Tables_number   1
_chemical_formula_structural   DyY9Ir5Au
_chemical_formula_sum   'Dy2 Y18 Ir10 Au2'
_cell_volume   779.88778450
_cell_formula_units_Z   2
loop_
 _symmetry_equiv_pos_site_id
 _symmetry_equiv_pos_as_xyz
  1  'x, y, z'
loop_
 _atom_site_type_symbol
 _atom_site_label
 _atom_site_symmetry_multiplicity
 _atom_site_fract_x
 _atom_site_fract_y
 _atom_site_fract_z
 _atom_site_occupancy
  Dy  Dy0  1  0.499566  0.498767  0.000381  1
  Dy  Dy1  1  0.499566  0.501233  0.500381  1
  Y  Y2  1  0.291928  0.088795  0.373433  1
  Y  Y3  1  0.291928  0.911205  0.873433  1
  Y  Y4  1  0.698562  0.092336  0.866671  1
  Y  Y5  1  0.698562  0.907664  0.366671  1
  Y  Y6  1  0.578682  0.789593  0.878238  1
  Y  Y7  1  0.578682  0.210407  0.378238  1
  Y  Y8  1  0.408156  0.790966  0.377930  1
  Y  Y9  1  0.408156  0.209034  0.877930  1
  Y  Y10  1  0.209731  0.411060  0.620418  1
  Y  Y11  1  0.209731  0.588940  0.120418  1
  Y  Y12  1  0.789263  0.419170  0.122273  1
  Y  Y13  1  0.789263  0.580830  0.622273  1
  Y  Y14  1  0.916774  0.705388  0.137634  1
  Y  Y15  1  0.916774  0.294612  0.637634  1
  Y  Y16  1  0.096152  0.702817  0.623114  1
  Y  Y17  1  0.096152  0.297183  0.123114  1
  Y  Y18  1  0.009060  0.997514  0.499923  1
  Y  Y19  1  0.009060  0.002486  0.999923  1
  Ir  Ir20  1  0.154197  0.154149  0.750391  1
  Ir  Ir21  1  0.154197  0.845851  0.250391  1
  Ir  Ir22  1  0.655284  0.346864  0.747880  1
  Ir  Ir23  1  0.655284  0.653136  0.247880  1
  Ir  Ir24  1  0.348051  0.346621  0.251653  1
  Ir  Ir25  1  0.348051  0.653379  0.751653  1
  Ir  Ir26  1  0.499673  0.999763  0.122214  1
  Ir  Ir27  1  0.499673  0.000237  0.622214  1
  Ir  Ir28  1  0.999691  0.501047  0.877748  1
  Ir  Ir29  1  0.999691  0.498953  0.377748  1
  Au  Au30  1  0.845232  0.155156  0.250099  1
  Au  Au31  1  0.845232  0.844844  0.750099  1
