# generated using pymatgen
data_K3Li3(TaS4)2
_symmetry_space_group_name_H-M   'P 1'
_cell_length_a   12.81206167
_cell_length_b   12.81206112
_cell_length_c   14.05155878
_cell_angle_alpha   62.31704004
_cell_angle_beta   62.31704049
_cell_angle_gamma   27.12313931
_symmetry_Int_Tables_number   1
_chemical_formula_structural   K3Li3(TaS4)2
_chemical_formula_sum   'K6 Li6 Ta4 S16'
_cell_volume   923.70813059
_cell_formula_units_Z   2
loop_
 _symmetry_equiv_pos_site_id
 _symmetry_equiv_pos_as_xyz
  1  'x, y, z'
loop_
 _atom_site_type_symbol
 _atom_site_label
 _atom_site_symmetry_multiplicity
 _atom_site_fract_x
 _atom_site_fract_y
 _atom_site_fract_z
 _atom_site_occupancy
  K  K0  1  0.611191  0.784796  0.395211  1
  K  K1  1  0.000000  0.000000  0.000000  1
  K  K2  1  0.784796  0.611191  0.895211  1
  K  K3  1  0.000000  0.000000  0.500000  1
  K  K4  1  0.215204  0.388809  0.104789  1
  K  K5  1  0.388809  0.215204  0.604789  1
  Li  Li6  1  0.317155  0.682845  0.750000  1
  Li  Li7  1  0.328790  0.918861  0.210416  1
  Li  Li8  1  0.918861  0.328790  0.710416  1
  Li  Li9  1  0.081139  0.671210  0.289584  1
  Li  Li10  1  0.682845  0.317155  0.250000  1
  Li  Li11  1  0.671210  0.081139  0.789584  1
  Ta  Ta12  1  0.577563  0.167235  0.278029  1
  Ta  Ta13  1  0.167235  0.577563  0.778029  1
  Ta  Ta14  1  0.832765  0.422437  0.221971  1
  Ta  Ta15  1  0.422437  0.832765  0.721971  1
  S  S16  1  0.468333  0.432254  0.659801  1
  S  S17  1  0.204264  0.107736  0.813106  1
  S  S18  1  0.432254  0.468333  0.159801  1
  S  S19  1  0.795736  0.892264  0.186894  1
  S  S20  1  0.567746  0.531667  0.840199  1
  S  S21  1  0.316433  0.270687  0.884318  1
  S  S22  1  0.729313  0.683567  0.615682  1
  S  S23  1  0.270687  0.316433  0.384318  1
  S  S24  1  0.892264  0.795736  0.686894  1
  S  S25  1  0.187514  0.995961  0.624978  1
  S  S26  1  0.683567  0.729313  0.115682  1
  S  S27  1  0.531667  0.567746  0.340199  1
  S  S28  1  0.004039  0.812486  0.875022  1
  S  S29  1  0.107736  0.204264  0.313106  1
  S  S30  1  0.812486  0.004039  0.375022  1
  S  S31  1  0.995961  0.187514  0.124978  1
