# generated using pymatgen
data_YEr4Bi3
_symmetry_space_group_name_H-M   'P 1'
_cell_length_a   8.20583300
_cell_length_b   9.48031400
_cell_length_c   11.96085400
_cell_angle_alpha   90.00000000
_cell_angle_beta   90.00000000
_cell_angle_gamma   90.00000000
_symmetry_Int_Tables_number   1
_chemical_formula_structural   YEr4Bi3
_chemical_formula_sum   'Y4 Er16 Bi12'
_cell_volume   930.48116269
_cell_formula_units_Z   4
loop_
 _symmetry_equiv_pos_site_id
 _symmetry_equiv_pos_as_xyz
  1  'x, y, z'
loop_
 _atom_site_type_symbol
 _atom_site_label
 _atom_site_symmetry_multiplicity
 _atom_site_fract_x
 _atom_site_fract_y
 _atom_site_fract_z
 _atom_site_occupancy
  Y  Y0  1  0.314279  0.250000  0.217893  1
  Y  Y1  1  0.814279  0.250000  0.282107  1
  Y  Y2  1  0.685721  0.750000  0.782107  1
  Y  Y3  1  0.185721  0.750000  0.717893  1
  Er  Er4  1  0.353471  0.750000  0.216813  1
  Er  Er5  1  0.853471  0.750000  0.283187  1
  Er  Er6  1  0.646529  0.250000  0.783187  1
  Er  Er7  1  0.146529  0.250000  0.716813  1
  Er  Er8  1  0.691979  0.564735  0.059335  1
  Er  Er9  1  0.191979  0.935265  0.440665  1
  Er  Er10  1  0.308021  0.064735  0.940665  1
  Er  Er11  1  0.808021  0.435265  0.559335  1
  Er  Er12  1  0.308021  0.435265  0.940665  1
  Er  Er13  1  0.808021  0.064735  0.559335  1
  Er  Er14  1  0.691979  0.935265  0.059335  1
  Er  Er15  1  0.191979  0.564735  0.440665  1
  Er  Er16  1  0.476464  0.250000  0.489212  1
  Er  Er17  1  0.976464  0.250000  0.010788  1
  Er  Er18  1  0.523536  0.750000  0.510788  1
  Er  Er19  1  0.023536  0.750000  0.989212  1
  Bi  Bi20  1  0.404829  0.750000  0.958157  1
  Bi  Bi21  1  0.904829  0.750000  0.541843  1
  Bi  Bi22  1  0.595171  0.250000  0.041843  1
  Bi  Bi23  1  0.095171  0.250000  0.458157  1
  Bi  Bi24  1  0.566092  0.995640  0.326122  1
  Bi  Bi25  1  0.066092  0.504360  0.173878  1
  Bi  Bi26  1  0.433908  0.495640  0.673878  1
  Bi  Bi27  1  0.933908  0.004360  0.826122  1
  Bi  Bi28  1  0.433908  0.004360  0.673878  1
  Bi  Bi29  1  0.933908  0.495640  0.826122  1
  Bi  Bi30  1  0.566092  0.504360  0.326122  1
  Bi  Bi31  1  0.066092  0.995640  0.173878  1
