# generated using pymatgen
data_YbErIr2O7
_symmetry_space_group_name_H-M   'P 1'
_cell_length_a   7.21473569
_cell_length_b   7.21473671
_cell_length_c   7.23867000
_cell_angle_alpha   59.89020452
_cell_angle_beta   59.89019982
_cell_angle_gamma   59.76274910
_symmetry_Int_Tables_number   1
_chemical_formula_structural   YbErIr2O7
_chemical_formula_sum   'Yb2 Er2 Ir4 O14'
_cell_volume   265.50932118
_cell_formula_units_Z   2
loop_
 _symmetry_equiv_pos_site_id
 _symmetry_equiv_pos_as_xyz
  1  'x, y, z'
loop_
 _atom_site_type_symbol
 _atom_site_label
 _atom_site_symmetry_multiplicity
 _atom_site_fract_x
 _atom_site_fract_y
 _atom_site_fract_z
 _atom_site_occupancy
  Yb  Yb0  1  0.125000  0.125000  0.625000  1
  Yb  Yb1  1  0.125000  0.125000  0.125000  1
  Er  Er2  1  0.625000  0.125000  0.125000  1
  Er  Er3  1  0.125000  0.625000  0.125000  1
  Ir  Ir4  1  0.125000  0.625000  0.625000  1
  Ir  Ir5  1  0.625000  0.125000  0.625000  1
  Ir  Ir6  1  0.625000  0.625000  0.125000  1
  Ir  Ir7  1  0.625000  0.625000  0.625000  1
  O  O8  1  0.707442  0.707442  0.292558  1
  O  O9  1  0.293794  0.293794  0.706206  1
  O  O10  1  0.698905  0.293545  0.714989  1
  O  O11  1  0.293545  0.698905  0.292562  1
  O  O12  1  0.293545  0.698905  0.714989  1
  O  O13  1  0.698905  0.293545  0.292562  1
  O  O14  1  0.542558  0.542558  0.957442  1
  O  O15  1  0.956206  0.956206  0.543794  1
  O  O16  1  0.551095  0.956455  0.535011  1
  O  O17  1  0.956455  0.551095  0.957438  1
  O  O18  1  0.956455  0.551095  0.535011  1
  O  O19  1  0.551095  0.956455  0.957438  1
  O  O20  1  0.256186  0.256186  0.243814  1
  O  O21  1  0.993814  0.993814  0.006186  1
