# generated using pymatgen
data_Pr4ReMo3F28
_symmetry_space_group_name_H-M   'P 1'
_cell_length_a   5.83632334
_cell_length_b   9.34735834
_cell_length_c   12.53913300
_cell_angle_alpha   61.98503796
_cell_angle_beta   89.98052287
_cell_angle_gamma   89.94552299
_symmetry_Int_Tables_number   1
_chemical_formula_structural   Pr4ReMo3F28
_chemical_formula_sum   'Pr4 Re1 Mo3 F28'
_cell_volume   603.90712330
_cell_formula_units_Z   1
loop_
 _symmetry_equiv_pos_site_id
 _symmetry_equiv_pos_as_xyz
  1  'x, y, z'
loop_
 _atom_site_type_symbol
 _atom_site_label
 _atom_site_symmetry_multiplicity
 _atom_site_fract_x
 _atom_site_fract_y
 _atom_site_fract_z
 _atom_site_occupancy
  Pr  Pr0  1  0.758733  0.812968  0.764833  1
  Pr  Pr1  1  0.259150  0.189066  0.733234  1
  Pr  Pr2  1  0.238315  0.187892  0.235701  1
  Pr  Pr3  1  0.742531  0.809224  0.266839  1
  Re  Re4  1  0.743074  0.273376  0.456722  1
  Mo  Mo5  1  0.755196  0.273777  0.957098  1
  Mo  Mo6  1  0.255765  0.726057  0.543552  1
  Mo  Mo7  1  0.244580  0.726087  0.043209  1
  F  F8  1  0.450291  0.711018  0.923281  1
  F  F9  1  0.940796  0.289638  0.579333  1
  F  F10  1  0.547166  0.288549  0.076452  1
  F  F11  1  0.044169  0.711053  0.419239  1
  F  F12  1  0.460736  0.282452  0.542814  1
  F  F13  1  0.958266  0.718375  0.951251  1
  F  F14  1  0.534203  0.715478  0.455724  1
  F  F15  1  0.039731  0.282349  0.050039  1
  F  F16  1  0.765013  0.512942  0.861699  1
  F  F17  1  0.265085  0.486249  0.636065  1
  F  F18  1  0.235222  0.486745  0.139544  1
  F  F19  1  0.736002  0.512967  0.361623  1
  F  F20  1  0.759588  0.034992  0.053200  1
  F  F21  1  0.263218  0.964645  0.448491  1
  F  F22  1  0.240583  0.965025  0.946125  1
  F  F23  1  0.740568  0.034124  0.550975  1
  F  F24  1  0.986458  0.731637  0.637615  1
  F  F25  1  0.481540  0.267576  0.857408  1
  F  F26  1  0.018185  0.267839  0.365314  1
  F  F27  1  0.520555  0.732267  0.141263  1
  F  F28  1  0.044784  0.745842  0.164248  1
  F  F29  1  0.548727  0.257336  0.332102  1
  F  F30  1  0.958490  0.255921  0.835953  1
  F  F31  1  0.461087  0.742955  0.669803  1
  F  F32  1  0.417448  0.970377  0.233766  1
  F  F33  1  0.913840  0.030544  0.269900  1
  F  F34  1  0.584340  0.031769  0.766762  1
  F  F35  1  0.086560  0.970890  0.728826  1
