# generated using pymatgen
data_Tb3ErScPt3O14
_symmetry_space_group_name_H-M   'P 1'
_cell_length_a   7.26768858
_cell_length_b   7.26768855
_cell_length_c   7.33938355
_cell_angle_alpha   60.32260682
_cell_angle_beta   60.32261997
_cell_angle_gamma   60.00000105
_symmetry_Int_Tables_number   1
_chemical_formula_structural   Tb3ErScPt3O14
_chemical_formula_sum   'Tb3 Er1 Sc1 Pt3 O14'
_cell_volume   275.44686558
_cell_formula_units_Z   1
loop_
 _symmetry_equiv_pos_site_id
 _symmetry_equiv_pos_as_xyz
  1  'x, y, z'
loop_
 _atom_site_type_symbol
 _atom_site_label
 _atom_site_symmetry_multiplicity
 _atom_site_fract_x
 _atom_site_fract_y
 _atom_site_fract_z
 _atom_site_occupancy
  Tb  Tb0  1  0.625000  0.625000  0.625000  1
  Tb  Tb1  1  0.625000  0.125000  0.625000  1
  Tb  Tb2  1  0.125000  0.625000  0.625000  1
  Er  Er3  1  0.625000  0.625000  0.125000  1
  Sc  Sc4  1  0.125000  0.125000  0.625000  1
  Pt  Pt5  1  0.125000  0.125000  0.125000  1
  Pt  Pt6  1  0.625000  0.125000  0.125000  1
  Pt  Pt7  1  0.125000  0.625000  0.125000  1
  O  O8  1  0.031548  0.477026  0.459877  1
  O  O9  1  0.788739  0.788739  0.201370  1
  O  O10  1  0.788739  0.221152  0.201370  1
  O  O11  1  0.477026  0.031548  0.459877  1
  O  O12  1  0.028848  0.461261  0.048630  1
  O  O13  1  0.746000  0.746000  0.762000  1
  O  O14  1  0.031548  0.031548  0.459877  1
  O  O15  1  0.221152  0.788739  0.201370  1
  O  O16  1  0.218452  0.218452  0.790123  1
  O  O17  1  0.504000  0.504000  0.488000  1
  O  O18  1  0.772974  0.218452  0.790123  1
  O  O19  1  0.461261  0.028848  0.048630  1
  O  O20  1  0.461261  0.461261  0.048630  1
  O  O21  1  0.218452  0.772974  0.790123  1
