# generated using pymatgen
data_LaNd(In2I5)2
_symmetry_space_group_name_H-M   'P 1'
_cell_length_a   9.16002882
_cell_length_b   9.84532000
_cell_length_c   14.38276275
_cell_angle_alpha   90.00000000
_cell_angle_beta   90.15873546
_cell_angle_gamma   90.00000000
_symmetry_Int_Tables_number   1
_chemical_formula_structural   LaNd(In2I5)2
_chemical_formula_sum   'La2 Nd2 In8 I20'
_cell_volume   1297.08168322
_cell_formula_units_Z   2
loop_
 _symmetry_equiv_pos_site_id
 _symmetry_equiv_pos_as_xyz
  1  'x, y, z'
loop_
 _atom_site_type_symbol
 _atom_site_label
 _atom_site_symmetry_multiplicity
 _atom_site_fract_x
 _atom_site_fract_y
 _atom_site_fract_z
 _atom_site_occupancy
  La  La0  1  0.420645  0.250000  0.994064  1
  La  La1  1  0.579355  0.750000  0.005936  1
  Nd  Nd2  1  0.919905  0.750000  0.505898  1
  Nd  Nd3  1  0.080095  0.250000  0.494102  1
  In  In4  1  0.950102  0.003812  0.826932  1
  In  In5  1  0.049898  0.996188  0.173068  1
  In  In6  1  0.450088  0.996166  0.672802  1
  In  In7  1  0.049898  0.503812  0.173068  1
  In  In8  1  0.549912  0.003834  0.327198  1
  In  In9  1  0.950102  0.496188  0.826932  1
  In  In10  1  0.549912  0.496166  0.327198  1
  In  In11  1  0.450088  0.503834  0.672802  1
  I  I12  1  0.128893  0.750000  0.684431  1
  I  I13  1  0.871107  0.250000  0.315569  1
  I  I14  1  0.631176  0.250000  0.813528  1
  I  I15  1  0.368824  0.750000  0.186472  1
  I  I16  1  0.831625  0.044741  0.580247  1
  I  I17  1  0.168375  0.955259  0.419753  1
  I  I18  1  0.328662  0.953895  0.917720  1
  I  I19  1  0.168375  0.544741  0.419753  1
  I  I20  1  0.671338  0.046105  0.082280  1
  I  I21  1  0.831625  0.455259  0.580247  1
  I  I22  1  0.671338  0.453895  0.082280  1
  I  I23  1  0.328662  0.546105  0.917720  1
  I  I24  1  0.565611  0.750000  0.504821  1
  I  I25  1  0.434389  0.250000  0.495179  1
  I  I26  1  0.061993  0.250000  0.995162  1
  I  I27  1  0.938007  0.750000  0.004838  1
  I  I28  1  0.667367  0.750000  0.788438  1
  I  I29  1  0.332633  0.250000  0.211562  1
  I  I30  1  0.166334  0.250000  0.709321  1
  I  I31  1  0.833666  0.750000  0.290679  1
