# generated using pymatgen
data_Ce3Y5(Si3Rh)4
_symmetry_space_group_name_H-M   'P 1'
_cell_length_a   8.17404100
_cell_length_b   8.17404215
_cell_length_c   8.08956200
_cell_angle_alpha   90.00000000
_cell_angle_beta   90.00000000
_cell_angle_gamma   119.64327052
_symmetry_Int_Tables_number   1
_chemical_formula_structural   Ce3Y5(Si3Rh)4
_chemical_formula_sum   'Ce3 Y5 Si12 Rh4'
_cell_volume   469.76349050
_cell_formula_units_Z   1
loop_
 _symmetry_equiv_pos_site_id
 _symmetry_equiv_pos_as_xyz
  1  'x, y, z'
loop_
 _atom_site_type_symbol
 _atom_site_label
 _atom_site_symmetry_multiplicity
 _atom_site_fract_x
 _atom_site_fract_y
 _atom_site_fract_z
 _atom_site_occupancy
  Ce  Ce0  1  0.999940  0.000060  0.250000  1
  Ce  Ce1  1  0.000085  0.999915  0.750000  1
  Ce  Ce2  1  0.504691  0.495309  0.250000  1
  Y  Y3  1  0.507182  0.013499  0.250000  1
  Y  Y4  1  0.986501  0.492818  0.250000  1
  Y  Y5  1  0.492999  0.507001  0.750000  1
  Y  Y6  1  0.492713  0.986759  0.750000  1
  Y  Y7  1  0.013241  0.507287  0.750000  1
  Si  Si8  1  0.167515  0.832485  0.500368  1
  Si  Si9  1  0.165187  0.332534  0.501944  1
  Si  Si10  1  0.667466  0.834813  0.501944  1
  Si  Si11  1  0.832464  0.167536  0.498354  1
  Si  Si12  1  0.834244  0.666392  0.499371  1
  Si  Si13  1  0.333608  0.165756  0.499371  1
  Si  Si14  1  0.832464  0.167536  0.001646  1
  Si  Si15  1  0.834244  0.666392  0.000629  1
  Si  Si16  1  0.333608  0.165756  0.000629  1
  Si  Si17  1  0.167515  0.832485  0.999632  1
  Si  Si18  1  0.165187  0.332534  0.998056  1
  Si  Si19  1  0.667466  0.834813  0.998056  1
  Rh  Rh20  1  0.334704  0.665296  0.475223  1
  Rh  Rh21  1  0.666139  0.333861  0.526377  1
  Rh  Rh22  1  0.666139  0.333861  0.973623  1
  Rh  Rh23  1  0.334704  0.665296  0.024777  1
