# generated using pymatgen
data_Tm3Al2Ga3Ru
_symmetry_space_group_name_H-M   'P 1'
_cell_length_a   6.86062262
_cell_length_b   6.86062187
_cell_length_c   4.30909200
_cell_angle_alpha   90.00000000
_cell_angle_beta   90.00000000
_cell_angle_gamma   119.67309210
_symmetry_Int_Tables_number   1
_chemical_formula_structural   Tm3Al2Ga3Ru
_chemical_formula_sum   'Tm3 Al2 Ga3 Ru1'
_cell_volume   176.22382968
_cell_formula_units_Z   1
loop_
 _symmetry_equiv_pos_site_id
 _symmetry_equiv_pos_as_xyz
  1  'x, y, z'
loop_
 _atom_site_type_symbol
 _atom_site_label
 _atom_site_symmetry_multiplicity
 _atom_site_fract_x
 _atom_site_fract_y
 _atom_site_fract_z
 _atom_site_occupancy
  Tm  Tm0  1  0.585011  0.999367  0.000000  1
  Tm  Tm1  1  0.999367  0.585011  0.000000  1
  Tm  Tm2  1  0.416192  0.416192  0.000000  1
  Al  Al3  1  0.230028  0.001606  0.500000  1
  Al  Al4  1  0.001606  0.230028  0.500000  1
  Ga  Ga5  1  0.764196  0.764196  0.500000  1
  Ga  Ga6  1  0.330927  0.667413  0.500000  1
  Ga  Ga7  1  0.667413  0.330927  0.500000  1
  Ru  Ru8  1  0.005260  0.005260  0.000000  1
