# generated using pymatgen
data_Tb5YP13Rh20
_symmetry_space_group_name_H-M   'P 1'
_cell_length_a   13.35329244
_cell_length_b   13.35184960
_cell_length_c   3.93045401
_cell_angle_alpha   89.99231237
_cell_angle_beta   90.00108323
_cell_angle_gamma   119.97407995
_symmetry_Int_Tables_number   1
_chemical_formula_structural   Tb5YP13Rh20
_chemical_formula_sum   'Tb5 Y1 P13 Rh20'
_cell_volume   607.03888462
_cell_formula_units_Z   1
loop_
 _symmetry_equiv_pos_site_id
 _symmetry_equiv_pos_as_xyz
  1  'x, y, z'
loop_
 _atom_site_type_symbol
 _atom_site_label
 _atom_site_symmetry_multiplicity
 _atom_site_fract_x
 _atom_site_fract_y
 _atom_site_fract_z
 _atom_site_occupancy
  Tb  Tb0  1  0.529570  0.717436  0.248275  1
  Tb  Tb1  1  0.282657  0.812242  0.248263  1
  Tb  Tb2  1  0.187840  0.470417  0.248277  1
  Tb  Tb3  1  0.470489  0.282625  0.751723  1
  Tb  Tb4  1  0.717326  0.187768  0.751717  1
  Y  Y5  1  0.812256  0.529544  0.751653  1
  P  P6  1  0.525506  0.138800  0.250377  1
  P  P7  1  0.861140  0.386678  0.250385  1
  P  P8  1  0.613281  0.474504  0.250392  1
  P  P9  1  0.945371  0.715346  0.254628  1
  P  P10  1  0.284644  0.230151  0.254658  1
  P  P11  1  0.769848  0.054496  0.254664  1
  P  P12  1  0.386766  0.525463  0.749649  1
  P  P13  1  0.474488  0.861233  0.749698  1
  P  P14  1  0.138721  0.613265  0.749652  1
  P  P15  1  0.715432  0.769812  0.745352  1
  P  P16  1  0.230189  0.945546  0.745380  1
  P  P17  1  0.054502  0.284622  0.745376  1
  P  P18  1  0.999968  0.999964  0.999936  1
  Rh  Rh19  1  0.333270  0.666629  0.751724  1
  Rh  Rh20  1  0.921522  0.250236  0.254115  1
  Rh  Rh21  1  0.749840  0.671276  0.254088  1
  Rh  Rh22  1  0.328659  0.078512  0.254115  1
  Rh  Rh23  1  0.438746  0.022843  0.751530  1
  Rh  Rh24  1  0.977122  0.415927  0.751471  1
  Rh  Rh25  1  0.584135  0.561253  0.751474  1
  Rh  Rh26  1  0.666728  0.333358  0.248165  1
  Rh  Rh27  1  0.094319  0.186872  0.247104  1
  Rh  Rh28  1  0.813221  0.907421  0.247195  1
  Rh  Rh29  1  0.092513  0.905688  0.247175  1
  Rh  Rh30  1  0.022801  0.584098  0.248555  1
  Rh  Rh31  1  0.415884  0.438798  0.248487  1
  Rh  Rh32  1  0.561217  0.977158  0.248465  1
  Rh  Rh33  1  0.671316  0.921478  0.745876  1
  Rh  Rh34  1  0.078515  0.749787  0.745840  1
  Rh  Rh35  1  0.250177  0.328679  0.745882  1
  Rh  Rh36  1  0.905724  0.813187  0.753042  1
  Rh  Rh37  1  0.186830  0.092601  0.752829  1
  Rh  Rh38  1  0.907465  0.094286  0.752813  1
