# generated using pymatgen
data_Na2Pd(PtSe2)3
_symmetry_space_group_name_H-M   'P 1'
_cell_length_a   7.50232678
_cell_length_b   7.51581866
_cell_length_c   11.67106339
_cell_angle_alpha   90.02698794
_cell_angle_beta   89.94591942
_cell_angle_gamma   119.94063530
_symmetry_Int_Tables_number   1
_chemical_formula_structural   Na2Pd(PtSe2)3
_chemical_formula_sum   'Na4 Pd2 Pt6 Se12'
_cell_volume   570.25961864
_cell_formula_units_Z   2
loop_
 _symmetry_equiv_pos_site_id
 _symmetry_equiv_pos_as_xyz
  1  'x, y, z'
loop_
 _atom_site_type_symbol
 _atom_site_label
 _atom_site_symmetry_multiplicity
 _atom_site_fract_x
 _atom_site_fract_y
 _atom_site_fract_z
 _atom_site_occupancy
  Na  Na0  1  0.330785  0.666096  0.313766  1
  Na  Na1  1  0.664691  0.333904  0.813766  1
  Na  Na2  1  0.001368  0.000959  0.691662  1
  Na  Na3  1  0.000409  0.999041  0.191662  1
  Pd  Pd4  1  0.834048  0.165882  0.006158  1
  Pd  Pd5  1  0.668165  0.834118  0.506158  1
  Pt  Pt6  1  0.166119  0.331995  0.506117  1
  Pt  Pt7  1  0.834125  0.668005  0.006117  1
  Pt  Pt8  1  0.331805  0.165734  0.006292  1
  Pt  Pt9  1  0.166070  0.834266  0.506292  1
  Pt  Pt10  1  0.666965  0.333480  0.499284  1
  Pt  Pt11  1  0.333484  0.666520  0.999284  1
  Se  Se12  1  0.497494  0.500628  0.610301  1
  Se  Se13  1  0.996867  0.499372  0.110301  1
  Se  Se14  1  0.500135  0.002481  0.110528  1
  Se  Se15  1  0.497653  0.997519  0.610528  1
  Se  Se16  1  0.160292  0.840206  0.897551  1
  Se  Se17  1  0.320087  0.159794  0.397551  1
  Se  Se18  1  0.841080  0.679510  0.397149  1
  Se  Se19  1  0.161569  0.320490  0.897149  1
  Se  Se20  1  0.680094  0.838931  0.897009  1
  Se  Se21  1  0.841164  0.161069  0.397009  1
  Se  Se22  1  0.501662  0.497792  0.109982  1
  Se  Se23  1  0.003870  0.502208  0.609982  1
