# generated using pymatgen
data_TmLu2FeB7
_symmetry_space_group_name_H-M   'P 1'
_cell_length_a   7.84301832
_cell_length_b   7.84301870
_cell_length_c   9.17247400
_cell_angle_alpha   90.00000000
_cell_angle_beta   90.00000000
_cell_angle_gamma   155.23069572
_symmetry_Int_Tables_number   1
_chemical_formula_structural   TmLu2FeB7
_chemical_formula_sum   'Tm2 Lu4 Fe2 B14'
_cell_volume   236.39126637
_cell_formula_units_Z   2
loop_
 _symmetry_equiv_pos_site_id
 _symmetry_equiv_pos_as_xyz
  1  'x, y, z'
loop_
 _atom_site_type_symbol
 _atom_site_label
 _atom_site_symmetry_multiplicity
 _atom_site_fract_x
 _atom_site_fract_y
 _atom_site_fract_z
 _atom_site_occupancy
  Tm  Tm0  1  0.244721  0.755279  0.250000  1
  Tm  Tm1  1  0.755279  0.244721  0.750000  1
  Lu  Lu2  1  0.894679  0.105321  0.058418  1
  Lu  Lu3  1  0.105321  0.894679  0.558418  1
  Lu  Lu4  1  0.105321  0.894679  0.941582  1
  Lu  Lu5  1  0.894679  0.105321  0.441582  1
  Fe  Fe6  1  0.052759  0.947241  0.250000  1
  Fe  Fe7  1  0.947241  0.052759  0.750000  1
  B  B8  1  0.454664  0.545336  0.250000  1
  B  B9  1  0.545336  0.454664  0.750000  1
  B  B10  1  0.727701  0.272299  0.033477  1
  B  B11  1  0.272299  0.727701  0.533477  1
  B  B12  1  0.272299  0.727701  0.966523  1
  B  B13  1  0.727701  0.272299  0.466523  1
  B  B14  1  0.630104  0.369896  0.347586  1
  B  B15  1  0.369896  0.630104  0.847586  1
  B  B16  1  0.369896  0.630104  0.652414  1
  B  B17  1  0.630104  0.369896  0.152414  1
  B  B18  1  0.520058  0.479942  0.402205  1
  B  B19  1  0.479942  0.520058  0.902205  1
  B  B20  1  0.479942  0.520058  0.597795  1
  B  B21  1  0.520058  0.479942  0.097795  1
