# generated using pymatgen
data_CaLu2Th(B6Ru)2
_symmetry_space_group_name_H-M   'P 1'
_cell_length_a   3.67106400
_cell_length_b   9.14250961
_cell_length_c   11.55213447
_cell_angle_alpha   89.72382593
_cell_angle_beta   90.00000000
_cell_angle_gamma   90.00000000
_symmetry_Int_Tables_number   1
_chemical_formula_structural   CaLu2Th(B6Ru)2
_chemical_formula_sum   'Ca2 Lu4 Th2 B24 Ru4'
_cell_volume   387.71675750
_cell_formula_units_Z   2
loop_
 _symmetry_equiv_pos_site_id
 _symmetry_equiv_pos_as_xyz
  1  'x, y, z'
loop_
 _atom_site_type_symbol
 _atom_site_label
 _atom_site_symmetry_multiplicity
 _atom_site_fract_x
 _atom_site_fract_y
 _atom_site_fract_z
 _atom_site_occupancy
  Ca  Ca0  1  0.000000  0.324048  0.415312  1
  Ca  Ca1  1  0.000000  0.675952  0.584688  1
  Lu  Lu2  1  0.000000  0.943561  0.374244  1
  Lu  Lu3  1  0.000000  0.056439  0.625756  1
  Lu  Lu4  1  0.000000  0.444789  0.129185  1
  Lu  Lu5  1  0.000000  0.555211  0.870815  1
  Th  Th6  1  0.000000  0.820792  0.087239  1
  Th  Th7  1  0.000000  0.179208  0.912761  1
  B  B8  1  0.500000  0.555177  0.432012  1
  B  B9  1  0.500000  0.444823  0.567988  1
  B  B10  1  0.500000  0.057152  0.070715  1
  B  B11  1  0.500000  0.942848  0.929285  1
  B  B12  1  0.500000  0.748996  0.418987  1
  B  B13  1  0.500000  0.251004  0.581013  1
  B  B14  1  0.500000  0.252036  0.083583  1
  B  B15  1  0.500000  0.747964  0.916417  1
  B  B16  1  0.500000  0.791347  0.268113  1
  B  B17  1  0.500000  0.208653  0.731887  1
  B  B18  1  0.500000  0.292255  0.235401  1
  B  B19  1  0.500000  0.707745  0.764599  1
  B  B20  1  0.500000  0.629861  0.185886  1
  B  B21  1  0.500000  0.370139  0.814114  1
  B  B22  1  0.500000  0.131438  0.316800  1
  B  B23  1  0.500000  0.868562  0.683200  1
  B  B24  1  0.500000  0.986308  0.216132  1
  B  B25  1  0.500000  0.013692  0.783868  1
  B  B26  1  0.500000  0.483966  0.287870  1
  B  B27  1  0.500000  0.516034  0.712130  1
  B  B28  1  0.500000  0.601160  0.027318  1
  B  B29  1  0.500000  0.398840  0.972682  1
  B  B30  1  0.500000  0.101549  0.472236  1
  B  B31  1  0.500000  0.898451  0.527764  1
  Ru  Ru32  1  0.000000  0.641395  0.317440  1
  Ru  Ru33  1  0.000000  0.358605  0.682560  1
  Ru  Ru34  1  0.000000  0.139142  0.179718  1
  Ru  Ru35  1  0.000000  0.860858  0.820282  1
