# generated using pymatgen
data_CaTa6GaS12
_symmetry_space_group_name_H-M   'P 1'
_cell_length_a   5.79971300
_cell_length_b   5.79971430
_cell_length_c   14.46172200
_cell_angle_alpha   90.00000000
_cell_angle_beta   90.00000000
_cell_angle_gamma   119.99999831
_symmetry_Int_Tables_number   1
_chemical_formula_structural   CaTa6GaS12
_chemical_formula_sum   'Ca1 Ta6 Ga1 S12'
_cell_volume   421.27312153
_cell_formula_units_Z   1
loop_
 _symmetry_equiv_pos_site_id
 _symmetry_equiv_pos_as_xyz
  1  'x, y, z'
loop_
 _atom_site_type_symbol
 _atom_site_label
 _atom_site_symmetry_multiplicity
 _atom_site_fract_x
 _atom_site_fract_y
 _atom_site_fract_z
 _atom_site_occupancy
  Ca  Ca0  1  0.000000  0.000000  0.000000  1
  Ta  Ta1  1  0.000000  0.000000  0.247758  1
  Ta  Ta2  1  0.000000  0.000000  0.752242  1
  Ta  Ta3  1  0.333333  0.666667  0.248994  1
  Ta  Ta4  1  0.666667  0.333333  0.751006  1
  Ta  Ta5  1  0.666667  0.333333  0.248994  1
  Ta  Ta6  1  0.333333  0.666667  0.751006  1
  Ga  Ga7  1  0.000000  0.000000  0.500000  1
  S  S8  1  0.336091  0.000000  0.139986  1
  S  S9  1  0.000000  0.336091  0.139986  1
  S  S10  1  0.663909  0.663909  0.139986  1
  S  S11  1  0.332044  0.332044  0.644215  1
  S  S12  1  0.667956  0.667956  0.355785  1
  S  S13  1  0.667956  0.000000  0.644215  1
  S  S14  1  0.000000  0.667956  0.644215  1
  S  S15  1  0.000000  0.663909  0.860014  1
  S  S16  1  0.336091  0.336091  0.860014  1
  S  S17  1  0.000000  0.332044  0.355785  1
  S  S18  1  0.332044  0.000000  0.355785  1
  S  S19  1  0.663909  0.000000  0.860014  1
