# generated using pymatgen
data_Li3Th8Si12Ru
_symmetry_space_group_name_H-M   'P 1'
_cell_length_a   8.24052900
_cell_length_b   8.24052922
_cell_length_c   8.40180400
_cell_angle_alpha   90.00000000
_cell_angle_beta   90.00000000
_cell_angle_gamma   119.99999509
_symmetry_Int_Tables_number   1
_chemical_formula_structural   Li3Th8Si12Ru
_chemical_formula_sum   'Li3 Th8 Si12 Ru1'
_cell_volume   494.09834023
_cell_formula_units_Z   1
loop_
 _symmetry_equiv_pos_site_id
 _symmetry_equiv_pos_as_xyz
  1  'x, y, z'
loop_
 _atom_site_type_symbol
 _atom_site_label
 _atom_site_symmetry_multiplicity
 _atom_site_fract_x
 _atom_site_fract_y
 _atom_site_fract_z
 _atom_site_occupancy
  Li  Li0  1  0.333333  0.666667  0.495337  1
  Li  Li1  1  0.666667  0.333333  0.506505  1
  Li  Li2  1  0.666667  0.333333  0.994885  1
  Th  Th3  1  0.000000  0.000000  0.250886  1
  Th  Th4  1  0.000000  0.000000  0.749282  1
  Th  Th5  1  0.498244  0.501756  0.247706  1
  Th  Th6  1  0.498244  0.996489  0.247706  1
  Th  Th7  1  0.003511  0.501756  0.247706  1
  Th  Th8  1  0.496162  0.503838  0.752301  1
  Th  Th9  1  0.496162  0.992323  0.752301  1
  Th  Th10  1  0.007677  0.503838  0.752301  1
  Si  Si11  1  0.166214  0.833786  0.499918  1
  Si  Si12  1  0.166214  0.332429  0.499918  1
  Si  Si13  1  0.667571  0.833786  0.499918  1
  Si  Si14  1  0.832059  0.167941  0.500055  1
  Si  Si15  1  0.832059  0.664120  0.500055  1
  Si  Si16  1  0.335880  0.167941  0.500055  1
  Si  Si17  1  0.833522  0.166478  0.999685  1
  Si  Si18  1  0.833522  0.667044  0.999685  1
  Si  Si19  1  0.332956  0.166478  0.999685  1
  Si  Si20  1  0.166305  0.833695  0.000919  1
  Si  Si21  1  0.166305  0.332610  0.000919  1
  Si  Si22  1  0.667390  0.833695  0.000919  1
  Ru  Ru23  1  0.333333  0.666667  0.001356  1
