# generated using pymatgen
data_Sm2AlSiI2
_symmetry_space_group_name_H-M   'P 1'
_cell_length_a   4.19435400
_cell_length_b   4.19435477
_cell_length_c   12.03207500
_cell_angle_alpha   90.00000000
_cell_angle_beta   90.00000000
_cell_angle_gamma   119.99999397
_symmetry_Int_Tables_number   1
_chemical_formula_structural   Sm2AlSiI2
_chemical_formula_sum   'Sm2 Al1 Si1 I2'
_cell_volume   183.31644699
_cell_formula_units_Z   1
loop_
 _symmetry_equiv_pos_site_id
 _symmetry_equiv_pos_as_xyz
  1  'x, y, z'
loop_
 _atom_site_type_symbol
 _atom_site_label
 _atom_site_symmetry_multiplicity
 _atom_site_fract_x
 _atom_site_fract_y
 _atom_site_fract_z
 _atom_site_occupancy
  Sm  Sm0  1  0.000000  0.000000  0.171918  1
  Sm  Sm1  1  0.000000  0.000000  0.829126  1
  Al  Al2  1  0.333333  0.666667  0.013128  1
  Si  Si3  1  0.666667  0.333333  0.986182  1
  I  I4  1  0.333333  0.666667  0.656303  1
  I  I5  1  0.666667  0.333333  0.343344  1
