# generated using pymatgen
data_MgNb8NiS16
_symmetry_space_group_name_H-M   'P 1'
_cell_length_a   6.66202200
_cell_length_b   6.66202311
_cell_length_c   12.54219600
_cell_angle_alpha   90.00000000
_cell_angle_beta   90.00000000
_cell_angle_gamma   120.00000441
_symmetry_Int_Tables_number   1
_chemical_formula_structural   MgNb8NiS16
_chemical_formula_sum   'Mg1 Nb8 Ni1 S16'
_cell_volume   482.07697961
_cell_formula_units_Z   1
loop_
 _symmetry_equiv_pos_site_id
 _symmetry_equiv_pos_as_xyz
  1  'x, y, z'
loop_
 _atom_site_type_symbol
 _atom_site_label
 _atom_site_symmetry_multiplicity
 _atom_site_fract_x
 _atom_site_fract_y
 _atom_site_fract_z
 _atom_site_occupancy
  Mg  Mg0  1  0.000000  0.000000  0.000000  1
  Nb  Nb1  1  0.000000  0.000000  0.263587  1
  Nb  Nb2  1  0.000000  0.000000  0.736413  1
  Nb  Nb3  1  0.504479  0.008958  0.262913  1
  Nb  Nb4  1  0.495521  0.991042  0.737087  1
  Nb  Nb5  1  0.991042  0.495521  0.262913  1
  Nb  Nb6  1  0.008958  0.504479  0.737087  1
  Nb  Nb7  1  0.504479  0.495521  0.262913  1
  Nb  Nb8  1  0.495521  0.504479  0.737087  1
  Ni  Ni9  1  0.000000  0.000000  0.500000  1
  S  S10  1  0.333333  0.666667  0.610514  1
  S  S11  1  0.666667  0.333333  0.389486  1
  S  S12  1  0.666667  0.333333  0.134051  1
  S  S13  1  0.333333  0.666667  0.865949  1
  S  S14  1  0.167094  0.334188  0.137042  1
  S  S15  1  0.832906  0.665812  0.862958  1
  S  S16  1  0.665812  0.832906  0.137042  1
  S  S17  1  0.832282  0.664563  0.612994  1
  S  S18  1  0.334188  0.167094  0.862958  1
  S  S19  1  0.167718  0.335437  0.387006  1
  S  S20  1  0.167094  0.832906  0.137042  1
  S  S21  1  0.335437  0.167718  0.612994  1
  S  S22  1  0.832906  0.167094  0.862958  1
  S  S23  1  0.664563  0.832282  0.387006  1
  S  S24  1  0.832282  0.167718  0.612994  1
  S  S25  1  0.167718  0.832282  0.387006  1
