# generated using pymatgen
data_Sr2Li6As5
_symmetry_space_group_name_H-M   'P 1'
_cell_length_a   4.37275228
_cell_length_b   4.37275354
_cell_length_c   14.08422671
_cell_angle_alpha   98.93046246
_cell_angle_beta   98.93046844
_cell_angle_gamma   90.00000565
_symmetry_Int_Tables_number   1
_chemical_formula_structural   Sr2Li6As5
_chemical_formula_sum   'Sr2 Li6 As5'
_cell_volume   262.73418881
_cell_formula_units_Z   1
loop_
 _symmetry_equiv_pos_site_id
 _symmetry_equiv_pos_as_xyz
  1  'x, y, z'
loop_
 _atom_site_type_symbol
 _atom_site_label
 _atom_site_symmetry_multiplicity
 _atom_site_fract_x
 _atom_site_fract_y
 _atom_site_fract_z
 _atom_site_occupancy
  Sr  Sr0  1  0.645769  0.645769  0.291539  1
  Sr  Sr1  1  0.354231  0.354231  0.708461  1
  Li  Li2  1  0.950205  0.450205  0.900411  1
  Li  Li3  1  0.450205  0.950205  0.900411  1
  Li  Li4  1  0.049795  0.549795  0.099589  1
  Li  Li5  1  0.549795  0.049795  0.099589  1
  Li  Li6  1  0.250000  0.750000  0.500000  1
  Li  Li7  1  0.750000  0.250000  0.500000  1
  As  As8  1  0.500000  0.500000  0.000000  1
  As  As9  1  0.892674  0.892674  0.785348  1
  As  As10  1  0.107326  0.107326  0.214652  1
  As  As11  1  0.802352  0.802352  0.604703  1
  As  As12  1  0.197648  0.197648  0.395297  1
