# generated using pymatgen
data_Er19Tm(IrPt2)4
_symmetry_space_group_name_H-M   'P 1'
_cell_length_a   10.99036400
_cell_length_b   10.99036400
_cell_length_c   6.25344000
_cell_angle_alpha   90.00000000
_cell_angle_beta   90.00000000
_cell_angle_gamma   90.00000000
_symmetry_Int_Tables_number   1
_chemical_formula_structural   Er19Tm(IrPt2)4
_chemical_formula_sum   'Er19 Tm1 Ir4 Pt8'
_cell_volume   755.34114140
_cell_formula_units_Z   1
loop_
 _symmetry_equiv_pos_site_id
 _symmetry_equiv_pos_as_xyz
  1  'x, y, z'
loop_
 _atom_site_type_symbol
 _atom_site_label
 _atom_site_symmetry_multiplicity
 _atom_site_fract_x
 _atom_site_fract_y
 _atom_site_fract_z
 _atom_site_occupancy
  Er  Er0  1  0.294837  0.087364  0.373488  1
  Er  Er1  1  0.294816  0.912635  0.873520  1
  Er  Er2  1  0.705184  0.087365  0.873520  1
  Er  Er3  1  0.705163  0.912636  0.373488  1
  Er  Er4  1  0.587337  0.794698  0.873570  1
  Er  Er5  1  0.587299  0.205401  0.373603  1
  Er  Er6  1  0.412701  0.794599  0.373603  1
  Er  Er7  1  0.412663  0.205302  0.873570  1
  Er  Er8  1  0.205401  0.412701  0.626397  1
  Er  Er9  1  0.205302  0.587337  0.126430  1
  Er  Er10  1  0.794698  0.412663  0.126430  1
  Er  Er11  1  0.794599  0.587299  0.626397  1
  Er  Er12  1  0.912635  0.705184  0.126480  1
  Er  Er13  1  0.912636  0.294837  0.626512  1
  Er  Er14  1  0.087364  0.705163  0.626512  1
  Er  Er15  1  0.087365  0.294816  0.126480  1
  Er  Er16  1  0.000000  0.000000  0.500000  1
  Er  Er17  1  0.000000  0.000000  0.000000  1
  Er  Er18  1  0.500000  0.500000  0.000000  1
  Tm  Tm19  1  0.500000  0.500000  0.500000  1
  Ir  Ir20  1  0.500000  0.000000  0.120842  1
  Ir  Ir21  1  0.500000  0.000000  0.620774  1
  Ir  Ir22  1  0.000000  0.500000  0.879158  1
  Ir  Ir23  1  0.000000  0.500000  0.379226  1
  Pt  Pt24  1  0.846277  0.153700  0.249965  1
  Pt  Pt25  1  0.846300  0.846277  0.750035  1
  Pt  Pt26  1  0.153700  0.153723  0.750035  1
  Pt  Pt27  1  0.153723  0.846300  0.249965  1
  Pt  Pt28  1  0.653717  0.346312  0.750102  1
  Pt  Pt29  1  0.653688  0.653717  0.249898  1
  Pt  Pt30  1  0.346312  0.346283  0.249898  1
  Pt  Pt31  1  0.346283  0.653688  0.750102  1
