# generated using pymatgen
data_Hf12Ti4CrOs7
_symmetry_space_group_name_H-M   'P 1'
_cell_length_a   8.58621871
_cell_length_b   8.53439348
_cell_length_c   8.53439400
_cell_angle_alpha   59.99999797
_cell_angle_beta   60.19946265
_cell_angle_gamma   60.19946591
_symmetry_Int_Tables_number   1
_chemical_formula_structural   Hf12Ti4CrOs7
_chemical_formula_sum   'Hf12 Ti4 Cr1 Os7'
_cell_volume   443.54234651
_cell_formula_units_Z   1
loop_
 _symmetry_equiv_pos_site_id
 _symmetry_equiv_pos_as_xyz
  1  'x, y, z'
loop_
 _atom_site_type_symbol
 _atom_site_label
 _atom_site_symmetry_multiplicity
 _atom_site_fract_x
 _atom_site_fract_y
 _atom_site_fract_z
 _atom_site_occupancy
  Hf  Hf0  1  0.807993  0.806496  0.192755  1
  Hf  Hf1  1  0.192998  0.192879  0.807062  1
  Hf  Hf2  1  0.807993  0.192755  0.806496  1
  Hf  Hf3  1  0.192998  0.807062  0.192879  1
  Hf  Hf4  1  0.192998  0.807062  0.807062  1
  Hf  Hf5  1  0.807993  0.192755  0.192755  1
  Hf  Hf6  1  0.443514  0.442232  0.057127  1
  Hf  Hf7  1  0.053514  0.061858  0.442314  1
  Hf  Hf8  1  0.443514  0.057127  0.442232  1
  Hf  Hf9  1  0.053514  0.442314  0.061858  1
  Hf  Hf10  1  0.053514  0.442314  0.442314  1
  Hf  Hf11  1  0.443514  0.057127  0.057127  1
  Ti  Ti12  1  0.125423  0.624859  0.624859  1
  Ti  Ti13  1  0.625862  0.128850  0.622644  1
  Ti  Ti14  1  0.625862  0.622644  0.128850  1
  Ti  Ti15  1  0.625862  0.622644  0.622644  1
  Cr  Cr16  1  0.756397  0.414534  0.414534  1
  Os  Os17  1  0.415170  0.757214  0.413807  1
  Os  Os18  1  0.415170  0.413807  0.757214  1
  Os  Os19  1  0.415170  0.413807  0.413807  1
  Os  Os20  1  0.493629  0.835458  0.835458  1
  Os  Os21  1  0.835799  0.493295  0.835454  1
  Os  Os22  1  0.835799  0.835454  0.493295  1
  Os  Os23  1  0.835799  0.835454  0.835454  1
