# generated using pymatgen
data_Ba4DyReO8
_symmetry_space_group_name_H-M   'P 1'
_cell_length_a   7.44688093
_cell_length_b   7.44687856
_cell_length_c   5.97814100
_cell_angle_alpha   90.00000000
_cell_angle_beta   90.00000000
_cell_angle_gamma   132.87266686
_symmetry_Int_Tables_number   1
_chemical_formula_structural   Ba4DyReO8
_chemical_formula_sum   'Ba4 Dy1 Re1 O8'
_cell_volume   242.96310621
_cell_formula_units_Z   1
loop_
 _symmetry_equiv_pos_site_id
 _symmetry_equiv_pos_as_xyz
  1  'x, y, z'
loop_
 _atom_site_type_symbol
 _atom_site_label
 _atom_site_symmetry_multiplicity
 _atom_site_fract_x
 _atom_site_fract_y
 _atom_site_fract_z
 _atom_site_occupancy
  Ba  Ba0  1  0.353565  0.646435  0.000000  1
  Ba  Ba1  1  0.852095  0.147905  0.500000  1
  Ba  Ba2  1  0.147905  0.852095  0.500000  1
  Ba  Ba3  1  0.646435  0.353565  0.000000  1
  Dy  Dy4  1  0.000000  0.000000  0.000000  1
  Re  Re5  1  0.500000  0.500000  0.500000  1
  O  O6  1  0.263311  0.263311  0.731570  1
  O  O7  1  0.736689  0.736689  0.268430  1
  O  O8  1  0.736689  0.736689  0.731570  1
  O  O9  1  0.263311  0.263311  0.268430  1
  O  O10  1  0.165724  0.834276  0.000000  1
  O  O11  1  0.650041  0.349959  0.500000  1
  O  O12  1  0.349959  0.650041  0.500000  1
  O  O13  1  0.834276  0.165724  0.000000  1
