# generated using pymatgen
data_CeLu7(InAu2)4
_symmetry_space_group_name_H-M   'P 1'
_cell_length_a   7.95068200
_cell_length_b   7.95068202
_cell_length_c   7.29928900
_cell_angle_alpha   90.00000000
_cell_angle_beta   90.00000000
_cell_angle_gamma   90.35314457
_symmetry_Int_Tables_number   1
_chemical_formula_structural   CeLu7(InAu2)4
_chemical_formula_sum   'Ce1 Lu7 In4 Au8'
_cell_volume   461.40370526
_cell_formula_units_Z   1
loop_
 _symmetry_equiv_pos_site_id
 _symmetry_equiv_pos_as_xyz
  1  'x, y, z'
loop_
 _atom_site_type_symbol
 _atom_site_label
 _atom_site_symmetry_multiplicity
 _atom_site_fract_x
 _atom_site_fract_y
 _atom_site_fract_z
 _atom_site_occupancy
  Ce  Ce0  1  0.838622  0.161378  0.500000  1
  Lu  Lu1  1  0.158877  0.841123  0.500000  1
  Lu  Lu2  1  0.336389  0.345820  0.000000  1
  Lu  Lu3  1  0.654180  0.663611  0.000000  1
  Lu  Lu4  1  0.680110  0.677481  0.500000  1
  Lu  Lu5  1  0.322519  0.319890  0.500000  1
  Lu  Lu6  1  0.181974  0.818026  0.000000  1
  Lu  Lu7  1  0.823367  0.176633  0.000000  1
  In  In8  1  0.498678  0.998540  0.250621  1
  In  In9  1  0.001460  0.501322  0.749379  1
  In  In10  1  0.498678  0.998540  0.749379  1
  In  In11  1  0.001460  0.501322  0.250621  1
  Au  Au12  1  0.626166  0.373834  0.257842  1
  Au  Au13  1  0.369239  0.630761  0.274344  1
  Au  Au14  1  0.133619  0.127182  0.774388  1
  Au  Au15  1  0.872818  0.866381  0.774388  1
  Au  Au16  1  0.369239  0.630761  0.725656  1
  Au  Au17  1  0.626166  0.373834  0.742158  1
  Au  Au18  1  0.872818  0.866381  0.225612  1
  Au  Au19  1  0.133619  0.127182  0.225612  1
