# generated using pymatgen
data_Tb2YbAl3Si2Pd
_symmetry_space_group_name_H-M   'P 1'
_cell_length_a   6.94976000
_cell_length_b   6.90290943
_cell_length_c   4.29141300
_cell_angle_alpha   90.00000000
_cell_angle_beta   90.00000000
_cell_angle_gamma   120.22476977
_symmetry_Int_Tables_number   1
_chemical_formula_structural   Tb2YbAl3Si2Pd
_chemical_formula_sum   'Tb2 Yb1 Al3 Si2 Pd1'
_cell_volume   177.88724857
_cell_formula_units_Z   1
loop_
 _symmetry_equiv_pos_site_id
 _symmetry_equiv_pos_as_xyz
  1  'x, y, z'
loop_
 _atom_site_type_symbol
 _atom_site_label
 _atom_site_symmetry_multiplicity
 _atom_site_fract_x
 _atom_site_fract_y
 _atom_site_fract_z
 _atom_site_occupancy
  Tb  Tb0  1  0.000397  0.420183  0.000000  1
  Tb  Tb1  1  0.580212  0.579816  0.000000  1
  Yb  Yb2  1  0.417456  0.000000  0.000000  1
  Al  Al3  1  0.762927  0.000000  0.500000  1
  Al  Al4  1  0.236104  0.240964  0.500000  1
  Al  Al5  1  0.995141  0.759036  0.500000  1
  Si  Si6  1  0.672390  0.339091  0.500000  1
  Si  Si7  1  0.333299  0.660908  0.500000  1
  Pd  Pd8  1  0.002072  0.000000  0.000000  1
