# generated using pymatgen
data_Ba8PaInS12
_symmetry_space_group_name_H-M   'P 1'
_cell_length_a   8.56895966
_cell_length_b   8.56895931
_cell_length_c   8.56896000
_cell_angle_alpha   89.59539384
_cell_angle_beta   89.59539386
_cell_angle_gamma   89.59540849
_symmetry_Int_Tables_number   1
_chemical_formula_structural   Ba8PaInS12
_chemical_formula_sum   'Ba8 Pa1 In1 S12'
_cell_volume   629.14675360
_cell_formula_units_Z   1
loop_
 _symmetry_equiv_pos_site_id
 _symmetry_equiv_pos_as_xyz
  1  'x, y, z'
loop_
 _atom_site_type_symbol
 _atom_site_label
 _atom_site_symmetry_multiplicity
 _atom_site_fract_x
 _atom_site_fract_y
 _atom_site_fract_z
 _atom_site_occupancy
  Ba  Ba0  1  0.869242  0.620788  0.257654  1
  Ba  Ba1  1  0.257654  0.869242  0.620788  1
  Ba  Ba2  1  0.620788  0.257654  0.869242  1
  Ba  Ba3  1  0.742346  0.130758  0.379212  1
  Ba  Ba4  1  0.379212  0.742346  0.130758  1
  Ba  Ba5  1  0.130758  0.379212  0.742346  1
  Ba  Ba6  1  0.258095  0.258095  0.258095  1
  Ba  Ba7  1  0.741905  0.741905  0.741905  1
  Pa  Pa8  1  0.000000  0.000000  0.000000  1
  In  In9  1  0.500000  0.500000  0.500000  1
  S  S10  1  0.201582  0.564525  0.423972  1
  S  S11  1  0.423972  0.201582  0.564525  1
  S  S12  1  0.564525  0.423972  0.201582  1
  S  S13  1  0.926965  0.058348  0.705701  1
  S  S14  1  0.705701  0.926965  0.058348  1
  S  S15  1  0.058348  0.705701  0.926965  1
  S  S16  1  0.798418  0.435475  0.576028  1
  S  S17  1  0.576028  0.798418  0.435475  1
  S  S18  1  0.435475  0.576028  0.798418  1
  S  S19  1  0.073035  0.941652  0.294299  1
  S  S20  1  0.294299  0.073035  0.941652  1
  S  S21  1  0.941652  0.294299  0.073035  1
