# generated using pymatgen
data_NaSm6RhI12
_symmetry_space_group_name_H-M   'P 1'
_cell_length_a   9.94710760
_cell_length_b   9.94710746
_cell_length_c   9.94710759
_cell_angle_alpha   107.02591919
_cell_angle_beta   107.02590992
_cell_angle_gamma   107.02591504
_symmetry_Int_Tables_number   1
_chemical_formula_structural   NaSm6RhI12
_chemical_formula_sum   'Na1 Sm6 Rh1 I12'
_cell_volume   819.08441176
_cell_formula_units_Z   1
loop_
 _symmetry_equiv_pos_site_id
 _symmetry_equiv_pos_as_xyz
  1  'x, y, z'
loop_
 _atom_site_type_symbol
 _atom_site_label
 _atom_site_symmetry_multiplicity
 _atom_site_fract_x
 _atom_site_fract_y
 _atom_site_fract_z
 _atom_site_occupancy
  Na  Na0  1  0.500000  0.500000  0.500000  1
  Sm  Sm1  1  0.899113  0.971824  0.694208  1
  Sm  Sm2  1  0.971824  0.694208  0.899113  1
  Sm  Sm3  1  0.694208  0.899113  0.971824  1
  Sm  Sm4  1  0.100887  0.028176  0.305792  1
  Sm  Sm5  1  0.028176  0.305792  0.100887  1
  Sm  Sm6  1  0.305792  0.100887  0.028176  1
  Rh  Rh7  1  0.000000  0.000000  0.000000  1
  I  I8  1  0.547281  0.856938  0.626441  1
  I  I9  1  0.856938  0.626441  0.547281  1
  I  I10  1  0.626441  0.547281  0.856938  1
  I  I11  1  0.452719  0.143062  0.373559  1
  I  I12  1  0.143062  0.373559  0.452719  1
  I  I13  1  0.373559  0.452719  0.143062  1
  I  I14  1  0.679984  0.224409  0.073214  1
  I  I15  1  0.224409  0.073214  0.679984  1
  I  I16  1  0.073214  0.679984  0.224409  1
  I  I17  1  0.320016  0.775591  0.926786  1
  I  I18  1  0.775591  0.926786  0.320016  1
  I  I19  1  0.926786  0.320016  0.775591  1
