# generated using pymatgen
data_Ho12Er8FeNi3Sb8
_symmetry_space_group_name_H-M   'P 1'
_cell_length_a   7.85391105
_cell_length_b   8.74421700
_cell_length_c   12.08846201
_cell_angle_alpha   90.00000000
_cell_angle_beta   89.94718497
_cell_angle_gamma   90.00000000
_symmetry_Int_Tables_number   1
_chemical_formula_structural   Ho12Er8FeNi3Sb8
_chemical_formula_sum   'Ho12 Er8 Fe1 Ni3 Sb8'
_cell_volume   830.19052132
_cell_formula_units_Z   1
loop_
 _symmetry_equiv_pos_site_id
 _symmetry_equiv_pos_as_xyz
  1  'x, y, z'
loop_
 _atom_site_type_symbol
 _atom_site_label
 _atom_site_symmetry_multiplicity
 _atom_site_fract_x
 _atom_site_fract_y
 _atom_site_fract_z
 _atom_site_occupancy
  Ho  Ho0  1  0.873788  0.250000  0.802759  1
  Ho  Ho1  1  0.122727  0.750000  0.194792  1
  Ho  Ho2  1  0.846606  0.750000  0.798809  1
  Ho  Ho3  1  0.374451  0.750000  0.694205  1
  Ho  Ho4  1  0.954728  0.750000  0.501328  1
  Ho  Ho5  1  0.456721  0.250000  0.998402  1
  Ho  Ho6  1  0.660937  0.750000  0.290003  1
  Ho  Ho7  1  0.546759  0.750000  0.001845  1
  Ho  Ho8  1  0.044391  0.250000  0.500426  1
  Ho  Ho9  1  0.625579  0.250000  0.305041  1
  Ho  Ho10  1  0.340540  0.250000  0.708289  1
  Ho  Ho11  1  0.155929  0.250000  0.204410  1
  Er  Er12  1  0.319785  0.539255  0.432844  1
  Er  Er13  1  0.178603  0.542774  0.935891  1
  Er  Er14  1  0.319785  0.960745  0.432844  1
  Er  Er15  1  0.678646  0.459723  0.565886  1
  Er  Er16  1  0.821833  0.033224  0.064669  1
  Er  Er17  1  0.678646  0.040277  0.565886  1
  Er  Er18  1  0.178603  0.957226  0.935891  1
  Er  Er19  1  0.821833  0.466776  0.064669  1
  Fe  Fe20  1  0.928339  0.750000  0.013194  1
  Ni  Ni21  1  0.569264  0.750000  0.508095  1
  Ni  Ni22  1  0.072840  0.250000  0.986904  1
  Ni  Ni23  1  0.429187  0.250000  0.490403  1
  Sb  Sb24  1  0.929360  0.490490  0.328264  1
  Sb  Sb25  1  0.429498  0.507333  0.173245  1
  Sb  Sb26  1  0.429498  0.992667  0.173245  1
  Sb  Sb27  1  0.569904  0.492580  0.826737  1
  Sb  Sb28  1  0.070977  0.508815  0.673012  1
  Sb  Sb29  1  0.569904  0.007420  0.826737  1
  Sb  Sb30  1  0.929360  0.009510  0.328264  1
  Sb  Sb31  1  0.070977  0.991185  0.673012  1
