# generated using pymatgen
data_KLiCeS3
_symmetry_space_group_name_H-M   'P 1'
_cell_length_a   7.25338135
_cell_length_b   7.25338132
_cell_length_c   10.64670300
_cell_angle_alpha   90.00000000
_cell_angle_beta   90.00000000
_cell_angle_gamma   146.75606342
_symmetry_Int_Tables_number   1
_chemical_formula_structural   KLiCeS3
_chemical_formula_sum   'K2 Li2 Ce2 S6'
_cell_volume   307.07109280
_cell_formula_units_Z   2
loop_
 _symmetry_equiv_pos_site_id
 _symmetry_equiv_pos_as_xyz
  1  'x, y, z'
loop_
 _atom_site_type_symbol
 _atom_site_label
 _atom_site_symmetry_multiplicity
 _atom_site_fract_x
 _atom_site_fract_y
 _atom_site_fract_z
 _atom_site_occupancy
  K  K0  1  0.762594  0.237403  0.250000  1
  K  K1  1  0.237403  0.762594  0.750000  1
  Li  Li2  1  0.034888  0.965110  0.250000  1
  Li  Li3  1  0.965110  0.034888  0.750000  1
  Ce  Ce4  1  0.499999  0.499999  0.000000  1
  Ce  Ce5  1  0.499999  0.499999  0.500000  1
  S  S6  1  0.121154  0.878844  0.055852  1
  S  S7  1  0.445105  0.554892  0.250000  1
  S  S8  1  0.121154  0.878844  0.444147  1
  S  S9  1  0.878844  0.121154  0.555853  1
  S  S10  1  0.554892  0.445105  0.750000  1
  S  S11  1  0.878844  0.121154  0.944147  1
