# generated using pymatgen
data_Tb5Gd3Re(B8Os)3
_symmetry_space_group_name_H-M   'P 1'
_cell_length_a   3.68561400
_cell_length_b   9.21349997
_cell_length_c   11.59617302
_cell_angle_alpha   90.09320827
_cell_angle_beta   90.00000000
_cell_angle_gamma   90.00000000
_symmetry_Int_Tables_number   1
_chemical_formula_structural   Tb5Gd3Re(B8Os)3
_chemical_formula_sum   'Tb5 Gd3 Re1 B24 Os3'
_cell_volume   393.77541631
_cell_formula_units_Z   1
loop_
 _symmetry_equiv_pos_site_id
 _symmetry_equiv_pos_as_xyz
  1  'x, y, z'
loop_
 _atom_site_type_symbol
 _atom_site_label
 _atom_site_symmetry_multiplicity
 _atom_site_fract_x
 _atom_site_fract_y
 _atom_site_fract_z
 _atom_site_occupancy
  Tb  Tb0  1  0.000000  0.175679  0.913104  1
  Tb  Tb1  1  0.000000  0.943267  0.371559  1
  Tb  Tb2  1  0.000000  0.056070  0.627780  1
  Tb  Tb3  1  0.000000  0.442708  0.127988  1
  Tb  Tb4  1  0.000000  0.556616  0.872570  1
  Gd  Gd5  1  0.000000  0.323524  0.415058  1
  Gd  Gd6  1  0.000000  0.679110  0.588217  1
  Gd  Gd7  1  0.000000  0.822994  0.083529  1
  Re  Re8  1  0.000000  0.862645  0.821342  1
  B  B9  1  0.500000  0.554003  0.432681  1
  B  B10  1  0.500000  0.446310  0.568021  1
  B  B11  1  0.500000  0.053730  0.067602  1
  B  B12  1  0.500000  0.947098  0.932517  1
  B  B13  1  0.500000  0.747321  0.419117  1
  B  B14  1  0.500000  0.252871  0.580933  1
  B  B15  1  0.500000  0.246916  0.080800  1
  B  B16  1  0.500000  0.752892  0.918907  1
  B  B17  1  0.500000  0.789459  0.266769  1
  B  B18  1  0.500000  0.209883  0.732733  1
  B  B19  1  0.500000  0.289975  0.233114  1
  B  B20  1  0.500000  0.709517  0.766783  1
  B  B21  1  0.500000  0.631321  0.186220  1
  B  B22  1  0.500000  0.367957  0.813664  1
  B  B23  1  0.500000  0.132113  0.313950  1
  B  B24  1  0.500000  0.868409  0.686265  1
  B  B25  1  0.500000  0.984488  0.212488  1
  B  B26  1  0.500000  0.016818  0.787238  1
  B  B27  1  0.500000  0.484147  0.287773  1
  B  B28  1  0.500000  0.515875  0.712981  1
  B  B29  1  0.500000  0.607286  0.030550  1
  B  B30  1  0.500000  0.390657  0.969925  1
  B  B31  1  0.500000  0.108789  0.469418  1
  B  B32  1  0.500000  0.891834  0.529604  1
  Os  Os33  1  0.000000  0.637404  0.321618  1
  Os  Os34  1  0.000000  0.362578  0.678260  1
  Os  Os35  1  0.000000  0.137733  0.178920  1
