# generated using pymatgen
data_Ho4FeCu2Ru5
_symmetry_space_group_name_H-M   'P 1'
_cell_length_a   5.31878487
_cell_length_b   5.15355880
_cell_length_c   8.77293300
_cell_angle_alpha   90.00000000
_cell_angle_beta   90.00000000
_cell_angle_gamma   120.09815866
_symmetry_Int_Tables_number   1
_chemical_formula_structural   Ho4FeCu2Ru5
_chemical_formula_sum   'Ho4 Fe1 Cu2 Ru5'
_cell_volume   208.04854766
_cell_formula_units_Z   1
loop_
 _symmetry_equiv_pos_site_id
 _symmetry_equiv_pos_as_xyz
  1  'x, y, z'
loop_
 _atom_site_type_symbol
 _atom_site_label
 _atom_site_symmetry_multiplicity
 _atom_site_fract_x
 _atom_site_fract_y
 _atom_site_fract_z
 _atom_site_occupancy
  Ho  Ho0  1  0.677478  0.341085  0.564923  1
  Ho  Ho1  1  0.339327  0.668500  0.437038  1
  Ho  Ho2  1  0.339327  0.668500  0.062962  1
  Ho  Ho3  1  0.677478  0.341085  0.935077  1
  Fe  Fe4  1  0.165581  0.325135  0.750000  1
  Cu  Cu5  1  0.811785  0.654004  0.250000  1
  Cu  Cu6  1  0.810847  0.159165  0.250000  1
  Ru  Ru7  1  0.017381  0.010950  0.498574  1
  Ru  Ru8  1  0.017381  0.010950  0.001426  1
  Ru  Ru9  1  0.179299  0.834802  0.750000  1
  Ru  Ru10  1  0.655307  0.829928  0.750000  1
  Ru  Ru11  1  0.308809  0.155897  0.250000  1
