# generated using pymatgen
data_Ba5In2Sb5O
_symmetry_space_group_name_H-M   'P 1'
_cell_length_a   12.02504657
_cell_length_b   12.02504571
_cell_length_c   15.28189800
_cell_angle_alpha   90.00000000
_cell_angle_beta   90.00000000
_cell_angle_gamma   154.74620160
_symmetry_Int_Tables_number   1
_chemical_formula_structural   Ba5In2Sb5O
_chemical_formula_sum   'Ba10 In4 Sb10 O2'
_cell_volume   942.75939023
_cell_formula_units_Z   2
loop_
 _symmetry_equiv_pos_site_id
 _symmetry_equiv_pos_as_xyz
  1  'x, y, z'
loop_
 _atom_site_type_symbol
 _atom_site_label
 _atom_site_symmetry_multiplicity
 _atom_site_fract_x
 _atom_site_fract_y
 _atom_site_fract_z
 _atom_site_occupancy
  Ba  Ba0  1  0.000000  0.000000  0.500000  1
  Ba  Ba1  1  0.000000  0.000000  0.000000  1
  Ba  Ba2  1  0.891958  0.108042  0.750000  1
  Ba  Ba3  1  0.108042  0.891958  0.250000  1
  Ba  Ba4  1  0.098570  0.901430  0.750000  1
  Ba  Ba5  1  0.901430  0.098570  0.250000  1
  Ba  Ba6  1  0.718812  0.281188  0.120736  1
  Ba  Ba7  1  0.281188  0.718812  0.620736  1
  Ba  Ba8  1  0.281188  0.718812  0.879264  1
  Ba  Ba9  1  0.718812  0.281188  0.379264  1
  In  In10  1  0.633003  0.366997  0.589885  1
  In  In11  1  0.366997  0.633003  0.089885  1
  In  In12  1  0.366997  0.633003  0.410115  1
  In  In13  1  0.633003  0.366997  0.910115  1
  Sb  Sb14  1  0.510143  0.489857  0.656830  1
  Sb  Sb15  1  0.489857  0.510143  0.156830  1
  Sb  Sb16  1  0.489857  0.510143  0.343170  1
  Sb  Sb17  1  0.510143  0.489857  0.843170  1
  Sb  Sb18  1  0.707481  0.292519  0.750000  1
  Sb  Sb19  1  0.292519  0.707481  0.250000  1
  Sb  Sb20  1  0.852588  0.147412  0.498264  1
  Sb  Sb21  1  0.147412  0.852588  0.998264  1
  Sb  Sb22  1  0.147412  0.852588  0.501736  1
  Sb  Sb23  1  0.852588  0.147412  0.001736  1
  O  O24  1  0.346205  0.653795  0.750000  1
  O  O25  1  0.653795  0.346205  0.250000  1
