# generated using pymatgen
data_Nd2Ni2PPt6
_symmetry_space_group_name_H-M   'P 1'
_cell_length_a   9.15087460
_cell_length_b   9.15087360
_cell_length_c   4.08774400
_cell_angle_alpha   90.00000000
_cell_angle_beta   90.00000000
_cell_angle_gamma   145.68806499
_symmetry_Int_Tables_number   1
_chemical_formula_structural   Nd2Ni2PPt6
_chemical_formula_sum   'Nd2 Ni2 P1 Pt6'
_cell_volume   192.95473238
_cell_formula_units_Z   1
loop_
 _symmetry_equiv_pos_site_id
 _symmetry_equiv_pos_as_xyz
  1  'x, y, z'
loop_
 _atom_site_type_symbol
 _atom_site_label
 _atom_site_symmetry_multiplicity
 _atom_site_fract_x
 _atom_site_fract_y
 _atom_site_fract_z
 _atom_site_occupancy
  Nd  Nd0  1  0.622088  0.370208  0.500000  1
  Nd  Nd1  1  0.370208  0.622088  0.500000  1
  Ni  Ni2  1  0.196402  0.789701  0.500000  1
  Ni  Ni3  1  0.789701  0.196402  0.500000  1
  P  P4  1  0.224374  0.224374  0.000000  1
  Pt  Pt5  1  0.113168  0.884785  0.000000  1
  Pt  Pt6  1  0.884785  0.113168  0.000000  1
  Pt  Pt7  1  0.490296  0.986935  0.000000  1
  Pt  Pt8  1  0.986935  0.490296  0.000000  1
  Pt  Pt9  1  0.000024  0.000024  0.500000  1
  Pt  Pt10  1  0.635617  0.635617  0.000000  1
