# generated using pymatgen
data_Rb4Dy11HoTe20
_symmetry_space_group_name_H-M   'P 1'
_cell_length_a   4.41341200
_cell_length_b   13.26115118
_cell_length_c   23.62334800
_cell_angle_alpha   90.03287525
_cell_angle_beta   90.00000000
_cell_angle_gamma   90.00000000
_symmetry_Int_Tables_number   1
_chemical_formula_structural   Rb4Dy11HoTe20
_chemical_formula_sum   'Rb4 Dy11 Ho1 Te20'
_cell_volume   1382.60165987
_cell_formula_units_Z   1
loop_
 _symmetry_equiv_pos_site_id
 _symmetry_equiv_pos_as_xyz
  1  'x, y, z'
loop_
 _atom_site_type_symbol
 _atom_site_label
 _atom_site_symmetry_multiplicity
 _atom_site_fract_x
 _atom_site_fract_y
 _atom_site_fract_z
 _atom_site_occupancy
  Rb  Rb0  1  0.250000  0.348603  0.092432  1
  Rb  Rb1  1  0.750000  0.651391  0.907569  1
  Rb  Rb2  1  0.750000  0.848583  0.407557  1
  Rb  Rb3  1  0.250000  0.151386  0.592461  1
  Dy  Dy4  1  0.750000  0.544223  0.301035  1
  Dy  Dy5  1  0.750000  0.955741  0.801082  1
  Dy  Dy6  1  0.250000  0.044233  0.198941  1
  Dy  Dy7  1  0.250000  0.799092  0.672818  1
  Dy  Dy8  1  0.750000  0.200999  0.327142  1
  Dy  Dy9  1  0.750000  0.298914  0.827203  1
  Dy  Dy10  1  0.250000  0.701012  0.172840  1
  Dy  Dy11  1  0.250000  0.391439  0.444852  1
  Dy  Dy12  1  0.750000  0.608553  0.555104  1
  Dy  Dy13  1  0.750000  0.891443  0.055130  1
  Dy  Dy14  1  0.250000  0.108523  0.944905  1
  Ho  Ho15  1  0.250000  0.455568  0.699011  1
  Te  Te16  1  0.250000  0.444308  0.569935  1
  Te  Te17  1  0.750000  0.555692  0.430296  1
  Te  Te18  1  0.750000  0.944229  0.930368  1
  Te  Te19  1  0.250000  0.055742  0.069669  1
  Te  Te20  1  0.250000  0.769610  0.543662  1
  Te  Te21  1  0.750000  0.230559  0.456232  1
  Te  Te22  1  0.750000  0.269405  0.956359  1
  Te  Te23  1  0.250000  0.730523  0.043718  1
  Te  Te24  1  0.250000  0.799658  0.802607  1
  Te  Te25  1  0.750000  0.200360  0.197355  1
  Te  Te26  1  0.750000  0.300480  0.697408  1
  Te  Te27  1  0.250000  0.700389  0.302637  1
  Te  Te28  1  0.250000  0.457226  0.828772  1
  Te  Te29  1  0.750000  0.542728  0.170889  1
  Te  Te30  1  0.750000  0.957412  0.670922  1
  Te  Te31  1  0.250000  0.042730  0.329080  1
  Te  Te32  1  0.250000  0.372751  0.313053  1
  Te  Te33  1  0.750000  0.626549  0.686927  1
  Te  Te34  1  0.750000  0.872755  0.186901  1
  Te  Te35  1  0.250000  0.127195  0.813123  1
