# generated using pymatgen
data_LiNd8Co2Si12Rh
_symmetry_space_group_name_H-M   'P 1'
_cell_length_a   8.19393300
_cell_length_b   8.19393263
_cell_length_c   8.45948900
_cell_angle_alpha   90.00000000
_cell_angle_beta   90.00000000
_cell_angle_gamma   119.99999744
_symmetry_Int_Tables_number   1
_chemical_formula_structural   LiNd8Co2Si12Rh
_chemical_formula_sum   'Li1 Nd8 Co2 Si12 Rh1'
_cell_volume   491.88045996
_cell_formula_units_Z   1
loop_
 _symmetry_equiv_pos_site_id
 _symmetry_equiv_pos_as_xyz
  1  'x, y, z'
loop_
 _atom_site_type_symbol
 _atom_site_label
 _atom_site_symmetry_multiplicity
 _atom_site_fract_x
 _atom_site_fract_y
 _atom_site_fract_z
 _atom_site_occupancy
  Li  Li0  1  0.666667  0.333333  0.996495  1
  Nd  Nd1  1  0.000000  0.000000  0.749131  1
  Nd  Nd2  1  0.000000  0.000000  0.250993  1
  Nd  Nd3  1  0.496431  0.503569  0.745495  1
  Nd  Nd4  1  0.496431  0.992862  0.745495  1
  Nd  Nd5  1  0.007138  0.503569  0.745495  1
  Nd  Nd6  1  0.497744  0.502256  0.254544  1
  Nd  Nd7  1  0.004515  0.502256  0.254544  1
  Nd  Nd8  1  0.497744  0.995485  0.254544  1
  Co  Co9  1  0.666667  0.333333  0.502834  1
  Co  Co10  1  0.333333  0.666667  0.497183  1
  Si  Si11  1  0.836287  0.163713  0.000075  1
  Si  Si12  1  0.836287  0.672574  0.000075  1
  Si  Si13  1  0.327426  0.163713  0.000075  1
  Si  Si14  1  0.827636  0.172364  0.500425  1
  Si  Si15  1  0.827636  0.655272  0.500425  1
  Si  Si16  1  0.344728  0.172364  0.500425  1
  Si  Si17  1  0.171671  0.828329  0.499702  1
  Si  Si18  1  0.656658  0.828329  0.499702  1
  Si  Si19  1  0.171671  0.343342  0.499702  1
  Si  Si20  1  0.167150  0.832850  0.000142  1
  Si  Si21  1  0.665699  0.832850  0.000142  1
  Si  Si22  1  0.167150  0.334301  0.000142  1
  Rh  Rh23  1  0.333333  0.666667  0.002219  1
