# generated using pymatgen
data_Eu3Pt4PbO14
_symmetry_space_group_name_H-M   'P 1'
_cell_length_a   7.41320178
_cell_length_b   7.41320272
_cell_length_c   7.47917686
_cell_angle_alpha   60.29137782
_cell_angle_beta   60.29137368
_cell_angle_gamma   60.00000355
_symmetry_Int_Tables_number   1
_chemical_formula_structural   Eu3Pt4PbO14
_chemical_formula_sum   'Eu3 Pt4 Pb1 O14'
_cell_volume   291.91017642
_cell_formula_units_Z   1
loop_
 _symmetry_equiv_pos_site_id
 _symmetry_equiv_pos_as_xyz
  1  'x, y, z'
loop_
 _atom_site_type_symbol
 _atom_site_label
 _atom_site_symmetry_multiplicity
 _atom_site_fract_x
 _atom_site_fract_y
 _atom_site_fract_z
 _atom_site_occupancy
  Eu  Eu0  1  0.625000  0.125000  0.125000  1
  Eu  Eu1  1  0.125000  0.625000  0.125000  1
  Eu  Eu2  1  0.125000  0.125000  0.125000  1
  Pt  Pt3  1  0.125000  0.625000  0.625000  1
  Pt  Pt4  1  0.625000  0.125000  0.625000  1
  Pt  Pt5  1  0.625000  0.625000  0.125000  1
  Pt  Pt6  1  0.625000  0.625000  0.625000  1
  Pb  Pb7  1  0.125000  0.125000  0.625000  1
  O  O8  1  0.246608  0.246608  0.260175  1
  O  O9  1  0.003392  0.003392  0.989825  1
  O  O10  1  0.709461  0.709461  0.291667  1
  O  O11  1  0.292327  0.292327  0.706546  1
  O  O12  1  0.708800  0.292327  0.706546  1
  O  O13  1  0.289411  0.709461  0.291667  1
  O  O14  1  0.292327  0.708800  0.706546  1
  O  O15  1  0.709461  0.289411  0.291667  1
  O  O16  1  0.540539  0.540539  0.958333  1
  O  O17  1  0.957673  0.957673  0.543454  1
  O  O18  1  0.541200  0.957673  0.543454  1
  O  O19  1  0.960589  0.540539  0.958333  1
  O  O20  1  0.957673  0.541200  0.543454  1
  O  O21  1  0.540539  0.960589  0.958333  1
