# generated using pymatgen
data_Ce3Th(As2O9)2
_symmetry_space_group_name_H-M   'P 1'
_cell_length_a   5.98014589
_cell_length_b   5.98014661
_cell_length_c   13.24731299
_cell_angle_alpha   90.24899289
_cell_angle_beta   89.75100507
_cell_angle_gamma   104.13367048
_symmetry_Int_Tables_number   1
_chemical_formula_structural   Ce3Th(As2O9)2
_chemical_formula_sum   'Ce3 Th1 As4 O18'
_cell_volume   459.40430209
_cell_formula_units_Z   1
loop_
 _symmetry_equiv_pos_site_id
 _symmetry_equiv_pos_as_xyz
  1  'x, y, z'
loop_
 _atom_site_type_symbol
 _atom_site_label
 _atom_site_symmetry_multiplicity
 _atom_site_fract_x
 _atom_site_fract_y
 _atom_site_fract_z
 _atom_site_occupancy
  Ce  Ce0  1  0.297268  0.702732  0.565196  1
  Ce  Ce1  1  0.702927  0.297073  0.434075  1
  Ce  Ce2  1  0.203161  0.796839  0.068520  1
  Th  Th3  1  0.796157  0.203843  0.934055  1
  As  As4  1  0.392346  0.607654  0.853438  1
  As  As5  1  0.104292  0.895708  0.356753  1
  As  As6  1  0.604331  0.395669  0.146669  1
  As  As7  1  0.896050  0.103950  0.642327  1
  O  O8  1  0.074512  0.925488  0.620042  1
  O  O9  1  0.989148  0.364858  0.580381  1
  O  O10  1  0.133989  0.866011  0.230442  1
  O  O11  1  0.487768  0.866722  0.916943  1
  O  O12  1  0.635142  0.010852  0.580381  1
  O  O13  1  0.427042  0.572958  0.123095  1
  O  O14  1  0.864668  0.486741  0.082816  1
  O  O15  1  0.634075  0.365925  0.272862  1
  O  O16  1  0.925746  0.074254  0.379484  1
  O  O17  1  0.365148  0.988952  0.418972  1
  O  O18  1  0.362421  0.637579  0.727202  1
  O  O19  1  0.513259  0.135332  0.082816  1
  O  O20  1  0.569472  0.430528  0.875890  1
  O  O21  1  0.500318  0.499682  0.499989  1
  O  O22  1  0.866757  0.133243  0.768815  1
  O  O23  1  0.133278  0.512232  0.916943  1
  O  O24  1  0.011048  0.634852  0.418972  1
  O  O25  1  0.009676  0.990324  0.002920  1
