# generated using pymatgen
data_CeDy5Ho2(ReB6)4
_symmetry_space_group_name_H-M   'P 1'
_cell_length_a   3.69461600
_cell_length_b   9.18020671
_cell_length_c   11.56319701
_cell_angle_alpha   90.05434186
_cell_angle_beta   90.00000000
_cell_angle_gamma   90.00000000
_symmetry_Int_Tables_number   1
_chemical_formula_structural   CeDy5Ho2(ReB6)4
_chemical_formula_sum   'Ce1 Dy5 Ho2 Re4 B24'
_cell_volume   392.19269191
_cell_formula_units_Z   1
loop_
 _symmetry_equiv_pos_site_id
 _symmetry_equiv_pos_as_xyz
  1  'x, y, z'
loop_
 _atom_site_type_symbol
 _atom_site_label
 _atom_site_symmetry_multiplicity
 _atom_site_fract_x
 _atom_site_fract_y
 _atom_site_fract_z
 _atom_site_occupancy
  Ce  Ce0  1  0.000000  0.323362  0.413999  1
  Dy  Dy1  1  0.000000  0.677109  0.586747  1
  Dy  Dy2  1  0.000000  0.823337  0.085468  1
  Dy  Dy3  1  0.000000  0.176138  0.913965  1
  Dy  Dy4  1  0.000000  0.942552  0.369761  1
  Dy  Dy5  1  0.000000  0.056551  0.630544  1
  Ho  Ho6  1  0.000000  0.443235  0.129150  1
  Ho  Ho7  1  0.000000  0.557160  0.870322  1
  Re  Re8  1  0.000000  0.637772  0.320838  1
  Re  Re9  1  0.000000  0.361905  0.679001  1
  Re  Re10  1  0.000000  0.139342  0.179326  1
  Re  Re11  1  0.000000  0.861196  0.821100  1
  B  B12  1  0.500000  0.553879  0.432325  1
  B  B13  1  0.500000  0.446311  0.567937  1
  B  B14  1  0.500000  0.053329  0.066832  1
  B  B15  1  0.500000  0.946671  0.932941  1
  B  B16  1  0.500000  0.749288  0.418289  1
  B  B17  1  0.500000  0.251333  0.582693  1
  B  B18  1  0.500000  0.248923  0.080935  1
  B  B19  1  0.500000  0.750805  0.918438  1
  B  B20  1  0.500000  0.791704  0.265427  1
  B  B21  1  0.500000  0.208420  0.735165  1
  B  B22  1  0.500000  0.291391  0.233668  1
  B  B23  1  0.500000  0.707895  0.765661  1
  B  B24  1  0.500000  0.631342  0.185088  1
  B  B25  1  0.500000  0.369553  0.814664  1
  B  B26  1  0.500000  0.130946  0.313479  1
  B  B27  1  0.500000  0.868752  0.686083  1
  B  B28  1  0.500000  0.982596  0.211404  1
  B  B29  1  0.500000  0.017099  0.788402  1
  B  B30  1  0.500000  0.483770  0.287356  1
  B  B31  1  0.500000  0.517728  0.712859  1
  B  B32  1  0.500000  0.600803  0.027900  1
  B  B33  1  0.500000  0.399567  0.971598  1
  B  B34  1  0.500000  0.099930  0.472102  1
  B  B35  1  0.500000  0.898305  0.528533  1
