# generated using pymatgen
data_Gd6TaWO14
_symmetry_space_group_name_H-M   'P 1'
_cell_length_a   6.56476563
_cell_length_b   6.56476659
_cell_length_c   7.58820008
_cell_angle_alpha   89.62899187
_cell_angle_beta   90.37100578
_cell_angle_gamma   109.13417217
_symmetry_Int_Tables_number   1
_chemical_formula_structural   Gd6TaWO14
_chemical_formula_sum   'Gd6 Ta1 W1 O14'
_cell_volume   308.94567774
_cell_formula_units_Z   1
loop_
 _symmetry_equiv_pos_site_id
 _symmetry_equiv_pos_as_xyz
  1  'x, y, z'
loop_
 _atom_site_type_symbol
 _atom_site_label
 _atom_site_symmetry_multiplicity
 _atom_site_fract_x
 _atom_site_fract_y
 _atom_site_fract_z
 _atom_site_occupancy
  Gd  Gd0  1  0.465261  0.999981  0.253850  1
  Gd  Gd1  1  0.000281  0.531796  0.244581  1
  Gd  Gd2  1  0.470956  0.470956  0.000000  1
  Gd  Gd3  1  0.519681  0.519681  0.500000  1
  Gd  Gd4  1  0.531796  0.000281  0.755419  1
  Gd  Gd5  1  0.999981  0.465261  0.746150  1
  Ta  Ta6  1  0.996641  0.996641  0.000000  1
  W  W7  1  0.999503  0.999503  0.500000  1
  O  O8  1  0.932346  0.065464  0.750401  1
  O  O9  1  0.637295  0.362901  0.750416  1
  O  O10  1  0.314270  0.064709  0.532444  1
  O  O11  1  0.945833  0.691333  0.960466  1
  O  O12  1  0.629936  0.370683  0.249786  1
  O  O13  1  0.920033  0.676600  0.525496  1
  O  O14  1  0.323766  0.080730  0.972715  1
  O  O15  1  0.080730  0.323766  0.027285  1
  O  O16  1  0.676600  0.920033  0.474504  1
  O  O17  1  0.370683  0.629936  0.750214  1
  O  O18  1  0.691333  0.945833  0.039534  1
  O  O19  1  0.064709  0.314270  0.467556  1
  O  O20  1  0.362901  0.637295  0.249584  1
  O  O21  1  0.065464  0.932346  0.249599  1
