# generated using pymatgen
data_CaDy(Al5Ru)4
_symmetry_space_group_name_H-M   'P 1'
_cell_length_a   6.87421634
_cell_length_b   6.87421537
_cell_length_c   9.14725700
_cell_angle_alpha   90.00000000
_cell_angle_beta   90.00000000
_cell_angle_gamma   96.74949697
_symmetry_Int_Tables_number   1
_chemical_formula_structural   CaDy(Al5Ru)4
_chemical_formula_sum   'Ca1 Dy1 Al20 Ru4'
_cell_volume   429.25647037
_cell_formula_units_Z   1
loop_
 _symmetry_equiv_pos_site_id
 _symmetry_equiv_pos_as_xyz
  1  'x, y, z'
loop_
 _atom_site_type_symbol
 _atom_site_label
 _atom_site_symmetry_multiplicity
 _atom_site_fract_x
 _atom_site_fract_y
 _atom_site_fract_z
 _atom_site_occupancy
  Ca  Ca0  1  0.125614  0.874386  0.250000  1
  Dy  Dy1  1  0.874571  0.125429  0.750000  1
  Al  Al2  1  0.588716  0.859957  0.250000  1
  Al  Al3  1  0.780064  0.523436  0.250000  1
  Al  Al4  1  0.154992  0.845008  0.901151  1
  Al  Al5  1  0.413644  0.139275  0.750000  1
  Al  Al6  1  0.622802  0.377198  0.948471  1
  Al  Al7  1  0.840776  0.159224  0.400674  1
  Al  Al8  1  0.775268  0.774088  0.999363  1
  Al  Al9  1  0.860725  0.586356  0.750000  1
  Al  Al10  1  0.840776  0.159224  0.099326  1
  Al  Al11  1  0.220731  0.478499  0.750000  1
  Al  Al12  1  0.154992  0.845008  0.598849  1
  Al  Al13  1  0.775268  0.774088  0.500637  1
  Al  Al14  1  0.476564  0.219936  0.250000  1
  Al  Al15  1  0.622802  0.377198  0.551529  1
  Al  Al16  1  0.225912  0.224732  0.500637  1
  Al  Al17  1  0.376865  0.623135  0.455376  1
  Al  Al18  1  0.140043  0.411284  0.250000  1
  Al  Al19  1  0.521501  0.779269  0.750000  1
  Al  Al20  1  0.376865  0.623135  0.044624  1
  Al  Al21  1  0.225912  0.224732  0.999363  1
  Ru  Ru22  1  0.502018  0.999721  0.999015  1
  Ru  Ru23  1  0.502018  0.999721  0.500985  1
  Ru  Ru24  1  0.000279  0.497982  0.999015  1
  Ru  Ru25  1  0.000279  0.497982  0.500985  1
