# generated using pymatgen
data_Ta6Al4FeCuC2
_symmetry_space_group_name_H-M   'P 1'
_cell_length_a   8.24594213
_cell_length_b   8.24594287
_cell_length_c   8.28416200
_cell_angle_alpha   59.84655989
_cell_angle_beta   59.84655690
_cell_angle_gamma   59.74839479
_symmetry_Int_Tables_number   1
_chemical_formula_structural   Ta6Al4FeCuC2
_chemical_formula_sum   'Ta12 Al8 Fe2 Cu2 C4'
_cell_volume   396.61967267
_cell_formula_units_Z   2
loop_
 _symmetry_equiv_pos_site_id
 _symmetry_equiv_pos_as_xyz
  1  'x, y, z'
loop_
 _atom_site_type_symbol
 _atom_site_label
 _atom_site_symmetry_multiplicity
 _atom_site_fract_x
 _atom_site_fract_y
 _atom_site_fract_z
 _atom_site_occupancy
  Ta  Ta0  1  0.557992  0.938111  0.568162  1
  Ta  Ta1  1  0.311889  0.692008  0.681838  1
  Ta  Ta2  1  0.692008  0.311889  0.314264  1
  Ta  Ta3  1  0.311889  0.692008  0.314264  1
  Ta  Ta4  1  0.682680  0.682680  0.317320  1
  Ta  Ta5  1  0.310721  0.310721  0.689279  1
  Ta  Ta6  1  0.567320  0.567320  0.932680  1
  Ta  Ta7  1  0.938111  0.557992  0.568162  1
  Ta  Ta8  1  0.557992  0.938111  0.935736  1
  Ta  Ta9  1  0.939279  0.939279  0.560721  1
  Ta  Ta10  1  0.692008  0.311889  0.681838  1
  Ta  Ta11  1  0.938111  0.557992  0.935736  1
  Al  Al12  1  0.918345  0.918345  0.912234  1
  Al  Al13  1  0.005739  0.327365  0.333447  1
  Al  Al14  1  0.327365  0.005739  0.333447  1
  Al  Al15  1  0.331655  0.331655  0.998922  1
  Al  Al16  1  0.922635  0.244261  0.916553  1
  Al  Al17  1  0.918345  0.918345  0.251078  1
  Al  Al18  1  0.244261  0.922635  0.916553  1
  Al  Al19  1  0.331655  0.331655  0.337766  1
  Fe  Fe20  1  0.125000  0.125000  0.125000  1
  Fe  Fe21  1  0.125000  0.125000  0.625000  1
  Cu  Cu22  1  0.625000  0.125000  0.125000  1
  Cu  Cu23  1  0.125000  0.625000  0.125000  1
  C  C24  1  0.625000  0.625000  0.625000  1
  C  C25  1  0.125000  0.625000  0.625000  1
  C  C26  1  0.625000  0.125000  0.625000  1
  C  C27  1  0.625000  0.625000  0.125000  1
