# generated using pymatgen
data_Tb6B14OsW
_symmetry_space_group_name_H-M   'P 1'
_cell_length_a   8.16005870
_cell_length_b   8.16006008
_cell_length_c   9.42787300
_cell_angle_alpha   90.00000000
_cell_angle_beta   90.00000000
_cell_angle_gamma   155.14032050
_symmetry_Int_Tables_number   1
_chemical_formula_structural   Tb6B14OsW
_chemical_formula_sum   'Tb6 B14 Os1 W1'
_cell_volume   263.91275680
_cell_formula_units_Z   1
loop_
 _symmetry_equiv_pos_site_id
 _symmetry_equiv_pos_as_xyz
  1  'x, y, z'
loop_
 _atom_site_type_symbol
 _atom_site_label
 _atom_site_symmetry_multiplicity
 _atom_site_fract_x
 _atom_site_fract_y
 _atom_site_fract_z
 _atom_site_occupancy
  Tb  Tb0  1  0.894239  0.105761  0.437348  1
  Tb  Tb1  1  0.106922  0.893078  0.558923  1
  Tb  Tb2  1  0.894239  0.105761  0.062652  1
  Tb  Tb3  1  0.106922  0.893078  0.941077  1
  Tb  Tb4  1  0.243302  0.756698  0.250000  1
  Tb  Tb5  1  0.755147  0.244853  0.750000  1
  B  B6  1  0.726407  0.273593  0.465685  1
  B  B7  1  0.272225  0.727775  0.531894  1
  B  B8  1  0.726407  0.273593  0.034315  1
  B  B9  1  0.272225  0.727775  0.968106  1
  B  B10  1  0.631750  0.368250  0.151484  1
  B  B11  1  0.365329  0.634671  0.852527  1
  B  B12  1  0.631750  0.368250  0.348516  1
  B  B13  1  0.365329  0.634671  0.647473  1
  B  B14  1  0.521608  0.478392  0.096813  1
  B  B15  1  0.479862  0.520138  0.908574  1
  B  B16  1  0.521608  0.478392  0.403187  1
  B  B17  1  0.479862  0.520138  0.591426  1
  B  B18  1  0.459350  0.540650  0.250000  1
  B  B19  1  0.543863  0.456137  0.750000  1
  Os  Os20  1  0.054523  0.945477  0.250000  1
  W  W21  1  0.947128  0.052872  0.750000  1
