# generated using pymatgen
data_Pr16Dy4Si15Pb
_symmetry_space_group_name_H-M   'P 1'
_cell_length_a   7.86848159
_cell_length_b   7.82398922
_cell_length_c   15.38998200
_cell_angle_alpha   89.74717681
_cell_angle_beta   89.28271376
_cell_angle_gamma   89.96719345
_symmetry_Int_Tables_number   1
_chemical_formula_structural   Pr16Dy4Si15Pb
_chemical_formula_sum   'Pr16 Dy4 Si15 Pb1'
_cell_volume   947.36856130
_cell_formula_units_Z   1
loop_
 _symmetry_equiv_pos_site_id
 _symmetry_equiv_pos_as_xyz
  1  'x, y, z'
loop_
 _atom_site_type_symbol
 _atom_site_label
 _atom_site_symmetry_multiplicity
 _atom_site_fract_x
 _atom_site_fract_y
 _atom_site_fract_z
 _atom_site_occupancy
  Pr  Pr0  1  0.376917  0.014781  0.445374  1
  Pr  Pr1  1  0.493286  0.871079  0.696447  1
  Pr  Pr2  1  0.512721  0.119125  0.194591  1
  Pr  Pr3  1  0.879019  0.485969  0.303518  1
  Pr  Pr4  1  0.119479  0.521785  0.808684  1
  Pr  Pr5  1  0.624593  0.984722  0.948241  1
  Pr  Pr6  1  0.004151  0.386630  0.547793  1
  Pr  Pr7  1  0.988214  0.619887  0.056796  1
  Pr  Pr8  1  0.125138  0.975461  0.882685  1
  Pr  Pr9  1  0.524934  0.625586  0.128811  1
  Pr  Pr10  1  0.487025  0.385788  0.627301  1
  Pr  Pr11  1  0.627246  0.526832  0.874430  1
  Pr  Pr12  1  0.374410  0.475712  0.370328  1
  Pr  Pr13  1  0.873388  0.023049  0.377650  1
  Pr  Pr14  1  0.977761  0.126027  0.122565  1
  Pr  Pr15  1  0.012007  0.860452  0.616864  1
  Dy  Dy16  1  0.310739  0.308045  0.001275  1
  Dy  Dy17  1  0.190982  0.808290  0.249489  1
  Dy  Dy18  1  0.794437  0.190895  0.752967  1
  Dy  Dy19  1  0.686890  0.692107  0.496455  1
  Si  Si20  1  0.328240  0.687537  0.959912  1
  Si  Si21  1  0.668969  0.311331  0.456436  1
  Si  Si22  1  0.689781  0.327775  0.043414  1
  Si  Si23  1  0.311822  0.673396  0.540203  1
  Si  Si24  1  0.813081  0.827155  0.208262  1
  Si  Si25  1  0.172368  0.186733  0.292023  1
  Si  Si26  1  0.831057  0.814094  0.792183  1
  Si  Si27  1  0.286741  0.921012  0.064295  1
  Si  Si28  1  0.578773  0.786456  0.312771  1
  Si  Si29  1  0.433708  0.213648  0.819840  1
  Si  Si30  1  0.788401  0.577717  0.688693  1
  Si  Si31  1  0.215392  0.420022  0.186995  1
  Si  Si32  1  0.711392  0.081051  0.563178  1
  Si  Si33  1  0.922449  0.287126  0.937572  1
  Si  Si34  1  0.079957  0.714731  0.434222  1
  Pb  Pb35  1  0.184531  0.167996  0.697734  1
