# generated using pymatgen
data_Er2Tm14In6PtRh
_symmetry_space_group_name_H-M   'P 1'
_cell_length_a   10.35050300
_cell_length_b   10.35050092
_cell_length_c   6.93025300
_cell_angle_alpha   90.00000000
_cell_angle_beta   90.00000000
_cell_angle_gamma   119.99999707
_symmetry_Int_Tables_number   1
_chemical_formula_structural   Er2Tm14In6PtRh
_chemical_formula_sum   'Er2 Tm14 In6 Pt1 Rh1'
_cell_volume   642.98754093
_cell_formula_units_Z   1
loop_
 _symmetry_equiv_pos_site_id
 _symmetry_equiv_pos_as_xyz
  1  'x, y, z'
loop_
 _atom_site_type_symbol
 _atom_site_label
 _atom_site_symmetry_multiplicity
 _atom_site_fract_x
 _atom_site_fract_y
 _atom_site_fract_z
 _atom_site_occupancy
  Er  Er0  1  0.000000  0.000000  0.776917  1
  Er  Er1  1  0.000000  0.000000  0.277442  1
  Tm  Tm2  1  0.530877  0.061753  0.796080  1
  Tm  Tm3  1  0.938247  0.469123  0.796080  1
  Tm  Tm4  1  0.530877  0.469123  0.796080  1
  Tm  Tm5  1  0.466384  0.932769  0.295361  1
  Tm  Tm6  1  0.067231  0.533616  0.295361  1
  Tm  Tm7  1  0.466384  0.533616  0.295361  1
  Tm  Tm8  1  0.824258  0.648514  0.499662  1
  Tm  Tm9  1  0.351486  0.175742  0.499662  1
  Tm  Tm10  1  0.824258  0.175742  0.499662  1
  Tm  Tm11  1  0.176744  0.353490  0.999736  1
  Tm  Tm12  1  0.646510  0.823256  0.999736  1
  Tm  Tm13  1  0.176744  0.823256  0.999736  1
  Tm  Tm14  1  0.666667  0.333333  0.170019  1
  Tm  Tm15  1  0.333333  0.666667  0.673821  1
  In  In16  1  0.837776  0.675552  0.037560  1
  In  In17  1  0.324448  0.162224  0.037560  1
  In  In18  1  0.837776  0.162224  0.037560  1
  In  In19  1  0.162580  0.325161  0.538662  1
  In  In20  1  0.674839  0.837420  0.538662  1
  In  In21  1  0.162580  0.837420  0.538662  1
  Pt  Pt22  1  0.666667  0.333333  0.568185  1
  Rh  Rh23  1  0.333333  0.666667  0.068332  1
