# generated using pymatgen
data_Y2BeRh2
_symmetry_space_group_name_H-M   'P 1'
_cell_length_a   5.52931745
_cell_length_b   5.52931603
_cell_length_c   5.52931846
_cell_angle_alpha   140.06097249
_cell_angle_beta   115.88775407
_cell_angle_gamma   78.26780148
_symmetry_Int_Tables_number   1
_chemical_formula_structural   Y2BeRh2
_chemical_formula_sum   'Y2 Be1 Rh2'
_cell_volume   95.07345865
_cell_formula_units_Z   1
loop_
 _symmetry_equiv_pos_site_id
 _symmetry_equiv_pos_as_xyz
  1  'x, y, z'
loop_
 _atom_site_type_symbol
 _atom_site_label
 _atom_site_symmetry_multiplicity
 _atom_site_fract_x
 _atom_site_fract_y
 _atom_site_fract_z
 _atom_site_occupancy
  Y  Y0  1  0.699130  0.199130  0.500000  1
  Y  Y1  1  0.300870  0.800870  0.500000  1
  Be  Be2  1  0.000000  0.000000  0.000000  1
  Rh  Rh3  1  0.755700  0.500000  0.255700  1
  Rh  Rh4  1  0.244300  0.500000  0.744300  1
