# generated using pymatgen
data_Er4As5Ir7Pd
_symmetry_space_group_name_H-M   'P 1'
_cell_length_a   7.28927189
_cell_length_b   7.28927177
_cell_length_c   7.28927300
_cell_angle_alpha   106.91001203
_cell_angle_beta   110.76680603
_cell_angle_gamma   110.76681136
_symmetry_Int_Tables_number   1
_chemical_formula_structural   Er4As5Ir7Pd
_chemical_formula_sum   'Er4 As5 Ir7 Pd1'
_cell_volume   297.70278196
_cell_formula_units_Z   1
loop_
 _symmetry_equiv_pos_site_id
 _symmetry_equiv_pos_as_xyz
  1  'x, y, z'
loop_
 _atom_site_type_symbol
 _atom_site_label
 _atom_site_symmetry_multiplicity
 _atom_site_fract_x
 _atom_site_fract_y
 _atom_site_fract_z
 _atom_site_occupancy
  Er  Er0  1  0.999994  0.985988  0.497281  1
  Er  Er1  1  0.999994  0.497281  0.985988  1
  Er  Er2  1  0.488708  0.986012  0.986012  1
  Er  Er3  1  0.511293  0.497295  0.497295  1
  As  As4  1  0.686380  0.685271  0.998825  1
  As  As5  1  0.313627  0.998889  0.312455  1
  As  As6  1  0.999992  0.332524  0.332524  1
  As  As7  1  0.313627  0.312455  0.998889  1
  As  As8  1  0.686380  0.998825  0.685271  1
  Ir  Ir9  1  0.747127  0.237870  0.490831  1
  Ir  Ir10  1  0.747127  0.490831  0.237870  1
  Ir  Ir11  1  0.499981  0.244931  0.744936  1
  Ir  Ir12  1  0.252880  0.490758  0.743703  1
  Ir  Ir13  1  0.252880  0.743703  0.490758  1
  Ir  Ir14  1  0.499981  0.744936  0.244931  1
  Ir  Ir15  1  0.000018  0.039286  0.039286  1
  Pd  Pd16  1  0.000012  0.713141  0.713141  1
