# generated using pymatgen
data_LiSc2(Ru2W)3
_symmetry_space_group_name_H-M   'P 1'
_cell_length_a   4.38027000
_cell_length_b   6.23405500
_cell_length_c   13.26308400
_cell_angle_alpha   90.00000000
_cell_angle_beta   90.00032112
_cell_angle_gamma   90.00000000
_symmetry_Int_Tables_number   1
_chemical_formula_structural   LiSc2(Ru2W)3
_chemical_formula_sum   'Li2 Sc4 Ru12 W6'
_cell_volume   362.17296700
_cell_formula_units_Z   2
loop_
 _symmetry_equiv_pos_site_id
 _symmetry_equiv_pos_as_xyz
  1  'x, y, z'
loop_
 _atom_site_type_symbol
 _atom_site_label
 _atom_site_symmetry_multiplicity
 _atom_site_fract_x
 _atom_site_fract_y
 _atom_site_fract_z
 _atom_site_occupancy
  Li  Li0  1  0.000252  0.000000  0.667942  1
  Li  Li1  1  0.500248  0.500000  0.832061  1
  Sc  Sc2  1  0.999968  0.000000  0.995365  1
  Sc  Sc3  1  0.499786  0.500000  0.164649  1
  Sc  Sc4  1  0.999791  0.000000  0.335335  1
  Sc  Sc5  1  0.499973  0.500000  0.504628  1
  Ru  Ru6  1  0.499990  0.254304  0.995644  1
  Ru  Ru7  1  0.499990  0.745695  0.995644  1
  Ru  Ru8  1  0.999806  0.247799  0.165169  1
  Ru  Ru9  1  0.999806  0.752202  0.165169  1
  Ru  Ru10  1  0.499810  0.252192  0.334827  1
  Ru  Ru11  1  0.499810  0.747808  0.334827  1
  Ru  Ru12  1  0.999989  0.245714  0.504357  1
  Ru  Ru13  1  0.999989  0.754285  0.504357  1
  Ru  Ru14  1  0.500223  0.247857  0.670061  1
  Ru  Ru15  1  0.500223  0.752143  0.670061  1
  Ru  Ru16  1  0.000227  0.252143  0.829947  1
  Ru  Ru17  1  0.000227  0.747858  0.829947  1
  W  W18  1  0.999962  0.500000  0.988744  1
  W  W19  1  0.499805  0.000000  0.163656  1
  W  W20  1  0.999803  0.500000  0.336356  1
  W  W21  1  0.499966  0.000000  0.511261  1
  W  W22  1  0.000182  0.500000  0.673777  1
  W  W23  1  0.500178  0.000000  0.826212  1
