# generated using pymatgen
data_Dy8Y2Si5P
_symmetry_space_group_name_H-M   'P 1'
_cell_length_a   8.41739300
_cell_length_b   8.42440195
_cell_length_c   6.31913700
_cell_angle_alpha   90.00000000
_cell_angle_beta   90.00000000
_cell_angle_gamma   119.97248600
_symmetry_Int_Tables_number   1
_chemical_formula_structural   Dy8Y2Si5P
_chemical_formula_sum   'Dy8 Y2 Si5 P1'
_cell_volume   388.17309316
_cell_formula_units_Z   1
loop_
 _symmetry_equiv_pos_site_id
 _symmetry_equiv_pos_as_xyz
  1  'x, y, z'
loop_
 _atom_site_type_symbol
 _atom_site_label
 _atom_site_symmetry_multiplicity
 _atom_site_fract_x
 _atom_site_fract_y
 _atom_site_fract_z
 _atom_site_occupancy
  Dy  Dy0  1  0.001116  0.756836  0.750000  1
  Dy  Dy1  1  0.754911  0.000000  0.750000  1
  Dy  Dy2  1  0.244279  0.243164  0.750000  1
  Dy  Dy3  1  0.243936  0.000000  0.250000  1
  Dy  Dy4  1  0.666264  0.332514  0.999517  1
  Dy  Dy5  1  0.333749  0.667486  0.500483  1
  Dy  Dy6  1  0.333749  0.667486  0.999517  1
  Dy  Dy7  1  0.666264  0.332514  0.500483  1
  Y  Y8  1  0.000914  0.244382  0.250000  1
  Y  Y9  1  0.756532  0.755618  0.250000  1
  Si  Si10  1  0.394136  0.393633  0.250000  1
  Si  Si11  1  0.000504  0.606367  0.250000  1
  Si  Si12  1  0.000099  0.393464  0.750000  1
  Si  Si13  1  0.606635  0.606536  0.750000  1
  Si  Si14  1  0.607159  0.000000  0.250000  1
  P  P15  1  0.389755  0.000000  0.750000  1
