# generated using pymatgen
data_Ho3Er4CoI12
_symmetry_space_group_name_H-M   'P 1'
_cell_length_a   9.69274142
_cell_length_b   9.69274056
_cell_length_c   9.69274105
_cell_angle_alpha   106.83899514
_cell_angle_beta   106.83898751
_cell_angle_gamma   106.83898040
_symmetry_Int_Tables_number   1
_chemical_formula_structural   Ho3Er4CoI12
_chemical_formula_sum   'Ho3 Er4 Co1 I12'
_cell_volume   761.68408754
_cell_formula_units_Z   1
loop_
 _symmetry_equiv_pos_site_id
 _symmetry_equiv_pos_as_xyz
  1  'x, y, z'
loop_
 _atom_site_type_symbol
 _atom_site_label
 _atom_site_symmetry_multiplicity
 _atom_site_fract_x
 _atom_site_fract_y
 _atom_site_fract_z
 _atom_site_occupancy
  Ho  Ho0  1  0.286290  0.090943  0.021394  1
  Ho  Ho1  1  0.021394  0.286290  0.090943  1
  Ho  Ho2  1  0.090943  0.021394  0.286290  1
  Er  Er3  1  0.500017  0.500017  0.500017  1
  Er  Er4  1  0.714464  0.909088  0.978286  1
  Er  Er5  1  0.978286  0.714464  0.909088  1
  Er  Er6  1  0.909088  0.978286  0.714464  1
  Co  Co7  1  0.999707  0.999707  0.999707  1
  I  I8  1  0.463512  0.161293  0.386909  1
  I  I9  1  0.386909  0.463512  0.161293  1
  I  I10  1  0.161293  0.386909  0.463512  1
  I  I11  1  0.536679  0.838719  0.613214  1
  I  I12  1  0.613214  0.536679  0.838719  1
  I  I13  1  0.838719  0.613214  0.536679  1
  I  I14  1  0.323328  0.775549  0.929286  1
  I  I15  1  0.929286  0.323328  0.775549  1
  I  I16  1  0.775549  0.929286  0.323328  1
  I  I17  1  0.676597  0.224097  0.070629  1
  I  I18  1  0.070629  0.676597  0.224097  1
  I  I19  1  0.224097  0.070629  0.676597  1
