# generated using pymatgen
data_Li5Zr(SnRh2)6
_symmetry_space_group_name_H-M   'P 1'
_cell_length_a   4.44801800
_cell_length_b   6.26820700
_cell_length_c   13.32107900
_cell_angle_alpha   90.00000000
_cell_angle_beta   89.99828531
_cell_angle_gamma   90.00000000
_symmetry_Int_Tables_number   1
_chemical_formula_structural   Li5Zr(SnRh2)6
_chemical_formula_sum   'Li5 Zr1 Sn6 Rh12'
_cell_volume   371.40630317
_cell_formula_units_Z   1
loop_
 _symmetry_equiv_pos_site_id
 _symmetry_equiv_pos_as_xyz
  1  'x, y, z'
loop_
 _atom_site_type_symbol
 _atom_site_label
 _atom_site_symmetry_multiplicity
 _atom_site_fract_x
 _atom_site_fract_y
 _atom_site_fract_z
 _atom_site_occupancy
  Li  Li0  1  0.999994  0.000000  0.001930  1
  Li  Li1  1  0.500292  0.500001  0.167868  1
  Li  Li2  1  0.000316  0.000000  0.333362  1
  Li  Li3  1  0.500012  0.500001  0.498787  1
  Li  Li4  1  0.999676  0.000000  0.664729  1
  Zr  Zr5  1  0.499669  0.500001  0.833344  1
  Sn  Sn6  1  0.999911  0.500001  0.008213  1
  Sn  Sn7  1  0.500379  0.000000  0.173109  1
  Sn  Sn8  1  0.000280  0.500001  0.333352  1
  Sn  Sn9  1  0.500026  0.000000  0.493626  1
  Sn  Sn10  1  0.999642  0.500001  0.658366  1
  Sn  Sn11  1  0.499698  0.000000  0.833355  1
  Rh  Rh12  1  0.499967  0.245686  0.001959  1
  Rh  Rh13  1  0.499967  0.754313  0.001959  1
  Rh  Rh14  1  0.000399  0.246639  0.168130  1
  Rh  Rh15  1  0.000399  0.753361  0.168130  1
  Rh  Rh16  1  0.500308  0.254737  0.333332  1
  Rh  Rh17  1  0.500308  0.745262  0.333332  1
  Rh  Rh18  1  0.000019  0.246665  0.498501  1
  Rh  Rh19  1  0.000019  0.753336  0.498501  1
  Rh  Rh20  1  0.499688  0.245748  0.664714  1
  Rh  Rh21  1  0.499688  0.754251  0.664714  1
  Rh  Rh22  1  0.999671  0.247502  0.833344  1
  Rh  Rh23  1  0.999671  0.752498  0.833344  1
