# generated using pymatgen
data_Ho3MgCd2Ga2Ag
_symmetry_space_group_name_H-M   'P 1'
_cell_length_a   7.35995016
_cell_length_b   7.35995114
_cell_length_c   4.34690900
_cell_angle_alpha   90.00000000
_cell_angle_beta   90.00000000
_cell_angle_gamma   120.08660063
_symmetry_Int_Tables_number   1
_chemical_formula_structural   Ho3MgCd2Ga2Ag
_chemical_formula_sum   'Ho3 Mg1 Cd2 Ga2 Ag1'
_cell_volume   203.74236267
_cell_formula_units_Z   1
loop_
 _symmetry_equiv_pos_site_id
 _symmetry_equiv_pos_as_xyz
  1  'x, y, z'
loop_
 _atom_site_type_symbol
 _atom_site_label
 _atom_site_symmetry_multiplicity
 _atom_site_fract_x
 _atom_site_fract_y
 _atom_site_fract_z
 _atom_site_occupancy
  Ho  Ho0  1  0.576117  0.000089  0.000000  1
  Ho  Ho1  1  0.000089  0.576117  0.000000  1
  Ho  Ho2  1  0.420417  0.420417  0.000000  1
  Mg  Mg3  1  0.758482  0.758482  0.500000  1
  Cd  Cd4  1  0.249983  0.999089  0.500000  1
  Cd  Cd5  1  0.999089  0.249983  0.500000  1
  Ga  Ga6  1  0.337166  0.666010  0.500000  1
  Ga  Ga7  1  0.666010  0.337166  0.500000  1
  Ag  Ag8  1  0.992646  0.992646  0.000000  1
