# generated using pymatgen
data_Tb3Dy3InCoRu
_symmetry_space_group_name_H-M   'P 1'
_cell_length_a   8.43827251
_cell_length_b   8.43827241
_cell_length_c   8.43832281
_cell_angle_alpha   112.64786509
_cell_angle_beta   110.26755647
_cell_angle_gamma   105.57648571
_symmetry_Int_Tables_number   1
_chemical_formula_structural   Tb3Dy3InCoRu
_chemical_formula_sum   'Tb6 Dy6 In2 Co2 Ru2'
_cell_volume   460.73024926
_cell_formula_units_Z   2
loop_
 _symmetry_equiv_pos_site_id
 _symmetry_equiv_pos_as_xyz
  1  'x, y, z'
loop_
 _atom_site_type_symbol
 _atom_site_label
 _atom_site_symmetry_multiplicity
 _atom_site_fract_x
 _atom_site_fract_y
 _atom_site_fract_z
 _atom_site_occupancy
  Tb  Tb0  1  0.442975  0.240972  0.201552  1
  Tb  Tb1  1  0.557025  0.759028  0.798448  1
  Tb  Tb2  1  0.039419  0.241423  0.798448  1
  Tb  Tb3  1  0.960581  0.758577  0.201552  1
  Tb  Tb4  1  0.183894  0.285719  0.469613  1
  Tb  Tb5  1  0.816106  0.714281  0.530387  1
  Dy  Dy6  1  0.184207  0.714770  0.898977  1
  Dy  Dy7  1  0.815793  0.285230  0.101023  1
  Dy  Dy8  1  0.321889  0.637330  0.314776  1
  Dy  Dy9  1  0.678111  0.362670  0.685224  1
  Dy  Dy10  1  0.322555  0.007112  0.685224  1
  Dy  Dy11  1  0.677445  0.992888  0.314776  1
  In  In12  1  0.500000  0.500000  0.000000  1
  In  In13  1  0.000000  0.000000  0.000000  1
  Co  Co14  1  0.111055  0.611055  0.500000  1
  Co  Co15  1  0.888945  0.388945  0.500000  1
  Ru  Ru16  1  0.331181  0.999772  0.330953  1
  Ru  Ru17  1  0.668819  0.000228  0.669047  1
