# generated using pymatgen
data_Ho17Tm3Ir7Rh5
_symmetry_space_group_name_H-M   'P 1'
_cell_length_a   10.83111905
_cell_length_b   10.83109421
_cell_length_c   6.35551202
_cell_angle_alpha   89.98890568
_cell_angle_beta   89.99438863
_cell_angle_gamma   89.92136470
_symmetry_Int_Tables_number   1
_chemical_formula_structural   Ho17Tm3Ir7Rh5
_chemical_formula_sum   'Ho17 Tm3 Ir7 Rh5'
_cell_volume   745.58264137
_cell_formula_units_Z   1
loop_
 _symmetry_equiv_pos_site_id
 _symmetry_equiv_pos_as_xyz
  1  'x, y, z'
loop_
 _atom_site_type_symbol
 _atom_site_label
 _atom_site_symmetry_multiplicity
 _atom_site_fract_x
 _atom_site_fract_y
 _atom_site_fract_z
 _atom_site_occupancy
  Ho  Ho0  1  0.290085  0.088287  0.378861  1
  Ho  Ho1  1  0.290186  0.911594  0.878291  1
  Ho  Ho2  1  0.709208  0.087961  0.877769  1
  Ho  Ho3  1  0.709072  0.909807  0.378978  1
  Ho  Ho4  1  0.588300  0.789851  0.878796  1
  Ho  Ho5  1  0.586845  0.210176  0.378474  1
  Ho  Ho6  1  0.411345  0.789974  0.378623  1
  Ho  Ho7  1  0.411458  0.209906  0.878395  1
  Ho  Ho8  1  0.210152  0.411755  0.621171  1
  Ho  Ho9  1  0.210014  0.588701  0.121406  1
  Ho  Ho10  1  0.789823  0.413107  0.121541  1
  Ho  Ho11  1  0.790088  0.588495  0.621574  1
  Ho  Ho12  1  0.911752  0.710112  0.121026  1
  Ho  Ho13  1  0.911976  0.290968  0.622387  1
  Ho  Ho14  1  0.088469  0.709634  0.621826  1
  Ho  Ho15  1  0.090140  0.290756  0.120895  1
  Ho  Ho16  1  0.999939  0.999785  0.499893  1
  Tm  Tm17  1  0.000248  0.000020  0.000028  1
  Tm  Tm18  1  0.499924  0.499745  0.999845  1
  Tm  Tm19  1  0.500245  0.500075  0.500136  1
  Ir  Ir20  1  0.846189  0.847061  0.750685  1
  Ir  Ir21  1  0.152968  0.153789  0.750510  1
  Ir  Ir22  1  0.153725  0.846270  0.249390  1
  Ir  Ir23  1  0.654018  0.346007  0.750001  1
  Ir  Ir24  1  0.653444  0.652993  0.249772  1
  Ir  Ir25  1  0.347030  0.346532  0.250288  1
  Ir  Ir26  1  0.346707  0.653279  0.749979  1
  Rh  Rh27  1  0.846099  0.153920  0.249468  1
  Rh  Rh28  1  0.500568  0.000222  0.123969  1
  Rh  Rh29  1  0.500436  0.000215  0.623358  1
  Rh  Rh30  1  0.999779  0.499574  0.876643  1
  Rh  Rh31  1  0.999771  0.499429  0.376021  1
