# generated using pymatgen
data_Li5Ni9As4P3
_symmetry_space_group_name_H-M   'P 1'
_cell_length_a   9.23820800
_cell_length_b   9.23820693
_cell_length_c   3.67634400
_cell_angle_alpha   90.00000000
_cell_angle_beta   90.00000000
_cell_angle_gamma   120.00001099
_symmetry_Int_Tables_number   1
_chemical_formula_structural   Li5Ni9As4P3
_chemical_formula_sum   'Li5 Ni9 As4 P3'
_cell_volume   271.72033905
_cell_formula_units_Z   1
loop_
 _symmetry_equiv_pos_site_id
 _symmetry_equiv_pos_as_xyz
  1  'x, y, z'
loop_
 _atom_site_type_symbol
 _atom_site_label
 _atom_site_symmetry_multiplicity
 _atom_site_fract_x
 _atom_site_fract_y
 _atom_site_fract_z
 _atom_site_occupancy
  Li  Li0  1  0.766638  0.551602  0.500000  1
  Li  Li1  1  0.448398  0.215035  0.500000  1
  Li  Li2  1  0.784965  0.233362  0.500000  1
  Li  Li3  1  0.333333  0.666667  0.000000  1
  Li  Li4  1  0.000000  0.000000  0.500000  1
  Ni  Ni5  1  0.278839  0.392650  0.500000  1
  Ni  Ni6  1  0.607350  0.886189  0.500000  1
  Ni  Ni7  1  0.113811  0.721161  0.500000  1
  Ni  Ni8  1  0.495565  0.457556  0.000000  1
  Ni  Ni9  1  0.542444  0.038009  0.000000  1
  Ni  Ni10  1  0.961991  0.504435  0.000000  1
  Ni  Ni11  1  0.707196  0.756013  0.000000  1
  Ni  Ni12  1  0.243987  0.951183  0.000000  1
  Ni  Ni13  1  0.048817  0.292804  0.000000  1
  As  As14  1  0.963002  0.757197  0.000000  1
  As  As15  1  0.242803  0.205805  0.000000  1
  As  As16  1  0.794195  0.036998  0.000000  1
  As  As17  1  0.666667  0.333333  0.000000  1
  P  P18  1  0.537231  0.620031  0.500000  1
  P  P19  1  0.379969  0.917200  0.500000  1
  P  P20  1  0.082800  0.462769  0.500000  1
