# generated using pymatgen
data_YbHfZr2(Al8Pt3)3
_symmetry_space_group_name_H-M   'P 1'
_cell_length_a   7.48692507
_cell_length_b   7.48563940
_cell_length_c   13.01543535
_cell_angle_alpha   84.46868316
_cell_angle_beta   101.03420130
_cell_angle_gamma   119.92287993
_symmetry_Int_Tables_number   1
_chemical_formula_structural   YbHfZr2(Al8Pt3)3
_chemical_formula_sum   'Yb1 Hf1 Zr2 Al24 Pt9'
_cell_volume   620.51822944
_cell_formula_units_Z   1
loop_
 _symmetry_equiv_pos_site_id
 _symmetry_equiv_pos_as_xyz
  1  'x, y, z'
loop_
 _atom_site_type_symbol
 _atom_site_label
 _atom_site_symmetry_multiplicity
 _atom_site_fract_x
 _atom_site_fract_y
 _atom_site_fract_z
 _atom_site_occupancy
  Yb  Yb0  1  0.231884  0.498344  0.190859  1
  Hf  Hf1  1  0.767488  0.501179  0.808042  1
  Zr  Zr2  1  0.438599  0.831445  0.810869  1
  Zr  Zr3  1  0.561709  0.168678  0.188990  1
  Al  Al4  1  0.484465  0.166830  0.939541  1
  Al  Al5  1  0.517268  0.835247  0.055861  1
  Al  Al6  1  0.021590  0.167532  0.563736  1
  Al  Al7  1  0.978878  0.833115  0.437131  1
  Al  Al8  1  0.353114  0.832738  0.561659  1
  Al  Al9  1  0.647033  0.166729  0.439156  1
  Al  Al10  1  0.614258  0.835480  0.326659  1
  Al  Al11  1  0.386809  0.164977  0.678276  1
  Al  Al12  1  0.058843  0.495236  0.678255  1
  Al  Al13  1  0.942294  0.503977  0.326565  1
  Al  Al14  1  0.730237  0.838358  0.676412  1
  Al  Al15  1  0.271629  0.161942  0.327630  1
  Al  Al16  1  0.145672  0.502889  0.939956  1
  Al  Al17  1  0.850537  0.497192  0.055793  1
  Al  Al18  1  0.812284  0.829041  0.947028  1
  Al  Al19  1  0.185302  0.167711  0.047433  1
  Al  Al20  1  0.313705  0.500599  0.439833  1
  Al  Al21  1  0.686390  0.499807  0.560670  1
  Al  Al22  1  0.108795  0.843773  0.183037  1
  Al  Al23  1  0.891655  0.164486  0.816458  1
  Al  Al24  1  0.313271  0.374323  0.815323  1
  Al  Al25  1  0.694045  0.625309  0.184152  1
  Al  Al26  1  0.102542  0.952709  0.816126  1
  Al  Al27  1  0.889566  0.040364  0.183876  1
  Pt  Pt28  1  0.390941  0.509629  0.639893  1
  Pt  Pt29  1  0.613175  0.492084  0.361727  1
  Pt  Pt30  1  0.170408  0.827128  0.998141  1
  Pt  Pt31  1  0.828008  0.171950  0.998824  1
  Pt  Pt32  1  0.295663  0.833973  0.362439  1
  Pt  Pt33  1  0.703073  0.167760  0.639514  1
  Pt  Pt34  1  0.044582  0.822284  0.638594  1
  Pt  Pt35  1  0.954267  0.174331  0.363500  1
  Pt  Pt36  1  0.500023  0.500852  0.998039  1
