# generated using pymatgen
data_Dy3HoTm4(ReC2)4
_symmetry_space_group_name_H-M   'P 1'
_cell_length_a   5.06970300
_cell_length_b   6.56142941
_cell_length_c   9.79502561
_cell_angle_alpha   90.04049800
_cell_angle_beta   90.00000000
_cell_angle_gamma   90.00000000
_symmetry_Int_Tables_number   1
_chemical_formula_structural   Dy3HoTm4(ReC2)4
_chemical_formula_sum   'Dy3 Ho1 Tm4 Re4 C8'
_cell_volume   325.82653203
_cell_formula_units_Z   1
loop_
 _symmetry_equiv_pos_site_id
 _symmetry_equiv_pos_as_xyz
  1  'x, y, z'
loop_
 _atom_site_type_symbol
 _atom_site_label
 _atom_site_symmetry_multiplicity
 _atom_site_fract_x
 _atom_site_fract_y
 _atom_site_fract_z
 _atom_site_occupancy
  Dy  Dy0  1  0.250000  0.966730  0.284271  1
  Dy  Dy1  1  0.750000  0.533238  0.784298  1
  Dy  Dy2  1  0.750000  0.033258  0.715660  1
  Ho  Ho3  1  0.250000  0.466613  0.215860  1
  Tm  Tm4  1  0.250000  0.822998  0.942522  1
  Tm  Tm5  1  0.250000  0.322969  0.557498  1
  Tm  Tm6  1  0.750000  0.177125  0.057641  1
  Tm  Tm7  1  0.750000  0.676977  0.442373  1
  Re  Re8  1  0.250000  0.278922  0.867181  1
  Re  Re9  1  0.250000  0.778747  0.632819  1
  Re  Re10  1  0.750000  0.720971  0.132887  1
  Re  Re11  1  0.750000  0.221247  0.367049  1
  C  C12  1  0.250000  0.046694  0.740411  1
  C  C13  1  0.250000  0.546727  0.759587  1
  C  C14  1  0.750000  0.953193  0.259573  1
  C  C15  1  0.750000  0.453224  0.240284  1
  C  C16  1  0.250000  0.672743  0.449217  1
  C  C17  1  0.250000  0.173582  0.050802  1
  C  C18  1  0.750000  0.327057  0.550577  1
  C  C19  1  0.750000  0.826982  0.949490  1
