# generated using pymatgen
data_Tb4CoReRu6
_symmetry_space_group_name_H-M   'P 1'
_cell_length_a   5.22429669
_cell_length_b   5.41849015
_cell_length_c   8.96678800
_cell_angle_alpha   90.00000000
_cell_angle_beta   90.00000000
_cell_angle_gamma   122.09133476
_symmetry_Int_Tables_number   1
_chemical_formula_structural   Tb4CoReRu6
_chemical_formula_sum   'Tb4 Co1 Re1 Ru6'
_cell_volume   215.04539079
_cell_formula_units_Z   1
loop_
 _symmetry_equiv_pos_site_id
 _symmetry_equiv_pos_as_xyz
  1  'x, y, z'
loop_
 _atom_site_type_symbol
 _atom_site_label
 _atom_site_symmetry_multiplicity
 _atom_site_fract_x
 _atom_site_fract_y
 _atom_site_fract_z
 _atom_site_occupancy
  Tb  Tb0  1  0.327682  0.662032  0.431141  1
  Tb  Tb1  1  0.656984  0.327431  0.562215  1
  Tb  Tb2  1  0.656984  0.327431  0.937785  1
  Tb  Tb3  1  0.327682  0.662032  0.068859  1
  Co  Co4  1  0.835202  0.161035  0.250000  1
  Re  Re5  1  0.682822  0.841924  0.750000  1
  Ru  Ru6  1  0.978408  0.991128  0.497274  1
  Ru  Ru7  1  0.978408  0.991128  0.002726  1
  Ru  Ru8  1  0.834314  0.671219  0.250000  1
  Ru  Ru9  1  0.356008  0.179400  0.250000  1
  Ru  Ru10  1  0.180166  0.830428  0.750000  1
  Ru  Ru11  1  0.185341  0.354809  0.750000  1
