# generated using pymatgen
data_SmGd3(CrB4)4
_symmetry_space_group_name_H-M   'P 1'
_cell_length_a   5.96822123
_cell_length_b   11.53850802
_cell_length_c   3.47694900
_cell_angle_alpha   90.00000000
_cell_angle_beta   90.00000000
_cell_angle_gamma   90.04039411
_symmetry_Int_Tables_number   1
_chemical_formula_structural   SmGd3(CrB4)4
_chemical_formula_sum   'Sm1 Gd3 Cr4 B16'
_cell_volume   239.43783776
_cell_formula_units_Z   1
loop_
 _symmetry_equiv_pos_site_id
 _symmetry_equiv_pos_as_xyz
  1  'x, y, z'
loop_
 _atom_site_type_symbol
 _atom_site_label
 _atom_site_symmetry_multiplicity
 _atom_site_fract_x
 _atom_site_fract_y
 _atom_site_fract_z
 _atom_site_occupancy
  Sm  Sm0  1  0.875985  0.848807  0.000000  1
  Gd  Gd1  1  0.624029  0.348970  0.000000  1
  Gd  Gd2  1  0.376057  0.650632  0.000000  1
  Gd  Gd3  1  0.124039  0.151094  0.000000  1
  Cr  Cr4  1  0.622863  0.080758  0.000000  1
  Cr  Cr5  1  0.376703  0.919772  0.000000  1
  Cr  Cr6  1  0.123068  0.419648  0.000000  1
  Cr  Cr7  1  0.876801  0.580024  0.000000  1
  B  B8  1  0.779641  0.183798  0.500000  1
  B  B9  1  0.221846  0.816042  0.500000  1
  B  B10  1  0.279627  0.316642  0.500000  1
  B  B11  1  0.720145  0.682730  0.500000  1
  B  B12  1  0.861143  0.033374  0.500000  1
  B  B13  1  0.139141  0.967871  0.500000  1
  B  B14  1  0.361690  0.467387  0.500000  1
  B  B15  1  0.638398  0.532345  0.500000  1
  B  B16  1  0.887124  0.453517  0.500000  1
  B  B17  1  0.113190  0.546246  0.500000  1
  B  B18  1  0.386828  0.046848  0.500000  1
  B  B19  1  0.611535  0.954162  0.500000  1
  B  B20  1  0.975245  0.309460  0.500000  1
  B  B21  1  0.025792  0.689768  0.500000  1
  B  B22  1  0.475144  0.190851  0.500000  1
  B  B23  1  0.523968  0.809251  0.500000  1
