# generated using pymatgen
data_CeHo19(Ir2Os)4
_symmetry_space_group_name_H-M   'P 1'
_cell_length_a   10.82278884
_cell_length_b   10.83375344
_cell_length_c   6.39243166
_cell_angle_alpha   90.07912093
_cell_angle_beta   89.67298707
_cell_angle_gamma   89.88067715
_symmetry_Int_Tables_number   1
_chemical_formula_structural   CeHo19(Ir2Os)4
_chemical_formula_sum   'Ce1 Ho19 Ir8 Os4'
_cell_volume   749.50716633
_cell_formula_units_Z   1
loop_
 _symmetry_equiv_pos_site_id
 _symmetry_equiv_pos_as_xyz
  1  'x, y, z'
loop_
 _atom_site_type_symbol
 _atom_site_label
 _atom_site_symmetry_multiplicity
 _atom_site_fract_x
 _atom_site_fract_y
 _atom_site_fract_z
 _atom_site_occupancy
  Ce  Ce0  1  0.297703  0.086421  0.380207  1
  Ho  Ho1  1  0.292283  0.911973  0.876797  1
  Ho  Ho2  1  0.705879  0.086392  0.878360  1
  Ho  Ho3  1  0.707314  0.913307  0.377267  1
  Ho  Ho4  1  0.586089  0.793747  0.877800  1
  Ho  Ho5  1  0.590346  0.208484  0.377082  1
  Ho  Ho6  1  0.414446  0.789581  0.376433  1
  Ho  Ho7  1  0.414452  0.208375  0.877002  1
  Ho  Ho8  1  0.206187  0.414849  0.623399  1
  Ho  Ho9  1  0.205423  0.585497  0.122861  1
  Ho  Ho10  1  0.793808  0.414449  0.122830  1
  Ho  Ho11  1  0.793617  0.586282  0.623695  1
  Ho  Ho12  1  0.913892  0.706208  0.122986  1
  Ho  Ho13  1  0.913669  0.293682  0.621953  1
  Ho  Ho14  1  0.085783  0.706001  0.623049  1
  Ho  Ho15  1  0.085608  0.293866  0.121931  1
  Ho  Ho16  1  0.998481  0.999406  0.500169  1
  Ho  Ho17  1  0.999776  0.000163  0.999975  1
  Ho  Ho18  1  0.499731  0.500000  0.001097  1
  Ho  Ho19  1  0.501259  0.499864  0.501561  1
  Ir  Ir20  1  0.847352  0.152376  0.249068  1
  Ir  Ir21  1  0.847193  0.848334  0.750871  1
  Ir  Ir22  1  0.153875  0.151103  0.742729  1
  Ir  Ir23  1  0.152700  0.848333  0.250653  1
  Ir  Ir24  1  0.652553  0.347890  0.750389  1
  Ir  Ir25  1  0.651364  0.652689  0.248806  1
  Ir  Ir26  1  0.348138  0.346827  0.251911  1
  Ir  Ir27  1  0.348479  0.651905  0.751165  1
  Os  Os28  1  0.495014  0.001251  0.127198  1
  Os  Os29  1  0.498296  0.000437  0.620067  1
  Os  Os30  1  0.999603  0.499915  0.875378  1
  Os  Os31  1  0.999687  0.500391  0.375312  1
