# generated using pymatgen
data_Li4La3TbAs8
_symmetry_space_group_name_H-M   'P 1'
_cell_length_a   3.98770900
_cell_length_b   4.02786710
_cell_length_c   21.45288900
_cell_angle_alpha   89.98692737
_cell_angle_beta   90.00000000
_cell_angle_gamma   90.00000000
_symmetry_Int_Tables_number   1
_chemical_formula_structural   Li4La3TbAs8
_chemical_formula_sum   'Li4 La3 Tb1 As8'
_cell_volume   344.57547690
_cell_formula_units_Z   1
loop_
 _symmetry_equiv_pos_site_id
 _symmetry_equiv_pos_as_xyz
  1  'x, y, z'
loop_
 _atom_site_type_symbol
 _atom_site_label
 _atom_site_symmetry_multiplicity
 _atom_site_fract_x
 _atom_site_fract_y
 _atom_site_fract_z
 _atom_site_occupancy
  Li  Li0  1  0.750000  0.726664  0.249505  1
  Li  Li1  1  0.250000  0.226657  0.249565  1
  Li  Li2  1  0.750000  0.773178  0.752584  1
  Li  Li3  1  0.250000  0.273440  0.752645  1
  La  La4  1  0.250000  0.730185  0.115836  1
  La  La5  1  0.750000  0.228919  0.381690  1
  La  La6  1  0.250000  0.771044  0.618697  1
  Tb  Tb7  1  0.750000  0.269293  0.883017  1
  As  As8  1  0.750000  0.227439  0.171825  1
  As  As9  1  0.250000  0.726975  0.326491  1
  As  As10  1  0.750000  0.273113  0.674241  1
  As  As11  1  0.250000  0.772792  0.832500  1
  As  As12  1  0.250000  0.207340  0.997697  1
  As  As13  1  0.750000  0.704801  0.498193  1
  As  As14  1  0.250000  0.294674  0.501941  1
  As  As15  1  0.750000  0.793483  0.993571  1
