# generated using pymatgen
data_Tm8AlIn4Ga7
_symmetry_space_group_name_H-M   'P 1'
_cell_length_a   7.13404592
_cell_length_b   7.13404583
_cell_length_c   8.83625108
_cell_angle_alpha   89.99135453
_cell_angle_beta   89.99135537
_cell_angle_gamma   89.88724815
_symmetry_Int_Tables_number   1
_chemical_formula_structural   Tm8AlIn4Ga7
_chemical_formula_sum   'Tm8 Al1 In4 Ga7'
_cell_volume   449.71667662
_cell_formula_units_Z   1
loop_
 _symmetry_equiv_pos_site_id
 _symmetry_equiv_pos_as_xyz
  1  'x, y, z'
loop_
 _atom_site_type_symbol
 _atom_site_label
 _atom_site_symmetry_multiplicity
 _atom_site_fract_x
 _atom_site_fract_y
 _atom_site_fract_z
 _atom_site_occupancy
  Tm  Tm0  1  0.828743  0.170894  0.500980  1
  Tm  Tm1  1  0.170894  0.828743  0.500980  1
  Tm  Tm2  1  0.330385  0.330385  0.998684  1
  Tm  Tm3  1  0.670860  0.670860  0.999009  1
  Tm  Tm4  1  0.670861  0.670861  0.500998  1
  Tm  Tm5  1  0.330118  0.330118  0.501534  1
  Tm  Tm6  1  0.170624  0.827673  0.999109  1
  Tm  Tm7  1  0.827673  0.170624  0.999109  1
  Al  Al8  1  0.126247  0.126247  0.249683  1
  In  In9  1  0.499844  0.001365  0.250508  1
  In  In10  1  0.999051  0.500079  0.748798  1
  In  In11  1  0.500079  0.999051  0.748798  1
  In  In12  1  0.001365  0.499844  0.250508  1
  Ga  Ga13  1  0.627565  0.374098  0.250262  1
  Ga  Ga14  1  0.374098  0.627565  0.250262  1
  Ga  Ga15  1  0.126886  0.126886  0.750748  1
  Ga  Ga16  1  0.873774  0.873774  0.750038  1
  Ga  Ga17  1  0.372393  0.625951  0.749964  1
  Ga  Ga18  1  0.625951  0.372393  0.749964  1
  Ga  Ga19  1  0.872590  0.872590  0.250061  1
