# generated using pymatgen
data_Tm16Cd4Co3Ru
_symmetry_space_group_name_H-M   'P 1'
_cell_length_a   9.41010814
_cell_length_b   9.36428611
_cell_length_c   9.36428600
_cell_angle_alpha   60.00000040
_cell_angle_beta   60.16095013
_cell_angle_gamma   60.16095637
_symmetry_Int_Tables_number   1
_chemical_formula_structural   Tm16Cd4Co3Ru
_chemical_formula_sum   'Tm16 Cd4 Co3 Ru1'
_cell_volume   584.89949136
_cell_formula_units_Z   1
loop_
 _symmetry_equiv_pos_site_id
 _symmetry_equiv_pos_as_xyz
  1  'x, y, z'
loop_
 _atom_site_type_symbol
 _atom_site_label
 _atom_site_symmetry_multiplicity
 _atom_site_fract_x
 _atom_site_fract_y
 _atom_site_fract_z
 _atom_site_occupancy
  Tm  Tm0  1  0.341837  0.349648  0.349648  1
  Tm  Tm1  1  0.341837  0.349648  0.958867  1
  Tm  Tm2  1  0.341837  0.958867  0.349648  1
  Tm  Tm3  1  0.963629  0.345457  0.345457  1
  Tm  Tm4  1  0.815462  0.188575  0.188575  1
  Tm  Tm5  1  0.188196  0.811905  0.811905  1
  Tm  Tm6  1  0.188196  0.811905  0.187993  1
  Tm  Tm7  1  0.815462  0.188575  0.807386  1
  Tm  Tm8  1  0.188196  0.187993  0.811905  1
  Tm  Tm9  1  0.815462  0.807386  0.188575  1
  Tm  Tm10  1  0.937525  0.562482  0.562482  1
  Tm  Tm11  1  0.562309  0.939363  0.939363  1
  Tm  Tm12  1  0.562309  0.939363  0.558965  1
  Tm  Tm13  1  0.937525  0.562482  0.937510  1
  Tm  Tm14  1  0.562309  0.558965  0.939363  1
  Tm  Tm15  1  0.937525  0.937510  0.562482  1
  Cd  Cd16  1  0.581476  0.580406  0.580406  1
  Cd  Cd17  1  0.581476  0.580406  0.257714  1
  Cd  Cd18  1  0.581476  0.257714  0.580406  1
  Cd  Cd19  1  0.258739  0.580421  0.580421  1
  Co  Co20  1  0.140331  0.141031  0.141031  1
  Co  Co21  1  0.140331  0.141031  0.577608  1
  Co  Co22  1  0.140331  0.577608  0.141031  1
  Ru  Ru23  1  0.576225  0.141259  0.141259  1
