# generated using pymatgen
data_Fe8ReW3
_symmetry_space_group_name_H-M   'P 1'
_cell_length_a   4.66657000
_cell_length_b   4.66657072
_cell_length_c   7.76911700
_cell_angle_alpha   90.00000000
_cell_angle_beta   90.00000000
_cell_angle_gamma   119.99999490
_symmetry_Int_Tables_number   1
_chemical_formula_structural   Fe8ReW3
_chemical_formula_sum   'Fe8 Re1 W3'
_cell_volume   146.52035168
_cell_formula_units_Z   1
loop_
 _symmetry_equiv_pos_site_id
 _symmetry_equiv_pos_as_xyz
  1  'x, y, z'
loop_
 _atom_site_type_symbol
 _atom_site_label
 _atom_site_symmetry_multiplicity
 _atom_site_fract_x
 _atom_site_fract_y
 _atom_site_fract_z
 _atom_site_occupancy
  Fe  Fe0  1  0.000000  0.000000  0.999485  1
  Fe  Fe1  1  0.000000  0.000000  0.499469  1
  Fe  Fe2  1  0.170235  0.829765  0.250675  1
  Fe  Fe3  1  0.340088  0.170045  0.749714  1
  Fe  Fe4  1  0.829955  0.659912  0.749714  1
  Fe  Fe5  1  0.170235  0.340469  0.250675  1
  Fe  Fe6  1  0.659531  0.829765  0.250675  1
  Fe  Fe7  1  0.829955  0.170045  0.749714  1
  Re  Re8  1  0.333333  0.666667  0.934222  1
  W  W9  1  0.666667  0.333333  0.429761  1
  W  W10  1  0.666667  0.333333  0.062722  1
  W  W11  1  0.333333  0.666667  0.573175  1
