# generated using pymatgen
data_Yb3Y2Ho3(B6Os)4
_symmetry_space_group_name_H-M   'P 1'
_cell_length_a   3.64700100
_cell_length_b   9.15772798
_cell_length_c   11.55014101
_cell_angle_alpha   89.92715349
_cell_angle_beta   90.00000000
_cell_angle_gamma   90.00000000
_symmetry_Int_Tables_number   1
_chemical_formula_structural   Yb3Y2Ho3(B6Os)4
_chemical_formula_sum   'Yb3 Y2 Ho3 B24 Os4'
_cell_volume   385.75410578
_cell_formula_units_Z   1
loop_
 _symmetry_equiv_pos_site_id
 _symmetry_equiv_pos_as_xyz
  1  'x, y, z'
loop_
 _atom_site_type_symbol
 _atom_site_label
 _atom_site_symmetry_multiplicity
 _atom_site_fract_x
 _atom_site_fract_y
 _atom_site_fract_z
 _atom_site_occupancy
  Yb  Yb0  1  0.000000  0.324804  0.414415  1
  Yb  Yb1  1  0.000000  0.675281  0.585181  1
  Yb  Yb2  1  0.000000  0.823217  0.086272  1
  Y  Y3  1  0.000000  0.176055  0.914809  1
  Y  Y4  1  0.000000  0.941292  0.368010  1
  Ho  Ho5  1  0.000000  0.058036  0.630739  1
  Ho  Ho6  1  0.000000  0.443130  0.132104  1
  Ho  Ho7  1  0.000000  0.558654  0.868595  1
  B  B8  1  0.500000  0.552947  0.433207  1
  B  B9  1  0.500000  0.446371  0.567610  1
  B  B10  1  0.500000  0.053416  0.066912  1
  B  B11  1  0.500000  0.945808  0.933321  1
  B  B12  1  0.500000  0.747420  0.417558  1
  B  B13  1  0.500000  0.251921  0.582458  1
  B  B14  1  0.500000  0.248729  0.082149  1
  B  B15  1  0.500000  0.752083  0.917956  1
  B  B16  1  0.500000  0.790076  0.264262  1
  B  B17  1  0.500000  0.209165  0.735406  1
  B  B18  1  0.500000  0.290961  0.234666  1
  B  B19  1  0.500000  0.710270  0.765143  1
  B  B20  1  0.500000  0.630850  0.186222  1
  B  B21  1  0.500000  0.369275  0.814538  1
  B  B22  1  0.500000  0.131405  0.313110  1
  B  B23  1  0.500000  0.869331  0.685592  1
  B  B24  1  0.500000  0.983014  0.210282  1
  B  B25  1  0.500000  0.016717  0.788451  1
  B  B26  1  0.500000  0.483565  0.289129  1
  B  B27  1  0.500000  0.516291  0.711551  1
  B  B28  1  0.500000  0.599413  0.027642  1
  B  B29  1  0.500000  0.400301  0.972499  1
  B  B30  1  0.500000  0.097878  0.472728  1
  B  B31  1  0.500000  0.902349  0.527051  1
  Os  Os32  1  0.000000  0.637763  0.321084  1
  Os  Os33  1  0.000000  0.360571  0.680300  1
  Os  Os34  1  0.000000  0.138448  0.178405  1
  Os  Os35  1  0.000000  0.863192  0.820644  1
