# generated using pymatgen
data_Y4B16IrOs2Rh
_symmetry_space_group_name_H-M   'P 1'
_cell_length_a   3.57526100
_cell_length_b   5.97544743
_cell_length_c   11.58085502
_cell_angle_alpha   90.09391093
_cell_angle_beta   90.00000000
_cell_angle_gamma   90.00000000
_symmetry_Int_Tables_number   1
_chemical_formula_structural   Y4B16IrOs2Rh
_chemical_formula_sum   'Y4 B16 Ir1 Os2 Rh1'
_cell_volume   247.41055449
_cell_formula_units_Z   1
loop_
 _symmetry_equiv_pos_site_id
 _symmetry_equiv_pos_as_xyz
  1  'x, y, z'
loop_
 _atom_site_type_symbol
 _atom_site_label
 _atom_site_symmetry_multiplicity
 _atom_site_fract_x
 _atom_site_fract_y
 _atom_site_fract_z
 _atom_site_occupancy
  Y  Y0  1  0.500000  0.370037  0.149998  1
  Y  Y1  1  0.500000  0.629789  0.850325  1
  Y  Y2  1  0.500000  0.129537  0.648504  1
  Y  Y3  1  0.500000  0.870327  0.351230  1
  B  B4  1  0.000000  0.111815  0.047083  1
  B  B5  1  0.000000  0.888090  0.952373  1
  B  B6  1  0.000000  0.388137  0.546300  1
  B  B7  1  0.000000  0.612031  0.453547  1
  B  B8  1  0.000000  0.136788  0.469736  1
  B  B9  1  0.000000  0.863384  0.529968  1
  B  B10  1  0.000000  0.363045  0.970671  1
  B  B11  1  0.000000  0.637415  0.029434  1
  B  B12  1  0.000000  0.022112  0.193297  1
  B  B13  1  0.000000  0.977628  0.806734  1
  B  B14  1  0.000000  0.474835  0.691437  1
  B  B15  1  0.000000  0.525468  0.308311  1
  B  B16  1  0.000000  0.210795  0.313558  1
  B  B17  1  0.000000  0.789466  0.686328  1
  B  B18  1  0.000000  0.289220  0.812539  1
  B  B19  1  0.000000  0.711479  0.187728  1
  Ir  Ir20  1  0.500000  0.142038  0.904559  1
  Os  Os21  1  0.500000  0.358702  0.407336  1
  Os  Os22  1  0.500000  0.641481  0.593293  1
  Rh  Rh23  1  0.500000  0.856384  0.095710  1
