# generated using pymatgen
data_Ce2Ho3PaAl18
_symmetry_space_group_name_H-M   'P 1'
_cell_length_a   14.60673513
_cell_length_b   14.60673511
_cell_length_c   14.60673600
_cell_angle_alpha   24.35264167
_cell_angle_beta   24.35264189
_cell_angle_gamma   24.35264691
_symmetry_Int_Tables_number   1
_chemical_formula_structural   Ce2Ho3PaAl18
_chemical_formula_sum   'Ce2 Ho3 Pa1 Al18'
_cell_volume   465.81215958
_cell_formula_units_Z   1
loop_
 _symmetry_equiv_pos_site_id
 _symmetry_equiv_pos_as_xyz
  1  'x, y, z'
loop_
 _atom_site_type_symbol
 _atom_site_label
 _atom_site_symmetry_multiplicity
 _atom_site_fract_x
 _atom_site_fract_y
 _atom_site_fract_z
 _atom_site_occupancy
  Ce  Ce0  1  0.891174  0.891174  0.891174  1
  Ce  Ce1  1  0.391365  0.391365  0.391365  1
  Ho  Ho2  1  0.999748  0.999748  0.999748  1
  Ho  Ho3  1  0.500138  0.500138  0.500138  1
  Ho  Ho4  1  0.609013  0.609013  0.609013  1
  Pa  Pa5  1  0.108601  0.108601  0.108601  1
  Al  Al6  1  0.922851  0.371749  0.371749  1
  Al  Al7  1  0.421808  0.870641  0.870641  1
  Al  Al8  1  0.371749  0.371749  0.922851  1
  Al  Al9  1  0.870641  0.870641  0.421808  1
  Al  Al10  1  0.371749  0.922851  0.371749  1
  Al  Al11  1  0.870641  0.421808  0.870641  1
  Al  Al12  1  0.575864  0.129730  0.129730  1
  Al  Al13  1  0.076329  0.629886  0.629886  1
  Al  Al14  1  0.129730  0.129730  0.575864  1
  Al  Al15  1  0.629886  0.629886  0.076329  1
  Al  Al16  1  0.129730  0.575864  0.129730  1
  Al  Al17  1  0.629886  0.076329  0.629886  1
  Al  Al18  1  0.499363  0.499363  0.999729  1
  Al  Al19  1  0.002377  0.002377  0.495889  1
  Al  Al20  1  0.499363  0.999729  0.499363  1
  Al  Al21  1  0.002377  0.495889  0.002377  1
  Al  Al22  1  0.999729  0.499363  0.499363  1
  Al  Al23  1  0.495889  0.002377  0.002377  1
