# generated using pymatgen
data_PaBe2Co3
_symmetry_space_group_name_H-M   'P 1'
_cell_length_a   4.97629400
_cell_length_b   4.97629362
_cell_length_c   3.34050400
_cell_angle_alpha   90.00000000
_cell_angle_beta   90.00000000
_cell_angle_gamma   120.00001585
_symmetry_Int_Tables_number   1
_chemical_formula_structural   PaBe2Co3
_chemical_formula_sum   'Pa1 Be2 Co3'
_cell_volume   71.63983653
_cell_formula_units_Z   1
loop_
 _symmetry_equiv_pos_site_id
 _symmetry_equiv_pos_as_xyz
  1  'x, y, z'
loop_
 _atom_site_type_symbol
 _atom_site_label
 _atom_site_symmetry_multiplicity
 _atom_site_fract_x
 _atom_site_fract_y
 _atom_site_fract_z
 _atom_site_occupancy
  Pa  Pa0  1  0.000000  0.000000  0.000000  1
  Be  Be1  1  0.333333  0.666667  0.000000  1
  Be  Be2  1  0.666667  0.333333  0.000000  1
  Co  Co3  1  0.500000  0.000000  0.500000  1
  Co  Co4  1  0.500000  0.500000  0.500000  1
  Co  Co5  1  0.000000  0.500000  0.500000  1
