# generated using pymatgen
data_Sm2ErSi6(Pd7Pt3)2
_symmetry_space_group_name_H-M   'P 1'
_cell_length_a   8.73737819
_cell_length_b   8.75656070
_cell_length_c   8.75656100
_cell_angle_alpha   60.00000264
_cell_angle_beta   59.92735103
_cell_angle_gamma   59.92734714
_symmetry_Int_Tables_number   1
_chemical_formula_structural   Sm2ErSi6(Pd7Pt3)2
_chemical_formula_sum   'Sm2 Er1 Si6 Pd14 Pt6'
_cell_volume   473.21173346
_cell_formula_units_Z   1
loop_
 _symmetry_equiv_pos_site_id
 _symmetry_equiv_pos_as_xyz
  1  'x, y, z'
loop_
 _atom_site_type_symbol
 _atom_site_label
 _atom_site_symmetry_multiplicity
 _atom_site_fract_x
 _atom_site_fract_y
 _atom_site_fract_z
 _atom_site_occupancy
  Sm  Sm0  1  0.251743  0.249419  0.249419  1
  Sm  Sm1  1  0.748257  0.750581  0.750581  1
  Er  Er2  1  0.000000  0.000000  0.000000  1
  Si  Si3  1  0.731239  0.267755  0.267755  1
  Si  Si4  1  0.268761  0.732245  0.732245  1
  Si  Si5  1  0.268761  0.732245  0.266749  1
  Si  Si6  1  0.731239  0.267755  0.733251  1
  Si  Si7  1  0.268761  0.266749  0.732245  1
  Si  Si8  1  0.731239  0.733251  0.267755  1
  Pd  Pd9  1  0.851658  0.382780  0.382780  1
  Pd  Pd10  1  0.148342  0.617220  0.617220  1
  Pd  Pd11  1  0.344684  0.999884  0.999884  1
  Pd  Pd12  1  0.655316  0.000116  0.000116  1
  Pd  Pd13  1  0.000000  0.344565  0.655435  1
  Pd  Pd14  1  0.000000  0.655435  0.344565  1
  Pd  Pd15  1  0.000000  0.344565  0.000000  1
  Pd  Pd16  1  0.655316  0.000116  0.344451  1
  Pd  Pd17  1  0.000000  0.655435  0.000000  1
  Pd  Pd18  1  0.344684  0.999884  0.655549  1
  Pd  Pd19  1  0.000000  0.000000  0.344565  1
  Pd  Pd20  1  0.000000  0.000000  0.655435  1
  Pd  Pd21  1  0.655316  0.344451  0.000116  1
  Pd  Pd22  1  0.344684  0.655549  0.999884  1
  Pt  Pt23  1  0.382015  0.386663  0.386663  1
  Pt  Pt24  1  0.617985  0.613337  0.613337  1
  Pt  Pt25  1  0.382015  0.386663  0.844657  1
  Pt  Pt26  1  0.382015  0.844657  0.386663  1
  Pt  Pt27  1  0.617985  0.613337  0.155343  1
  Pt  Pt28  1  0.617985  0.155343  0.613337  1
