# generated using pymatgen
data_Nd6Mn(SiS7)2
_symmetry_space_group_name_H-M   'P 1'
_cell_length_a   10.21673600
_cell_length_b   10.21675323
_cell_length_c   5.73128300
_cell_angle_alpha   90.00001659
_cell_angle_beta   90.00006364
_cell_angle_gamma   120.00015524
_symmetry_Int_Tables_number   1
_chemical_formula_structural   Nd6Mn(SiS7)2
_chemical_formula_sum   'Nd6 Mn1 Si2 S14'
_cell_volume   518.09199382
_cell_formula_units_Z   1
loop_
 _symmetry_equiv_pos_site_id
 _symmetry_equiv_pos_as_xyz
  1  'x, y, z'
loop_
 _atom_site_type_symbol
 _atom_site_label
 _atom_site_symmetry_multiplicity
 _atom_site_fract_x
 _atom_site_fract_y
 _atom_site_fract_z
 _atom_site_occupancy
  Nd  Nd0  1  0.976343  0.433050  0.751026  1
  Nd  Nd1  1  0.456711  0.023656  0.751027  1
  Nd  Nd2  1  0.566952  0.543289  0.751026  1
  Nd  Nd3  1  0.689803  0.899722  0.246985  1
  Nd  Nd4  1  0.209923  0.310197  0.246984  1
  Nd  Nd5  1  0.100279  0.790076  0.246986  1
  Mn  Mn6  1  0.333289  0.666700  0.512756  1
  Si  Si7  1  0.666669  0.333332  0.164489  1
  Si  Si8  1  0.000002  0.999998  0.658970  1
  S  S9  1  0.666669  0.333332  0.531903  1
  S  S10  1  0.000002  0.999998  0.026796  1
  S  S11  1  0.087461  0.506385  0.275899  1
  S  S12  1  0.418931  0.912540  0.275899  1
  S  S13  1  0.493615  0.581070  0.275900  1
  S  S14  1  0.579257  0.829187  0.754117  1
  S  S15  1  0.249937  0.420744  0.754117  1
  S  S16  1  0.170811  0.750063  0.754120  1
  S  S17  1  0.811212  0.553735  0.019770  1
  S  S18  1  0.742530  0.188789  0.019772  1
  S  S19  1  0.446265  0.257471  0.019771  1
  S  S20  1  0.855889  0.779388  0.515240  1
  S  S21  1  0.923504  0.144111  0.515241  1
  S  S22  1  0.220613  0.076496  0.515240  1
