# generated using pymatgen
data_Ho4ErSi8P4Ir19
_symmetry_space_group_name_H-M   'P 1'
_cell_length_a   12.82502406
_cell_length_b   12.78622585
_cell_length_c   3.94483100
_cell_angle_alpha   90.00000000
_cell_angle_beta   90.00000000
_cell_angle_gamma   119.97323315
_symmetry_Int_Tables_number   1
_chemical_formula_structural   Ho4ErSi8P4Ir19
_chemical_formula_sum   'Ho4 Er1 Si8 P4 Ir19'
_cell_volume   560.37231227
_cell_formula_units_Z   1
loop_
 _symmetry_equiv_pos_site_id
 _symmetry_equiv_pos_as_xyz
  1  'x, y, z'
loop_
 _atom_site_type_symbol
 _atom_site_label
 _atom_site_symmetry_multiplicity
 _atom_site_fract_x
 _atom_site_fract_y
 _atom_site_fract_z
 _atom_site_occupancy
  Ho  Ho0  1  0.666900  0.333420  0.000000  1
  Ho  Ho1  1  0.332647  0.667585  0.000000  1
  Ho  Ho2  1  0.814118  0.813927  0.500000  1
  Ho  Ho3  1  0.185646  0.001065  0.500000  1
  Er  Er4  1  0.999236  0.183411  0.500000  1
  Si  Si5  1  0.685201  0.165678  0.500000  1
  Si  Si6  1  0.834182  0.519066  0.500000  1
  Si  Si7  1  0.481623  0.315269  0.500000  1
  Si  Si8  1  0.167975  0.687800  0.500000  1
  Si  Si9  1  0.517793  0.829822  0.500000  1
  Si  Si10  1  0.635066  0.634357  0.000000  1
  Si  Si11  1  0.365637  0.999649  0.000000  1
  Si  Si12  1  0.999449  0.364784  0.000000  1
  P  P13  1  0.308000  0.484270  0.500000  1
  P  P14  1  0.178736  0.179850  0.000000  1
  P  P15  1  0.820470  0.997268  0.000000  1
  P  P16  1  0.000388  0.822975  0.000000  1
  Ir  Ir17  1  0.808154  0.177881  0.000000  1
  Ir  Ir18  1  0.821589  0.629124  0.000000  1
  Ir  Ir19  1  0.369671  0.191332  0.000000  1
  Ir  Ir20  1  0.179390  0.806987  0.000000  1
  Ir  Ir21  1  0.624661  0.817466  0.000000  1
  Ir  Ir22  1  0.199021  0.379165  0.000000  1
  Ir  Ir23  1  0.455840  0.443887  0.000000  1
  Ir  Ir24  1  0.553169  0.002231  0.000000  1
  Ir  Ir25  1  0.998981  0.551288  0.000000  1
  Ir  Ir26  1  0.279861  0.284068  0.500000  1
  Ir  Ir27  1  0.720759  0.997717  0.500000  1
  Ir  Ir28  1  0.000383  0.722536  0.500000  1
  Ir  Ir29  1  0.871601  0.357952  0.500000  1
  Ir  Ir30  1  0.643372  0.514056  0.500000  1
  Ir  Ir31  1  0.486887  0.128971  0.500000  1
  Ir  Ir32  1  0.360756  0.872807  0.500000  1
  Ir  Ir33  1  0.505634  0.632948  0.500000  1
  Ir  Ir34  1  0.126266  0.487374  0.500000  1
  Ir  Ir35  1  0.000938  0.002015  0.000000  1
