# generated using pymatgen
data_Sc22CoTc3Ir4
_symmetry_space_group_name_H-M   'P 1'
_cell_length_a   9.45792721
_cell_length_b   9.45237860
_cell_length_c   9.45237863
_cell_angle_alpha   60.03884269
_cell_angle_beta   59.98057386
_cell_angle_gamma   59.98058554
_symmetry_Int_Tables_number   1
_chemical_formula_structural   Sc22CoTc3Ir4
_chemical_formula_sum   'Sc22 Co1 Tc3 Ir4'
_cell_volume   597.53437518
_cell_formula_units_Z   1
loop_
 _symmetry_equiv_pos_site_id
 _symmetry_equiv_pos_as_xyz
  1  'x, y, z'
loop_
 _atom_site_type_symbol
 _atom_site_label
 _atom_site_symmetry_multiplicity
 _atom_site_fract_x
 _atom_site_fract_y
 _atom_site_fract_z
 _atom_site_occupancy
  Sc  Sc0  1  0.802560  0.802560  0.197440  1
  Sc  Sc1  1  0.197440  0.802560  0.197440  1
  Sc  Sc2  1  0.802732  0.197268  0.197268  1
  Sc  Sc3  1  0.197440  0.197440  0.802560  1
  Sc  Sc4  1  0.802560  0.197440  0.802560  1
  Sc  Sc5  1  0.197268  0.802732  0.802732  1
  Sc  Sc6  1  0.614732  0.616171  0.154365  1
  Sc  Sc7  1  0.614732  0.154365  0.616171  1
  Sc  Sc8  1  0.154365  0.614732  0.614732  1
  Sc  Sc9  1  0.616171  0.614732  0.614732  1
  Sc  Sc10  1  0.385268  0.383829  0.845635  1
  Sc  Sc11  1  0.385268  0.845635  0.383829  1
  Sc  Sc12  1  0.845635  0.385268  0.385268  1
  Sc  Sc13  1  0.383829  0.385268  0.385268  1
  Sc  Sc14  1  0.843095  0.843001  0.470808  1
  Sc  Sc15  1  0.843095  0.470808  0.843001  1
  Sc  Sc16  1  0.470808  0.843095  0.843095  1
  Sc  Sc17  1  0.843001  0.843095  0.843095  1
  Sc  Sc18  1  0.156905  0.156999  0.529192  1
  Sc  Sc19  1  0.156905  0.529192  0.156999  1
  Sc  Sc20  1  0.529192  0.156905  0.156905  1
  Sc  Sc21  1  0.156999  0.156905  0.156905  1
  Co  Co22  1  0.500000  0.500000  0.500000  1
  Tc  Tc23  1  0.000000  0.000000  0.000000  1
  Tc  Tc24  1  0.000000  0.500000  0.500000  1
  Tc  Tc25  1  0.500000  0.000000  0.000000  1
  Ir  Ir26  1  0.000000  0.000000  0.500000  1
  Ir  Ir27  1  0.500000  0.000000  0.500000  1
  Ir  Ir28  1  0.500000  0.500000  0.000000  1
  Ir  Ir29  1  0.000000  0.500000  0.000000  1
