# generated using pymatgen
data_Yb2GaNi2Ir
_symmetry_space_group_name_H-M   'P 1'
_cell_length_a   5.24545086
_cell_length_b   5.06323885
_cell_length_c   5.06323900
_cell_angle_alpha   118.76706439
_cell_angle_beta   122.50474425
_cell_angle_gamma   87.90027207
_symmetry_Int_Tables_number   1
_chemical_formula_structural   Yb2GaNi2Ir
_chemical_formula_sum   'Yb2 Ga1 Ni2 Ir1'
_cell_volume   94.82501986
_cell_formula_units_Z   1
loop_
 _symmetry_equiv_pos_site_id
 _symmetry_equiv_pos_as_xyz
  1  'x, y, z'
loop_
 _atom_site_type_symbol
 _atom_site_label
 _atom_site_symmetry_multiplicity
 _atom_site_fract_x
 _atom_site_fract_y
 _atom_site_fract_z
 _atom_site_occupancy
  Yb  Yb0  1  0.118546  0.872764  0.245782  1
  Yb  Yb1  1  0.881454  0.127236  0.754218  1
  Ga  Ga2  1  0.500000  0.500000  0.000000  1
  Ni  Ni3  1  0.500000  0.000000  0.000000  1
  Ni  Ni4  1  0.500000  0.500000  0.500000  1
  Ir  Ir5  1  0.000000  0.500000  0.500000  1
