# generated using pymatgen
data_Pr2Sc3Si12Ir19
_symmetry_space_group_name_H-M   'P 1'
_cell_length_a   12.80983900
_cell_length_b   12.80983926
_cell_length_c   3.97508100
_cell_angle_alpha   90.00000000
_cell_angle_beta   90.00000000
_cell_angle_gamma   120.00000192
_symmetry_Int_Tables_number   1
_chemical_formula_structural   Pr2Sc3Si12Ir19
_chemical_formula_sum   'Pr2 Sc3 Si12 Ir19'
_cell_volume   564.89009199
_cell_formula_units_Z   1
loop_
 _symmetry_equiv_pos_site_id
 _symmetry_equiv_pos_as_xyz
  1  'x, y, z'
loop_
 _atom_site_type_symbol
 _atom_site_label
 _atom_site_symmetry_multiplicity
 _atom_site_fract_x
 _atom_site_fract_y
 _atom_site_fract_z
 _atom_site_occupancy
  Pr  Pr0  1  0.333333  0.666667  0.000000  1
  Pr  Pr1  1  0.666667  0.333333  0.000000  1
  Sc  Sc2  1  0.815507  0.000000  0.500000  1
  Sc  Sc3  1  0.000000  0.815507  0.500000  1
  Sc  Sc4  1  0.184493  0.184493  0.500000  1
  Si  Si5  1  0.177779  0.000000  0.000000  1
  Si  Si6  1  0.000000  0.177779  0.000000  1
  Si  Si7  1  0.822221  0.822221  0.000000  1
  Si  Si8  1  0.164561  0.477503  0.500000  1
  Si  Si9  1  0.522497  0.687057  0.500000  1
  Si  Si10  1  0.312943  0.835439  0.500000  1
  Si  Si11  1  0.687057  0.522497  0.500000  1
  Si  Si12  1  0.835439  0.312943  0.500000  1
  Si  Si13  1  0.477503  0.164561  0.500000  1
  Si  Si14  1  0.634304  0.000000  0.000000  1
  Si  Si15  1  0.000000  0.634304  0.000000  1
  Si  Si16  1  0.365696  0.365696  0.000000  1
  Ir  Ir17  1  0.447277  0.000000  0.000000  1
  Ir  Ir18  1  0.000000  0.447277  0.000000  1
  Ir  Ir19  1  0.552723  0.552723  0.000000  1
  Ir  Ir20  1  0.359998  0.484899  0.500000  1
  Ir  Ir21  1  0.515101  0.875100  0.500000  1
  Ir  Ir22  1  0.124900  0.640002  0.500000  1
  Ir  Ir23  1  0.875100  0.515101  0.500000  1
  Ir  Ir24  1  0.640002  0.124900  0.500000  1
  Ir  Ir25  1  0.484899  0.359998  0.500000  1
  Ir  Ir26  1  0.181177  0.371462  0.000000  1
  Ir  Ir27  1  0.628538  0.809715  0.000000  1
  Ir  Ir28  1  0.190285  0.818823  0.000000  1
  Ir  Ir29  1  0.809715  0.628538  0.000000  1
  Ir  Ir30  1  0.818823  0.190285  0.000000  1
  Ir  Ir31  1  0.371462  0.181177  0.000000  1
  Ir  Ir32  1  0.278055  0.000000  0.500000  1
  Ir  Ir33  1  0.000000  0.278055  0.500000  1
  Ir  Ir34  1  0.721945  0.721945  0.500000  1
  Ir  Ir35  1  0.000000  0.000000  0.000000  1
