# generated using pymatgen
data_Ho9ErIn4(HgPd)4
_symmetry_space_group_name_H-M   'P 1'
_cell_length_a   3.60678800
_cell_length_b   8.00811902
_cell_length_c   18.27981104
_cell_angle_alpha   90.00759672
_cell_angle_beta   90.00000000
_cell_angle_gamma   90.00000000
_symmetry_Int_Tables_number   1
_chemical_formula_structural   Ho9ErIn4(HgPd)4
_chemical_formula_sum   'Ho9 Er1 In4 Hg4 Pd4'
_cell_volume   527.98651840
_cell_formula_units_Z   1
loop_
 _symmetry_equiv_pos_site_id
 _symmetry_equiv_pos_as_xyz
  1  'x, y, z'
loop_
 _atom_site_type_symbol
 _atom_site_label
 _atom_site_symmetry_multiplicity
 _atom_site_fract_x
 _atom_site_fract_y
 _atom_site_fract_z
 _atom_site_occupancy
  Ho  Ho0  1  0.000000  0.499851  0.499997  1
  Ho  Ho1  1  0.000000  0.999963  0.000008  1
  Ho  Ho2  1  0.000000  0.742310  0.283565  1
  Ho  Ho3  1  0.000000  0.257784  0.716503  1
  Ho  Ho4  1  0.000000  0.757792  0.783470  1
  Ho  Ho5  1  0.000000  0.242088  0.216555  1
  Ho  Ho6  1  0.000000  0.608378  0.083552  1
  Ho  Ho7  1  0.000000  0.391573  0.916517  1
  Ho  Ho8  1  0.000000  0.891613  0.583403  1
  Er  Er9  1  0.000000  0.108253  0.416174  1
  In  In10  1  0.500000  0.580856  0.648612  1
  In  In11  1  0.500000  0.419104  0.351447  1
  In  In12  1  0.500000  0.919154  0.148624  1
  In  In13  1  0.500000  0.080851  0.851420  1
  Hg  Hg14  1  0.500000  0.714240  0.932768  1
  Hg  Hg15  1  0.500000  0.285765  0.067116  1
  Hg  Hg16  1  0.500000  0.786211  0.433004  1
  Hg  Hg17  1  0.500000  0.214144  0.567083  1
  Pd  Pd18  1  0.500000  0.528724  0.197358  1
  Pd  Pd19  1  0.500000  0.471275  0.802635  1
  Pd  Pd20  1  0.500000  0.971342  0.697356  1
  Pd  Pd21  1  0.500000  0.028730  0.302832  1
