# generated using pymatgen
data_Tb3Y5Hf9Si16Mo3
_symmetry_space_group_name_H-M   'P 1'
_cell_length_a   7.20549103
_cell_length_b   7.20534855
_cell_length_c   13.17938001
_cell_angle_alpha   90.11675527
_cell_angle_beta   90.11856117
_cell_angle_gamma   90.06995376
_symmetry_Int_Tables_number   1
_chemical_formula_structural   Tb3Y5Hf9Si16Mo3
_chemical_formula_sum   'Tb3 Y5 Hf9 Si16 Mo3'
_cell_volume   684.24463232
_cell_formula_units_Z   1
loop_
 _symmetry_equiv_pos_site_id
 _symmetry_equiv_pos_as_xyz
  1  'x, y, z'
loop_
 _atom_site_type_symbol
 _atom_site_label
 _atom_site_symmetry_multiplicity
 _atom_site_fract_x
 _atom_site_fract_y
 _atom_site_fract_z
 _atom_site_occupancy
  Tb  Tb0  1  0.498737  0.153972  0.532319  1
  Tb  Tb1  1  0.342946  0.996826  0.785444  1
  Tb  Tb2  1  0.655980  0.000125  0.284846  1
  Y  Y3  1  0.999866  0.344046  0.215138  1
  Y  Y4  1  0.003151  0.657060  0.714529  1
  Y  Y5  1  0.155286  0.500352  0.464036  1
  Y  Y6  1  0.499672  0.844708  0.035947  1
  Y  Y7  1  0.846040  0.501263  0.967676  1
  Hf  Hf8  1  0.675309  0.324661  0.750001  1
  Hf  Hf9  1  0.146999  0.992669  0.373603  1
  Hf  Hf10  1  0.854632  0.005048  0.876680  1
  Hf  Hf11  1  0.506154  0.649580  0.621628  1
  Hf  Hf12  1  0.350450  0.493934  0.878393  1
  Hf  Hf13  1  0.492390  0.352542  0.125493  1
  Hf  Hf14  1  0.647449  0.507604  0.374505  1
  Hf  Hf15  1  0.994972  0.145320  0.623340  1
  Hf  Hf16  1  0.007257  0.853044  0.126404  1
  Si  Si17  1  0.361581  0.296887  0.316876  1
  Si  Si18  1  0.637347  0.705704  0.817520  1
  Si  Si19  1  0.204381  0.862138  0.566180  1
  Si  Si20  1  0.137842  0.795518  0.933836  1
  Si  Si21  1  0.796173  0.137658  0.067244  1
  Si  Si22  1  0.862420  0.203847  0.432780  1
  Si  Si23  1  0.294257  0.362717  0.682499  1
  Si  Si24  1  0.703141  0.638374  0.183101  1
  Si  Si25  1  0.295533  0.050924  0.184261  1
  Si  Si26  1  0.705082  0.947713  0.682554  1
  Si  Si27  1  0.448564  0.795067  0.432680  1
  Si  Si28  1  0.204848  0.551407  0.067320  1
  Si  Si29  1  0.547772  0.203361  0.936104  1
  Si  Si30  1  0.796663  0.452327  0.563899  1
  Si  Si31  1  0.052225  0.294981  0.817422  1
  Si  Si32  1  0.949098  0.704425  0.315728  1
  Mo  Mo33  1  0.176329  0.175191  0.001271  1
  Mo  Mo34  1  0.824820  0.823655  0.498749  1
  Mo  Mo35  1  0.324638  0.675351  0.249995  1
