# generated using pymatgen
data_Sm2Y3Mg3(Cu4P3)4
_symmetry_space_group_name_H-M   'P 1'
_cell_length_a   12.75923000
_cell_length_b   12.75922973
_cell_length_c   3.83873300
_cell_angle_alpha   90.00000000
_cell_angle_beta   90.00000000
_cell_angle_gamma   120.00000070
_symmetry_Int_Tables_number   1
_chemical_formula_structural   Sm2Y3Mg3(Cu4P3)4
_chemical_formula_sum   'Sm2 Y3 Mg3 Cu16 P12'
_cell_volume   541.21205047
_cell_formula_units_Z   1
loop_
 _symmetry_equiv_pos_site_id
 _symmetry_equiv_pos_as_xyz
  1  'x, y, z'
loop_
 _atom_site_type_symbol
 _atom_site_label
 _atom_site_symmetry_multiplicity
 _atom_site_fract_x
 _atom_site_fract_y
 _atom_site_fract_z
 _atom_site_occupancy
  Sm  Sm0  1  0.333333  0.666667  0.000000  1
  Sm  Sm1  1  0.666667  0.333333  0.000000  1
  Y  Y2  1  0.178986  0.178986  0.500000  1
  Y  Y3  1  0.821014  0.000000  0.500000  1
  Y  Y4  1  0.000000  0.821014  0.500000  1
  Mg  Mg5  1  0.558160  0.558160  0.000000  1
  Mg  Mg6  1  0.441840  0.000000  0.000000  1
  Mg  Mg7  1  0.000000  0.441840  0.000000  1
  Cu  Cu8  1  0.717954  0.717954  0.500000  1
  Cu  Cu9  1  0.282046  0.000000  0.500000  1
  Cu  Cu10  1  0.000000  0.282046  0.500000  1
  Cu  Cu11  1  0.179811  0.375469  0.000000  1
  Cu  Cu12  1  0.624531  0.804341  0.000000  1
  Cu  Cu13  1  0.195659  0.820189  0.000000  1
  Cu  Cu14  1  0.804341  0.624531  0.000000  1
  Cu  Cu15  1  0.820189  0.195659  0.000000  1
  Cu  Cu16  1  0.375469  0.179811  0.000000  1
  Cu  Cu17  1  0.354383  0.473998  0.500000  1
  Cu  Cu18  1  0.526002  0.880386  0.500000  1
  Cu  Cu19  1  0.119614  0.645617  0.500000  1
  Cu  Cu20  1  0.880386  0.526002  0.500000  1
  Cu  Cu21  1  0.645617  0.119614  0.500000  1
  Cu  Cu22  1  0.473998  0.354383  0.500000  1
  Cu  Cu23  1  0.000000  0.000000  0.000000  1
  P  P24  1  0.825062  0.825062  0.000000  1
  P  P25  1  0.174938  0.000000  0.000000  1
  P  P26  1  0.000000  0.174938  0.000000  1
  P  P27  1  0.169801  0.486678  0.500000  1
  P  P28  1  0.513322  0.683124  0.500000  1
  P  P29  1  0.316876  0.830199  0.500000  1
  P  P30  1  0.683124  0.513322  0.500000  1
  P  P31  1  0.830199  0.316876  0.500000  1
  P  P32  1  0.486678  0.169801  0.500000  1
  P  P33  1  0.355035  0.355035  0.000000  1
  P  P34  1  0.644965  0.000000  0.000000  1
  P  P35  1  0.000000  0.644965  0.000000  1
