# generated using pymatgen
data_Sc8Ta9Nb2Si16W
_symmetry_space_group_name_H-M   'P 1'
_cell_length_a   6.69020201
_cell_length_b   6.88038311
_cell_length_c   13.11127000
_cell_angle_alpha   89.99870370
_cell_angle_beta   89.99987884
_cell_angle_gamma   89.98727941
_symmetry_Int_Tables_number   1
_chemical_formula_structural   Sc8Ta9Nb2Si16W
_chemical_formula_sum   'Sc8 Ta9 Nb2 Si16 W1'
_cell_volume   603.52685881
_cell_formula_units_Z   1
loop_
 _symmetry_equiv_pos_site_id
 _symmetry_equiv_pos_as_xyz
  1  'x, y, z'
loop_
 _atom_site_type_symbol
 _atom_site_label
 _atom_site_symmetry_multiplicity
 _atom_site_fract_x
 _atom_site_fract_y
 _atom_site_fract_z
 _atom_site_occupancy
  Sc  Sc0  1  0.499920  0.673852  0.594872  1
  Sc  Sc1  1  0.999563  0.825670  0.905363  1
  Sc  Sc2  1  0.501056  0.326453  0.094631  1
  Sc  Sc3  1  0.001843  0.173665  0.405420  1
  Sc  Sc4  1  0.501155  0.326286  0.405353  1
  Sc  Sc5  1  0.001946  0.173902  0.094606  1
  Sc  Sc6  1  0.499903  0.673691  0.905149  1
  Sc  Sc7  1  0.999495  0.825814  0.594587  1
  Ta  Ta8  1  0.335640  0.827345  0.125782  1
  Ta  Ta9  1  0.835846  0.673883  0.374300  1
  Ta  Ta10  1  0.335944  0.827293  0.374180  1
  Ta  Ta11  1  0.836020  0.673845  0.125682  1
  Ta  Ta12  1  0.662924  0.174081  0.875392  1
  Ta  Ta13  1  0.163313  0.325762  0.624961  1
  Ta  Ta14  1  0.837817  0.493846  0.750084  1
  Ta  Ta15  1  0.338362  0.006723  0.749941  1
  Ta  Ta16  1  0.162115  0.506869  0.250122  1
  Nb  Nb17  1  0.663387  0.174075  0.624457  1
  Nb  Nb18  1  0.163887  0.325725  0.875155  1
  Si  Si19  1  0.669399  0.967139  0.459036  1
  Si  Si20  1  0.169671  0.532768  0.039945  1
  Si  Si21  1  0.330601  0.032487  0.960653  1
  Si  Si22  1  0.830758  0.467478  0.539648  1
  Si  Si23  1  0.329940  0.032428  0.539417  1
  Si  Si24  1  0.830056  0.467560  0.960343  1
  Si  Si25  1  0.669210  0.967207  0.040844  1
  Si  Si26  1  0.169460  0.532678  0.460174  1
  Si  Si27  1  0.460450  0.387907  0.749872  1
  Si  Si28  1  0.959562  0.112946  0.750118  1
  Si  Si29  1  0.539636  0.611773  0.249959  1
  Si  Si30  1  0.036184  0.889927  0.250057  1
  Si  Si31  1  0.704509  0.860690  0.750111  1
  Si  Si32  1  0.204285  0.639962  0.749894  1
  Si  Si33  1  0.299433  0.139778  0.249935  1
  Si  Si34  1  0.795881  0.355889  0.250066  1
  W  W35  1  0.660825  0.992596  0.249893  1
