# generated using pymatgen
data_Yb3HoNi2Sn5
_symmetry_space_group_name_H-M   'P 1'
_cell_length_a   4.42845100
_cell_length_b   8.76779400
_cell_length_c   13.79012800
_cell_angle_alpha   90.00000000
_cell_angle_beta   90.00000000
_cell_angle_gamma   90.00000000
_symmetry_Int_Tables_number   1
_chemical_formula_structural   Yb3HoNi2Sn5
_chemical_formula_sum   'Yb6 Ho2 Ni4 Sn10'
_cell_volume   535.43958877
_cell_formula_units_Z   2
loop_
 _symmetry_equiv_pos_site_id
 _symmetry_equiv_pos_as_xyz
  1  'x, y, z'
loop_
 _atom_site_type_symbol
 _atom_site_label
 _atom_site_symmetry_multiplicity
 _atom_site_fract_x
 _atom_site_fract_y
 _atom_site_fract_z
 _atom_site_occupancy
  Yb  Yb0  1  0.500000  0.788257  0.740458  1
  Yb  Yb1  1  0.000000  0.211743  0.759542  1
  Yb  Yb2  1  0.000000  0.211743  0.240458  1
  Yb  Yb3  1  0.500000  0.133270  0.000000  1
  Yb  Yb4  1  0.000000  0.866730  0.500000  1
  Yb  Yb5  1  0.500000  0.788257  0.259542  1
  Ho  Ho6  1  0.500000  0.701332  0.000000  1
  Ho  Ho7  1  0.000000  0.298668  0.500000  1
  Ni  Ni8  1  0.500000  0.383644  0.646894  1
  Ni  Ni9  1  0.000000  0.616356  0.853106  1
  Ni  Ni10  1  0.000000  0.616356  0.146894  1
  Ni  Ni11  1  0.500000  0.383644  0.353106  1
  Sn  Sn12  1  0.500000  0.091933  0.393007  1
  Sn  Sn13  1  0.000000  0.551775  0.664621  1
  Sn  Sn14  1  0.000000  0.410301  0.000000  1
  Sn  Sn15  1  0.500000  0.448225  0.164621  1
  Sn  Sn16  1  0.500000  0.589699  0.500000  1
  Sn  Sn17  1  0.500000  0.448225  0.835379  1
  Sn  Sn18  1  0.000000  0.908067  0.893007  1
  Sn  Sn19  1  0.000000  0.551775  0.335379  1
  Sn  Sn20  1  0.500000  0.091933  0.606993  1
  Sn  Sn21  1  0.000000  0.908067  0.106993  1
