# generated using pymatgen
data_Ho3ThCdIr
_symmetry_space_group_name_H-M   'P 1'
_cell_length_a   9.72539823
_cell_length_b   9.72539876
_cell_length_c   9.72539900
_cell_angle_alpha   60.00000260
_cell_angle_beta   60.00000080
_cell_angle_gamma   60.00000037
_symmetry_Int_Tables_number   1
_chemical_formula_structural   Ho3ThCdIr
_chemical_formula_sum   'Ho12 Th4 Cd4 Ir4'
_cell_volume   650.44001876
_cell_formula_units_Z   4
loop_
 _symmetry_equiv_pos_site_id
 _symmetry_equiv_pos_as_xyz
  1  'x, y, z'
loop_
 _atom_site_type_symbol
 _atom_site_label
 _atom_site_symmetry_multiplicity
 _atom_site_fract_x
 _atom_site_fract_y
 _atom_site_fract_z
 _atom_site_occupancy
  Ho  Ho0  1  0.061597  0.438403  0.438403  1
  Ho  Ho1  1  0.438403  0.061597  0.061597  1
  Ho  Ho2  1  0.438403  0.061597  0.438403  1
  Ho  Ho3  1  0.061597  0.438403  0.061597  1
  Ho  Ho4  1  0.438403  0.438403  0.061597  1
  Ho  Ho5  1  0.061597  0.061597  0.438403  1
  Ho  Ho6  1  0.185535  0.814465  0.814465  1
  Ho  Ho7  1  0.814465  0.185535  0.185535  1
  Ho  Ho8  1  0.814465  0.185535  0.814465  1
  Ho  Ho9  1  0.185535  0.814465  0.185535  1
  Ho  Ho10  1  0.814465  0.814465  0.185535  1
  Ho  Ho11  1  0.185535  0.185535  0.814465  1
  Th  Th12  1  0.599977  0.599977  0.599977  1
  Th  Th13  1  0.599977  0.599977  0.200070  1
  Th  Th14  1  0.599977  0.200070  0.599977  1
  Th  Th15  1  0.200070  0.599977  0.599977  1
  Cd  Cd16  1  0.832869  0.832869  0.832869  1
  Cd  Cd17  1  0.832869  0.832869  0.501391  1
  Cd  Cd18  1  0.832869  0.501391  0.832869  1
  Cd  Cd19  1  0.501391  0.832869  0.832869  1
  Ir  Ir20  1  0.393012  0.393012  0.393012  1
  Ir  Ir21  1  0.393012  0.393012  0.820965  1
  Ir  Ir22  1  0.393012  0.820965  0.393012  1
  Ir  Ir23  1  0.820965  0.393012  0.393012  1
