# generated using pymatgen
data_Li8Pr7HoBi8
_symmetry_space_group_name_H-M   'P 1'
_cell_length_a   9.88189900
_cell_length_b   9.88189775
_cell_length_c   7.42007800
_cell_angle_alpha   90.00000000
_cell_angle_beta   90.00000000
_cell_angle_gamma   119.99999413
_symmetry_Int_Tables_number   1
_chemical_formula_structural   Li8Pr7HoBi8
_chemical_formula_sum   'Li8 Pr7 Ho1 Bi8'
_cell_volume   627.50890728
_cell_formula_units_Z   1
loop_
 _symmetry_equiv_pos_site_id
 _symmetry_equiv_pos_as_xyz
  1  'x, y, z'
loop_
 _atom_site_type_symbol
 _atom_site_label
 _atom_site_symmetry_multiplicity
 _atom_site_fract_x
 _atom_site_fract_y
 _atom_site_fract_z
 _atom_site_occupancy
  Li  Li0  1  0.166757  0.833243  0.288901  1
  Li  Li1  1  0.666485  0.833243  0.288901  1
  Li  Li2  1  0.166757  0.333515  0.288901  1
  Li  Li3  1  0.834016  0.165984  0.799875  1
  Li  Li4  1  0.331969  0.165984  0.799875  1
  Li  Li5  1  0.834016  0.668031  0.799875  1
  Li  Li6  1  0.333333  0.666667  0.695582  1
  Li  Li7  1  0.666667  0.333333  0.201142  1
  Pr  Pr8  1  0.510753  0.489247  0.508479  1
  Pr  Pr9  1  0.978496  0.489247  0.508479  1
  Pr  Pr10  1  0.510753  0.021504  0.508479  1
  Pr  Pr11  1  0.489681  0.510319  0.008618  1
  Pr  Pr12  1  0.020637  0.510319  0.008618  1
  Pr  Pr13  1  0.489681  0.979363  0.008618  1
  Pr  Pr14  1  0.000000  0.000000  0.517244  1
  Ho  Ho15  1  0.000000  0.000000  0.016702  1
  Bi  Bi16  1  0.165567  0.834433  0.755349  1
  Bi  Bi17  1  0.668867  0.834433  0.755349  1
  Bi  Bi18  1  0.165567  0.331133  0.755349  1
  Bi  Bi19  1  0.835417  0.164583  0.245169  1
  Bi  Bi20  1  0.329167  0.164583  0.245169  1
  Bi  Bi21  1  0.835417  0.670833  0.245169  1
  Bi  Bi22  1  0.333333  0.666667  0.280690  1
  Bi  Bi23  1  0.666667  0.333333  0.779451  1
