# generated using pymatgen
data_Tb2CdCuNi
_symmetry_space_group_name_H-M   'P 1'
_cell_length_a   7.51588491
_cell_length_b   7.51588491
_cell_length_c   3.66638100
_cell_angle_alpha   90.00000000
_cell_angle_beta   90.00000000
_cell_angle_gamma   89.27143715
_symmetry_Int_Tables_number   1
_chemical_formula_structural   Tb2CdCuNi
_chemical_formula_sum   'Tb4 Cd2 Cu2 Ni2'
_cell_volume   207.09171453
_cell_formula_units_Z   2
loop_
 _symmetry_equiv_pos_site_id
 _symmetry_equiv_pos_as_xyz
  1  'x, y, z'
loop_
 _atom_site_type_symbol
 _atom_site_label
 _atom_site_symmetry_multiplicity
 _atom_site_fract_x
 _atom_site_fract_y
 _atom_site_fract_z
 _atom_site_occupancy
  Tb  Tb0  1  0.667452  0.167452  0.500000  1
  Tb  Tb1  1  0.332548  0.832548  0.500000  1
  Tb  Tb2  1  0.184755  0.315245  0.500000  1
  Tb  Tb3  1  0.815245  0.684755  0.500000  1
  Cd  Cd4  1  0.000000  0.000000  0.000000  1
  Cd  Cd5  1  0.500000  0.500000  0.000000  1
  Cu  Cu6  1  0.118007  0.618007  0.000000  1
  Cu  Cu7  1  0.881993  0.381993  0.000000  1
  Ni  Ni8  1  0.618028  0.881972  0.000000  1
  Ni  Ni9  1  0.381972  0.118028  0.000000  1
