# generated using pymatgen
data_Ca6ErV3(GeO4)6
_symmetry_space_group_name_H-M   'P 1'
_cell_length_a   10.87531659
_cell_length_b   10.94078717
_cell_length_c   10.94078647
_cell_angle_alpha   109.59212095
_cell_angle_beta   109.35004100
_cell_angle_gamma   109.35004944
_symmetry_Int_Tables_number   1
_chemical_formula_structural   Ca6ErV3(GeO4)6
_chemical_formula_sum   'Ca12 Er2 V6 Ge12 O48'
_cell_volume   1003.60873694
_cell_formula_units_Z   2
loop_
 _symmetry_equiv_pos_site_id
 _symmetry_equiv_pos_as_xyz
  1  'x, y, z'
loop_
 _atom_site_type_symbol
 _atom_site_label
 _atom_site_symmetry_multiplicity
 _atom_site_fract_x
 _atom_site_fract_y
 _atom_site_fract_z
 _atom_site_occupancy
  Ca  Ca0  1  0.250000  0.874078  0.625922  1
  Ca  Ca1  1  0.750000  0.628714  0.871286  1
  Ca  Ca2  1  0.624078  0.874078  0.748156  1
  Ca  Ca3  1  0.878714  0.628714  0.257428  1
  Ca  Ca4  1  0.621286  0.242572  0.871286  1
  Ca  Ca5  1  0.875922  0.751844  0.625922  1
  Ca  Ca6  1  0.750000  0.125922  0.374078  1
  Ca  Ca7  1  0.250000  0.371286  0.128714  1
  Ca  Ca8  1  0.375922  0.125922  0.251844  1
  Ca  Ca9  1  0.121286  0.371286  0.742572  1
  Ca  Ca10  1  0.378714  0.757428  0.128714  1
  Ca  Ca11  1  0.124078  0.248156  0.374078  1
  Er  Er12  1  0.500000  0.500000  0.000000  1
  Er  Er13  1  0.000000  0.500000  0.000000  1
  V  V14  1  0.500000  0.500000  0.500000  1
  V  V15  1  0.500000  0.000000  0.500000  1
  V  V16  1  0.000000  0.500000  0.500000  1
  V  V17  1  0.000000  0.000000  0.500000  1
  V  V18  1  0.500000  0.000000  0.000000  1
  V  V19  1  0.000000  0.000000  0.000000  1
  Ge  Ge20  1  0.128528  0.753616  0.872070  1
  Ge  Ge21  1  0.871472  0.246384  0.127930  1
  Ge  Ge22  1  0.628528  0.372070  0.253616  1
  Ge  Ge23  1  0.756458  0.881546  0.127930  1
  Ge  Ge24  1  0.874912  0.118454  0.746384  1
  Ge  Ge25  1  0.256458  0.627930  0.381546  1
  Ge  Ge26  1  0.743542  0.372070  0.618454  1
  Ge  Ge27  1  0.243542  0.118454  0.872070  1
  Ge  Ge28  1  0.125088  0.881546  0.253616  1
  Ge  Ge29  1  0.371472  0.627930  0.746384  1
  Ge  Ge30  1  0.625088  0.753616  0.381546  1
  Ge  Ge31  1  0.374912  0.246384  0.618454  1
  O  O32  1  0.415060  0.816205  0.794934  1
  O  O33  1  0.872759  0.391226  0.088558  1
  O  O34  1  0.098854  0.978729  0.683795  1
  O  O35  1  0.515675  0.620551  0.704261  1
  O  O36  1  0.688587  0.083710  0.704261  1
  O  O37  1  0.620126  0.705066  0.521271  1
  O  O38  1  0.627241  0.411442  0.108774  1
  O  O39  1  0.699975  0.516358  0.614821  1
  O  O40  1  0.816383  0.516358  0.401537  1
  O  O41  1  0.984325  0.795739  0.879449  1
  O  O42  1  0.800025  0.885179  0.983642  1
  O  O43  1  0.715799  0.697332  0.088558  1
  O  O44  1  0.414846  0.098463  0.614821  1
  O  O45  1  0.401146  0.816205  0.521271  1
  O  O46  1  0.084940  0.705066  0.683795  1
  O  O47  1  0.104876  0.620551  0.416290  1
  O  O48  1  0.518467  0.391226  0.802668  1
  O  O49  1  0.085154  0.885179  0.401537  1
  O  O50  1  0.981533  0.697332  0.108774  1
  O  O51  1  0.183617  0.483642  0.598463  1
  O  O52  1  0.683617  0.098463  0.983642  1
  O  O53  1  0.784201  0.411442  0.802668  1
  O  O54  1  0.395124  0.083710  0.879449  1
  O  O55  1  0.879874  0.978729  0.794934  1
  O  O56  1  0.584940  0.183795  0.205066  1
  O  O57  1  0.127241  0.608774  0.911442  1
  O  O58  1  0.901146  0.021271  0.316205  1
  O  O59  1  0.484325  0.379449  0.295739  1
  O  O60  1  0.311413  0.916290  0.295739  1
  O  O61  1  0.379874  0.294934  0.478729  1
  O  O62  1  0.372759  0.588558  0.891226  1
  O  O63  1  0.300025  0.483642  0.385179  1
  O  O64  1  0.120126  0.021271  0.205066  1
  O  O65  1  0.604876  0.916290  0.120551  1
  O  O66  1  0.215799  0.588558  0.197332  1
  O  O67  1  0.188587  0.204261  0.583710  1
  O  O68  1  0.316383  0.901537  0.016358  1
  O  O69  1  0.018467  0.302668  0.891226  1
  O  O70  1  0.914846  0.114821  0.598463  1
  O  O71  1  0.481533  0.608774  0.197332  1
  O  O72  1  0.895124  0.379449  0.583710  1
  O  O73  1  0.915060  0.294934  0.316205  1
  O  O74  1  0.598854  0.183795  0.478729  1
  O  O75  1  0.585154  0.901537  0.385179  1
  O  O76  1  0.284201  0.302668  0.911442  1
  O  O77  1  0.199975  0.114821  0.016358  1
  O  O78  1  0.015675  0.204261  0.120551  1
  O  O79  1  0.811413  0.795739  0.416290  1
