# generated using pymatgen
data_Zr10GaCuBiPb5
_symmetry_space_group_name_H-M   'P 1'
_cell_length_a   8.84354614
_cell_length_b   8.84347379
_cell_length_c   5.95064332
_cell_angle_alpha   89.98097949
_cell_angle_beta   89.98147777
_cell_angle_gamma   119.99185131
_symmetry_Int_Tables_number   1
_chemical_formula_structural   Zr10GaCuBiPb5
_chemical_formula_sum   'Zr10 Ga1 Cu1 Bi1 Pb5'
_cell_volume   403.06905002
_cell_formula_units_Z   1
loop_
 _symmetry_equiv_pos_site_id
 _symmetry_equiv_pos_as_xyz
  1  'x, y, z'
loop_
 _atom_site_type_symbol
 _atom_site_label
 _atom_site_symmetry_multiplicity
 _atom_site_fract_x
 _atom_site_fract_y
 _atom_site_fract_z
 _atom_site_occupancy
  Zr  Zr0  1  0.738367  0.000119  0.249134  1
  Zr  Zr1  1  0.000121  0.738365  0.249135  1
  Zr  Zr2  1  0.261878  0.261876  0.249201  1
  Zr  Zr3  1  0.261022  0.998678  0.750878  1
  Zr  Zr4  1  0.998680  0.261020  0.750882  1
  Zr  Zr5  1  0.738530  0.738527  0.751155  1
  Zr  Zr6  1  0.333330  0.666992  0.499428  1
  Zr  Zr7  1  0.666991  0.333329  0.499425  1
  Zr  Zr8  1  0.667203  0.333366  0.000611  1
  Zr  Zr9  1  0.333367  0.667205  0.000615  1
  Ga  Ga10  1  0.999522  0.999524  0.499567  1
  Cu  Cu11  1  0.999524  0.999529  0.000561  1
  Bi  Bi12  1  0.387093  0.387095  0.749404  1
  Pb  Pb13  1  0.386805  0.999941  0.250065  1
  Pb  Pb14  1  0.999931  0.386800  0.250064  1
  Pb  Pb15  1  0.614292  0.614291  0.250357  1
  Pb  Pb16  1  0.613365  0.999979  0.749755  1
  Pb  Pb17  1  0.999980  0.613365  0.749761  1
