# generated using pymatgen
data_Ba6Sn8BiSe
_symmetry_space_group_name_H-M   'P 1'
_cell_length_a   9.29823112
_cell_length_b   9.29823027
_cell_length_c   9.35028505
_cell_angle_alpha   119.81601931
_cell_angle_beta   119.81601392
_cell_angle_gamma   90.00000313
_symmetry_Int_Tables_number   1
_chemical_formula_structural   Ba6Sn8BiSe
_chemical_formula_sum   'Ba6 Sn8 Bi1 Se1'
_cell_volume   574.78861915
_cell_formula_units_Z   1
loop_
 _symmetry_equiv_pos_site_id
 _symmetry_equiv_pos_as_xyz
  1  'x, y, z'
loop_
 _atom_site_type_symbol
 _atom_site_label
 _atom_site_symmetry_multiplicity
 _atom_site_fract_x
 _atom_site_fract_y
 _atom_site_fract_z
 _atom_site_occupancy
  Ba  Ba0  1  0.239781  0.239781  0.479563  1
  Ba  Ba1  1  0.760219  0.760219  0.520437  1
  Ba  Ba2  1  0.673859  0.160433  0.000000  1
  Ba  Ba3  1  0.326141  0.839567  0.000000  1
  Ba  Ba4  1  0.839567  0.673859  0.000000  1
  Ba  Ba5  1  0.160433  0.326141  0.000000  1
  Sn  Sn6  1  0.336634  0.833428  0.389385  1
  Sn  Sn7  1  0.663366  0.166572  0.610615  1
  Sn  Sn8  1  0.052752  0.555958  0.389385  1
  Sn  Sn9  1  0.555958  0.336634  0.389385  1
  Sn  Sn10  1  0.166572  0.947248  0.610615  1
  Sn  Sn11  1  0.947248  0.444042  0.610615  1
  Sn  Sn12  1  0.444042  0.663366  0.610615  1
  Sn  Sn13  1  0.833428  0.052752  0.389385  1
  Bi  Bi14  1  0.500000  0.500000  0.000000  1
  Se  Se15  1  0.000000  0.000000  0.000000  1
