# generated using pymatgen
data_Y6HoCoSn23Ru5
_symmetry_space_group_name_H-M   'P 1'
_cell_length_a   9.84438145
_cell_length_b   9.84437993
_cell_length_c   10.07254716
_cell_angle_alpha   90.00827576
_cell_angle_beta   89.99172605
_cell_angle_gamma   119.97865107
_symmetry_Int_Tables_number   1
_chemical_formula_structural   Y6HoCoSn23Ru5
_chemical_formula_sum   'Y6 Ho1 Co1 Sn23 Ru5'
_cell_volume   845.55161395
_cell_formula_units_Z   1
loop_
 _symmetry_equiv_pos_site_id
 _symmetry_equiv_pos_as_xyz
  1  'x, y, z'
loop_
 _atom_site_type_symbol
 _atom_site_label
 _atom_site_symmetry_multiplicity
 _atom_site_fract_x
 _atom_site_fract_y
 _atom_site_fract_z
 _atom_site_occupancy
  Y  Y0  1  0.004022  0.995978  0.995266  1
  Y  Y1  1  0.515833  0.484167  0.696633  1
  Y  Y2  1  0.516488  0.032568  0.695917  1
  Y  Y3  1  0.967432  0.483512  0.695917  1
  Y  Y4  1  0.033260  0.517290  0.304519  1
  Y  Y5  1  0.482710  0.966740  0.304519  1
  Ho  Ho6  1  0.483024  0.516976  0.303627  1
  Co  Co7  1  0.829152  0.170848  0.200343  1
  Sn  Sn8  1  0.667613  0.332387  0.181119  1
  Sn  Sn9  1  0.666549  0.333451  0.874460  1
  Sn  Sn10  1  0.333124  0.666876  0.126243  1
  Sn  Sn11  1  0.349023  0.348993  0.000167  1
  Sn  Sn12  1  0.999012  0.648678  0.000298  1
  Sn  Sn13  1  0.654833  0.002418  0.004388  1
  Sn  Sn14  1  0.651007  0.650977  0.000167  1
  Sn  Sn15  1  0.333277  0.666723  0.820843  1
  Sn  Sn16  1  0.439068  0.220048  0.461509  1
  Sn  Sn17  1  0.219887  0.780113  0.539313  1
  Sn  Sn18  1  0.219533  0.439057  0.538651  1
  Sn  Sn19  1  0.560943  0.780467  0.538651  1
  Sn  Sn20  1  0.118764  0.881236  0.272837  1
  Sn  Sn21  1  0.779952  0.560932  0.461509  1
  Sn  Sn22  1  0.782373  0.217627  0.455819  1
  Sn  Sn23  1  0.351322  0.000988  0.000298  1
  Sn  Sn24  1  0.111261  0.233626  0.271694  1
  Sn  Sn25  1  0.766374  0.888739  0.271694  1
  Sn  Sn26  1  0.236066  0.118393  0.725211  1
  Sn  Sn27  1  0.881607  0.763934  0.725211  1
  Sn  Sn28  1  0.881605  0.118395  0.727229  1
  Sn  Sn29  1  0.000312  0.999688  0.498863  1
  Sn  Sn30  1  0.997582  0.345167  0.004388  1
  Ru  Ru31  1  0.169250  0.830750  0.799964  1
  Ru  Ru32  1  0.168248  0.338864  0.799390  1
  Ru  Ru33  1  0.661136  0.831752  0.799390  1
  Ru  Ru34  1  0.338660  0.170301  0.201977  1
  Ru  Ru35  1  0.829699  0.661340  0.201977  1
