# generated using pymatgen
data_Tb8Hf5Zr6Si16Pd
_symmetry_space_group_name_H-M   'P 1'
_cell_length_a   7.31604752
_cell_length_b   7.31823548
_cell_length_c   13.32676805
_cell_angle_alpha   89.80498805
_cell_angle_beta   90.20696517
_cell_angle_gamma   89.85460781
_symmetry_Int_Tables_number   1
_chemical_formula_structural   Tb8Hf5Zr6Si16Pd
_chemical_formula_sum   'Tb8 Hf5 Zr6 Si16 Pd1'
_cell_volume   713.51149744
_cell_formula_units_Z   1
loop_
 _symmetry_equiv_pos_site_id
 _symmetry_equiv_pos_as_xyz
  1  'x, y, z'
loop_
 _atom_site_type_symbol
 _atom_site_label
 _atom_site_symmetry_multiplicity
 _atom_site_fract_x
 _atom_site_fract_y
 _atom_site_fract_z
 _atom_site_occupancy
  Tb  Tb0  1  0.998329  0.346289  0.209685  1
  Tb  Tb1  1  0.004785  0.653088  0.716644  1
  Tb  Tb2  1  0.155122  0.495979  0.463468  1
  Tb  Tb3  1  0.499024  0.848536  0.033464  1
  Tb  Tb4  1  0.848912  0.498090  0.966847  1
  Tb  Tb5  1  0.495161  0.154477  0.536223  1
  Tb  Tb6  1  0.346691  0.997751  0.790383  1
  Tb  Tb7  1  0.652323  0.005470  0.283387  1
  Hf  Hf8  1  0.355567  0.493035  0.877676  1
  Hf  Hf9  1  0.493523  0.356125  0.122598  1
  Hf  Hf10  1  0.645951  0.504298  0.373179  1
  Hf  Hf11  1  0.996020  0.145221  0.626820  1
  Hf  Hf12  1  0.004019  0.856135  0.120477  1
  Zr  Zr13  1  0.824236  0.824340  0.499762  1
  Zr  Zr14  1  0.321873  0.678019  0.247854  1
  Zr  Zr15  1  0.677469  0.321410  0.751937  1
  Zr  Zr16  1  0.144906  0.997162  0.372679  1
  Zr  Zr17  1  0.856902  0.003994  0.879909  1
  Zr  Zr18  1  0.503299  0.645179  0.626700  1
  Si  Si19  1  0.360063  0.296449  0.314561  1
  Si  Si20  1  0.639564  0.705227  0.820101  1
  Si  Si21  1  0.207085  0.862074  0.568190  1
  Si  Si22  1  0.134213  0.778963  0.929254  1
  Si  Si23  1  0.779558  0.133508  0.071908  1
  Si  Si24  1  0.860261  0.208822  0.432191  1
  Si  Si25  1  0.294042  0.358138  0.685256  1
  Si  Si26  1  0.706265  0.639696  0.180139  1
  Si  Si27  1  0.291596  0.058250  0.184021  1
  Si  Si28  1  0.706039  0.948452  0.688063  1
  Si  Si29  1  0.448988  0.795411  0.435788  1
  Si  Si30  1  0.209286  0.560335  0.062308  1
  Si  Si31  1  0.559512  0.209711  0.938447  1
  Si  Si32  1  0.796054  0.447551  0.563426  1
  Si  Si33  1  0.058028  0.291843  0.814710  1
  Si  Si34  1  0.947526  0.704937  0.311287  1
  Pd  Pd35  1  0.177804  0.176034  0.000658  1
