# generated using pymatgen
data_Dy8Hf11Si16Ag
_symmetry_space_group_name_H-M   'P 1'
_cell_length_a   7.28471269
_cell_length_b   7.28471295
_cell_length_c   13.28373423
_cell_angle_alpha   89.83852916
_cell_angle_beta   90.16147006
_cell_angle_gamma   89.88090983
_symmetry_Int_Tables_number   1
_chemical_formula_structural   Dy8Hf11Si16Ag
_chemical_formula_sum   'Dy8 Hf11 Si16 Ag1'
_cell_volume   704.92133459
_cell_formula_units_Z   1
loop_
 _symmetry_equiv_pos_site_id
 _symmetry_equiv_pos_as_xyz
  1  'x, y, z'
loop_
 _atom_site_type_symbol
 _atom_site_label
 _atom_site_symmetry_multiplicity
 _atom_site_fract_x
 _atom_site_fract_y
 _atom_site_fract_z
 _atom_site_occupancy
  Dy  Dy0  1  0.997822  0.345032  0.211350  1
  Dy  Dy1  1  0.004636  0.655857  0.716335  1
  Dy  Dy2  1  0.155341  0.495713  0.464796  1
  Dy  Dy3  1  0.498954  0.847632  0.033221  1
  Dy  Dy4  1  0.847632  0.498954  0.966779  1
  Dy  Dy5  1  0.495713  0.155341  0.535204  1
  Dy  Dy6  1  0.345032  0.997822  0.788650  1
  Dy  Dy7  1  0.655857  0.004636  0.283665  1
  Hf  Hf8  1  0.824862  0.824862  0.500000  1
  Hf  Hf9  1  0.323835  0.676157  0.249463  1
  Hf  Hf10  1  0.676157  0.323835  0.750537  1
  Hf  Hf11  1  0.146188  0.996290  0.374209  1
  Hf  Hf12  1  0.856151  0.002783  0.877990  1
  Hf  Hf13  1  0.503849  0.647040  0.626019  1
  Hf  Hf14  1  0.354655  0.492223  0.877502  1
  Hf  Hf15  1  0.492223  0.354655  0.122498  1
  Hf  Hf16  1  0.647040  0.503849  0.373981  1
  Hf  Hf17  1  0.996290  0.146188  0.625791  1
  Hf  Hf18  1  0.002783  0.856151  0.122010  1
  Si  Si19  1  0.359954  0.295731  0.316814  1
  Si  Si20  1  0.639163  0.704640  0.819579  1
  Si  Si21  1  0.206669  0.861401  0.568640  1
  Si  Si22  1  0.132088  0.777753  0.928086  1
  Si  Si23  1  0.777753  0.132088  0.071914  1
  Si  Si24  1  0.861401  0.206669  0.431360  1
  Si  Si25  1  0.295731  0.359954  0.683186  1
  Si  Si26  1  0.704640  0.639163  0.180421  1
  Si  Si27  1  0.296245  0.050680  0.189583  1
  Si  Si28  1  0.704340  0.951150  0.686440  1
  Si  Si29  1  0.450764  0.795865  0.435699  1
  Si  Si30  1  0.209513  0.564337  0.064439  1
  Si  Si31  1  0.564337  0.209513  0.935561  1
  Si  Si32  1  0.795865  0.450764  0.564301  1
  Si  Si33  1  0.050680  0.296245  0.810417  1
  Si  Si34  1  0.951150  0.704340  0.313560  1
  Ag  Ag35  1  0.174686  0.174686  0.000000  1
