# generated using pymatgen
data_CaMnZn3Co(AsO4)4
_symmetry_space_group_name_H-M   'P 1'
_cell_length_a   8.99541473
_cell_length_b   5.36398581
_cell_length_c   9.18532200
_cell_angle_alpha   60.28176515
_cell_angle_beta   89.92992974
_cell_angle_gamma   90.09181889
_symmetry_Int_Tables_number   1
_chemical_formula_structural   CaMnZn3Co(AsO4)4
_chemical_formula_sum   'Ca1 Mn1 Zn3 Co1 As4 O16'
_cell_volume   384.90910269
_cell_formula_units_Z   1
loop_
 _symmetry_equiv_pos_site_id
 _symmetry_equiv_pos_as_xyz
  1  'x, y, z'
loop_
 _atom_site_type_symbol
 _atom_site_label
 _atom_site_symmetry_multiplicity
 _atom_site_fract_x
 _atom_site_fract_y
 _atom_site_fract_z
 _atom_site_occupancy
  Ca  Ca0  1  0.999199  0.500208  0.499987  1
  Mn  Mn1  1  0.500514  0.498110  0.001262  1
  Zn  Zn2  1  0.632743  0.515887  0.387946  1
  Zn  Zn3  1  0.867017  0.543013  0.885275  1
  Zn  Zn4  1  0.368900  0.483197  0.612351  1
  Co  Co5  1  0.138571  0.471089  0.109530  1
  As  As6  1  0.307378  0.838735  0.195303  1
  As  As7  1  0.796480  0.156824  0.294634  1
  As  As8  1  0.690797  0.158853  0.807284  1
  As  As9  1  0.205712  0.846611  0.702897  1
  O  O10  1  0.078279  0.685452  0.867023  1
  O  O11  1  0.573112  0.313893  0.634943  1
  O  O12  1  0.924644  0.320040  0.131559  1
  O  O13  1  0.427923  0.685408  0.364854  1
  O  O14  1  0.209714  0.202802  0.647000  1
  O  O15  1  0.701804  0.798783  0.868726  1
  O  O16  1  0.791061  0.799683  0.352210  1
  O  O17  1  0.299511  0.199655  0.129633  1
  O  O18  1  0.152241  0.802777  0.539488  1
  O  O19  1  0.629771  0.205169  0.967480  1
  O  O20  1  0.137994  0.658805  0.252742  1
  O  O21  1  0.626908  0.336243  0.239170  1
  O  O22  1  0.860310  0.339715  0.751955  1
  O  O23  1  0.374332  0.665177  0.759643  1
  O  O24  1  0.358082  0.775872  0.036891  1
  O  O25  1  0.847003  0.197998  0.460215  1
