# generated using pymatgen
data_BaIn6Ag3Rh
_symmetry_space_group_name_H-M   'P 1'
_cell_length_a   8.24015200
_cell_length_b   8.24015067
_cell_length_c   4.47939500
_cell_angle_alpha   90.00000000
_cell_angle_beta   90.00000000
_cell_angle_gamma   119.99999733
_symmetry_Int_Tables_number   1
_chemical_formula_structural   BaIn6Ag3Rh
_chemical_formula_sum   'Ba1 In6 Ag3 Rh1'
_cell_volume   263.40279545
_cell_formula_units_Z   1
loop_
 _symmetry_equiv_pos_site_id
 _symmetry_equiv_pos_as_xyz
  1  'x, y, z'
loop_
 _atom_site_type_symbol
 _atom_site_label
 _atom_site_symmetry_multiplicity
 _atom_site_fract_x
 _atom_site_fract_y
 _atom_site_fract_z
 _atom_site_occupancy
  Ba  Ba0  1  0.000000  0.000000  0.000000  1
  In  In1  1  0.527826  0.472174  0.000000  1
  In  In2  1  0.203947  0.796053  0.500000  1
  In  In3  1  0.527826  0.055652  0.000000  1
  In  In4  1  0.203947  0.407894  0.500000  1
  In  In5  1  0.944348  0.472174  0.000000  1
  In  In6  1  0.592106  0.796053  0.500000  1
  Ag  Ag7  1  0.791785  0.208215  0.500000  1
  Ag  Ag8  1  0.791785  0.583571  0.500000  1
  Ag  Ag9  1  0.416429  0.208215  0.500000  1
  Rh  Rh10  1  0.333333  0.666667  0.000000  1
