# generated using pymatgen
data_Li6BeNb5Rh12
_symmetry_space_group_name_H-M   'P 1'
_cell_length_a   4.34113303
_cell_length_b   6.06011800
_cell_length_c   12.87725509
_cell_angle_alpha   90.00000000
_cell_angle_beta   89.98633761
_cell_angle_gamma   90.00000000
_symmetry_Int_Tables_number   1
_chemical_formula_structural   Li6BeNb5Rh12
_chemical_formula_sum   'Li6 Be1 Nb5 Rh12'
_cell_volume   338.77196398
_cell_formula_units_Z   1
loop_
 _symmetry_equiv_pos_site_id
 _symmetry_equiv_pos_as_xyz
  1  'x, y, z'
loop_
 _atom_site_type_symbol
 _atom_site_label
 _atom_site_symmetry_multiplicity
 _atom_site_fract_x
 _atom_site_fract_y
 _atom_site_fract_z
 _atom_site_occupancy
  Li  Li0  1  0.000000  0.000000  0.000000  1
  Li  Li1  1  0.499735  0.499999  0.164768  1
  Li  Li2  1  0.999770  0.000000  0.326291  1
  Li  Li3  1  0.500000  0.499999  0.500000  1
  Li  Li4  1  0.000230  0.000000  0.673709  1
  Li  Li5  1  0.500265  0.499999  0.835232  1
  Be  Be6  1  0.000000  0.499999  0.000000  1
  Nb  Nb7  1  0.499775  0.000000  0.156452  1
  Nb  Nb8  1  0.999782  0.499999  0.327688  1
  Nb  Nb9  1  0.500000  0.000000  0.500000  1
  Nb  Nb10  1  0.000219  0.499999  0.672311  1
  Nb  Nb11  1  0.500225  0.000000  0.843548  1
  Rh  Rh12  1  0.500000  0.267783  0.000000  1
  Rh  Rh13  1  0.500000  0.732218  0.000000  1
  Rh  Rh14  1  0.999761  0.259761  0.157274  1
  Rh  Rh15  1  0.999761  0.740239  0.157274  1
  Rh  Rh16  1  0.499791  0.249339  0.330375  1
  Rh  Rh17  1  0.499791  0.750660  0.330375  1
  Rh  Rh18  1  0.000000  0.249415  0.500000  1
  Rh  Rh19  1  0.000000  0.750585  0.500000  1
  Rh  Rh20  1  0.500207  0.249339  0.669625  1
  Rh  Rh21  1  0.500207  0.750660  0.669625  1
  Rh  Rh22  1  0.000239  0.259761  0.842726  1
  Rh  Rh23  1  0.000239  0.740239  0.842726  1
