# generated using pymatgen
data_TbDy3Cr2(SbO7)2
_symmetry_space_group_name_H-M   'P 1'
_cell_length_a   7.27906919
_cell_length_b   7.33647969
_cell_length_c   7.27903515
_cell_angle_alpha   59.71507009
_cell_angle_beta   59.77801463
_cell_angle_gamma   59.71511090
_symmetry_Int_Tables_number   1
_chemical_formula_structural   TbDy3Cr2(SbO7)2
_chemical_formula_sum   'Tb1 Dy3 Cr2 Sb2 O14'
_cell_volume   273.21911188
_cell_formula_units_Z   1
loop_
 _symmetry_equiv_pos_site_id
 _symmetry_equiv_pos_as_xyz
  1  'x, y, z'
loop_
 _atom_site_type_symbol
 _atom_site_label
 _atom_site_symmetry_multiplicity
 _atom_site_fract_x
 _atom_site_fract_y
 _atom_site_fract_z
 _atom_site_occupancy
  Tb  Tb0  1  0.125000  0.125000  0.125000  1
  Dy  Dy1  1  0.125000  0.625000  0.125000  1
  Dy  Dy2  1  0.125000  0.125000  0.625000  1
  Dy  Dy3  1  0.625000  0.125000  0.125000  1
  Cr  Cr4  1  0.125000  0.625000  0.625000  1
  Cr  Cr5  1  0.625000  0.625000  0.125000  1
  Sb  Sb6  1  0.625000  0.625000  0.625000  1
  Sb  Sb7  1  0.625000  0.125000  0.625000  1
  O  O8  1  0.293914  0.713919  0.704302  1
  O  O9  1  0.546101  0.962007  0.955959  1
  O  O10  1  0.706707  0.293261  0.706707  1
  O  O11  1  0.294042  0.287990  0.703899  1
  O  O12  1  0.704302  0.713921  0.293912  1
  O  O13  1  0.997019  0.002084  0.997019  1
  O  O14  1  0.285004  0.714604  0.285007  1
  O  O15  1  0.964996  0.535396  0.964993  1
  O  O16  1  0.955958  0.962010  0.546101  1
  O  O17  1  0.545698  0.536079  0.956088  1
  O  O18  1  0.252981  0.247916  0.252981  1
  O  O19  1  0.543293  0.956739  0.543293  1
  O  O20  1  0.703899  0.287993  0.294041  1
  O  O21  1  0.956086  0.536081  0.545698  1
