# generated using pymatgen
data_NdPa7Zn7CuRh8
_symmetry_space_group_name_H-M   'P 1'
_cell_length_a   3.82395500
_cell_length_b   7.40879610
_cell_length_c   16.28898981
_cell_angle_alpha   90.61421915
_cell_angle_beta   90.00000000
_cell_angle_gamma   90.00000000
_symmetry_Int_Tables_number   1
_chemical_formula_structural   NdPa7Zn7CuRh8
_chemical_formula_sum   'Nd1 Pa7 Zn7 Cu1 Rh8'
_cell_volume   461.45527199
_cell_formula_units_Z   1
loop_
 _symmetry_equiv_pos_site_id
 _symmetry_equiv_pos_as_xyz
  1  'x, y, z'
loop_
 _atom_site_type_symbol
 _atom_site_label
 _atom_site_symmetry_multiplicity
 _atom_site_fract_x
 _atom_site_fract_y
 _atom_site_fract_z
 _atom_site_occupancy
  Nd  Nd0  1  0.250000  0.553273  0.786337  1
  Pa  Pa1  1  0.250000  0.167218  0.939106  1
  Pa  Pa2  1  0.250000  0.684619  0.560173  1
  Pa  Pa3  1  0.750000  0.331141  0.441568  1
  Pa  Pa4  1  0.750000  0.941457  0.285697  1
  Pa  Pa5  1  0.750000  0.829706  0.061961  1
  Pa  Pa6  1  0.750000  0.439715  0.215970  1
  Pa  Pa7  1  0.250000  0.055002  0.711616  1
  Zn  Zn8  1  0.250000  0.611235  0.344447  1
  Zn  Zn9  1  0.750000  0.389833  0.655931  1
  Zn  Zn10  1  0.250000  0.491674  0.062489  1
  Zn  Zn11  1  0.750000  0.501821  0.939570  1
  Zn  Zn12  1  0.250000  0.998750  0.441097  1
  Zn  Zn13  1  0.250000  0.113267  0.156267  1
  Zn  Zn14  1  0.750000  0.874611  0.844503  1
  Cu  Cu15  1  0.750000  0.014439  0.554972  1
  Rh  Rh16  1  0.750000  0.736471  0.440479  1
  Rh  Rh17  1  0.250000  0.240710  0.315085  1
  Rh  Rh18  1  0.750000  0.223594  0.815301  1
  Rh  Rh19  1  0.750000  0.778967  0.676541  1
  Rh  Rh20  1  0.250000  0.277997  0.557386  1
  Rh  Rh21  1  0.250000  0.742277  0.187533  1
  Rh  Rh22  1  0.750000  0.233287  0.057437  1
  Rh  Rh23  1  0.250000  0.768937  0.948536  1
