# generated using pymatgen
data_La6In9Sn
_symmetry_space_group_name_H-M   'P 1'
_cell_length_a   6.74874002
_cell_length_b   6.76448895
_cell_length_c   10.69075400
_cell_angle_alpha   90.00000000
_cell_angle_beta   90.00000000
_cell_angle_gamma   102.37514058
_symmetry_Int_Tables_number   1
_chemical_formula_structural   La6In9Sn
_chemical_formula_sum   'La6 In9 Sn1'
_cell_volume   476.71220829
_cell_formula_units_Z   1
loop_
 _symmetry_equiv_pos_site_id
 _symmetry_equiv_pos_as_xyz
  1  'x, y, z'
loop_
 _atom_site_type_symbol
 _atom_site_label
 _atom_site_symmetry_multiplicity
 _atom_site_fract_x
 _atom_site_fract_y
 _atom_site_fract_z
 _atom_site_occupancy
  La  La0  1  0.639723  0.638198  0.250000  1
  La  La1  1  0.361875  0.364267  0.750000  1
  La  La2  1  0.201718  0.795038  0.497598  1
  La  La3  1  0.201718  0.795038  0.002402  1
  La  La4  1  0.799212  0.203661  0.497414  1
  La  La5  1  0.799212  0.203661  0.002586  1
  In  In6  1  0.019924  0.025316  0.250000  1
  In  In7  1  0.980066  0.980443  0.750000  1
  In  In8  1  0.310921  0.307834  0.051016  1
  In  In9  1  0.688525  0.690818  0.947849  1
  In  In10  1  0.310921  0.307834  0.448984  1
  In  In11  1  0.688525  0.690818  0.552151  1
  In  In12  1  0.496665  0.076044  0.250000  1
  In  In13  1  0.920939  0.502394  0.750000  1
  In  In14  1  0.501438  0.922536  0.750000  1
  Sn  Sn15  1  0.078617  0.496099  0.250000  1
