# generated using pymatgen
data_Ba3P6(OsRh2)2
_symmetry_space_group_name_H-M   'P 1'
_cell_length_a   8.96013594
_cell_length_b   8.96164110
_cell_length_c   8.96164024
_cell_angle_alpha   154.11751022
_cell_angle_beta   90.23121340
_cell_angle_gamma   95.52559292
_symmetry_Int_Tables_number   1
_chemical_formula_structural   Ba3P6(OsRh2)2
_chemical_formula_sum   'Ba3 P6 Os2 Rh4'
_cell_volume   305.78100663
_cell_formula_units_Z   1
loop_
 _symmetry_equiv_pos_site_id
 _symmetry_equiv_pos_as_xyz
  1  'x, y, z'
loop_
 _atom_site_type_symbol
 _atom_site_label
 _atom_site_symmetry_multiplicity
 _atom_site_fract_x
 _atom_site_fract_y
 _atom_site_fract_z
 _atom_site_occupancy
  Ba  Ba0  1  0.331341  0.332324  0.999018  1
  Ba  Ba1  1  0.667725  0.666740  0.000985  1
  Ba  Ba2  1  0.999945  0.000916  0.999030  1
  P  P3  1  0.320540  0.666587  0.653952  1
  P  P4  1  0.682290  0.334934  0.347356  1
  P  P5  1  0.988135  0.336319  0.651815  1
  P  P6  1  0.346025  0.998535  0.347490  1
  P  P7  1  0.015876  0.666610  0.349267  1
  P  P8  1  0.648616  0.996977  0.651640  1
  Os  Os9  1  0.583267  0.834031  0.749235  1
  Os  Os10  1  0.248691  0.499320  0.749369  1
  Rh  Rh11  1  0.752495  0.502567  0.249928  1
  Rh  Rh12  1  0.080923  0.830788  0.250135  1
  Rh  Rh13  1  0.418122  0.166692  0.251430  1
  Rh  Rh14  1  0.916009  0.166658  0.749352  1
