# generated using pymatgen
data_Tb12OsRu2Rh
_symmetry_space_group_name_H-M   'P 1'
_cell_length_a   6.37483434
_cell_length_b   7.32499791
_cell_length_c   9.25316600
_cell_angle_alpha   90.00000000
_cell_angle_beta   90.00000000
_cell_angle_gamma   90.19353459
_symmetry_Int_Tables_number   1
_chemical_formula_structural   Tb12OsRu2Rh
_chemical_formula_sum   'Tb12 Os1 Ru2 Rh1'
_cell_volume   432.08011919
_cell_formula_units_Z   1
loop_
 _symmetry_equiv_pos_site_id
 _symmetry_equiv_pos_as_xyz
  1  'x, y, z'
loop_
 _atom_site_type_symbol
 _atom_site_label
 _atom_site_symmetry_multiplicity
 _atom_site_fract_x
 _atom_site_fract_y
 _atom_site_fract_z
 _atom_site_occupancy
  Tb  Tb0  1  0.331064  0.676095  0.063516  1
  Tb  Tb1  1  0.171845  0.176792  0.432351  1
  Tb  Tb2  1  0.668704  0.325537  0.563792  1
  Tb  Tb3  1  0.828540  0.821069  0.935796  1
  Tb  Tb4  1  0.668704  0.325537  0.936208  1
  Tb  Tb5  1  0.828540  0.821069  0.564204  1
  Tb  Tb6  1  0.331064  0.676095  0.436484  1
  Tb  Tb7  1  0.171845  0.176792  0.067649  1
  Tb  Tb8  1  0.864768  0.539895  0.250000  1
  Tb  Tb9  1  0.637250  0.039869  0.250000  1
  Tb  Tb10  1  0.132666  0.462822  0.750000  1
  Tb  Tb11  1  0.367674  0.960124  0.750000  1
  Os  Os12  1  0.543404  0.615380  0.750000  1
  Ru  Ru13  1  0.040353  0.883944  0.250000  1
  Ru  Ru14  1  0.459238  0.383096  0.250000  1
  Rh  Rh15  1  0.954341  0.115887  0.750000  1
