# generated using pymatgen
data_DyTm5TcRh
_symmetry_space_group_name_H-M   'P 1'
_cell_length_a   6.23970400
_cell_length_b   7.27662600
_cell_length_c   9.07236700
_cell_angle_alpha   90.00000000
_cell_angle_beta   90.00000000
_cell_angle_gamma   90.00000000
_symmetry_Int_Tables_number   1
_chemical_formula_structural   DyTm5TcRh
_chemical_formula_sum   'Dy2 Tm10 Tc2 Rh2'
_cell_volume   411.92168194
_cell_formula_units_Z   2
loop_
 _symmetry_equiv_pos_site_id
 _symmetry_equiv_pos_as_xyz
  1  'x, y, z'
loop_
 _atom_site_type_symbol
 _atom_site_label
 _atom_site_symmetry_multiplicity
 _atom_site_fract_x
 _atom_site_fract_y
 _atom_site_fract_z
 _atom_site_occupancy
  Dy  Dy0  1  0.135948  0.458538  0.750000  1
  Dy  Dy1  1  0.364052  0.958538  0.750000  1
  Tm  Tm2  1  0.328977  0.677814  0.068175  1
  Tm  Tm3  1  0.171023  0.177814  0.431825  1
  Tm  Tm4  1  0.665343  0.323020  0.558513  1
  Tm  Tm5  1  0.834657  0.823020  0.941487  1
  Tm  Tm6  1  0.665343  0.323020  0.941487  1
  Tm  Tm7  1  0.834657  0.823020  0.558513  1
  Tm  Tm8  1  0.328977  0.677814  0.431825  1
  Tm  Tm9  1  0.171023  0.177814  0.068175  1
  Tm  Tm10  1  0.873323  0.539222  0.250000  1
  Tm  Tm11  1  0.626677  0.039222  0.250000  1
  Tc  Tc12  1  0.033925  0.886560  0.250000  1
  Tc  Tc13  1  0.466075  0.386560  0.250000  1
  Rh  Rh14  1  0.949308  0.114012  0.750000  1
  Rh  Rh15  1  0.550692  0.614012  0.750000  1
