# generated using pymatgen
data_Rb2Zn3(SeO3)4
_symmetry_space_group_name_H-M   'P 1'
_cell_length_a   5.64900220
_cell_length_b   7.38959440
_cell_length_c   8.94139479
_cell_angle_alpha   91.78349979
_cell_angle_beta   108.25218904
_cell_angle_gamma   90.04448981
_symmetry_Int_Tables_number   1
_chemical_formula_structural   Rb2Zn3(SeO3)4
_chemical_formula_sum   'Rb2 Zn3 Se4 O12'
_cell_volume   354.27544352
_cell_formula_units_Z   1
loop_
 _symmetry_equiv_pos_site_id
 _symmetry_equiv_pos_as_xyz
  1  'x, y, z'
loop_
 _atom_site_type_symbol
 _atom_site_label
 _atom_site_symmetry_multiplicity
 _atom_site_fract_x
 _atom_site_fract_y
 _atom_site_fract_z
 _atom_site_occupancy
  Rb  Rb0  1  0.833765  0.387446  0.667434  1
  Rb  Rb1  1  0.166235  0.612554  0.332566  1
  Zn  Zn2  1  0.601887  0.311103  0.204856  1
  Zn  Zn3  1  0.398113  0.688897  0.795144  1
  Zn  Zn4  1  0.000000  0.000000  0.000000  1
  Se  Se5  1  0.435409  0.203214  0.872736  1
  Se  Se6  1  0.195269  0.133202  0.394036  1
  Se  Se7  1  0.804731  0.866798  0.605964  1
  Se  Se8  1  0.564591  0.796786  0.127264  1
  O  O9  1  0.575860  0.727032  0.632519  1
  O  O10  1  0.730467  0.221536  0.013196  1
  O  O11  1  0.941313  0.273892  0.367109  1
  O  O12  1  0.389757  0.407059  0.779771  1
  O  O13  1  0.882765  0.020338  0.763267  1
  O  O14  1  0.610243  0.592941  0.220229  1
  O  O15  1  0.058687  0.726108  0.632891  1
  O  O16  1  0.269533  0.778464  0.986804  1
  O  O17  1  0.719914  0.778329  0.986719  1
  O  O18  1  0.280086  0.221671  0.013281  1
  O  O19  1  0.424140  0.272968  0.367481  1
  O  O20  1  0.117235  0.979662  0.236733  1
