# generated using pymatgen
data_SmErTm3(FeB3)2
_symmetry_space_group_name_H-M   'P 1'
_cell_length_a   5.39516026
_cell_length_b   5.39516060
_cell_length_c   8.25361000
_cell_angle_alpha   70.92312860
_cell_angle_beta   70.92312735
_cell_angle_gamma   60.00001665
_symmetry_Int_Tables_number   1
_chemical_formula_structural   SmErTm3(FeB3)2
_chemical_formula_sum   'Sm1 Er1 Tm3 Fe2 B6'
_cell_volume   192.67186833
_cell_formula_units_Z   1
loop_
 _symmetry_equiv_pos_site_id
 _symmetry_equiv_pos_as_xyz
  1  'x, y, z'
loop_
 _atom_site_type_symbol
 _atom_site_label
 _atom_site_symmetry_multiplicity
 _atom_site_fract_x
 _atom_site_fract_y
 _atom_site_fract_z
 _atom_site_occupancy
  Sm  Sm0  1  0.000126  0.000126  0.999621  1
  Er  Er1  1  0.250164  0.250164  0.249506  1
  Tm  Tm2  1  0.750085  0.750085  0.749746  1
  Tm  Tm3  1  0.417745  0.417745  0.746767  1
  Tm  Tm4  1  0.582211  0.582211  0.253367  1
  Fe  Fe5  1  0.117003  0.117003  0.648988  1
  Fe  Fe6  1  0.883011  0.883011  0.350970  1
  B  B7  1  0.168088  0.831619  0.500173  1
  B  B8  1  0.831619  0.500120  0.500173  1
  B  B9  1  0.500120  0.168088  0.500173  1
  B  B10  1  0.168088  0.500120  0.500173  1
  B  B11  1  0.500120  0.831619  0.500173  1
  B  B12  1  0.831619  0.168088  0.500173  1
