# generated using pymatgen
data_Zn22Pd3Rh
_symmetry_space_group_name_H-M   'P 1'
_cell_length_a   7.94866725
_cell_length_b   7.94866686
_cell_length_c   7.94866665
_cell_angle_alpha   109.49432971
_cell_angle_beta   109.49433627
_cell_angle_gamma   109.49431941
_symmetry_Int_Tables_number   1
_chemical_formula_structural   Zn22Pd3Rh
_chemical_formula_sum   'Zn22 Pd3 Rh1'
_cell_volume   386.26814098
_cell_formula_units_Z   1
loop_
 _symmetry_equiv_pos_site_id
 _symmetry_equiv_pos_as_xyz
  1  'x, y, z'
loop_
 _atom_site_type_symbol
 _atom_site_label
 _atom_site_symmetry_multiplicity
 _atom_site_fract_x
 _atom_site_fract_y
 _atom_site_fract_z
 _atom_site_occupancy
  Zn  Zn0  1  0.997751  0.784198  0.997751  1
  Zn  Zn1  1  0.784198  0.997751  0.997751  1
  Zn  Zn2  1  0.997751  0.997751  0.784198  1
  Zn  Zn3  1  0.216821  0.216821  0.216821  1
  Zn  Zn4  1  0.352918  0.619616  0.352918  1
  Zn  Zn5  1  0.268933  0.000450  0.649040  1
  Zn  Zn6  1  0.649040  0.000450  0.268933  1
  Zn  Zn7  1  0.268933  0.649040  0.000450  1
  Zn  Zn8  1  0.731108  0.731108  0.381419  1
  Zn  Zn9  1  0.381419  0.731108  0.731108  1
  Zn  Zn10  1  0.000450  0.649040  0.268933  1
  Zn  Zn11  1  0.000450  0.268933  0.649040  1
  Zn  Zn12  1  0.649040  0.268933  0.000450  1
  Zn  Zn13  1  0.352918  0.352918  0.619616  1
  Zn  Zn14  1  0.619616  0.352918  0.352918  1
  Zn  Zn15  1  0.731108  0.381419  0.731108  1
  Zn  Zn16  1  0.356761  0.356761  0.997967  1
  Zn  Zn17  1  0.999351  0.642091  0.642091  1
  Zn  Zn18  1  0.997967  0.356761  0.356761  1
  Zn  Zn19  1  0.356761  0.997967  0.356761  1
  Zn  Zn20  1  0.642091  0.999351  0.642091  1
  Zn  Zn21  1  0.642091  0.642091  0.999351  1
  Pd  Pd22  1  0.000442  0.345694  0.000442  1
  Pd  Pd23  1  0.345694  0.000442  0.000442  1
  Pd  Pd24  1  0.000442  0.000442  0.345694  1
  Rh  Rh25  1  0.655945  0.655945  0.655945  1
