# generated using pymatgen
data_NdTm2Pa(TcB6)2
_symmetry_space_group_name_H-M   'P 1'
_cell_length_a   3.71337100
_cell_length_b   9.16248829
_cell_length_c   11.56672008
_cell_angle_alpha   90.27820954
_cell_angle_beta   90.00000000
_cell_angle_gamma   90.00000000
_symmetry_Int_Tables_number   1
_chemical_formula_structural   NdTm2Pa(TcB6)2
_chemical_formula_sum   'Nd2 Tm4 Pa2 Tc4 B24'
_cell_volume   393.53818643
_cell_formula_units_Z   2
loop_
 _symmetry_equiv_pos_site_id
 _symmetry_equiv_pos_as_xyz
  1  'x, y, z'
loop_
 _atom_site_type_symbol
 _atom_site_label
 _atom_site_symmetry_multiplicity
 _atom_site_fract_x
 _atom_site_fract_y
 _atom_site_fract_z
 _atom_site_occupancy
  Nd  Nd0  1  0.000000  0.823490  0.085802  1
  Nd  Nd1  1  0.000000  0.176510  0.914198  1
  Tm  Tm2  1  0.000000  0.944611  0.372921  1
  Tm  Tm3  1  0.000000  0.055389  0.627079  1
  Tm  Tm4  1  0.000000  0.443874  0.128371  1
  Tm  Tm5  1  0.000000  0.556126  0.871629  1
  Pa  Pa6  1  0.000000  0.322043  0.413771  1
  Pa  Pa7  1  0.000000  0.677957  0.586229  1
  Tc  Tc8  1  0.000000  0.634976  0.325389  1
  Tc  Tc9  1  0.000000  0.365024  0.674611  1
  Tc  Tc10  1  0.000000  0.143146  0.185200  1
  Tc  Tc11  1  0.000000  0.856854  0.814800  1
  B  B12  1  0.500000  0.553562  0.433390  1
  B  B13  1  0.500000  0.446438  0.566610  1
  B  B14  1  0.500000  0.055784  0.070438  1
  B  B15  1  0.500000  0.944216  0.929562  1
  B  B16  1  0.500000  0.748755  0.420138  1
  B  B17  1  0.500000  0.251245  0.579862  1
  B  B18  1  0.500000  0.250418  0.083489  1
  B  B19  1  0.500000  0.749582  0.916511  1
  B  B20  1  0.500000  0.790609  0.267941  1
  B  B21  1  0.500000  0.209391  0.732059  1
  B  B22  1  0.500000  0.293175  0.236015  1
  B  B23  1  0.500000  0.706825  0.763985  1
  B  B24  1  0.500000  0.629263  0.186894  1
  B  B25  1  0.500000  0.370737  0.813106  1
  B  B26  1  0.500000  0.132506  0.316386  1
  B  B27  1  0.500000  0.867494  0.683614  1
  B  B28  1  0.500000  0.984353  0.215094  1
  B  B29  1  0.500000  0.015647  0.784906  1
  B  B30  1  0.500000  0.482607  0.287951  1
  B  B31  1  0.500000  0.517393  0.712049  1
  B  B32  1  0.500000  0.599325  0.027698  1
  B  B33  1  0.500000  0.400675  0.972302  1
  B  B34  1  0.500000  0.108601  0.470473  1
  B  B35  1  0.500000  0.891399  0.529527  1
