# generated using pymatgen
data_K4Hf6GeI18
_symmetry_space_group_name_H-M   'P 1'
_cell_length_a   11.26145487
_cell_length_b   11.39597684
_cell_length_c   11.51151225
_cell_angle_alpha   118.51339913
_cell_angle_beta   100.16587122
_cell_angle_gamma   103.77773167
_symmetry_Int_Tables_number   1
_chemical_formula_structural   K4Hf6GeI18
_chemical_formula_sum   'K4 Hf6 Ge1 I18'
_cell_volume   1185.66651517
_cell_formula_units_Z   1
loop_
 _symmetry_equiv_pos_site_id
 _symmetry_equiv_pos_as_xyz
  1  'x, y, z'
loop_
 _atom_site_type_symbol
 _atom_site_label
 _atom_site_symmetry_multiplicity
 _atom_site_fract_x
 _atom_site_fract_y
 _atom_site_fract_z
 _atom_site_occupancy
  K  K0  1  0.650028  0.537731  0.226238  1
  K  K1  1  0.349972  0.462269  0.773762  1
  K  K2  1  0.683726  0.224126  0.563451  1
  K  K3  1  0.316274  0.775874  0.436549  1
  Hf  Hf4  1  0.149740  0.055529  0.229663  1
  Hf  Hf5  1  0.850260  0.944471  0.770337  1
  Hf  Hf6  1  0.862723  0.126786  0.132985  1
  Hf  Hf7  1  0.137277  0.873214  0.867015  1
  Hf  Hf8  1  0.145050  0.238484  0.045107  1
  Hf  Hf9  1  0.854950  0.761516  0.954893  1
  Ge  Ge10  1  0.000000  0.000000  0.000000  1
  I  I11  1  0.007881  0.410900  0.197727  1
  I  I12  1  0.992119  0.589100  0.802273  1
  I  I13  1  0.329193  0.333386  0.311754  1
  I  I14  1  0.670807  0.666614  0.688246  1
  I  I15  1  0.321318  0.521773  0.099737  1
  I  I16  1  0.678682  0.478227  0.900263  1
  I  I17  1  0.004274  0.795134  0.209530  1
  I  I18  1  0.995726  0.204866  0.790470  1
  I  I19  1  0.702596  0.276934  0.289301  1
  I  I20  1  0.297404  0.723066  0.710699  1
  I  I21  1  0.317022  0.126729  0.902278  1
  I  I22  1  0.682978  0.873271  0.097722  1
  I  I23  1  0.014692  0.205110  0.409111  1
  I  I24  1  0.985308  0.794890  0.590889  1
  I  I25  1  0.321475  0.921935  0.109520  1
  I  I26  1  0.678525  0.078065  0.890480  1
  I  I27  1  0.332442  0.120819  0.502004  1
  I  I28  1  0.667558  0.879181  0.497996  1
