# generated using pymatgen
data_Yb3(PPd)4
_symmetry_space_group_name_H-M   'P 1'
_cell_length_a   4.00988400
_cell_length_b   4.14816700
_cell_length_c   12.03814400
_cell_angle_alpha   90.00000000
_cell_angle_beta   90.00000000
_cell_angle_gamma   90.00000000
_symmetry_Int_Tables_number   1
_chemical_formula_structural   Yb3(PPd)4
_chemical_formula_sum   'Yb3 P4 Pd4'
_cell_volume   200.23849644
_cell_formula_units_Z   1
loop_
 _symmetry_equiv_pos_site_id
 _symmetry_equiv_pos_as_xyz
  1  'x, y, z'
loop_
 _atom_site_type_symbol
 _atom_site_label
 _atom_site_symmetry_multiplicity
 _atom_site_fract_x
 _atom_site_fract_y
 _atom_site_fract_z
 _atom_site_occupancy
  Yb  Yb0  1  0.500000  0.500000  0.296663  1
  Yb  Yb1  1  0.500000  0.500000  0.703337  1
  Yb  Yb2  1  0.500000  0.000000  0.000000  1
  P  P3  1  0.000000  0.000000  0.381160  1
  P  P4  1  0.000000  0.500000  0.093322  1
  P  P5  1  0.000000  0.000000  0.618840  1
  P  P6  1  0.000000  0.500000  0.906678  1
  Pd  Pd7  1  0.000000  0.000000  0.814147  1
  Pd  Pd8  1  0.000000  0.000000  0.185853  1
  Pd  Pd9  1  0.500000  0.000000  0.500000  1
  Pd  Pd10  1  0.000000  0.500000  0.500000  1
