# generated using pymatgen
data_Tb4VCo17(ReP6)2
_symmetry_space_group_name_H-M   'P 1'
_cell_length_a   3.69284700
_cell_length_b   10.35751525
_cell_length_c   11.79581890
_cell_angle_alpha   89.99477650
_cell_angle_beta   90.00000000
_cell_angle_gamma   90.00000000
_symmetry_Int_Tables_number   1
_chemical_formula_structural   Tb4VCo17(ReP6)2
_chemical_formula_sum   'Tb4 V1 Co17 Re2 P12'
_cell_volume   451.17496194
_cell_formula_units_Z   1
loop_
 _symmetry_equiv_pos_site_id
 _symmetry_equiv_pos_as_xyz
  1  'x, y, z'
loop_
 _atom_site_type_symbol
 _atom_site_label
 _atom_site_symmetry_multiplicity
 _atom_site_fract_x
 _atom_site_fract_y
 _atom_site_fract_z
 _atom_site_occupancy
  Tb  Tb0  1  0.250000  0.581210  0.702005  1
  Tb  Tb1  1  0.250000  0.918153  0.203595  1
  Tb  Tb2  1  0.750000  0.414147  0.296738  1
  Tb  Tb3  1  0.750000  0.084049  0.794373  1
  V  V4  1  0.750000  0.293357  0.012280  1
  Co  Co5  1  0.750000  0.214751  0.510853  1
  Co  Co6  1  0.250000  0.405448  0.488656  1
  Co  Co7  1  0.250000  0.094812  0.988477  1
  Co  Co8  1  0.750000  0.593320  0.509472  1
  Co  Co9  1  0.750000  0.905461  0.010315  1
  Co  Co10  1  0.250000  0.219671  0.177733  1
  Co  Co11  1  0.250000  0.278769  0.676573  1
  Co  Co12  1  0.750000  0.777390  0.822634  1
  Co  Co13  1  0.750000  0.721720  0.322469  1
  Co  Co14  1  0.250000  0.886435  0.701192  1
  Co  Co15  1  0.250000  0.612465  0.200242  1
  Co  Co16  1  0.750000  0.115813  0.303040  1
  Co  Co17  1  0.750000  0.385314  0.800627  1
  Co  Co18  1  0.250000  0.466420  0.934139  1
  Co  Co19  1  0.250000  0.034262  0.433218  1
  Co  Co20  1  0.750000  0.534538  0.066504  1
  Co  Co21  1  0.750000  0.966562  0.568113  1
  Re  Re22  1  0.250000  0.708052  0.988772  1
  Re  Re23  1  0.250000  0.789810  0.489100  1
  P  P24  1  0.250000  0.416138  0.114441  1
  P  P25  1  0.250000  0.083156  0.611978  1
  P  P26  1  0.750000  0.578822  0.884832  1
  P  P27  1  0.750000  0.920838  0.386703  1
  P  P28  1  0.250000  0.270110  0.866530  1
  P  P29  1  0.250000  0.228668  0.369441  1
  P  P30  1  0.750000  0.730846  0.133640  1
  P  P31  1  0.750000  0.770803  0.632886  1
  P  P32  1  0.250000  0.595238  0.391107  1
  P  P33  1  0.250000  0.904113  0.891386  1
  P  P34  1  0.750000  0.398018  0.606972  1
  P  P35  1  0.750000  0.101317  0.108966  1
