# generated using pymatgen
data_Y3HoFe2(CoI)2
_symmetry_space_group_name_H-M   'P 1'
_cell_length_a   3.95544200
_cell_length_b   3.95544128
_cell_length_c   17.04092600
_cell_angle_alpha   90.00000000
_cell_angle_beta   90.00000000
_cell_angle_gamma   119.99998930
_symmetry_Int_Tables_number   1
_chemical_formula_structural   Y3HoFe2(CoI)2
_chemical_formula_sum   'Y3 Ho1 Fe2 Co2 I2'
_cell_volume   230.89462934
_cell_formula_units_Z   1
loop_
 _symmetry_equiv_pos_site_id
 _symmetry_equiv_pos_as_xyz
  1  'x, y, z'
loop_
 _atom_site_type_symbol
 _atom_site_label
 _atom_site_symmetry_multiplicity
 _atom_site_fract_x
 _atom_site_fract_y
 _atom_site_fract_z
 _atom_site_occupancy
  Y  Y0  1  0.000000  0.000000  0.103625  1
  Y  Y1  1  0.000000  0.000000  0.896508  1
  Y  Y2  1  0.000000  0.000000  0.604862  1
  Ho  Ho3  1  0.000000  0.000000  0.396296  1
  Fe  Fe4  1  0.333333  0.666667  0.504597  1
  Fe  Fe5  1  0.666667  0.333333  0.494011  1
  Co  Co6  1  0.666667  0.333333  0.001909  1
  Co  Co7  1  0.333333  0.666667  0.998080  1
  I  I8  1  0.333333  0.666667  0.247731  1
  I  I9  1  0.666667  0.333333  0.752381  1
