# generated using pymatgen
data_Ti2GaPdRh4
_symmetry_space_group_name_H-M   'P 1'
_cell_length_a   4.04103100
_cell_length_b   5.41038529
_cell_length_c   10.63736016
_cell_angle_alpha   91.07987461
_cell_angle_beta   90.00000000
_cell_angle_gamma   90.00000000
_symmetry_Int_Tables_number   1
_chemical_formula_structural   Ti2GaPdRh4
_chemical_formula_sum   'Ti4 Ga2 Pd2 Rh8'
_cell_volume   232.52898662
_cell_formula_units_Z   2
loop_
 _symmetry_equiv_pos_site_id
 _symmetry_equiv_pos_as_xyz
  1  'x, y, z'
loop_
 _atom_site_type_symbol
 _atom_site_label
 _atom_site_symmetry_multiplicity
 _atom_site_fract_x
 _atom_site_fract_y
 _atom_site_fract_z
 _atom_site_occupancy
  Ti  Ti0  1  0.500000  0.332199  0.138471  1
  Ti  Ti1  1  0.500000  0.667801  0.861529  1
  Ti  Ti2  1  0.500000  0.813531  0.364545  1
  Ti  Ti3  1  0.500000  0.186469  0.635455  1
  Ga  Ga4  1  0.000000  0.000000  0.000000  1
  Ga  Ga5  1  0.000000  0.500000  0.500000  1
  Pd  Pd6  1  0.000000  0.070417  0.243927  1
  Pd  Pd7  1  0.000000  0.929583  0.756073  1
  Rh  Rh8  1  0.000000  0.000000  0.500000  1
  Rh  Rh9  1  0.000000  0.500000  0.000000  1
  Rh  Rh10  1  0.000000  0.572315  0.256174  1
  Rh  Rh11  1  0.000000  0.427685  0.743826  1
  Rh  Rh12  1  0.500000  0.302989  0.387208  1
  Rh  Rh13  1  0.500000  0.697011  0.612792  1
  Rh  Rh14  1  0.500000  0.805640  0.109965  1
  Rh  Rh15  1  0.500000  0.194360  0.890035  1
