# generated using pymatgen
data_Sr2YbPtO6
_symmetry_space_group_name_H-M   'P 1'
_cell_length_a   5.80056920
_cell_length_b   5.80056857
_cell_length_c   5.80056888
_cell_angle_alpha   61.06058357
_cell_angle_beta   61.06058804
_cell_angle_gamma   61.06057792
_symmetry_Int_Tables_number   1
_chemical_formula_structural   Sr2YbPtO6
_chemical_formula_sum   'Sr2 Yb1 Pt1 O6'
_cell_volume   141.30114963
_cell_formula_units_Z   1
loop_
 _symmetry_equiv_pos_site_id
 _symmetry_equiv_pos_as_xyz
  1  'x, y, z'
loop_
 _atom_site_type_symbol
 _atom_site_label
 _atom_site_symmetry_multiplicity
 _atom_site_fract_x
 _atom_site_fract_y
 _atom_site_fract_z
 _atom_site_occupancy
  Sr  Sr0  1  0.253793  0.253793  0.253793  1
  Sr  Sr1  1  0.746207  0.746207  0.746207  1
  Yb  Yb2  1  0.000000  0.000000  0.000000  1
  Pt  Pt3  1  0.500000  0.500000  0.500000  1
  O  O4  1  0.726635  0.334237  0.198085  1
  O  O5  1  0.665763  0.801915  0.273365  1
  O  O6  1  0.198085  0.726634  0.334237  1
  O  O7  1  0.801915  0.273366  0.665763  1
  O  O8  1  0.334237  0.198085  0.726635  1
  O  O9  1  0.273365  0.665763  0.801916  1
