# generated using pymatgen
data_Tb2Y2HfIr3
_symmetry_space_group_name_H-M   'P 1'
_cell_length_a   10.88664600
_cell_length_b   10.88664600
_cell_length_c   6.27118300
_cell_angle_alpha   90.00000000
_cell_angle_beta   90.00000000
_cell_angle_gamma   90.00000000
_symmetry_Int_Tables_number   1
_chemical_formula_structural   Tb2Y2HfIr3
_chemical_formula_sum   'Tb8 Y8 Hf4 Ir12'
_cell_volume   743.25472133
_cell_formula_units_Z   4
loop_
 _symmetry_equiv_pos_site_id
 _symmetry_equiv_pos_as_xyz
  1  'x, y, z'
loop_
 _atom_site_type_symbol
 _atom_site_label
 _atom_site_symmetry_multiplicity
 _atom_site_fract_x
 _atom_site_fract_y
 _atom_site_fract_z
 _atom_site_occupancy
  Tb  Tb0  1  0.289002  0.085683  0.375343  1
  Tb  Tb1  1  0.289002  0.914317  0.875343  1
  Tb  Tb2  1  0.710998  0.085683  0.875343  1
  Tb  Tb3  1  0.710998  0.914317  0.375343  1
  Tb  Tb4  1  0.585683  0.789002  0.875343  1
  Tb  Tb5  1  0.585683  0.210998  0.375343  1
  Tb  Tb6  1  0.414317  0.789002  0.375343  1
  Tb  Tb7  1  0.414317  0.210998  0.875343  1
  Y  Y8  1  0.211100  0.414559  0.624747  1
  Y  Y9  1  0.211100  0.585441  0.124747  1
  Y  Y10  1  0.788900  0.414559  0.124747  1
  Y  Y11  1  0.788900  0.585441  0.624747  1
  Y  Y12  1  0.914559  0.711100  0.124747  1
  Y  Y13  1  0.914559  0.288900  0.624747  1
  Y  Y14  1  0.085441  0.711100  0.624747  1
  Y  Y15  1  0.085441  0.288900  0.124747  1
  Hf  Hf16  1  0.000000  0.000000  0.500425  1
  Hf  Hf17  1  0.000000  0.000000  0.000425  1
  Hf  Hf18  1  0.500000  0.500000  0.000425  1
  Hf  Hf19  1  0.500000  0.500000  0.500425  1
  Ir  Ir20  1  0.857911  0.141702  0.249671  1
  Ir  Ir21  1  0.857911  0.858298  0.749671  1
  Ir  Ir22  1  0.142089  0.141702  0.749671  1
  Ir  Ir23  1  0.142089  0.858298  0.249671  1
  Ir  Ir24  1  0.641702  0.357911  0.749671  1
  Ir  Ir25  1  0.641702  0.642089  0.249671  1
  Ir  Ir26  1  0.358298  0.357911  0.249671  1
  Ir  Ir27  1  0.358298  0.642089  0.749671  1
  Ir  Ir28  1  0.500000  0.000000  0.122297  1
  Ir  Ir29  1  0.500000  0.000000  0.622297  1
  Ir  Ir30  1  0.000000  0.500000  0.877810  1
  Ir  Ir31  1  0.000000  0.500000  0.377810  1
