# generated using pymatgen
data_ZnNi5Ir2
_symmetry_space_group_name_H-M   'P 1'
_cell_length_a   5.21113809
_cell_length_b   5.13903054
_cell_length_c   5.13902850
_cell_angle_alpha   60.18126965
_cell_angle_beta   59.53475525
_cell_angle_gamma   59.53474397
_symmetry_Int_Tables_number   1
_chemical_formula_structural   ZnNi5Ir2
_chemical_formula_sum   'Zn1 Ni5 Ir2'
_cell_volume   96.75480510
_cell_formula_units_Z   1
loop_
 _symmetry_equiv_pos_site_id
 _symmetry_equiv_pos_as_xyz
  1  'x, y, z'
loop_
 _atom_site_type_symbol
 _atom_site_label
 _atom_site_symmetry_multiplicity
 _atom_site_fract_x
 _atom_site_fract_y
 _atom_site_fract_z
 _atom_site_occupancy
  Zn  Zn0  1  0.000000  0.000000  0.000000  1
  Ni  Ni1  1  0.500000  0.000000  0.000000  1
  Ni  Ni2  1  0.000000  0.500000  0.000000  1
  Ni  Ni3  1  0.500000  0.500000  0.000000  1
  Ni  Ni4  1  0.000000  0.000000  0.500000  1
  Ni  Ni5  1  0.500000  0.000000  0.500000  1
  Ir  Ir6  1  0.000000  0.500000  0.500000  1
  Ir  Ir7  1  0.500000  0.500000  0.500000  1
