# generated using pymatgen
data_Ca3Yb3Lu2(Si3Pd)4
_symmetry_space_group_name_H-M   'P 1'
_cell_length_a   8.25451902
_cell_length_b   8.24036471
_cell_length_c   8.07359100
_cell_angle_alpha   90.00000000
_cell_angle_beta   90.00000000
_cell_angle_gamma   120.16056363
_symmetry_Int_Tables_number   1
_chemical_formula_structural   Ca3Yb3Lu2(Si3Pd)4
_chemical_formula_sum   'Ca3 Yb3 Lu2 Si12 Pd4'
_cell_volume   474.82179061
_cell_formula_units_Z   1
loop_
 _symmetry_equiv_pos_site_id
 _symmetry_equiv_pos_as_xyz
  1  'x, y, z'
loop_
 _atom_site_type_symbol
 _atom_site_label
 _atom_site_symmetry_multiplicity
 _atom_site_fract_x
 _atom_site_fract_y
 _atom_site_fract_z
 _atom_site_occupancy
  Ca  Ca0  1  0.001686  0.500796  0.750000  1
  Ca  Ca1  1  0.500903  0.499113  0.250000  1
  Ca  Ca2  1  0.499079  0.500799  0.750000  1
  Yb  Yb3  1  0.500928  0.001786  0.250000  1
  Yb  Yb4  1  0.499222  0.998442  0.750000  1
  Yb  Yb5  1  0.998120  0.499050  0.250000  1
  Lu  Lu6  1  0.999964  0.000025  0.250000  1
  Lu  Lu7  1  0.999973  0.999963  0.750000  1
  Si  Si8  1  0.163827  0.327602  0.002103  1
  Si  Si9  1  0.836199  0.672410  0.999719  1
  Si  Si10  1  0.673331  0.836463  0.000953  1
  Si  Si11  1  0.836199  0.672410  0.500281  1
  Si  Si12  1  0.326650  0.163518  0.998567  1
  Si  Si13  1  0.163827  0.327602  0.497897  1
  Si  Si14  1  0.162912  0.836749  0.002211  1
  Si  Si15  1  0.326650  0.163518  0.501433  1
  Si  Si16  1  0.837112  0.163258  0.999482  1
  Si  Si17  1  0.673331  0.836463  0.499047  1
  Si  Si18  1  0.837112  0.163258  0.500518  1
  Si  Si19  1  0.162912  0.836749  0.497789  1
  Pd  Pd20  1  0.333396  0.668884  0.004508  1
  Pd  Pd21  1  0.666638  0.331130  0.000946  1
  Pd  Pd22  1  0.666638  0.331130  0.499054  1
  Pd  Pd23  1  0.333396  0.668884  0.495492  1
