# generated using pymatgen
data_Pa8TaTi8Nb3Si16
_symmetry_space_group_name_H-M   'P 1'
_cell_length_a   6.91301102
_cell_length_b   7.00221414
_cell_length_c   13.35453200
_cell_angle_alpha   90.00000000
_cell_angle_beta   90.00000000
_cell_angle_gamma   90.01539376
_symmetry_Int_Tables_number   1
_chemical_formula_structural   Pa8TaTi8Nb3Si16
_chemical_formula_sum   'Pa8 Ta1 Ti8 Nb3 Si16'
_cell_volume   646.44457381
_cell_formula_units_Z   1
loop_
 _symmetry_equiv_pos_site_id
 _symmetry_equiv_pos_as_xyz
  1  'x, y, z'
loop_
 _atom_site_type_symbol
 _atom_site_label
 _atom_site_symmetry_multiplicity
 _atom_site_fract_x
 _atom_site_fract_y
 _atom_site_fract_z
 _atom_site_occupancy
  Pa  Pa0  1  0.002961  0.167126  0.094539  1
  Pa  Pa1  1  0.502375  0.333125  0.405443  1
  Pa  Pa2  1  0.497612  0.667249  0.905651  1
  Pa  Pa3  1  0.997264  0.833060  0.594455  1
  Pa  Pa4  1  0.997264  0.833060  0.905545  1
  Pa  Pa5  1  0.497612  0.667249  0.594349  1
  Pa  Pa6  1  0.502375  0.333125  0.094557  1
  Pa  Pa7  1  0.002961  0.167126  0.405461  1
  Ta  Ta8  1  0.670544  0.002121  0.250000  1
  Ti  Ti9  1  0.840361  0.671698  0.124333  1
  Ti  Ti10  1  0.340539  0.828030  0.375687  1
  Ti  Ti11  1  0.659464  0.172018  0.876031  1
  Ti  Ti12  1  0.159372  0.327986  0.624155  1
  Ti  Ti13  1  0.159372  0.327986  0.875845  1
  Ti  Ti14  1  0.659464  0.172018  0.623969  1
  Ti  Ti15  1  0.340539  0.828030  0.124313  1
  Ti  Ti16  1  0.840361  0.671698  0.375667  1
  Nb  Nb17  1  0.170062  0.497229  0.250000  1
  Nb  Nb18  1  0.829509  0.502834  0.750000  1
  Nb  Nb19  1  0.329427  0.997248  0.750000  1
  Si  Si20  1  0.801348  0.376226  0.250000  1
  Si  Si21  1  0.302671  0.121972  0.250000  1
  Si  Si22  1  0.698254  0.877937  0.750000  1
  Si  Si23  1  0.198498  0.622324  0.750000  1
  Si  Si24  1  0.045080  0.870035  0.250000  1
  Si  Si25  1  0.545850  0.630640  0.250000  1
  Si  Si26  1  0.454352  0.369656  0.750000  1
  Si  Si27  1  0.954181  0.130413  0.750000  1
  Si  Si28  1  0.835780  0.456872  0.958610  1
  Si  Si29  1  0.335707  0.043087  0.541314  1
  Si  Si30  1  0.664501  0.957022  0.042262  1
  Si  Si31  1  0.164176  0.543409  0.458579  1
  Si  Si32  1  0.164176  0.543409  0.041421  1
  Si  Si33  1  0.664501  0.957022  0.457738  1
  Si  Si34  1  0.335707  0.043087  0.958686  1
  Si  Si35  1  0.835780  0.456872  0.541390  1
