# generated using pymatgen
data_YMnSbO6
_symmetry_space_group_name_H-M   'P 1'
_cell_length_a   5.14650486
_cell_length_b   5.14647134
_cell_length_c   4.93219784
_cell_angle_alpha   90.04705815
_cell_angle_beta   90.04672639
_cell_angle_gamma   119.95097481
_symmetry_Int_Tables_number   1
_chemical_formula_structural   YMnSbO6
_chemical_formula_sum   'Y1 Mn1 Sb1 O6'
_cell_volume   113.18967687
_cell_formula_units_Z   1
loop_
 _symmetry_equiv_pos_site_id
 _symmetry_equiv_pos_as_xyz
  1  'x, y, z'
loop_
 _atom_site_type_symbol
 _atom_site_label
 _atom_site_symmetry_multiplicity
 _atom_site_fract_x
 _atom_site_fract_y
 _atom_site_fract_z
 _atom_site_occupancy
  Y  Y0  1  0.517475  0.482529  0.500003  1
  Mn  Mn1  1  0.850654  0.149355  0.000010  1
  Sb  Sb2  1  0.184310  0.815684  0.000005  1
  O  O3  1  0.150142  0.125487  0.219973  1
  O  O4  1  0.527942  0.851161  0.220756  1
  O  O5  1  0.875786  0.472953  0.220660  1
  O  O6  1  0.527049  0.124217  0.779341  1
  O  O7  1  0.148841  0.472063  0.779251  1
  O  O8  1  0.874517  0.849860  0.780030  1
