# generated using pymatgen
data_Dy2Er10Ga2Co3Ni
_symmetry_space_group_name_H-M   'P 1'
_cell_length_a   8.21803483
_cell_length_b   8.20322757
_cell_length_c   8.20322827
_cell_angle_alpha   112.40213053
_cell_angle_beta   109.33996403
_cell_angle_gamma   106.65496119
_symmetry_Int_Tables_number   1
_chemical_formula_structural   Dy2Er10Ga2Co3Ni
_chemical_formula_sum   'Dy2 Er10 Ga2 Co3 Ni1'
_cell_volume   424.99315670
_cell_formula_units_Z   1
loop_
 _symmetry_equiv_pos_site_id
 _symmetry_equiv_pos_as_xyz
  1  'x, y, z'
loop_
 _atom_site_type_symbol
 _atom_site_label
 _atom_site_symmetry_multiplicity
 _atom_site_fract_x
 _atom_site_fract_y
 _atom_site_fract_z
 _atom_site_occupancy
  Dy  Dy0  1  0.435835  0.238868  0.196967  1
  Dy  Dy1  1  0.564847  0.762186  0.802660  1
  Er  Er2  1  0.041615  0.238873  0.802742  1
  Er  Er3  1  0.959833  0.762155  0.197678  1
  Er  Er4  1  0.181741  0.280759  0.459953  1
  Er  Er5  1  0.821679  0.722687  0.540058  1
  Er  Er6  1  0.181741  0.721786  0.900982  1
  Er  Er7  1  0.821679  0.281623  0.098993  1
  Er  Er8  1  0.325273  0.638223  0.311788  1
  Er  Er9  1  0.669686  0.358534  0.690003  1
  Er  Er10  1  0.325273  0.013486  0.687052  1
  Er  Er11  1  0.669686  0.979684  0.311153  1
  Ga  Ga12  1  0.500764  0.500822  0.999943  1
  Ga  Ga13  1  0.000685  0.000659  0.000026  1
  Co  Co14  1  0.339079  0.001032  0.338047  1
  Co  Co15  1  0.663854  0.001894  0.661960  1
  Co  Co16  1  0.114811  0.615552  0.499258  1
  Ni  Ni17  1  0.881913  0.381178  0.500735  1
