# generated using pymatgen
data_La4SmB4Pd7Rh8
_symmetry_space_group_name_H-M   'P 1'
_cell_length_a   4.28520500
_cell_length_b   4.28520500
_cell_length_c   21.38957500
_cell_angle_alpha   90.00000000
_cell_angle_beta   90.00000000
_cell_angle_gamma   90.00000000
_symmetry_Int_Tables_number   1
_chemical_formula_structural   La4SmB4Pd7Rh8
_chemical_formula_sum   'La4 Sm1 B4 Pd7 Rh8'
_cell_volume   392.77637840
_cell_formula_units_Z   1
loop_
 _symmetry_equiv_pos_site_id
 _symmetry_equiv_pos_as_xyz
  1  'x, y, z'
loop_
 _atom_site_type_symbol
 _atom_site_label
 _atom_site_symmetry_multiplicity
 _atom_site_fract_x
 _atom_site_fract_y
 _atom_site_fract_z
 _atom_site_occupancy
  La  La0  1  0.000000  0.000000  0.899524  1
  La  La1  1  0.000000  0.000000  0.100476  1
  La  La2  1  0.000000  0.000000  0.301325  1
  La  La3  1  0.000000  0.000000  0.698675  1
  Sm  Sm4  1  0.000000  0.000000  0.500000  1
  B  B5  1  0.500000  0.500000  0.188789  1
  B  B6  1  0.500000  0.500000  0.397558  1
  B  B7  1  0.500000  0.500000  0.602442  1
  B  B8  1  0.500000  0.500000  0.811211  1
  Pd  Pd9  1  0.500000  0.500000  0.909800  1
  Pd  Pd10  1  0.500000  0.500000  0.090200  1
  Pd  Pd11  1  0.500000  0.500000  0.296640  1
  Pd  Pd12  1  0.500000  0.500000  0.500000  1
  Pd  Pd13  1  0.500000  0.500000  0.703360  1
  Pd  Pd14  1  0.500000  0.000000  0.000000  1
  Pd  Pd15  1  0.000000  0.500000  0.000000  1
  Rh  Rh16  1  0.500000  0.000000  0.201047  1
  Rh  Rh17  1  0.500000  0.000000  0.402143  1
  Rh  Rh18  1  0.500000  0.000000  0.597857  1
  Rh  Rh19  1  0.500000  0.000000  0.798953  1
  Rh  Rh20  1  0.000000  0.500000  0.201047  1
  Rh  Rh21  1  0.000000  0.500000  0.402143  1
  Rh  Rh22  1  0.000000  0.500000  0.597857  1
  Rh  Rh23  1  0.000000  0.500000  0.798953  1
