# generated using pymatgen
data_TmLu4In4HgPt
_symmetry_space_group_name_H-M   'P 1'
_cell_length_a   3.61538600
_cell_length_b   8.13754068
_cell_length_c   18.20987550
_cell_angle_alpha   89.70611577
_cell_angle_beta   90.00000000
_cell_angle_gamma   90.00000000
_symmetry_Int_Tables_number   1
_chemical_formula_structural   TmLu4In4HgPt
_chemical_formula_sum   'Tm2 Lu8 In8 Hg2 Pt2'
_cell_volume   535.73387546
_cell_formula_units_Z   2
loop_
 _symmetry_equiv_pos_site_id
 _symmetry_equiv_pos_as_xyz
  1  'x, y, z'
loop_
 _atom_site_type_symbol
 _atom_site_label
 _atom_site_symmetry_multiplicity
 _atom_site_fract_x
 _atom_site_fract_y
 _atom_site_fract_z
 _atom_site_occupancy
  Tm  Tm0  1  0.000000  0.000000  0.000000  1
  Tm  Tm1  1  0.000000  0.500000  0.500000  1
  Lu  Lu2  1  0.000000  0.122747  0.423777  1
  Lu  Lu3  1  0.000000  0.877253  0.576223  1
  Lu  Lu4  1  0.000000  0.383985  0.916807  1
  Lu  Lu5  1  0.000000  0.616015  0.083193  1
  Lu  Lu6  1  0.000000  0.262681  0.213423  1
  Lu  Lu7  1  0.000000  0.737319  0.786577  1
  Lu  Lu8  1  0.000000  0.287028  0.722614  1
  Lu  Lu9  1  0.000000  0.712972  0.277386  1
  In  In10  1  0.500000  0.417900  0.353600  1
  In  In11  1  0.500000  0.582100  0.646400  1
  In  In12  1  0.500000  0.081126  0.854662  1
  In  In13  1  0.500000  0.918874  0.145338  1
  In  In14  1  0.500000  0.292849  0.063110  1
  In  In15  1  0.500000  0.707151  0.936890  1
  In  In16  1  0.500000  0.211729  0.568531  1
  In  In17  1  0.500000  0.788271  0.431469  1
  Hg  Hg18  1  0.500000  0.024964  0.300951  1
  Hg  Hg19  1  0.500000  0.975036  0.699049  1
  Pt  Pt20  1  0.500000  0.473373  0.805817  1
  Pt  Pt21  1  0.500000  0.526627  0.194183  1
