# generated using pymatgen
data_Ho3Sn3Ir2Pd
_symmetry_space_group_name_H-M   'P 1'
_cell_length_a   7.57939700
_cell_length_b   7.57939595
_cell_length_c   3.88498600
_cell_angle_alpha   90.00000000
_cell_angle_beta   90.00000000
_cell_angle_gamma   119.99999149
_symmetry_Int_Tables_number   1
_chemical_formula_structural   Ho3Sn3Ir2Pd
_chemical_formula_sum   'Ho3 Sn3 Ir2 Pd1'
_cell_volume   193.28109520
_cell_formula_units_Z   1
loop_
 _symmetry_equiv_pos_site_id
 _symmetry_equiv_pos_as_xyz
  1  'x, y, z'
loop_
 _atom_site_type_symbol
 _atom_site_label
 _atom_site_symmetry_multiplicity
 _atom_site_fract_x
 _atom_site_fract_y
 _atom_site_fract_z
 _atom_site_occupancy
  Ho  Ho0  1  0.396540  0.408406  0.500000  1
  Ho  Ho1  1  0.591594  0.988134  0.500000  1
  Ho  Ho2  1  0.011866  0.603460  0.500000  1
  Sn  Sn3  1  0.739622  0.738026  0.000000  1
  Sn  Sn4  1  0.261974  0.001596  0.000000  1
  Sn  Sn5  1  0.998404  0.260378  0.000000  1
  Ir  Ir6  1  0.333333  0.666667  0.000000  1
  Ir  Ir7  1  0.000000  0.000000  0.500000  1
  Pd  Pd8  1  0.666667  0.333333  0.000000  1
