# generated using pymatgen
data_Sr4Tb3Dy(BO4)4
_symmetry_space_group_name_H-M   'P 1'
_cell_length_a   3.69201500
_cell_length_b   9.76684947
_cell_length_c   11.00039853
_cell_angle_alpha   89.96436100
_cell_angle_beta   90.00000000
_cell_angle_gamma   90.00000000
_symmetry_Int_Tables_number   1
_chemical_formula_structural   Sr4Tb3Dy(BO4)4
_chemical_formula_sum   'Sr4 Tb3 Dy1 B4 O16'
_cell_volume   396.66719637
_cell_formula_units_Z   1
loop_
 _symmetry_equiv_pos_site_id
 _symmetry_equiv_pos_as_xyz
  1  'x, y, z'
loop_
 _atom_site_type_symbol
 _atom_site_label
 _atom_site_symmetry_multiplicity
 _atom_site_fract_x
 _atom_site_fract_y
 _atom_site_fract_z
 _atom_site_occupancy
  Sr  Sr0  1  0.250000  0.659653  0.083399  1
  Sr  Sr1  1  0.750000  0.340382  0.916428  1
  Sr  Sr2  1  0.750000  0.159788  0.416709  1
  Sr  Sr3  1  0.250000  0.840281  0.583461  1
  Tb  Tb4  1  0.250000  0.081955  0.110974  1
  Tb  Tb5  1  0.750000  0.918038  0.888988  1
  Tb  Tb6  1  0.750000  0.581811  0.389236  1
  Dy  Dy7  1  0.250000  0.418267  0.610720  1
  B  B8  1  0.250000  0.363379  0.204381  1
  B  B9  1  0.750000  0.636414  0.795437  1
  B  B10  1  0.750000  0.863384  0.295587  1
  B  B11  1  0.250000  0.136800  0.704293  1
  O  O12  1  0.250000  0.489969  0.261991  1
  O  O13  1  0.750000  0.509874  0.737742  1
  O  O14  1  0.750000  0.989995  0.238037  1
  O  O15  1  0.250000  0.010196  0.761974  1
  O  O16  1  0.250000  0.241570  0.270854  1
  O  O17  1  0.750000  0.758406  0.729168  1
  O  O18  1  0.750000  0.741549  0.229202  1
  O  O19  1  0.250000  0.258956  0.770315  1
  O  O20  1  0.250000  0.356441  0.077124  1
  O  O21  1  0.750000  0.643473  0.922763  1
  O  O22  1  0.750000  0.856338  0.422870  1
  O  O23  1  0.250000  0.143610  0.577044  1
  O  O24  1  0.250000  0.612396  0.500673  1
  O  O25  1  0.750000  0.387046  0.500622  1
  O  O26  1  0.750000  0.113050  0.999724  1
  O  O27  1  0.250000  0.886979  0.000287  1
