# generated using pymatgen
data_NdHo4ThRh18
_symmetry_space_group_name_H-M   'P 1'
_cell_length_a   5.29469800
_cell_length_b   5.29469802
_cell_length_c   17.53007800
_cell_angle_alpha   90.00000000
_cell_angle_beta   90.00000000
_cell_angle_gamma   119.99999986
_symmetry_Int_Tables_number   1
_chemical_formula_structural   NdHo4ThRh18
_chemical_formula_sum   'Nd1 Ho4 Th1 Rh18'
_cell_volume   425.59534608
_cell_formula_units_Z   1
loop_
 _symmetry_equiv_pos_site_id
 _symmetry_equiv_pos_as_xyz
  1  'x, y, z'
loop_
 _atom_site_type_symbol
 _atom_site_label
 _atom_site_symmetry_multiplicity
 _atom_site_fract_x
 _atom_site_fract_y
 _atom_site_fract_z
 _atom_site_occupancy
  Nd  Nd0  1  0.666667  0.333333  0.250000  1
  Ho  Ho1  1  0.333333  0.666667  0.540870  1
  Ho  Ho2  1  0.666667  0.333333  0.041266  1
  Ho  Ho3  1  0.666667  0.333333  0.458734  1
  Ho  Ho4  1  0.333333  0.666667  0.959130  1
  Th  Th5  1  0.333333  0.666667  0.750000  1
  Rh  Rh6  1  0.167350  0.334699  0.124687  1
  Rh  Rh7  1  0.832726  0.665453  0.624709  1
  Rh  Rh8  1  0.665301  0.832650  0.124687  1
  Rh  Rh9  1  0.167350  0.832650  0.124687  1
  Rh  Rh10  1  0.832726  0.167274  0.624709  1
  Rh  Rh11  1  0.334547  0.167274  0.624709  1
  Rh  Rh12  1  0.832726  0.665453  0.875291  1
  Rh  Rh13  1  0.832726  0.167274  0.875291  1
  Rh  Rh14  1  0.334547  0.167274  0.875291  1
  Rh  Rh15  1  0.665301  0.832650  0.375313  1
  Rh  Rh16  1  0.167350  0.832650  0.375313  1
  Rh  Rh17  1  0.167350  0.334699  0.375313  1
  Rh  Rh18  1  0.000000  0.000000  0.250000  1
  Rh  Rh19  1  0.000000  0.000000  0.750000  1
  Rh  Rh20  1  0.333333  0.666667  0.250000  1
  Rh  Rh21  1  0.666667  0.333333  0.750000  1
  Rh  Rh22  1  0.000000  0.000000  0.999711  1
  Rh  Rh23  1  0.000000  0.000000  0.500289  1
