# generated using pymatgen
data_Al3Tc8W5
_symmetry_space_group_name_H-M   'P 1'
_cell_length_a   6.17653602
_cell_length_b   4.35417300
_cell_length_c   8.70028600
_cell_angle_alpha   90.00000000
_cell_angle_beta   90.00414653
_cell_angle_gamma   90.00000000
_symmetry_Int_Tables_number   1
_chemical_formula_structural   Al3Tc8W5
_chemical_formula_sum   'Al3 Tc8 W5'
_cell_volume   233.98293628
_cell_formula_units_Z   1
loop_
 _symmetry_equiv_pos_site_id
 _symmetry_equiv_pos_as_xyz
  1  'x, y, z'
loop_
 _atom_site_type_symbol
 _atom_site_label
 _atom_site_symmetry_multiplicity
 _atom_site_fract_x
 _atom_site_fract_y
 _atom_site_fract_z
 _atom_site_occupancy
  Al  Al0  1  0.750053  0.749999  0.374934  1
  Al  Al1  1  0.249942  0.250001  0.625042  1
  Al  Al2  1  0.749961  0.749999  0.875072  1
  Tc  Tc3  1  0.001307  0.749999  0.124989  1
  Tc  Tc4  1  0.498762  0.749999  0.124999  1
  Tc  Tc5  1  0.999836  0.250001  0.373659  1
  Tc  Tc6  1  0.500217  0.250001  0.373668  1
  Tc  Tc7  1  0.500940  0.749999  0.625006  1
  Tc  Tc8  1  0.999010  0.749999  0.625005  1
  Tc  Tc9  1  0.500165  0.250001  0.876332  1
  Tc  Tc10  1  0.999759  0.250001  0.876339  1
  W  W11  1  0.250046  0.250001  0.124982  1
  W  W12  1  0.750032  0.250001  0.124976  1
  W  W13  1  0.250035  0.749999  0.382820  1
  W  W14  1  0.749969  0.250001  0.624992  1
  W  W15  1  0.249969  0.749999  0.867185  1
