# generated using pymatgen
data_Lu6GaCuRu
_symmetry_space_group_name_H-M   'P 1'
_cell_length_a   8.21147831
_cell_length_b   8.21147834
_cell_length_c   8.21147841
_cell_angle_alpha   112.90828590
_cell_angle_beta   110.78233677
_cell_angle_gamma   104.82834721
_symmetry_Int_Tables_number   1
_chemical_formula_structural   Lu6GaCuRu
_chemical_formula_sum   'Lu12 Ga2 Cu2 Ru2'
_cell_volume   423.99207815
_cell_formula_units_Z   2
loop_
 _symmetry_equiv_pos_site_id
 _symmetry_equiv_pos_as_xyz
  1  'x, y, z'
loop_
 _atom_site_type_symbol
 _atom_site_label
 _atom_site_symmetry_multiplicity
 _atom_site_fract_x
 _atom_site_fract_y
 _atom_site_fract_z
 _atom_site_occupancy
  Lu  Lu0  1  0.434354  0.242338  0.192016  1
  Lu  Lu1  1  0.565646  0.757662  0.807984  1
  Lu  Lu2  1  0.050323  0.242338  0.807984  1
  Lu  Lu3  1  0.949677  0.757662  0.192016  1
  Lu  Lu4  1  0.182705  0.276169  0.458874  1
  Lu  Lu5  1  0.817295  0.723831  0.541126  1
  Lu  Lu6  1  0.182705  0.723831  0.906535  1
  Lu  Lu7  1  0.817295  0.276169  0.093465  1
  Lu  Lu8  1  0.333578  0.642845  0.309267  1
  Lu  Lu9  1  0.666422  0.357155  0.690733  1
  Lu  Lu10  1  0.333578  0.024311  0.690733  1
  Lu  Lu11  1  0.666422  0.975689  0.309267  1
  Ga  Ga12  1  0.500000  0.500000  0.000000  1
  Ga  Ga13  1  0.000000  0.000000  0.000000  1
  Cu  Cu14  1  0.121338  0.621338  0.500000  1
  Cu  Cu15  1  0.878662  0.378662  0.500000  1
  Ru  Ru16  1  0.328207  0.000000  0.328207  1
  Ru  Ru17  1  0.671793  0.000000  0.671793  1
