# generated using pymatgen
data_Y3ErHgRh
_symmetry_space_group_name_H-M   'P 1'
_cell_length_a   9.60259680
_cell_length_b   9.60259707
_cell_length_c   9.60259800
_cell_angle_alpha   60.00000368
_cell_angle_beta   60.00000275
_cell_angle_gamma   60.00000276
_symmetry_Int_Tables_number   1
_chemical_formula_structural   Y3ErHgRh
_chemical_formula_sum   'Y12 Er4 Hg4 Rh4'
_cell_volume   626.11077817
_cell_formula_units_Z   4
loop_
 _symmetry_equiv_pos_site_id
 _symmetry_equiv_pos_as_xyz
  1  'x, y, z'
loop_
 _atom_site_type_symbol
 _atom_site_label
 _atom_site_symmetry_multiplicity
 _atom_site_fract_x
 _atom_site_fract_y
 _atom_site_fract_z
 _atom_site_occupancy
  Y  Y0  1  0.060286  0.439714  0.439714  1
  Y  Y1  1  0.439714  0.060286  0.060286  1
  Y  Y2  1  0.439714  0.060286  0.439714  1
  Y  Y3  1  0.060286  0.439714  0.060286  1
  Y  Y4  1  0.439714  0.439714  0.060286  1
  Y  Y5  1  0.060286  0.060286  0.439714  1
  Y  Y6  1  0.187134  0.812866  0.812866  1
  Y  Y7  1  0.812866  0.187134  0.187134  1
  Y  Y8  1  0.812866  0.187134  0.812866  1
  Y  Y9  1  0.187134  0.812866  0.187134  1
  Y  Y10  1  0.812866  0.812866  0.187134  1
  Y  Y11  1  0.187134  0.187134  0.812866  1
  Er  Er12  1  0.600886  0.600886  0.600886  1
  Er  Er13  1  0.600886  0.600886  0.197342  1
  Er  Er14  1  0.600886  0.197342  0.600886  1
  Er  Er15  1  0.197342  0.600886  0.600886  1
  Hg  Hg16  1  0.834537  0.834537  0.834537  1
  Hg  Hg17  1  0.834537  0.834537  0.496388  1
  Hg  Hg18  1  0.834537  0.496388  0.834537  1
  Hg  Hg19  1  0.496388  0.834537  0.834537  1
  Rh  Rh20  1  0.394110  0.394110  0.394110  1
  Rh  Rh21  1  0.394110  0.394110  0.817672  1
  Rh  Rh22  1  0.394110  0.817672  0.394110  1
  Rh  Rh23  1  0.817672  0.394110  0.394110  1
