# generated using pymatgen
data_Tb2Ho8TlCd3(InPd)4
_symmetry_space_group_name_H-M   'P 1'
_cell_length_a   3.60333200
_cell_length_b   8.10858504
_cell_length_c   18.34317500
_cell_angle_alpha   90.00570938
_cell_angle_beta   90.00000000
_cell_angle_gamma   90.00000000
_symmetry_Int_Tables_number   1
_chemical_formula_structural   Tb2Ho8TlCd3(InPd)4
_chemical_formula_sum   'Tb2 Ho8 Tl1 Cd3 In4 Pd4'
_cell_volume   535.94948950
_cell_formula_units_Z   1
loop_
 _symmetry_equiv_pos_site_id
 _symmetry_equiv_pos_as_xyz
  1  'x, y, z'
loop_
 _atom_site_type_symbol
 _atom_site_label
 _atom_site_symmetry_multiplicity
 _atom_site_fract_x
 _atom_site_fract_y
 _atom_site_fract_z
 _atom_site_occupancy
  Tb  Tb0  1  0.000000  0.501105  0.499345  1
  Tb  Tb1  1  0.000000  0.999553  0.999809  1
  Ho  Ho2  1  0.000000  0.743016  0.281010  1
  Ho  Ho3  1  0.000000  0.259397  0.720315  1
  Ho  Ho4  1  0.000000  0.756603  0.781510  1
  Ho  Ho5  1  0.000000  0.242948  0.218739  1
  Ho  Ho6  1  0.000000  0.612894  0.084316  1
  Ho  Ho7  1  0.000000  0.387129  0.916545  1
  Ho  Ho8  1  0.000000  0.883140  0.584629  1
  Ho  Ho9  1  0.000000  0.112866  0.414354  1
  Tl  Tl10  1  0.500000  0.208393  0.567519  1
  Cd  Cd11  1  0.500000  0.709655  0.931565  1
  Cd  Cd12  1  0.500000  0.290101  0.068350  1
  Cd  Cd13  1  0.500000  0.789383  0.431385  1
  In  In14  1  0.500000  0.580934  0.649573  1
  In  In15  1  0.500000  0.424390  0.350901  1
  In  In16  1  0.500000  0.923893  0.148006  1
  In  In17  1  0.500000  0.076641  0.851495  1
  Pd  Pd18  1  0.500000  0.524059  0.196980  1
  Pd  Pd19  1  0.500000  0.475230  0.803185  1
  Pd  Pd20  1  0.500000  0.974068  0.697528  1
  Pd  Pd21  1  0.500000  0.024605  0.302937  1
