# generated using pymatgen
data_YLu11(CoTc)2
_symmetry_space_group_name_H-M   'P 1'
_cell_length_a   6.15220800
_cell_length_b   7.09546906
_cell_length_c   8.93556600
_cell_angle_alpha   90.00000000
_cell_angle_beta   90.00000000
_cell_angle_gamma   89.99232069
_symmetry_Int_Tables_number   1
_chemical_formula_structural   YLu11(CoTc)2
_chemical_formula_sum   'Y1 Lu11 Co2 Tc2'
_cell_volume   390.06248572
_cell_formula_units_Z   1
loop_
 _symmetry_equiv_pos_site_id
 _symmetry_equiv_pos_as_xyz
  1  'x, y, z'
loop_
 _atom_site_type_symbol
 _atom_site_label
 _atom_site_symmetry_multiplicity
 _atom_site_fract_x
 _atom_site_fract_y
 _atom_site_fract_z
 _atom_site_occupancy
  Y  Y0  1  0.640766  0.460714  0.750000  1
  Lu  Lu1  1  0.666982  0.171639  0.063554  1
  Lu  Lu2  1  0.374311  0.546341  0.250000  1
  Lu  Lu3  1  0.142152  0.040459  0.250000  1
  Lu  Lu4  1  0.825077  0.683123  0.434182  1
  Lu  Lu5  1  0.323580  0.818113  0.935571  1
  Lu  Lu6  1  0.165698  0.326781  0.562202  1
  Lu  Lu7  1  0.666982  0.171639  0.436446  1
  Lu  Lu8  1  0.165698  0.326781  0.937798  1
  Lu  Lu9  1  0.323580  0.818113  0.564429  1
  Lu  Lu10  1  0.875022  0.954145  0.750000  1
  Lu  Lu11  1  0.825077  0.683123  0.065818  1
  Co  Co12  1  0.537401  0.885281  0.250000  1
  Co  Co13  1  0.041855  0.616165  0.750000  1
  Tc  Tc14  1  0.964159  0.390649  0.250000  1
  Tc  Tc15  1  0.461658  0.106936  0.750000  1
