# generated using pymatgen
data_BaPa2Se5
_symmetry_space_group_name_H-M   'P 1'
_cell_length_a   7.88922700
_cell_length_b   8.85995846
_cell_length_c   12.43407921
_cell_angle_alpha   89.54999114
_cell_angle_beta   90.00000000
_cell_angle_gamma   90.00000000
_symmetry_Int_Tables_number   1
_chemical_formula_structural   BaPa2Se5
_chemical_formula_sum   'Ba4 Pa8 Se20'
_cell_volume   869.09324105
_cell_formula_units_Z   4
loop_
 _symmetry_equiv_pos_site_id
 _symmetry_equiv_pos_as_xyz
  1  'x, y, z'
loop_
 _atom_site_type_symbol
 _atom_site_label
 _atom_site_symmetry_multiplicity
 _atom_site_fract_x
 _atom_site_fract_y
 _atom_site_fract_z
 _atom_site_occupancy
  Ba  Ba0  1  0.054639  0.491241  0.331003  1
  Ba  Ba1  1  0.554639  0.508759  0.168997  1
  Ba  Ba2  1  0.945361  0.508759  0.668997  1
  Ba  Ba3  1  0.445361  0.491241  0.831003  1
  Pa  Pa4  1  0.027475  0.997678  0.318685  1
  Pa  Pa5  1  0.527475  0.002322  0.181315  1
  Pa  Pa6  1  0.972525  0.002322  0.681315  1
  Pa  Pa7  1  0.472525  0.997678  0.818685  1
  Pa  Pa8  1  0.071595  0.758006  0.008363  1
  Pa  Pa9  1  0.571595  0.241994  0.491637  1
  Pa  Pa10  1  0.928405  0.241994  0.991637  1
  Pa  Pa11  1  0.428405  0.758006  0.508363  1
  Se  Se12  1  0.665844  0.954605  0.401606  1
  Se  Se13  1  0.165844  0.045395  0.098394  1
  Se  Se14  1  0.334156  0.045395  0.598394  1
  Se  Se15  1  0.834156  0.954605  0.901606  1
  Se  Se16  1  0.451518  0.791524  0.002312  1
  Se  Se17  1  0.951518  0.208476  0.497688  1
  Se  Se18  1  0.548482  0.208476  0.997688  1
  Se  Se19  1  0.048482  0.791524  0.502312  1
  Se  Se20  1  0.839398  0.782602  0.187436  1
  Se  Se21  1  0.339398  0.217398  0.312564  1
  Se  Se22  1  0.160602  0.217398  0.812564  1
  Se  Se23  1  0.660602  0.782602  0.687436  1
  Se  Se24  1  0.312938  0.773657  0.284601  1
  Se  Se25  1  0.812938  0.226343  0.215399  1
  Se  Se26  1  0.687062  0.226343  0.715399  1
  Se  Se27  1  0.187062  0.773657  0.784601  1
  Se  Se28  1  0.176912  0.462203  0.072448  1
  Se  Se29  1  0.676912  0.537797  0.427552  1
  Se  Se30  1  0.823088  0.537797  0.927552  1
  Se  Se31  1  0.323088  0.462203  0.572448  1
