# generated using pymatgen
data_YErGa2NiIr
_symmetry_space_group_name_H-M   'P 1'
_cell_length_a   4.29623400
_cell_length_b   6.77032300
_cell_length_c   7.62002400
_cell_angle_alpha   90.00000000
_cell_angle_beta   90.00000000
_cell_angle_gamma   90.00000000
_symmetry_Int_Tables_number   1
_chemical_formula_structural   YErGa2NiIr
_chemical_formula_sum   'Y2 Er2 Ga4 Ni2 Ir2'
_cell_volume   221.64281409
_cell_formula_units_Z   2
loop_
 _symmetry_equiv_pos_site_id
 _symmetry_equiv_pos_as_xyz
  1  'x, y, z'
loop_
 _atom_site_type_symbol
 _atom_site_label
 _atom_site_symmetry_multiplicity
 _atom_site_fract_x
 _atom_site_fract_y
 _atom_site_fract_z
 _atom_site_occupancy
  Y  Y0  1  0.750000  0.022480  0.686658  1
  Y  Y1  1  0.750000  0.522480  0.813342  1
  Er  Er2  1  0.250000  0.979673  0.310505  1
  Er  Er3  1  0.250000  0.479673  0.189495  1
  Ga  Ga4  1  0.250000  0.343086  0.575845  1
  Ga  Ga5  1  0.250000  0.843086  0.924155  1
  Ga  Ga6  1  0.750000  0.661045  0.440008  1
  Ga  Ga7  1  0.750000  0.161045  0.059992  1
  Ni  Ni8  1  0.250000  0.221319  0.889054  1
  Ni  Ni9  1  0.250000  0.721319  0.610946  1
  Ir  Ir10  1  0.750000  0.772397  0.112885  1
  Ir  Ir11  1  0.750000  0.272397  0.387115  1
