# generated using pymatgen
data_Y3(FeOs2)2
_symmetry_space_group_name_H-M   'P 1'
_cell_length_a   5.28522326
_cell_length_b   5.27760511
_cell_length_c   13.05090832
_cell_angle_alpha   90.44510602
_cell_angle_beta   89.91752608
_cell_angle_gamma   118.99798884
_symmetry_Int_Tables_number   1
_chemical_formula_structural   Y3(FeOs2)2
_chemical_formula_sum   'Y6 Fe4 Os8'
_cell_volume   318.38605307
_cell_formula_units_Z   2
loop_
 _symmetry_equiv_pos_site_id
 _symmetry_equiv_pos_as_xyz
  1  'x, y, z'
loop_
 _atom_site_type_symbol
 _atom_site_label
 _atom_site_symmetry_multiplicity
 _atom_site_fract_x
 _atom_site_fract_y
 _atom_site_fract_z
 _atom_site_occupancy
  Y  Y0  1  0.332028  0.667391  0.916851  1
  Y  Y1  1  0.996663  0.999040  0.250400  1
  Y  Y2  1  0.666560  0.334796  0.583672  1
  Y  Y3  1  0.333440  0.665204  0.666328  1
  Y  Y4  1  0.003337  0.000960  0.999600  1
  Y  Y5  1  0.667972  0.332609  0.333149  1
  Fe  Fe6  1  0.500000  0.500000  0.125000  1
  Fe  Fe7  1  0.168069  0.836483  0.458342  1
  Fe  Fe8  1  0.831931  0.163517  0.791658  1
  Fe  Fe9  1  0.500000  0.000000  0.125000  1
  Os  Os10  1  0.170949  0.339359  0.456594  1
  Os  Os11  1  0.829051  0.660641  0.793406  1
  Os  Os12  1  0.331947  0.669044  0.287217  1
  Os  Os13  1  0.000000  0.000000  0.625000  1
  Os  Os14  1  0.668053  0.330956  0.962783  1
  Os  Os15  1  0.000000  0.500000  0.125000  1
  Os  Os16  1  0.666884  0.833773  0.457848  1
  Os  Os17  1  0.333116  0.166227  0.792152  1
