# generated using pymatgen
data_Dy4Er5LuSn8
_symmetry_space_group_name_H-M   'P 1'
_cell_length_a   7.99578400
_cell_length_b   8.13090900
_cell_length_c   15.37452300
_cell_angle_alpha   90.00000000
_cell_angle_beta   90.00000000
_cell_angle_gamma   90.00000000
_symmetry_Int_Tables_number   1
_chemical_formula_structural   Dy4Er5LuSn8
_chemical_formula_sum   'Dy8 Er10 Lu2 Sn16'
_cell_volume   999.54374215
_cell_formula_units_Z   2
loop_
 _symmetry_equiv_pos_site_id
 _symmetry_equiv_pos_as_xyz
  1  'x, y, z'
loop_
 _atom_site_type_symbol
 _atom_site_label
 _atom_site_symmetry_multiplicity
 _atom_site_fract_x
 _atom_site_fract_y
 _atom_site_fract_z
 _atom_site_occupancy
  Dy  Dy0  1  0.521087  0.320733  0.902998  1
  Dy  Dy1  1  0.021087  0.179267  0.597002  1
  Dy  Dy2  1  0.478877  0.679281  0.402754  1
  Dy  Dy3  1  0.978877  0.820719  0.097246  1
  Dy  Dy4  1  0.478877  0.679281  0.097246  1
  Dy  Dy5  1  0.978877  0.820719  0.402754  1
  Dy  Dy6  1  0.521087  0.320733  0.597002  1
  Dy  Dy7  1  0.021087  0.179267  0.902998  1
  Er  Er8  1  0.367412  0.836735  0.877506  1
  Er  Er9  1  0.867412  0.663265  0.622494  1
  Er  Er10  1  0.632514  0.163180  0.377338  1
  Er  Er11  1  0.132514  0.336820  0.122662  1
  Er  Er12  1  0.632514  0.163180  0.122662  1
  Er  Er13  1  0.132514  0.336820  0.377338  1
  Er  Er14  1  0.367412  0.836735  0.622494  1
  Er  Er15  1  0.867412  0.663265  0.877506  1
  Er  Er16  1  0.198324  0.503789  0.750000  1
  Er  Er17  1  0.698324  0.996211  0.750000  1
  Lu  Lu18  1  0.801667  0.496205  0.250000  1
  Lu  Lu19  1  0.301667  0.003795  0.250000  1
  Sn  Sn20  1  0.293584  0.037371  0.042303  1
  Sn  Sn21  1  0.793584  0.462629  0.457697  1
  Sn  Sn22  1  0.706254  0.962251  0.541222  1
  Sn  Sn23  1  0.206254  0.537749  0.958778  1
  Sn  Sn24  1  0.706254  0.962251  0.958778  1
  Sn  Sn25  1  0.206254  0.537749  0.541222  1
  Sn  Sn26  1  0.293584  0.037371  0.457697  1
  Sn  Sn27  1  0.793584  0.462629  0.042303  1
  Sn  Sn28  1  0.564879  0.619305  0.750000  1
  Sn  Sn29  1  0.064879  0.880695  0.750000  1
  Sn  Sn30  1  0.435978  0.380408  0.250000  1
  Sn  Sn31  1  0.935978  0.119592  0.250000  1
  Sn  Sn32  1  0.330333  0.148048  0.750000  1
  Sn  Sn33  1  0.830333  0.351952  0.750000  1
  Sn  Sn34  1  0.669363  0.851238  0.250000  1
  Sn  Sn35  1  0.169363  0.648762  0.250000  1
