# generated using pymatgen
data_Tb4Ho12MgNi4Ag3
_symmetry_space_group_name_H-M   'P 1'
_cell_length_a   9.42931682
_cell_length_b   9.44127956
_cell_length_c   9.44128000
_cell_angle_alpha   60.00000546
_cell_angle_beta   59.95802917
_cell_angle_gamma   59.95802201
_symmetry_Int_Tables_number   1
_chemical_formula_structural   Tb4Ho12MgNi4Ag3
_chemical_formula_sum   'Tb4 Ho12 Mg1 Ni4 Ag3'
_cell_volume   593.95173706
_cell_formula_units_Z   1
loop_
 _symmetry_equiv_pos_site_id
 _symmetry_equiv_pos_as_xyz
  1  'x, y, z'
loop_
 _atom_site_type_symbol
 _atom_site_label
 _atom_site_symmetry_multiplicity
 _atom_site_fract_x
 _atom_site_fract_y
 _atom_site_fract_z
 _atom_site_occupancy
  Tb  Tb0  1  0.600173  0.598326  0.598326  1
  Tb  Tb1  1  0.600173  0.598326  0.203174  1
  Tb  Tb2  1  0.600173  0.203174  0.598326  1
  Tb  Tb3  1  0.190801  0.603066  0.603066  1
  Ho  Ho4  1  0.183235  0.815883  0.815883  1
  Ho  Ho5  1  0.814891  0.184693  0.184693  1
  Ho  Ho6  1  0.814891  0.184693  0.815723  1
  Ho  Ho7  1  0.183235  0.815883  0.184999  1
  Ho  Ho8  1  0.814891  0.815723  0.184693  1
  Ho  Ho9  1  0.183235  0.184999  0.815883  1
  Ho  Ho10  1  0.059567  0.439364  0.439364  1
  Ho  Ho11  1  0.434700  0.063993  0.063993  1
  Ho  Ho12  1  0.434700  0.063993  0.437315  1
  Ho  Ho13  1  0.059567  0.439364  0.061705  1
  Ho  Ho14  1  0.434700  0.437315  0.063993  1
  Ho  Ho15  1  0.059567  0.061705  0.439364  1
  Mg  Mg16  1  0.536598  0.821134  0.821134  1
  Ni  Ni17  1  0.390008  0.393218  0.393218  1
  Ni  Ni18  1  0.390008  0.393218  0.823559  1
  Ni  Ni19  1  0.390008  0.823559  0.393218  1
  Ni  Ni20  1  0.825056  0.391649  0.391649  1
  Ag  Ag21  1  0.833275  0.834397  0.834397  1
  Ag  Ag22  1  0.833275  0.834397  0.497932  1
  Ag  Ag23  1  0.833275  0.497932  0.834397  1
