# generated using pymatgen
data_Li4La4Pd3Pt
_symmetry_space_group_name_H-M   'P 1'
_cell_length_a   4.09343300
_cell_length_b   7.36023654
_cell_length_c   8.72952500
_cell_angle_alpha   89.47367460
_cell_angle_beta   90.00000000
_cell_angle_gamma   90.00000000
_symmetry_Int_Tables_number   1
_chemical_formula_structural   Li4La4Pd3Pt
_chemical_formula_sum   'Li4 La4 Pd3 Pt1'
_cell_volume   262.99757692
_cell_formula_units_Z   1
loop_
 _symmetry_equiv_pos_site_id
 _symmetry_equiv_pos_as_xyz
  1  'x, y, z'
loop_
 _atom_site_type_symbol
 _atom_site_label
 _atom_site_symmetry_multiplicity
 _atom_site_fract_x
 _atom_site_fract_y
 _atom_site_fract_z
 _atom_site_occupancy
  Li  Li0  1  0.250000  0.373239  0.555570  1
  Li  Li1  1  0.250000  0.873150  0.943265  1
  Li  Li2  1  0.750000  0.623010  0.443433  1
  Li  Li3  1  0.750000  0.127225  0.057994  1
  La  La4  1  0.250000  0.957414  0.315084  1
  La  La5  1  0.250000  0.450769  0.188224  1
  La  La6  1  0.750000  0.049372  0.683009  1
  La  La7  1  0.750000  0.546190  0.815701  1
  Pd  Pd8  1  0.250000  0.253066  0.877191  1
  Pd  Pd9  1  0.250000  0.753884  0.622921  1
  Pd  Pd10  1  0.750000  0.746277  0.121292  1
  Pt  Pt11  1  0.750000  0.246402  0.376315  1
