# generated using pymatgen
data_Nd5GaIrO12
_symmetry_space_group_name_H-M   'P 1'
_cell_length_a   7.06397509
_cell_length_b   7.06397382
_cell_length_c   7.58263028
_cell_angle_alpha   74.44908398
_cell_angle_beta   74.44908617
_cell_angle_gamma   51.10737887
_symmetry_Int_Tables_number   1
_chemical_formula_structural   Nd5GaIrO12
_chemical_formula_sum   'Nd5 Ga1 Ir1 O12'
_cell_volume   281.19215078
_cell_formula_units_Z   1
loop_
 _symmetry_equiv_pos_site_id
 _symmetry_equiv_pos_as_xyz
  1  'x, y, z'
loop_
 _atom_site_type_symbol
 _atom_site_label
 _atom_site_symmetry_multiplicity
 _atom_site_fract_x
 _atom_site_fract_y
 _atom_site_fract_z
 _atom_site_occupancy
  Nd  Nd0  1  0.309412  0.300135  0.358209  1
  Nd  Nd1  1  0.699865  0.690588  0.641791  1
  Nd  Nd2  1  0.691220  0.697597  0.165513  1
  Nd  Nd3  1  0.302403  0.308780  0.834487  1
  Nd  Nd4  1  0.004579  0.995421  0.500000  1
  Ga  Ga5  1  0.757708  0.242292  0.000000  1
  Ir  Ir6  1  0.243132  0.756868  0.000000  1
  O  O7  1  0.097524  0.594782  0.576556  1
  O  O8  1  0.011748  0.986951  0.176863  1
  O  O9  1  0.405218  0.902476  0.423444  1
  O  O10  1  0.483470  0.517721  0.176523  1
  O  O11  1  0.098945  0.580556  0.079873  1
  O  O12  1  0.906067  0.401752  0.422064  1
  O  O13  1  0.013049  0.988252  0.823137  1
  O  O14  1  0.598248  0.093932  0.577936  1
  O  O15  1  0.482279  0.516530  0.823477  1
  O  O16  1  0.580623  0.104934  0.077703  1
  O  O17  1  0.419444  0.901055  0.920127  1
  O  O18  1  0.895066  0.419377  0.922297  1
