# generated using pymatgen
data_Zr10Ga3Bi3Pb2
_symmetry_space_group_name_H-M   'P 1'
_cell_length_a   8.79416943
_cell_length_b   8.77589517
_cell_length_c   5.94508900
_cell_angle_alpha   90.00000000
_cell_angle_beta   90.00000000
_cell_angle_gamma   119.93127908
_symmetry_Int_Tables_number   1
_chemical_formula_structural   Zr10Ga3Bi3Pb2
_chemical_formula_sum   'Zr10 Ga3 Bi3 Pb2'
_cell_volume   397.62672891
_cell_formula_units_Z   1
loop_
 _symmetry_equiv_pos_site_id
 _symmetry_equiv_pos_as_xyz
  1  'x, y, z'
loop_
 _atom_site_type_symbol
 _atom_site_label
 _atom_site_symmetry_multiplicity
 _atom_site_fract_x
 _atom_site_fract_y
 _atom_site_fract_z
 _atom_site_occupancy
  Zr  Zr0  1  0.674582  0.334906  0.005642  1
  Zr  Zr1  1  0.325418  0.660325  0.005642  1
  Zr  Zr2  1  0.325418  0.660325  0.494358  1
  Zr  Zr3  1  0.674582  0.334906  0.494358  1
  Zr  Zr4  1  0.738935  0.737318  0.750000  1
  Zr  Zr5  1  0.261065  0.998382  0.750000  1
  Zr  Zr6  1  0.000000  0.262325  0.750000  1
  Zr  Zr7  1  0.256259  0.272451  0.250000  1
  Zr  Zr8  1  0.743741  0.016192  0.250000  1
  Zr  Zr9  1  0.000000  0.724559  0.250000  1
  Ga  Ga10  1  0.000000  0.997664  0.006718  1
  Ga  Ga11  1  0.000000  0.997664  0.493282  1
  Ga  Ga12  1  0.000000  0.389243  0.250000  1
  Bi  Bi13  1  0.391784  0.389382  0.750000  1
  Bi  Bi14  1  0.608216  0.997598  0.750000  1
  Bi  Bi15  1  0.000000  0.607012  0.750000  1
  Pb  Pb16  1  0.614974  0.617360  0.250000  1
  Pb  Pb17  1  0.385026  0.002386  0.250000  1
