# generated using pymatgen
data_Hf6Zr2InCu8Hg3
_symmetry_space_group_name_H-M   'P 1'
_cell_length_a   7.18734547
_cell_length_b   7.18637447
_cell_length_c   6.82142700
_cell_angle_alpha   90.00000000
_cell_angle_beta   90.00000000
_cell_angle_gamma   89.81399029
_symmetry_Int_Tables_number   1
_chemical_formula_structural   Hf6Zr2InCu8Hg3
_chemical_formula_sum   'Hf6 Zr2 In1 Cu8 Hg3'
_cell_volume   352.33136889
_cell_formula_units_Z   1
loop_
 _symmetry_equiv_pos_site_id
 _symmetry_equiv_pos_as_xyz
  1  'x, y, z'
loop_
 _atom_site_type_symbol
 _atom_site_label
 _atom_site_symmetry_multiplicity
 _atom_site_fract_x
 _atom_site_fract_y
 _atom_site_fract_z
 _atom_site_occupancy
  Hf  Hf0  1  0.648762  0.351117  0.499137  1
  Hf  Hf1  1  0.351238  0.648883  0.499137  1
  Hf  Hf2  1  0.690175  0.305018  0.001364  1
  Hf  Hf3  1  0.309825  0.694982  0.001364  1
  Hf  Hf4  1  0.805636  0.810152  0.498674  1
  Hf  Hf5  1  0.194364  0.189848  0.498674  1
  Zr  Zr6  1  0.149391  0.149550  0.000646  1
  Zr  Zr7  1  0.850609  0.850450  0.000646  1
  In  In8  1  0.000000  0.500000  0.750149  1
  Cu  Cu9  1  0.376549  0.378259  0.204107  1
  Cu  Cu10  1  0.623804  0.621579  0.794316  1
  Cu  Cu11  1  0.623451  0.621741  0.204107  1
  Cu  Cu12  1  0.876628  0.125583  0.701290  1
  Cu  Cu13  1  0.876449  0.125220  0.300212  1
  Cu  Cu14  1  0.376196  0.378421  0.794316  1
  Cu  Cu15  1  0.123551  0.874780  0.300212  1
  Cu  Cu16  1  0.123372  0.874417  0.701290  1
  Hg  Hg17  1  0.500000  0.000000  0.249955  1
  Hg  Hg18  1  0.500000  0.000000  0.750083  1
  Hg  Hg19  1  0.000000  0.500000  0.250323  1
