# generated using pymatgen
data_CeLuZn5Si
_symmetry_space_group_name_H-M   'P 1'
_cell_length_a   8.23421400
_cell_length_b   8.23421477
_cell_length_c   8.74750100
_cell_angle_alpha   90.00000000
_cell_angle_beta   90.00000000
_cell_angle_gamma   149.56547905
_symmetry_Int_Tables_number   1
_chemical_formula_structural   CeLuZn5Si
_chemical_formula_sum   'Ce2 Lu2 Zn10 Si2'
_cell_volume   300.43707476
_cell_formula_units_Z   2
loop_
 _symmetry_equiv_pos_site_id
 _symmetry_equiv_pos_as_xyz
  1  'x, y, z'
loop_
 _atom_site_type_symbol
 _atom_site_label
 _atom_site_symmetry_multiplicity
 _atom_site_fract_x
 _atom_site_fract_y
 _atom_site_fract_z
 _atom_site_occupancy
  Ce  Ce0  1  0.000000  0.000000  0.500000  1
  Ce  Ce1  1  0.000000  0.000000  0.000000  1
  Lu  Lu2  1  0.199082  0.800918  0.250000  1
  Lu  Lu3  1  0.800918  0.199082  0.750000  1
  Zn  Zn4  1  0.811370  0.188630  0.393545  1
  Zn  Zn5  1  0.188630  0.811370  0.606455  1
  Zn  Zn6  1  0.811370  0.188630  0.106455  1
  Zn  Zn7  1  0.188630  0.811370  0.893545  1
  Zn  Zn8  1  0.651032  0.348968  0.473058  1
  Zn  Zn9  1  0.348968  0.651032  0.526942  1
  Zn  Zn10  1  0.651032  0.348968  0.026942  1
  Zn  Zn11  1  0.348968  0.651032  0.973058  1
  Zn  Zn12  1  0.401895  0.598105  0.250000  1
  Zn  Zn13  1  0.598105  0.401895  0.750000  1
  Si  Si14  1  0.556704  0.443296  0.250000  1
  Si  Si15  1  0.443296  0.556704  0.750000  1
