# generated using pymatgen
data_DyLu4Bi2Sb
_symmetry_space_group_name_H-M   'P 1'
_cell_length_a   8.08727900
_cell_length_b   9.34016200
_cell_length_c   11.80082300
_cell_angle_alpha   90.00000000
_cell_angle_beta   90.00000000
_cell_angle_gamma   90.00000000
_symmetry_Int_Tables_number   1
_chemical_formula_structural   DyLu4Bi2Sb
_chemical_formula_sum   'Dy4 Lu16 Bi8 Sb4'
_cell_volume   891.39281933
_cell_formula_units_Z   4
loop_
 _symmetry_equiv_pos_site_id
 _symmetry_equiv_pos_as_xyz
  1  'x, y, z'
loop_
 _atom_site_type_symbol
 _atom_site_label
 _atom_site_symmetry_multiplicity
 _atom_site_fract_x
 _atom_site_fract_y
 _atom_site_fract_z
 _atom_site_occupancy
  Dy  Dy0  1  0.314845  0.250000  0.217498  1
  Dy  Dy1  1  0.814845  0.250000  0.282502  1
  Dy  Dy2  1  0.685155  0.750000  0.782502  1
  Dy  Dy3  1  0.185155  0.750000  0.717498  1
  Lu  Lu4  1  0.352674  0.750000  0.215668  1
  Lu  Lu5  1  0.852674  0.750000  0.284332  1
  Lu  Lu6  1  0.647326  0.250000  0.784332  1
  Lu  Lu7  1  0.147326  0.250000  0.715668  1
  Lu  Lu8  1  0.689276  0.565661  0.058924  1
  Lu  Lu9  1  0.189276  0.934339  0.441076  1
  Lu  Lu10  1  0.310724  0.065661  0.941076  1
  Lu  Lu11  1  0.810724  0.434339  0.558924  1
  Lu  Lu12  1  0.310724  0.434339  0.941076  1
  Lu  Lu13  1  0.810724  0.065661  0.558924  1
  Lu  Lu14  1  0.689276  0.934339  0.058924  1
  Lu  Lu15  1  0.189276  0.565661  0.441076  1
  Lu  Lu16  1  0.473899  0.250000  0.489090  1
  Lu  Lu17  1  0.973899  0.250000  0.010910  1
  Lu  Lu18  1  0.526101  0.750000  0.510910  1
  Lu  Lu19  1  0.026101  0.750000  0.989090  1
  Bi  Bi20  1  0.565356  0.994395  0.325903  1
  Bi  Bi21  1  0.065356  0.505605  0.174097  1
  Bi  Bi22  1  0.434644  0.494395  0.674097  1
  Bi  Bi23  1  0.934644  0.005605  0.825903  1
  Bi  Bi24  1  0.434644  0.005605  0.674097  1
  Bi  Bi25  1  0.934644  0.494395  0.825903  1
  Bi  Bi26  1  0.565356  0.505605  0.325903  1
  Bi  Bi27  1  0.065356  0.994395  0.174097  1
  Sb  Sb28  1  0.403824  0.750000  0.959910  1
  Sb  Sb29  1  0.903824  0.750000  0.540090  1
  Sb  Sb30  1  0.596176  0.250000  0.040090  1
  Sb  Sb31  1  0.096176  0.250000  0.459910  1
