# generated using pymatgen
data_Th2MnOs3
_symmetry_space_group_name_H-M   'P 1'
_cell_length_a   5.33585126
_cell_length_b   5.54509149
_cell_length_c   5.54509300
_cell_angle_alpha   60.00000890
_cell_angle_beta   58.69410229
_cell_angle_gamma   58.69410862
_symmetry_Int_Tables_number   1
_chemical_formula_structural   Th2MnOs3
_chemical_formula_sum   'Th2 Mn1 Os3'
_cell_volume   113.66997910
_cell_formula_units_Z   1
loop_
 _symmetry_equiv_pos_site_id
 _symmetry_equiv_pos_as_xyz
  1  'x, y, z'
loop_
 _atom_site_type_symbol
 _atom_site_label
 _atom_site_symmetry_multiplicity
 _atom_site_fract_x
 _atom_site_fract_y
 _atom_site_fract_z
 _atom_site_occupancy
  Th  Th0  1  0.751638  0.749454  0.749454  1
  Th  Th1  1  0.498362  0.500546  0.500546  1
  Mn  Mn2  1  0.625000  0.125000  0.125000  1
  Os  Os3  1  0.125000  0.125000  0.125000  1
  Os  Os4  1  0.125000  0.625000  0.125000  1
  Os  Os5  1  0.125000  0.125000  0.625000  1
