# generated using pymatgen
data_Hf6Al8Si8IrRu6
_symmetry_space_group_name_H-M   'P 1'
_cell_length_a   8.56941877
_cell_length_b   8.56941865
_cell_length_c   8.56941900
_cell_angle_alpha   59.99999480
_cell_angle_beta   59.99999527
_cell_angle_gamma   60.00000306
_symmetry_Int_Tables_number   1
_chemical_formula_structural   Hf6Al8Si8IrRu6
_chemical_formula_sum   'Hf6 Al8 Si8 Ir1 Ru6'
_cell_volume   444.97855848
_cell_formula_units_Z   1
loop_
 _symmetry_equiv_pos_site_id
 _symmetry_equiv_pos_as_xyz
  1  'x, y, z'
loop_
 _atom_site_type_symbol
 _atom_site_label
 _atom_site_symmetry_multiplicity
 _atom_site_fract_x
 _atom_site_fract_y
 _atom_site_fract_z
 _atom_site_occupancy
  Hf  Hf0  1  0.690579  0.309421  0.309421  1
  Hf  Hf1  1  0.309421  0.690579  0.690579  1
  Hf  Hf2  1  0.309421  0.690579  0.309421  1
  Hf  Hf3  1  0.690579  0.309421  0.690579  1
  Hf  Hf4  1  0.309421  0.309421  0.690579  1
  Hf  Hf5  1  0.690579  0.690579  0.309421  1
  Al  Al6  1  0.123100  0.123100  0.123100  1
  Al  Al7  1  0.876900  0.876900  0.876900  1
  Al  Al8  1  0.123100  0.123100  0.630700  1
  Al  Al9  1  0.123100  0.630700  0.123100  1
  Al  Al10  1  0.876900  0.876900  0.369300  1
  Al  Al11  1  0.876900  0.369300  0.876900  1
  Al  Al12  1  0.630700  0.123100  0.123100  1
  Al  Al13  1  0.369300  0.876900  0.876900  1
  Si  Si14  1  0.345162  0.345162  0.345162  1
  Si  Si15  1  0.654838  0.654838  0.654838  1
  Si  Si16  1  0.345162  0.345162  0.964513  1
  Si  Si17  1  0.345162  0.964513  0.345162  1
  Si  Si18  1  0.654838  0.654838  0.035487  1
  Si  Si19  1  0.654838  0.035487  0.654838  1
  Si  Si20  1  0.964513  0.345162  0.345162  1
  Si  Si21  1  0.035487  0.654838  0.654838  1
  Ir  Ir22  1  0.000000  0.000000  0.000000  1
  Ru  Ru23  1  0.500000  0.000000  0.000000  1
  Ru  Ru24  1  0.000000  0.500000  0.500000  1
  Ru  Ru25  1  0.000000  0.500000  0.000000  1
  Ru  Ru26  1  0.500000  0.000000  0.500000  1
  Ru  Ru27  1  0.000000  0.000000  0.500000  1
  Ru  Ru28  1  0.500000  0.500000  0.000000  1
