# generated using pymatgen
data_YbPr19(Ir2Ru)4
_symmetry_space_group_name_H-M   'P 1'
_cell_length_a   11.27032200
_cell_length_b   11.27032200
_cell_length_c   6.64483200
_cell_angle_alpha   90.00000000
_cell_angle_beta   90.00000000
_cell_angle_gamma   90.00000000
_symmetry_Int_Tables_number   1
_chemical_formula_structural   YbPr19(Ir2Ru)4
_chemical_formula_sum   'Yb1 Pr19 Ir8 Ru4'
_cell_volume   844.02761042
_cell_formula_units_Z   1
loop_
 _symmetry_equiv_pos_site_id
 _symmetry_equiv_pos_as_xyz
  1  'x, y, z'
loop_
 _atom_site_type_symbol
 _atom_site_label
 _atom_site_symmetry_multiplicity
 _atom_site_fract_x
 _atom_site_fract_y
 _atom_site_fract_z
 _atom_site_occupancy
  Yb  Yb0  1  0.000000  0.000000  0.500000  1
  Pr  Pr1  1  0.289760  0.087315  0.383239  1
  Pr  Pr2  1  0.292474  0.911235  0.883090  1
  Pr  Pr3  1  0.707526  0.088765  0.883090  1
  Pr  Pr4  1  0.710240  0.912685  0.383239  1
  Pr  Pr5  1  0.588964  0.793570  0.883187  1
  Pr  Pr6  1  0.587892  0.205604  0.382621  1
  Pr  Pr7  1  0.412108  0.794396  0.382621  1
  Pr  Pr8  1  0.411036  0.206430  0.883187  1
  Pr  Pr9  1  0.205604  0.412108  0.617379  1
  Pr  Pr10  1  0.206430  0.588964  0.116813  1
  Pr  Pr11  1  0.793570  0.411036  0.116813  1
  Pr  Pr12  1  0.794396  0.587892  0.617379  1
  Pr  Pr13  1  0.911235  0.707526  0.116910  1
  Pr  Pr14  1  0.912685  0.289760  0.616761  1
  Pr  Pr15  1  0.087315  0.710240  0.616761  1
  Pr  Pr16  1  0.088765  0.292474  0.116910  1
  Pr  Pr17  1  0.000000  0.000000  0.000000  1
  Pr  Pr18  1  0.500000  0.500000  0.000000  1
  Pr  Pr19  1  0.500000  0.500000  0.500000  1
  Ir  Ir20  1  0.846855  0.153245  0.248897  1
  Ir  Ir21  1  0.846755  0.846855  0.751103  1
  Ir  Ir22  1  0.153245  0.153145  0.751103  1
  Ir  Ir23  1  0.153145  0.846755  0.248897  1
  Ir  Ir24  1  0.652612  0.347180  0.749581  1
  Ir  Ir25  1  0.652820  0.652612  0.250419  1
  Ir  Ir26  1  0.347180  0.347388  0.250419  1
  Ir  Ir27  1  0.347388  0.652820  0.749581  1
  Ru  Ru28  1  0.500000  0.000000  0.117034  1
  Ru  Ru29  1  0.500000  0.000000  0.616371  1
  Ru  Ru30  1  0.000000  0.500000  0.882966  1
  Ru  Ru31  1  0.000000  0.500000  0.383629  1
