# generated using pymatgen
data_Ho4CdBiAu4
_symmetry_space_group_name_H-M   'P 1'
_cell_length_a   8.07344100
_cell_length_b   8.07344100
_cell_length_c   7.33724600
_cell_angle_alpha   90.00000000
_cell_angle_beta   90.00000000
_cell_angle_gamma   90.00000000
_symmetry_Int_Tables_number   1
_chemical_formula_structural   Ho4CdBiAu4
_chemical_formula_sum   'Ho8 Cd2 Bi2 Au8'
_cell_volume   478.24499296
_cell_formula_units_Z   2
loop_
 _symmetry_equiv_pos_site_id
 _symmetry_equiv_pos_as_xyz
  1  'x, y, z'
loop_
 _atom_site_type_symbol
 _atom_site_label
 _atom_site_symmetry_multiplicity
 _atom_site_fract_x
 _atom_site_fract_y
 _atom_site_fract_z
 _atom_site_occupancy
  Ho  Ho0  1  0.842944  0.157056  0.500000  1
  Ho  Ho1  1  0.157056  0.842944  0.500000  1
  Ho  Ho2  1  0.342944  0.342944  0.000000  1
  Ho  Ho3  1  0.657056  0.657056  0.000000  1
  Ho  Ho4  1  0.681449  0.681449  0.500000  1
  Ho  Ho5  1  0.318551  0.318551  0.500000  1
  Ho  Ho6  1  0.181449  0.818551  0.000000  1
  Ho  Ho7  1  0.818551  0.181449  0.000000  1
  Cd  Cd8  1  0.500000  0.000000  0.250000  1
  Cd  Cd9  1  0.000000  0.500000  0.750000  1
  Bi  Bi10  1  0.500000  0.000000  0.750000  1
  Bi  Bi11  1  0.000000  0.500000  0.250000  1
  Au  Au12  1  0.620022  0.365755  0.274926  1
  Au  Au13  1  0.379978  0.634245  0.274926  1
  Au  Au14  1  0.120022  0.134245  0.774926  1
  Au  Au15  1  0.879978  0.865755  0.774926  1
  Au  Au16  1  0.365755  0.620022  0.725074  1
  Au  Au17  1  0.634245  0.379978  0.725074  1
  Au  Au18  1  0.865755  0.879978  0.225074  1
  Au  Au19  1  0.134245  0.120022  0.225074  1
