# generated using pymatgen
data_SrLa(Cd2Au)2
_symmetry_space_group_name_H-M   'P 1'
_cell_length_a   5.85298743
_cell_length_b   5.85298671
_cell_length_c   8.35180900
_cell_angle_alpha   90.00000000
_cell_angle_beta   90.00000000
_cell_angle_gamma   134.68083490
_symmetry_Int_Tables_number   1
_chemical_formula_structural   SrLa(Cd2Au)2
_chemical_formula_sum   'Sr1 La1 Cd4 Au2'
_cell_volume   203.43538205
_cell_formula_units_Z   1
loop_
 _symmetry_equiv_pos_site_id
 _symmetry_equiv_pos_as_xyz
  1  'x, y, z'
loop_
 _atom_site_type_symbol
 _atom_site_label
 _atom_site_symmetry_multiplicity
 _atom_site_fract_x
 _atom_site_fract_y
 _atom_site_fract_z
 _atom_site_occupancy
  Sr  Sr0  1  0.067183  0.932815  0.250000  1
  La  La1  1  0.931294  0.068704  0.750000  1
  Cd  Cd2  1  0.361394  0.638604  0.055032  1
  Cd  Cd3  1  0.361394  0.638604  0.444969  1
  Cd  Cd4  1  0.636855  0.363143  0.554051  1
  Cd  Cd5  1  0.636855  0.363143  0.945948  1
  Au  Au6  1  0.776917  0.223082  0.250000  1
  Au  Au7  1  0.228100  0.771899  0.750000  1
