# generated using pymatgen
data_Dy3Y5Re3B24Ir
_symmetry_space_group_name_H-M   'P 1'
_cell_length_a   3.68164800
_cell_length_b   9.18591530
_cell_length_c   11.57235902
_cell_angle_alpha   90.13148201
_cell_angle_beta   90.00000000
_cell_angle_gamma   90.00000000
_symmetry_Int_Tables_number   1
_chemical_formula_structural   Dy3Y5Re3B24Ir
_chemical_formula_sum   'Dy3 Y5 Re3 B24 Ir1'
_cell_volume   391.36812828
_cell_formula_units_Z   1
loop_
 _symmetry_equiv_pos_site_id
 _symmetry_equiv_pos_as_xyz
  1  'x, y, z'
loop_
 _atom_site_type_symbol
 _atom_site_label
 _atom_site_symmetry_multiplicity
 _atom_site_fract_x
 _atom_site_fract_y
 _atom_site_fract_z
 _atom_site_occupancy
  Dy  Dy0  1  0.000000  0.056040  0.628950  1
  Dy  Dy1  1  0.000000  0.440900  0.128424  1
  Dy  Dy2  1  0.000000  0.556961  0.871688  1
  Y  Y3  1  0.000000  0.318245  0.415521  1
  Y  Y4  1  0.000000  0.678404  0.591405  1
  Y  Y5  1  0.000000  0.827245  0.081387  1
  Y  Y6  1  0.000000  0.177262  0.912590  1
  Y  Y7  1  0.000000  0.943814  0.370578  1
  Re  Re8  1  0.000000  0.362936  0.677445  1
  Re  Re9  1  0.000000  0.137976  0.179577  1
  Re  Re10  1  0.000000  0.862258  0.821171  1
  B  B11  1  0.500000  0.553503  0.433518  1
  B  B12  1  0.500000  0.446844  0.566910  1
  B  B13  1  0.500000  0.053436  0.066726  1
  B  B14  1  0.500000  0.947344  0.932405  1
  B  B15  1  0.500000  0.748361  0.419974  1
  B  B16  1  0.500000  0.251152  0.581246  1
  B  B17  1  0.500000  0.248575  0.081418  1
  B  B18  1  0.500000  0.752383  0.918727  1
  B  B19  1  0.500000  0.790573  0.265444  1
  B  B20  1  0.500000  0.208999  0.733716  1
  B  B21  1  0.500000  0.291111  0.234677  1
  B  B22  1  0.500000  0.708650  0.766310  1
  B  B23  1  0.500000  0.631603  0.184712  1
  B  B24  1  0.500000  0.369458  0.813762  1
  B  B25  1  0.500000  0.130869  0.314466  1
  B  B26  1  0.500000  0.868405  0.685862  1
  B  B27  1  0.500000  0.983204  0.211874  1
  B  B28  1  0.500000  0.017174  0.786886  1
  B  B29  1  0.500000  0.482955  0.287829  1
  B  B30  1  0.500000  0.517986  0.712531  1
  B  B31  1  0.500000  0.604558  0.029691  1
  B  B32  1  0.500000  0.396652  0.971658  1
  B  B33  1  0.500000  0.102757  0.470817  1
  B  B34  1  0.500000  0.894115  0.528671  1
  Ir  Ir35  1  0.000000  0.637291  0.321437  1
