# generated using pymatgen
data_Tm5TcAu2
_symmetry_space_group_name_H-M   'P 1'
_cell_length_a   11.09391000
_cell_length_b   11.09391000
_cell_length_c   6.38694300
_cell_angle_alpha   90.00000000
_cell_angle_beta   90.00000000
_cell_angle_gamma   90.00000000
_symmetry_Int_Tables_number   1
_chemical_formula_structural   Tm5TcAu2
_chemical_formula_sum   'Tm20 Tc4 Au8'
_cell_volume   786.07198199
_cell_formula_units_Z   4
loop_
 _symmetry_equiv_pos_site_id
 _symmetry_equiv_pos_as_xyz
  1  'x, y, z'
loop_
 _atom_site_type_symbol
 _atom_site_label
 _atom_site_symmetry_multiplicity
 _atom_site_fract_x
 _atom_site_fract_y
 _atom_site_fract_z
 _atom_site_occupancy
  Tm  Tm0  1  0.301190  0.082281  0.357303  1
  Tm  Tm1  1  0.301190  0.917719  0.857303  1
  Tm  Tm2  1  0.698810  0.082281  0.857303  1
  Tm  Tm3  1  0.698810  0.917719  0.357303  1
  Tm  Tm4  1  0.582281  0.801190  0.857303  1
  Tm  Tm5  1  0.582281  0.198810  0.357303  1
  Tm  Tm6  1  0.417719  0.801190  0.357303  1
  Tm  Tm7  1  0.417719  0.198810  0.857303  1
  Tm  Tm8  1  0.198810  0.417719  0.642697  1
  Tm  Tm9  1  0.198810  0.582281  0.142697  1
  Tm  Tm10  1  0.801190  0.417719  0.142697  1
  Tm  Tm11  1  0.801190  0.582281  0.642697  1
  Tm  Tm12  1  0.917719  0.698810  0.142697  1
  Tm  Tm13  1  0.917719  0.301190  0.642697  1
  Tm  Tm14  1  0.082281  0.698810  0.642697  1
  Tm  Tm15  1  0.082281  0.301190  0.142697  1
  Tm  Tm16  1  0.000000  0.000000  0.500000  1
  Tm  Tm17  1  0.000000  0.000000  0.000000  1
  Tm  Tm18  1  0.500000  0.500000  0.000000  1
  Tm  Tm19  1  0.500000  0.500000  0.500000  1
  Tc  Tc20  1  0.500000  0.000000  0.111676  1
  Tc  Tc21  1  0.500000  0.000000  0.611676  1
  Tc  Tc22  1  0.000000  0.500000  0.888324  1
  Tc  Tc23  1  0.000000  0.500000  0.388324  1
  Au  Au24  1  0.844876  0.155124  0.250000  1
  Au  Au25  1  0.844876  0.844876  0.750000  1
  Au  Au26  1  0.155124  0.155124  0.750000  1
  Au  Au27  1  0.155124  0.844876  0.250000  1
  Au  Au28  1  0.655124  0.344876  0.750000  1
  Au  Au29  1  0.655124  0.655124  0.250000  1
  Au  Au30  1  0.344876  0.344876  0.250000  1
  Au  Au31  1  0.344876  0.655124  0.750000  1
