# generated using pymatgen
data_Pr4Ho12Cd4OsPd3
_symmetry_space_group_name_H-M   'P 1'
_cell_length_a   9.75964370
_cell_length_b   9.75380707
_cell_length_c   9.75380591
_cell_angle_alpha   59.85852429
_cell_angle_beta   59.57422852
_cell_angle_gamma   59.57423635
_symmetry_Int_Tables_number   1
_chemical_formula_structural   Pr4Ho12Cd4OsPd3
_chemical_formula_sum   'Pr4 Ho12 Cd4 Os1 Pd3'
_cell_volume   651.60096868
_cell_formula_units_Z   1
loop_
 _symmetry_equiv_pos_site_id
 _symmetry_equiv_pos_as_xyz
  1  'x, y, z'
loop_
 _atom_site_type_symbol
 _atom_site_label
 _atom_site_symmetry_multiplicity
 _atom_site_fract_x
 _atom_site_fract_y
 _atom_site_fract_z
 _atom_site_occupancy
  Pr  Pr0  1  0.566331  0.933850  0.566470  1
  Pr  Pr1  1  0.937973  0.558860  0.935718  1
  Pr  Pr2  1  0.566331  0.566470  0.933850  1
  Pr  Pr3  1  0.937973  0.935718  0.558860  1
  Ho  Ho4  1  0.353829  0.352619  0.352619  1
  Ho  Ho5  1  0.347724  0.349930  0.950759  1
  Ho  Ho6  1  0.347724  0.950759  0.349930  1
  Ho  Ho7  1  0.948732  0.348346  0.348346  1
  Ho  Ho8  1  0.820162  0.185150  0.185150  1
  Ho  Ho9  1  0.185991  0.812170  0.812170  1
  Ho  Ho10  1  0.187435  0.817908  0.187192  1
  Ho  Ho11  1  0.811275  0.183785  0.811570  1
  Ho  Ho12  1  0.187435  0.187192  0.817908  1
  Ho  Ho13  1  0.811275  0.811570  0.183785  1
  Ho  Ho14  1  0.940214  0.558245  0.558245  1
  Ho  Ho15  1  0.549549  0.944599  0.944599  1
  Cd  Cd16  1  0.583988  0.576935  0.576935  1
  Cd  Cd17  1  0.577358  0.584505  0.258148  1
  Cd  Cd18  1  0.577358  0.258148  0.584505  1
  Cd  Cd19  1  0.258698  0.578375  0.578375  1
  Os  Os20  1  0.147300  0.141484  0.141484  1
  Pd  Pd21  1  0.142504  0.148455  0.571238  1
  Pd  Pd22  1  0.142504  0.571238  0.148455  1
  Pd  Pd23  1  0.570336  0.143688  0.143688  1
