# generated using pymatgen
data_Sc4Cr7Si10Tc
_symmetry_space_group_name_H-M   'P 1'
_cell_length_a   4.90413075
_cell_length_b   7.59013848
_cell_length_c   9.27303887
_cell_angle_alpha   114.19938213
_cell_angle_beta   105.33305218
_cell_angle_gamma   90.00000564
_symmetry_Int_Tables_number   1
_chemical_formula_structural   Sc4Cr7Si10Tc
_chemical_formula_sum   'Sc4 Cr7 Si10 Tc1'
_cell_volume   301.31798103
_cell_formula_units_Z   1
loop_
 _symmetry_equiv_pos_site_id
 _symmetry_equiv_pos_as_xyz
  1  'x, y, z'
loop_
 _atom_site_type_symbol
 _atom_site_label
 _atom_site_symmetry_multiplicity
 _atom_site_fract_x
 _atom_site_fract_y
 _atom_site_fract_z
 _atom_site_occupancy
  Sc  Sc0  1  0.143623  0.023207  0.287246  1
  Sc  Sc1  1  0.642770  0.259572  0.285542  1
  Sc  Sc2  1  0.357688  0.738675  0.715377  1
  Sc  Sc3  1  0.858227  0.977869  0.716457  1
  Cr  Cr4  1  0.562619  0.809317  0.125240  1
  Cr  Cr5  1  0.442681  0.691897  0.382033  1
  Cr  Cr6  1  0.939351  0.691897  0.382033  1
  Cr  Cr7  1  0.059902  0.309599  0.617909  1
  Cr  Cr8  1  0.558006  0.309599  0.617909  1
  Cr  Cr9  1  0.436876  0.190858  0.873753  1
  Cr  Cr10  1  0.937526  0.682865  0.875055  1
  Si  Si11  1  0.250842  0.994966  0.998296  1
  Si  Si12  1  0.747454  0.994966  0.998296  1
  Si  Si13  1  0.563535  0.486178  0.127073  1
  Si  Si14  1  0.063556  0.645792  0.127113  1
  Si  Si15  1  0.711257  0.003622  0.422516  1
  Si  Si16  1  0.213207  0.421042  0.426415  1
  Si  Si17  1  0.789047  0.581769  0.578096  1
  Si  Si18  1  0.289175  0.996011  0.578350  1
  Si  Si19  1  0.934189  0.360156  0.868380  1
  Si  Si20  1  0.436353  0.514348  0.872705  1
  Tc  Tc21  1  0.062103  0.315795  0.124207  1
