# generated using pymatgen
data_Ho3Tm5Tl3Os
_symmetry_space_group_name_H-M   'P 1'
_cell_length_a   10.28235400
_cell_length_b   10.28235333
_cell_length_c   7.05068600
_cell_angle_alpha   90.00000000
_cell_angle_beta   90.00000000
_cell_angle_gamma   120.00000216
_symmetry_Int_Tables_number   1
_chemical_formula_structural   Ho3Tm5Tl3Os
_chemical_formula_sum   'Ho6 Tm10 Tl6 Os2'
_cell_volume   645.57554588
_cell_formula_units_Z   2
loop_
 _symmetry_equiv_pos_site_id
 _symmetry_equiv_pos_as_xyz
  1  'x, y, z'
loop_
 _atom_site_type_symbol
 _atom_site_label
 _atom_site_symmetry_multiplicity
 _atom_site_fract_x
 _atom_site_fract_y
 _atom_site_fract_z
 _atom_site_occupancy
  Ho  Ho0  1  0.533156  0.066315  0.515747  1
  Ho  Ho1  1  0.933685  0.466844  0.515747  1
  Ho  Ho2  1  0.533156  0.466844  0.515747  1
  Ho  Ho3  1  0.466844  0.933685  0.015747  1
  Ho  Ho4  1  0.066315  0.533156  0.015747  1
  Ho  Ho5  1  0.466844  0.533156  0.015747  1
  Tm  Tm6  1  0.177134  0.354268  0.719421  1
  Tm  Tm7  1  0.645732  0.822866  0.719421  1
  Tm  Tm8  1  0.177134  0.822866  0.719421  1
  Tm  Tm9  1  0.822866  0.645732  0.219421  1
  Tm  Tm10  1  0.354268  0.177134  0.219421  1
  Tm  Tm11  1  0.822866  0.177134  0.219421  1
  Tm  Tm12  1  0.666667  0.333333  0.894205  1
  Tm  Tm13  1  0.333333  0.666667  0.394205  1
  Tm  Tm14  1  0.000000  0.000000  0.499089  1
  Tm  Tm15  1  0.000000  0.000000  0.999089  1
  Tl  Tl16  1  0.836940  0.673880  0.763930  1
  Tl  Tl17  1  0.326120  0.163060  0.763930  1
  Tl  Tl18  1  0.836940  0.163060  0.763930  1
  Tl  Tl19  1  0.163060  0.326120  0.263930  1
  Tl  Tl20  1  0.673880  0.836940  0.263930  1
  Tl  Tl21  1  0.163060  0.836940  0.263930  1
  Os  Os22  1  0.666667  0.333333  0.288414  1
  Os  Os23  1  0.333333  0.666667  0.788414  1
