# generated using pymatgen
data_Sc4Al17Si(PdRh2)2
_symmetry_space_group_name_H-M   'P 1'
_cell_length_a   7.48673244
_cell_length_b   7.48673315
_cell_length_c   9.24607774
_cell_angle_alpha   89.95337091
_cell_angle_beta   89.95337234
_cell_angle_gamma   119.71761665
_symmetry_Int_Tables_number   1
_chemical_formula_structural   Sc4Al17Si(PdRh2)2
_chemical_formula_sum   'Sc4 Al17 Si1 Pd2 Rh4'
_cell_volume   450.09172245
_cell_formula_units_Z   1
loop_
 _symmetry_equiv_pos_site_id
 _symmetry_equiv_pos_as_xyz
  1  'x, y, z'
loop_
 _atom_site_type_symbol
 _atom_site_label
 _atom_site_symmetry_multiplicity
 _atom_site_fract_x
 _atom_site_fract_y
 _atom_site_fract_z
 _atom_site_occupancy
  Sc  Sc0  1  0.993239  0.676717  0.251174  1
  Sc  Sc1  1  0.002785  0.332270  0.748901  1
  Sc  Sc2  1  0.676717  0.993239  0.251174  1
  Sc  Sc3  1  0.332270  0.002785  0.748901  1
  Al  Al4  1  0.883879  0.883879  0.748779  1
  Al  Al5  1  0.997820  0.332496  0.080367  1
  Al  Al6  1  0.001685  0.669588  0.921259  1
  Al  Al7  1  0.002922  0.666030  0.575862  1
  Al  Al8  1  0.336513  0.996548  0.422664  1
  Al  Al9  1  0.996548  0.336513  0.422664  1
  Al  Al10  1  0.666030  0.002922  0.575862  1
  Al  Al11  1  0.669588  0.001685  0.921259  1
  Al  Al12  1  0.332496  0.997820  0.080367  1
  Al  Al13  1  0.327153  0.327153  0.561749  1
  Al  Al14  1  0.665892  0.665892  0.446374  1
  Al  Al15  1  0.667365  0.667365  0.060805  1
  Al  Al16  1  0.325121  0.325121  0.930529  1
  Al  Al17  1  0.337014  0.552444  0.253355  1
  Al  Al18  1  0.662170  0.450088  0.746840  1
  Al  Al19  1  0.552444  0.337014  0.253355  1
  Al  Al20  1  0.450088  0.662170  0.746840  1
  Si  Si21  1  0.128787  0.128787  0.250843  1
  Pd  Pd22  1  0.670184  0.325428  0.000160  1
  Pd  Pd23  1  0.325428  0.670184  0.000160  1
  Rh  Rh24  1  0.325955  0.670300  0.499986  1
  Rh  Rh25  1  0.670300  0.325955  0.499986  1
  Rh  Rh26  1  0.999808  0.999808  0.008182  1
  Rh  Rh27  1  0.999797  0.999797  0.491602  1
