# generated using pymatgen
data_Ac8Zn7InRh8
_symmetry_space_group_name_H-M   'P 1'
_cell_length_a   4.17222600
_cell_length_b   7.72663018
_cell_length_c   17.13273200
_cell_angle_alpha   89.94801087
_cell_angle_beta   90.00000000
_cell_angle_gamma   90.00000000
_symmetry_Int_Tables_number   1
_chemical_formula_structural   Ac8Zn7InRh8
_chemical_formula_sum   'Ac8 Zn7 In1 Rh8'
_cell_volume   552.31189160
_cell_formula_units_Z   1
loop_
 _symmetry_equiv_pos_site_id
 _symmetry_equiv_pos_as_xyz
  1  'x, y, z'
loop_
 _atom_site_type_symbol
 _atom_site_label
 _atom_site_symmetry_multiplicity
 _atom_site_fract_x
 _atom_site_fract_y
 _atom_site_fract_z
 _atom_site_occupancy
  Ac  Ac0  1  0.750000  0.327413  0.441225  1
  Ac  Ac1  1  0.250000  0.046233  0.718678  1
  Ac  Ac2  1  0.250000  0.546095  0.779623  1
  Ac  Ac3  1  0.250000  0.671127  0.561685  1
  Ac  Ac4  1  0.750000  0.820642  0.056707  1
  Ac  Ac5  1  0.250000  0.172965  0.937308  1
  Ac  Ac6  1  0.750000  0.462135  0.220310  1
  Ac  Ac7  1  0.750000  0.947261  0.287925  1
  Zn  Zn8  1  0.250000  0.997836  0.444918  1
  Zn  Zn9  1  0.750000  0.861459  0.852108  1
  Zn  Zn10  1  0.750000  0.002436  0.559351  1
  Zn  Zn11  1  0.250000  0.498190  0.057113  1
  Zn  Zn12  1  0.750000  0.359227  0.646707  1
  Zn  Zn13  1  0.750000  0.502595  0.937638  1
  Zn  Zn14  1  0.250000  0.630494  0.358053  1
  In  In15  1  0.250000  0.128603  0.149622  1
  Rh  Rh16  1  0.750000  0.260470  0.812187  1
  Rh  Rh17  1  0.250000  0.244007  0.313723  1
  Rh  Rh18  1  0.250000  0.736857  0.931254  1
  Rh  Rh19  1  0.250000  0.238006  0.566460  1
  Rh  Rh20  1  0.250000  0.748220  0.182558  1
  Rh  Rh21  1  0.750000  0.761061  0.437157  1
  Rh  Rh22  1  0.750000  0.274235  0.062427  1
  Rh  Rh23  1  0.750000  0.762434  0.685259  1
