# generated using pymatgen
data_Tb2NdGa6Ni8Ir
_symmetry_space_group_name_H-M   'P 1'
_cell_length_a   4.12483800
_cell_length_b   8.90689788
_cell_length_c   8.96340908
_cell_angle_alpha   58.67414792
_cell_angle_beta   90.00000000
_cell_angle_gamma   90.00000000
_symmetry_Int_Tables_number   1
_chemical_formula_structural   Tb2NdGa6Ni8Ir
_chemical_formula_sum   'Tb2 Nd1 Ga6 Ni8 Ir1'
_cell_volume   281.30569617
_cell_formula_units_Z   1
loop_
 _symmetry_equiv_pos_site_id
 _symmetry_equiv_pos_as_xyz
  1  'x, y, z'
loop_
 _atom_site_type_symbol
 _atom_site_label
 _atom_site_symmetry_multiplicity
 _atom_site_fract_x
 _atom_site_fract_y
 _atom_site_fract_z
 _atom_site_occupancy
  Tb  Tb0  1  0.500000  0.665789  0.664115  1
  Tb  Tb1  1  0.000000  0.011697  0.988150  1
  Nd  Nd2  1  0.500000  0.334762  0.333845  1
  Ga  Ga3  1  0.500000  0.733384  0.267312  1
  Ga  Ga4  1  0.500000  0.273581  0.005361  1
  Ga  Ga5  1  0.500000  0.993064  0.727314  1
  Ga  Ga6  1  0.000000  0.475944  0.525797  1
  Ga  Ga7  1  0.000000  0.521053  0.007316  1
  Ga  Ga8  1  0.000000  0.989835  0.480765  1
  Ni  Ni9  1  0.000000  0.193577  0.173911  1
  Ni  Ni10  1  0.000000  0.164127  0.619073  1
  Ni  Ni11  1  0.000000  0.636991  0.196460  1
  Ni  Ni12  1  0.000000  0.825037  0.802025  1
  Ni  Ni13  1  0.000000  0.386590  0.833621  1
  Ni  Ni14  1  0.000000  0.801143  0.366476  1
  Ni  Ni15  1  0.500000  0.709924  0.002305  1
  Ni  Ni16  1  0.500000  0.996032  0.291663  1
  Ir  Ir17  1  0.500000  0.287371  0.714588  1
