# generated using pymatgen
data_TmCu6HgO8
_symmetry_space_group_name_H-M   'P 1'
_cell_length_a   6.55094990
_cell_length_b   6.55094967
_cell_length_c   6.55094900
_cell_angle_alpha   59.99999831
_cell_angle_beta   59.99999948
_cell_angle_gamma   60.00000140
_symmetry_Int_Tables_number   1
_chemical_formula_structural   TmCu6HgO8
_chemical_formula_sum   'Tm1 Cu6 Hg1 O8'
_cell_volume   198.79147604
_cell_formula_units_Z   1
loop_
 _symmetry_equiv_pos_site_id
 _symmetry_equiv_pos_as_xyz
  1  'x, y, z'
loop_
 _atom_site_type_symbol
 _atom_site_label
 _atom_site_symmetry_multiplicity
 _atom_site_fract_x
 _atom_site_fract_y
 _atom_site_fract_z
 _atom_site_occupancy
  Tm  Tm0  1  0.000000  0.000000  0.000000  1
  Cu  Cu1  1  0.000000  0.000000  0.500000  1
  Cu  Cu2  1  0.500000  0.000000  0.000000  1
  Cu  Cu3  1  0.000000  0.500000  0.000000  1
  Cu  Cu4  1  0.500000  0.500000  0.000000  1
  Cu  Cu5  1  0.000000  0.500000  0.500000  1
  Cu  Cu6  1  0.500000  0.000000  0.500000  1
  Hg  Hg7  1  0.500000  0.500000  0.500000  1
  O  O8  1  0.143032  0.143032  0.570903  1
  O  O9  1  0.143032  0.570903  0.143032  1
  O  O10  1  0.570903  0.143032  0.143032  1
  O  O11  1  0.856968  0.429097  0.856968  1
  O  O12  1  0.143032  0.143032  0.143032  1
  O  O13  1  0.856968  0.856968  0.856968  1
  O  O14  1  0.856968  0.856968  0.429097  1
  O  O15  1  0.429097  0.856968  0.856968  1
