# generated using pymatgen
data_Dy3Er5(CdNi)2
_symmetry_space_group_name_H-M   'P 1'
_cell_length_a   9.49665880
_cell_length_b   9.49665845
_cell_length_c   9.49665800
_cell_angle_alpha   60.00000158
_cell_angle_beta   60.00000278
_cell_angle_gamma   59.99999664
_symmetry_Int_Tables_number   1
_chemical_formula_structural   Dy3Er5(CdNi)2
_chemical_formula_sum   'Dy6 Er10 Cd4 Ni4'
_cell_volume   605.61616291
_cell_formula_units_Z   2
loop_
 _symmetry_equiv_pos_site_id
 _symmetry_equiv_pos_as_xyz
  1  'x, y, z'
loop_
 _atom_site_type_symbol
 _atom_site_label
 _atom_site_symmetry_multiplicity
 _atom_site_fract_x
 _atom_site_fract_y
 _atom_site_fract_z
 _atom_site_occupancy
  Dy  Dy0  1  0.186877  0.813123  0.813123  1
  Dy  Dy1  1  0.813123  0.186877  0.186877  1
  Dy  Dy2  1  0.813123  0.186877  0.813123  1
  Dy  Dy3  1  0.186877  0.813123  0.186877  1
  Dy  Dy4  1  0.813123  0.813123  0.186877  1
  Dy  Dy5  1  0.186877  0.186877  0.813123  1
  Er  Er6  1  0.598549  0.598549  0.598549  1
  Er  Er7  1  0.598549  0.598549  0.204355  1
  Er  Er8  1  0.598549  0.204355  0.598549  1
  Er  Er9  1  0.204355  0.598549  0.598549  1
  Er  Er10  1  0.061606  0.438394  0.438394  1
  Er  Er11  1  0.438394  0.061606  0.061606  1
  Er  Er12  1  0.438394  0.061606  0.438394  1
  Er  Er13  1  0.061606  0.438394  0.061606  1
  Er  Er14  1  0.438394  0.438394  0.061606  1
  Er  Er15  1  0.061606  0.061606  0.438394  1
  Cd  Cd16  1  0.831019  0.831019  0.831019  1
  Cd  Cd17  1  0.831019  0.831019  0.506942  1
  Cd  Cd18  1  0.831019  0.506942  0.831019  1
  Cd  Cd19  1  0.506942  0.831019  0.831019  1
  Ni  Ni20  1  0.393261  0.393261  0.393261  1
  Ni  Ni21  1  0.393261  0.393261  0.820217  1
  Ni  Ni22  1  0.393261  0.820217  0.393261  1
  Ni  Ni23  1  0.820217  0.393261  0.393261  1
