# generated using pymatgen
data_ScTa8MoN12
_symmetry_space_group_name_H-M   'P 1'
_cell_length_a   5.22278504
_cell_length_b   5.22137644
_cell_length_c   10.44737688
_cell_angle_alpha   90.07138166
_cell_angle_beta   90.02357204
_cell_angle_gamma   120.07733633
_symmetry_Int_Tables_number   1
_chemical_formula_structural   ScTa8MoN12
_chemical_formula_sum   'Sc1 Ta8 Mo1 N12'
_cell_volume   246.53888743
_cell_formula_units_Z   1
loop_
 _symmetry_equiv_pos_site_id
 _symmetry_equiv_pos_as_xyz
  1  'x, y, z'
loop_
 _atom_site_type_symbol
 _atom_site_label
 _atom_site_symmetry_multiplicity
 _atom_site_fract_x
 _atom_site_fract_y
 _atom_site_fract_z
 _atom_site_occupancy
  Sc  Sc0  1  0.667359  0.335257  0.999551  1
  Ta  Ta1  1  0.322672  0.999683  0.749424  1
  Ta  Ta2  1  0.996516  0.321279  0.749352  1
  Ta  Ta3  1  0.326196  0.323725  0.251276  1
  Ta  Ta4  1  0.678055  0.003471  0.251294  1
  Ta  Ta5  1  0.999087  0.675820  0.251301  1
  Ta  Ta6  1  0.334751  0.667061  0.003246  1
  Ta  Ta7  1  0.336298  0.665208  0.497741  1
  Ta  Ta8  1  0.664505  0.336474  0.498429  1
  Mo  Mo9  1  0.673913  0.672044  0.748153  1
  N  N10  1  0.663622  0.664135  0.378892  1
  N  N11  1  0.339806  0.000400  0.380000  1
  N  N12  1  0.001027  0.340442  0.380001  1
  N  N13  1  0.336883  0.337535  0.622431  1
  N  N14  1  0.655854  0.001261  0.622134  1
  N  N15  1  0.001730  0.656420  0.622309  1
  N  N16  1  0.337419  0.344852  0.874526  1
  N  N17  1  0.651082  0.993524  0.873997  1
  N  N18  1  0.010032  0.658480  0.874120  1
  N  N19  1  0.654343  0.661513  0.123551  1
  N  N20  1  0.340906  0.993660  0.124119  1
  N  N21  1  0.007944  0.347755  0.124153  1
