# generated using pymatgen
data_Ba4DyTm(FeO5)2
_symmetry_space_group_name_H-M   'P 1'
_cell_length_a   6.13586000
_cell_length_b   7.91944667
_cell_length_c   12.75204212
_cell_angle_alpha   91.88096977
_cell_angle_beta   90.00000000
_cell_angle_gamma   90.00000000
_symmetry_Int_Tables_number   1
_chemical_formula_structural   Ba4DyTm(FeO5)2
_chemical_formula_sum   'Ba8 Dy2 Tm2 Fe4 O20'
_cell_volume   619.32119973
_cell_formula_units_Z   2
loop_
 _symmetry_equiv_pos_site_id
 _symmetry_equiv_pos_as_xyz
  1  'x, y, z'
loop_
 _atom_site_type_symbol
 _atom_site_label
 _atom_site_symmetry_multiplicity
 _atom_site_fract_x
 _atom_site_fract_y
 _atom_site_fract_z
 _atom_site_occupancy
  Ba  Ba0  1  0.758503  0.486640  0.349674  1
  Ba  Ba1  1  0.741497  0.986640  0.849674  1
  Ba  Ba2  1  0.241369  0.513681  0.650394  1
  Ba  Ba3  1  0.258631  0.013681  0.150394  1
  Ba  Ba4  1  0.754443  0.993061  0.380141  1
  Ba  Ba5  1  0.745557  0.493061  0.880141  1
  Ba  Ba6  1  0.245168  0.006320  0.620126  1
  Ba  Ba7  1  0.254832  0.506320  0.120126  1
  Dy  Dy8  1  0.750428  0.265949  0.630550  1
  Dy  Dy9  1  0.749572  0.765949  0.130550  1
  Tm  Tm10  1  0.249357  0.734688  0.369757  1
  Tm  Tm11  1  0.250643  0.234688  0.869757  1
  Fe  Fe12  1  0.735811  0.742520  0.582265  1
  Fe  Fe13  1  0.764189  0.242520  0.082265  1
  Fe  Fe14  1  0.264185  0.256753  0.415990  1
  Fe  Fe15  1  0.235815  0.756753  0.915990  1
  O  O16  1  0.760538  0.971914  0.632603  1
  O  O17  1  0.739462  0.471914  0.132603  1
  O  O18  1  0.239481  0.025586  0.367727  1
  O  O19  1  0.260519  0.525586  0.867727  1
  O  O20  1  0.734224  0.060941  0.175046  1
  O  O21  1  0.765776  0.560941  0.675046  1
  O  O22  1  0.265697  0.942245  0.825944  1
  O  O23  1  0.234303  0.442245  0.325944  1
  O  O24  1  0.539056  0.746054  0.272533  1
  O  O25  1  0.960944  0.246054  0.772533  1
  O  O26  1  0.457349  0.253768  0.729894  1
  O  O27  1  0.042651  0.753768  0.229894  1
  O  O28  1  0.545190  0.224207  0.975454  1
  O  O29  1  0.954810  0.724207  0.475454  1
  O  O30  1  0.451367  0.776000  0.023913  1
  O  O31  1  0.048633  0.276000  0.523913  1
  O  O32  1  0.044123  0.230824  0.016675  1
  O  O33  1  0.455877  0.730824  0.516675  1
  O  O34  1  0.956299  0.768849  0.981313  1
  O  O35  1  0.543701  0.268849  0.481313  1
