# generated using pymatgen
data_Pm4Sc3FeO12
_symmetry_space_group_name_H-M   'P 1'
_cell_length_a   5.54098953
_cell_length_b   5.79696998
_cell_length_c   7.99536908
_cell_angle_alpha   89.70065298
_cell_angle_beta   90.12641665
_cell_angle_gamma   89.97360485
_symmetry_Int_Tables_number   1
_chemical_formula_structural   Pm4Sc3FeO12
_chemical_formula_sum   'Pm4 Sc3 Fe1 O12'
_cell_volume   256.81469137
_cell_formula_units_Z   1
loop_
 _symmetry_equiv_pos_site_id
 _symmetry_equiv_pos_as_xyz
  1  'x, y, z'
loop_
 _atom_site_type_symbol
 _atom_site_label
 _atom_site_symmetry_multiplicity
 _atom_site_fract_x
 _atom_site_fract_y
 _atom_site_fract_z
 _atom_site_occupancy
  Pm  Pm0  1  0.981967  0.057659  0.246833  1
  Pm  Pm1  1  0.515777  0.561170  0.246476  1
  Pm  Pm2  1  0.484221  0.438829  0.753524  1
  Pm  Pm3  1  0.018033  0.942342  0.753167  1
  Sc  Sc4  1  0.000000  0.500000  0.000000  1
  Sc  Sc5  1  0.500000  0.000000  0.500001  1
  Sc  Sc6  1  0.000000  0.500000  0.500001  1
  Fe  Fe7  1  0.500000  0.000000  0.000000  1
  O  O8  1  0.694595  0.297169  0.057547  1
  O  O9  1  0.796967  0.803435  0.057165  1
  O  O10  1  0.112346  0.456397  0.248899  1
  O  O11  1  0.388375  0.957676  0.244898  1
  O  O12  1  0.695474  0.302341  0.440375  1
  O  O13  1  0.803994  0.803084  0.439629  1
  O  O14  1  0.196006  0.196915  0.560371  1
  O  O15  1  0.304528  0.697660  0.559625  1
  O  O16  1  0.611626  0.042323  0.755102  1
  O  O17  1  0.887654  0.543602  0.751101  1
  O  O18  1  0.203033  0.196564  0.942835  1
  O  O19  1  0.305407  0.702832  0.942453  1
