# generated using pymatgen
data_NdDy(Er3Sb10)2
_symmetry_space_group_name_H-M   'P 1'
_cell_length_a   4.21396700
_cell_length_b   13.22609294
_cell_length_c   14.61878801
_cell_angle_alpha   78.44020737
_cell_angle_beta   90.00000000
_cell_angle_gamma   90.00000000
_symmetry_Int_Tables_number   1
_chemical_formula_structural   NdDy(Er3Sb10)2
_chemical_formula_sum   'Nd1 Dy1 Er6 Sb20'
_cell_volume   798.24153267
_cell_formula_units_Z   1
loop_
 _symmetry_equiv_pos_site_id
 _symmetry_equiv_pos_as_xyz
  1  'x, y, z'
loop_
 _atom_site_type_symbol
 _atom_site_label
 _atom_site_symmetry_multiplicity
 _atom_site_fract_x
 _atom_site_fract_y
 _atom_site_fract_z
 _atom_site_occupancy
  Nd  Nd0  1  0.250000  0.953354  0.358654  1
  Dy  Dy1  1  0.750000  0.046669  0.640719  1
  Er  Er2  1  0.250000  0.395236  0.770479  1
  Er  Er3  1  0.750000  0.604015  0.229332  1
  Er  Er4  1  0.250000  0.662095  0.855928  1
  Er  Er5  1  0.750000  0.338887  0.143557  1
  Er  Er6  1  0.250000  0.668068  0.576724  1
  Er  Er7  1  0.750000  0.332051  0.423894  1
  Sb  Sb8  1  0.250000  0.144511  0.779078  1
  Sb  Sb9  1  0.750000  0.853057  0.218727  1
  Sb  Sb10  1  0.250000  0.146877  0.482919  1
  Sb  Sb11  1  0.750000  0.852727  0.521188  1
  Sb  Sb12  1  0.250000  0.154627  0.169883  1
  Sb  Sb13  1  0.750000  0.847068  0.829390  1
  Sb  Sb14  1  0.250000  0.420849  0.975112  1
  Sb  Sb15  1  0.750000  0.579389  0.024586  1
  Sb  Sb16  1  0.750000  0.029040  0.908507  1
  Sb  Sb17  1  0.250000  0.971114  0.091271  1
  Sb  Sb18  1  0.750000  0.144347  0.321145  1
  Sb  Sb19  1  0.250000  0.859636  0.678551  1
  Sb  Sb20  1  0.750000  0.280384  0.936757  1
  Sb  Sb21  1  0.250000  0.719617  0.063245  1
  Sb  Sb22  1  0.750000  0.285868  0.652765  1
  Sb  Sb23  1  0.250000  0.711544  0.347091  1
  Sb  Sb24  1  0.750000  0.576425  0.734428  1
  Sb  Sb25  1  0.250000  0.423495  0.265617  1
  Sb  Sb26  1  0.750000  0.571496  0.447472  1
  Sb  Sb27  1  0.250000  0.427553  0.552981  1
