# generated using pymatgen
data_Y3Ho5Cd2IrPt
_symmetry_space_group_name_H-M   'P 1'
_cell_length_a   9.64468792
_cell_length_b   9.64463913
_cell_length_c   9.63008430
_cell_angle_alpha   60.02676874
_cell_angle_beta   60.02690838
_cell_angle_gamma   60.13088967
_symmetry_Int_Tables_number   1
_chemical_formula_structural   Y3Ho5Cd2IrPt
_chemical_formula_sum   'Y6 Ho10 Cd4 Ir2 Pt2'
_cell_volume   634.29811850
_cell_formula_units_Z   2
loop_
 _symmetry_equiv_pos_site_id
 _symmetry_equiv_pos_as_xyz
  1  'x, y, z'
loop_
 _atom_site_type_symbol
 _atom_site_label
 _atom_site_symmetry_multiplicity
 _atom_site_fract_x
 _atom_site_fract_y
 _atom_site_fract_z
 _atom_site_occupancy
  Y  Y0  1  0.938361  0.564590  0.561441  1
  Y  Y1  1  0.562572  0.938151  0.938086  1
  Y  Y2  1  0.564585  0.938367  0.561427  1
  Y  Y3  1  0.938151  0.562572  0.938075  1
  Y  Y4  1  0.562555  0.562552  0.938558  1
  Y  Y5  1  0.937600  0.937601  0.561283  1
  Ho  Ho6  1  0.349421  0.349444  0.346076  1
  Ho  Ho7  1  0.351750  0.351766  0.950167  1
  Ho  Ho8  1  0.355396  0.945612  0.350956  1
  Ho  Ho9  1  0.945625  0.355409  0.350948  1
  Ho  Ho10  1  0.806004  0.191194  0.190464  1
  Ho  Ho11  1  0.188322  0.806977  0.813191  1
  Ho  Ho12  1  0.191193  0.806000  0.190467  1
  Ho  Ho13  1  0.806987  0.188324  0.813187  1
  Ho  Ho14  1  0.191619  0.191620  0.808168  1
  Ho  Ho15  1  0.811072  0.811045  0.187120  1
  Cd  Cd16  1  0.580744  0.580734  0.580073  1
  Cd  Cd17  1  0.581350  0.581344  0.255467  1
  Cd  Cd18  1  0.580894  0.256507  0.580922  1
  Cd  Cd19  1  0.256502  0.580893  0.580924  1
  Ir  Ir20  1  0.141472  0.573326  0.142972  1
  Ir  Ir21  1  0.573323  0.141466  0.142973  1
  Pt  Pt22  1  0.142592  0.142596  0.144565  1
  Pt  Pt23  1  0.141909  0.141910  0.572493  1
