# generated using pymatgen
data_Tb4HoP12Ru19
_symmetry_space_group_name_H-M   'P 1'
_cell_length_a   12.53679100
_cell_length_b   12.53466220
_cell_length_c   3.97917900
_cell_angle_alpha   90.00000000
_cell_angle_beta   90.00000000
_cell_angle_gamma   120.00562084
_symmetry_Int_Tables_number   1
_chemical_formula_structural   Tb4HoP12Ru19
_chemical_formula_sum   'Tb4 Ho1 P12 Ru19'
_cell_volume   541.50008234
_cell_formula_units_Z   1
loop_
 _symmetry_equiv_pos_site_id
 _symmetry_equiv_pos_as_xyz
  1  'x, y, z'
loop_
 _atom_site_type_symbol
 _atom_site_label
 _atom_site_symmetry_multiplicity
 _atom_site_fract_x
 _atom_site_fract_y
 _atom_site_fract_z
 _atom_site_occupancy
  Tb  Tb0  1  0.999993  0.183785  0.500000  1
  Tb  Tb1  1  0.816208  0.816215  0.500000  1
  Tb  Tb2  1  0.666592  0.333322  0.000000  1
  Tb  Tb3  1  0.333269  0.666678  0.000000  1
  Ho  Ho4  1  0.183703  0.000000  0.500000  1
  P  P5  1  0.000322  0.815639  0.000000  1
  P  P6  1  0.184683  0.184361  0.000000  1
  P  P7  1  0.815618  0.000000  0.000000  1
  P  P8  1  0.693213  0.170945  0.500000  1
  P  P9  1  0.829158  0.522565  0.500000  1
  P  P10  1  0.477582  0.306653  0.500000  1
  P  P11  1  0.170930  0.693347  0.500000  1
  P  P12  1  0.522268  0.829055  0.500000  1
  P  P13  1  0.306593  0.477435  0.500000  1
  P  P14  1  0.000025  0.372822  0.000000  1
  P  P15  1  0.627203  0.627178  0.000000  1
  P  P16  1  0.372626  0.000000  0.000000  1
  Ru  Ru17  1  0.000106  0.554724  0.000000  1
  Ru  Ru18  1  0.445381  0.445276  0.000000  1
  Ru  Ru19  1  0.554479  0.000000  0.000000  1
  Ru  Ru20  1  0.000267  0.717127  0.500000  1
  Ru  Ru21  1  0.283140  0.282873  0.500000  1
  Ru  Ru22  1  0.716688  0.000000  0.500000  1
  Ru  Ru23  1  0.807590  0.184648  0.000000  1
  Ru  Ru24  1  0.815452  0.622977  0.000000  1
  Ru  Ru25  1  0.376548  0.191765  0.000000  1
  Ru  Ru26  1  0.184783  0.808235  0.000000  1
  Ru  Ru27  1  0.622942  0.815352  0.000000  1
  Ru  Ru28  1  0.192475  0.377023  0.000000  1
  Ru  Ru29  1  0.874163  0.365784  0.500000  1
  Ru  Ru30  1  0.634262  0.508506  0.500000  1
  Ru  Ru31  1  0.491332  0.125734  0.500000  1
  Ru  Ru32  1  0.365598  0.874266  0.500000  1
  Ru  Ru33  1  0.508378  0.634216  0.500000  1
  Ru  Ru34  1  0.125755  0.491494  0.500000  1
  Ru  Ru35  1  0.000676  0.000000  0.000000  1
