# generated using pymatgen
data_Ta3Ga2BRh
_symmetry_space_group_name_H-M   'P 1'
_cell_length_a   8.37886257
_cell_length_b   8.37886264
_cell_length_c   8.37886200
_cell_angle_alpha   60.00000253
_cell_angle_beta   60.00000223
_cell_angle_gamma   60.00000406
_symmetry_Int_Tables_number   1
_chemical_formula_structural   Ta3Ga2BRh
_chemical_formula_sum   'Ta12 Ga8 B4 Rh4'
_cell_volume   415.94911687
_cell_formula_units_Z   4
loop_
 _symmetry_equiv_pos_site_id
 _symmetry_equiv_pos_as_xyz
  1  'x, y, z'
loop_
 _atom_site_type_symbol
 _atom_site_label
 _atom_site_symmetry_multiplicity
 _atom_site_fract_x
 _atom_site_fract_y
 _atom_site_fract_z
 _atom_site_occupancy
  Ta  Ta0  1  0.557424  0.942576  0.557424  1
  Ta  Ta1  1  0.307424  0.692576  0.692576  1
  Ta  Ta2  1  0.692576  0.307424  0.307424  1
  Ta  Ta3  1  0.307424  0.692576  0.307424  1
  Ta  Ta4  1  0.692576  0.692576  0.307424  1
  Ta  Ta5  1  0.307424  0.307424  0.692576  1
  Ta  Ta6  1  0.557424  0.557424  0.942576  1
  Ta  Ta7  1  0.942576  0.557424  0.557424  1
  Ta  Ta8  1  0.557424  0.942576  0.942576  1
  Ta  Ta9  1  0.942576  0.942576  0.557424  1
  Ta  Ta10  1  0.692576  0.307424  0.692576  1
  Ta  Ta11  1  0.942576  0.557424  0.942576  1
  Ga  Ga12  1  0.913910  0.913910  0.913910  1
  Ga  Ga13  1  0.991730  0.336090  0.336090  1
  Ga  Ga14  1  0.336090  0.991730  0.336090  1
  Ga  Ga15  1  0.336090  0.336090  0.991730  1
  Ga  Ga16  1  0.913910  0.258270  0.913910  1
  Ga  Ga17  1  0.913910  0.913910  0.258270  1
  Ga  Ga18  1  0.258270  0.913910  0.913910  1
  Ga  Ga19  1  0.336090  0.336090  0.336090  1
  B  B20  1  0.625000  0.625000  0.625000  1
  B  B21  1  0.125000  0.625000  0.625000  1
  B  B22  1  0.625000  0.125000  0.625000  1
  B  B23  1  0.625000  0.625000  0.125000  1
  Rh  Rh24  1  0.125000  0.125000  0.125000  1
  Rh  Rh25  1  0.625000  0.125000  0.125000  1
  Rh  Rh26  1  0.125000  0.625000  0.125000  1
  Rh  Rh27  1  0.125000  0.125000  0.625000  1
