# generated using pymatgen
data_ErTm5(LuSn2)4
_symmetry_space_group_name_H-M   'P 1'
_cell_length_a   7.94114400
_cell_length_b   8.05904219
_cell_length_c   15.21585900
_cell_angle_alpha   90.01227811
_cell_angle_beta   90.00000000
_cell_angle_gamma   90.00000000
_symmetry_Int_Tables_number   1
_chemical_formula_structural   ErTm5(LuSn2)4
_chemical_formula_sum   'Er2 Tm10 Lu8 Sn16'
_cell_volume   973.78474245
_cell_formula_units_Z   2
loop_
 _symmetry_equiv_pos_site_id
 _symmetry_equiv_pos_as_xyz
  1  'x, y, z'
loop_
 _atom_site_type_symbol
 _atom_site_label
 _atom_site_symmetry_multiplicity
 _atom_site_fract_x
 _atom_site_fract_y
 _atom_site_fract_z
 _atom_site_occupancy
  Er  Er0  1  0.519622  0.321407  0.595136  1
  Er  Er1  1  0.019622  0.178593  0.904864  1
  Tm  Tm2  1  0.633297  0.161802  0.123385  1
  Tm  Tm3  1  0.133297  0.338198  0.376615  1
  Tm  Tm4  1  0.367747  0.838066  0.623285  1
  Tm  Tm5  1  0.867747  0.661934  0.876715  1
  Tm  Tm6  1  0.522223  0.321215  0.903668  1
  Tm  Tm7  1  0.022223  0.178785  0.596332  1
  Tm  Tm8  1  0.478346  0.679271  0.403759  1
  Tm  Tm9  1  0.978346  0.820729  0.096241  1
  Tm  Tm10  1  0.479073  0.678460  0.095861  1
  Tm  Tm11  1  0.979073  0.821540  0.404139  1
  Lu  Lu12  1  0.365337  0.838113  0.876713  1
  Lu  Lu13  1  0.865337  0.661887  0.623287  1
  Lu  Lu14  1  0.634241  0.161362  0.376126  1
  Lu  Lu15  1  0.134241  0.338638  0.123874  1
  Lu  Lu16  1  0.196857  0.504631  0.750333  1
  Lu  Lu17  1  0.696857  0.995369  0.749667  1
  Lu  Lu18  1  0.803222  0.495559  0.250238  1
  Lu  Lu19  1  0.303222  0.004441  0.249762  1
  Sn  Sn20  1  0.293558  0.037706  0.041379  1
  Sn  Sn21  1  0.793558  0.462294  0.458621  1
  Sn  Sn22  1  0.707657  0.962160  0.541285  1
  Sn  Sn23  1  0.207657  0.537840  0.958715  1
  Sn  Sn24  1  0.703637  0.960212  0.958311  1
  Sn  Sn25  1  0.203637  0.539788  0.541689  1
  Sn  Sn26  1  0.295168  0.038395  0.458613  1
  Sn  Sn27  1  0.795168  0.461605  0.041387  1
  Sn  Sn28  1  0.563015  0.618309  0.750286  1
  Sn  Sn29  1  0.063015  0.881691  0.749714  1
  Sn  Sn30  1  0.437229  0.382024  0.250093  1
  Sn  Sn31  1  0.937229  0.117976  0.249907  1
  Sn  Sn32  1  0.331706  0.151004  0.750279  1
  Sn  Sn33  1  0.831706  0.348996  0.749721  1
  Sn  Sn34  1  0.668065  0.848531  0.249992  1
  Sn  Sn35  1  0.168065  0.651469  0.250008  1
