# generated using pymatgen
data_Ca3LaTa2V2O12
_symmetry_space_group_name_H-M   'P 1'
_cell_length_a   5.69724413
_cell_length_b   9.66923847
_cell_length_c   9.65451495
_cell_angle_alpha   70.15548411
_cell_angle_beta   90.30707032
_cell_angle_gamma   89.85420489
_symmetry_Int_Tables_number   1
_chemical_formula_structural   Ca3LaTa2V2O12
_chemical_formula_sum   'Ca6 La2 Ta4 V4 O24'
_cell_volume   500.25289751
_cell_formula_units_Z   2
loop_
 _symmetry_equiv_pos_site_id
 _symmetry_equiv_pos_as_xyz
  1  'x, y, z'
loop_
 _atom_site_type_symbol
 _atom_site_label
 _atom_site_symmetry_multiplicity
 _atom_site_fract_x
 _atom_site_fract_y
 _atom_site_fract_z
 _atom_site_occupancy
  Ca  Ca0  1  0.544451  0.120684  0.631596  1
  Ca  Ca1  1  0.544400  0.620758  0.131655  1
  Ca  Ca2  1  0.052566  0.882508  0.872200  1
  Ca  Ca3  1  0.052541  0.382538  0.372185  1
  Ca  Ca4  1  0.452090  0.879611  0.366049  1
  Ca  Ca5  1  0.452130  0.379552  0.865987  1
  La  La6  1  0.952433  0.117530  0.128057  1
  La  La7  1  0.952464  0.617553  0.628043  1
  Ta  Ta8  1  0.498396  0.753392  0.752389  1
  Ta  Ta9  1  0.498383  0.253432  0.252360  1
  Ta  Ta10  1  0.001155  0.245791  0.746352  1
  Ta  Ta11  1  0.001138  0.745799  0.246342  1
  V  V12  1  0.999419  0.500306  0.001144  1
  V  V13  1  0.500839  0.499951  0.499132  1
  V  V14  1  0.999369  0.000328  0.501155  1
  V  V15  1  0.500822  0.999965  0.999120  1
  O  O16  1  0.522535  0.678258  0.582586  1
  O  O17  1  0.522544  0.178265  0.082580  1
  O  O18  1  0.965999  0.169936  0.579127  1
  O  O19  1  0.965934  0.669941  0.079134  1
  O  O20  1  0.468777  0.321994  0.419608  1
  O  O21  1  0.468793  0.822000  0.919606  1
  O  O22  1  0.029724  0.833584  0.415752  1
  O  O23  1  0.029760  0.333529  0.915785  1
  O  O24  1  0.708916  0.080556  0.369039  1
  O  O25  1  0.708931  0.580523  0.869009  1
  O  O26  1  0.813717  0.081653  0.877249  1
  O  O27  1  0.813644  0.581661  0.377237  1
  O  O28  1  0.288335  0.918594  0.631604  1
  O  O29  1  0.288349  0.418637  0.131621  1
  O  O30  1  0.192539  0.916327  0.123710  1
  O  O31  1  0.192591  0.416357  0.623769  1
  O  O32  1  0.216516  0.122235  0.327217  1
  O  O33  1  0.216471  0.622239  0.827258  1
  O  O34  1  0.291052  0.132004  0.819806  1
  O  O35  1  0.290942  0.631981  0.319876  1
  O  O36  1  0.786388  0.873990  0.677261  1
  O  O37  1  0.786432  0.373978  0.177233  1
  O  O38  1  0.714216  0.871030  0.180099  1
  O  O39  1  0.714302  0.371033  0.680063  1
