# generated using pymatgen
data_Ac3CdAg3Sn4
_symmetry_space_group_name_H-M   'P 1'
_cell_length_a   9.31081939
_cell_length_b   9.25374663
_cell_length_c   9.25374738
_cell_angle_alpha   148.71082068
_cell_angle_beta   131.74134360
_cell_angle_gamma   58.58605689
_symmetry_Int_Tables_number   1
_chemical_formula_structural   Ac3CdAg3Sn4
_chemical_formula_sum   'Ac3 Cd1 Ag3 Sn4'
_cell_volume   306.62144653
_cell_formula_units_Z   1
loop_
 _symmetry_equiv_pos_site_id
 _symmetry_equiv_pos_as_xyz
  1  'x, y, z'
loop_
 _atom_site_type_symbol
 _atom_site_label
 _atom_site_symmetry_multiplicity
 _atom_site_fract_x
 _atom_site_fract_y
 _atom_site_fract_z
 _atom_site_occupancy
  Ac  Ac0  1  0.500315  0.000043  0.500272  1
  Ac  Ac1  1  0.870414  0.871158  0.999256  1
  Ac  Ac2  1  0.121789  0.129995  0.991795  1
  Cd  Cd3  1  0.478373  0.667876  0.810498  1
  Ag  Ag4  1  0.863108  0.669145  0.193963  1
  Ag  Ag5  1  0.142785  0.330533  0.812252  1
  Ag  Ag6  1  0.523194  0.331456  0.191737  1
  Sn  Sn7  1  0.281552  0.784482  0.497069  1
  Sn  Sn8  1  0.725098  0.218295  0.506803  1
  Sn  Sn9  1  0.806417  0.499980  0.306436  1
  Sn  Sn10  1  0.186954  0.497034  0.689920  1
