# generated using pymatgen
data_Hf10Al2Sn3Bi
_symmetry_space_group_name_H-M   'P 1'
_cell_length_a   5.53399921
_cell_length_b   8.35367270
_cell_length_c   8.34274529
_cell_angle_alpha   83.69286835
_cell_angle_beta   70.63011051
_cell_angle_gamma   70.65646340
_symmetry_Int_Tables_number   1
_chemical_formula_structural   Hf10Al2Sn3Bi
_chemical_formula_sum   'Hf10 Al2 Sn3 Bi1'
_cell_volume   343.30866814
_cell_formula_units_Z   1
loop_
 _symmetry_equiv_pos_site_id
 _symmetry_equiv_pos_as_xyz
  1  'x, y, z'
loop_
 _atom_site_type_symbol
 _atom_site_label
 _atom_site_symmetry_multiplicity
 _atom_site_fract_x
 _atom_site_fract_y
 _atom_site_fract_z
 _atom_site_occupancy
  Hf  Hf0  1  0.073984  0.139379  0.712653  1
  Hf  Hf1  1  0.927626  0.856027  0.288721  1
  Hf  Hf2  1  0.787160  0.290533  0.135146  1
  Hf  Hf3  1  0.422306  0.290533  0.864854  1
  Hf  Hf4  1  0.215229  0.709122  0.860419  1
  Hf  Hf5  1  0.575648  0.709122  0.139581  1
  Hf  Hf6  1  0.716347  0.856027  0.711279  1
  Hf  Hf7  1  0.286637  0.139379  0.287347  1
  Hf  Hf8  1  0.245712  0.505028  0.500000  1
  Hf  Hf9  1  0.749260  0.505028  0.500000  1
  Al  Al10  1  0.250177  0.999646  0.000000  1
  Al  Al11  1  0.750177  0.999646  0.000000  1
  Sn  Sn12  1  0.164900  0.499213  0.170987  1
  Sn  Sn13  1  0.835887  0.499213  0.829013  1
  Sn  Sn14  1  0.333676  0.832647  0.500000  1
  Bi  Bi15  1  0.665272  0.169457  0.500000  1
