# generated using pymatgen
data_Y2ThIr8Pt
_symmetry_space_group_name_H-M   'P 1'
_cell_length_a   9.31939967
_cell_length_b   9.31940057
_cell_length_c   9.31940056
_cell_angle_alpha   33.39057999
_cell_angle_beta   33.39056934
_cell_angle_gamma   33.39057701
_symmetry_Int_Tables_number   1
_chemical_formula_structural   Y2ThIr8Pt
_chemical_formula_sum   'Y2 Th1 Ir8 Pt1'
_cell_volume   218.30091486
_cell_formula_units_Z   1
loop_
 _symmetry_equiv_pos_site_id
 _symmetry_equiv_pos_as_xyz
  1  'x, y, z'
loop_
 _atom_site_type_symbol
 _atom_site_label
 _atom_site_symmetry_multiplicity
 _atom_site_fract_x
 _atom_site_fract_y
 _atom_site_fract_z
 _atom_site_occupancy
  Y  Y0  1  0.860298  0.860298  0.860298  1
  Y  Y1  1  0.139702  0.139702  0.139702  1
  Th  Th2  1  0.000000  0.000000  0.000000  1
  Ir  Ir3  1  0.417654  0.918708  0.417654  1
  Ir  Ir4  1  0.417654  0.417654  0.918708  1
  Ir  Ir5  1  0.918708  0.417654  0.417654  1
  Ir  Ir6  1  0.582346  0.081292  0.582346  1
  Ir  Ir7  1  0.582346  0.582346  0.081292  1
  Ir  Ir8  1  0.081292  0.582346  0.582346  1
  Ir  Ir9  1  0.666970  0.666970  0.666970  1
  Ir  Ir10  1  0.333030  0.333030  0.333030  1
  Pt  Pt11  1  0.500000  0.500000  0.500000  1
