# generated using pymatgen
data_Zr10Sn7Sb
_symmetry_space_group_name_H-M   'P 1'
_cell_length_a   8.85087277
_cell_length_b   8.86501235
_cell_length_c   5.96904700
_cell_angle_alpha   90.00000000
_cell_angle_beta   90.00000000
_cell_angle_gamma   120.05286099
_symmetry_Int_Tables_number   1
_chemical_formula_structural   Zr10Sn7Sb
_chemical_formula_sum   'Zr10 Sn7 Sb1'
_cell_volume   405.38669797
_cell_formula_units_Z   1
loop_
 _symmetry_equiv_pos_site_id
 _symmetry_equiv_pos_as_xyz
  1  'x, y, z'
loop_
 _atom_site_type_symbol
 _atom_site_label
 _atom_site_symmetry_multiplicity
 _atom_site_fract_x
 _atom_site_fract_y
 _atom_site_fract_z
 _atom_site_occupancy
  Zr  Zr0  1  0.280752  0.281062  0.750000  1
  Zr  Zr1  1  0.720282  0.719611  0.250000  1
  Zr  Zr2  1  0.719248  0.000310  0.750000  1
  Zr  Zr3  1  0.000000  0.281349  0.250000  1
  Zr  Zr4  1  0.332722  0.666490  0.500367  1
  Zr  Zr5  1  0.667278  0.333767  0.500367  1
  Zr  Zr6  1  0.000000  0.718726  0.750000  1
  Zr  Zr7  1  0.332722  0.666490  0.999633  1
  Zr  Zr8  1  0.279718  0.999329  0.250000  1
  Zr  Zr9  1  0.667278  0.333767  0.999633  1
  Sn  Sn10  1  0.000000  0.000612  0.500524  1
  Sn  Sn11  1  0.612749  0.613138  0.750000  1
  Sn  Sn12  1  0.387251  0.000389  0.750000  1
  Sn  Sn13  1  0.000000  0.000612  0.999476  1
  Sn  Sn14  1  0.613161  0.000147  0.250000  1
  Sn  Sn15  1  0.386839  0.386986  0.250000  1
  Sn  Sn16  1  0.000000  0.385630  0.750000  1
  Sb  Sb17  1  0.000000  0.611584  0.250000  1
