# generated using pymatgen
data_Tm3Mg3Hg2Ir
_symmetry_space_group_name_H-M   'P 1'
_cell_length_a   7.92960300
_cell_length_b   7.92960393
_cell_length_c   3.81696300
_cell_angle_alpha   90.00000000
_cell_angle_beta   90.00000000
_cell_angle_gamma   119.99999196
_symmetry_Int_Tables_number   1
_chemical_formula_structural   Tm3Mg3Hg2Ir
_chemical_formula_sum   'Tm3 Mg3 Hg2 Ir1'
_cell_volume   207.85073144
_cell_formula_units_Z   1
loop_
 _symmetry_equiv_pos_site_id
 _symmetry_equiv_pos_as_xyz
  1  'x, y, z'
loop_
 _atom_site_type_symbol
 _atom_site_label
 _atom_site_symmetry_multiplicity
 _atom_site_fract_x
 _atom_site_fract_y
 _atom_site_fract_z
 _atom_site_occupancy
  Tm  Tm0  1  0.606698  0.038667  0.000000  1
  Tm  Tm1  1  0.961333  0.568031  0.000000  1
  Tm  Tm2  1  0.431969  0.393302  0.000000  1
  Mg  Mg3  1  0.265436  0.999332  0.500000  1
  Mg  Mg4  1  0.000668  0.266103  0.500000  1
  Mg  Mg5  1  0.733897  0.734564  0.500000  1
  Hg  Hg6  1  0.333333  0.666667  0.500000  1
  Hg  Hg7  1  0.000000  0.000000  0.000000  1
  Ir  Ir8  1  0.666667  0.333333  0.500000  1
