# generated using pymatgen
data_Tb3Sm2DyNiBr10
_symmetry_space_group_name_H-M   'P 1'
_cell_length_a   7.37650723
_cell_length_b   9.22460181
_cell_length_c   9.35063287
_cell_angle_alpha   107.66607412
_cell_angle_beta   96.56707155
_cell_angle_gamma   105.38927644
_symmetry_Int_Tables_number   1
_chemical_formula_structural   Tb3Sm2DyNiBr10
_chemical_formula_sum   'Tb3 Sm2 Dy1 Ni1 Br10'
_cell_volume   571.21831174
_cell_formula_units_Z   1
loop_
 _symmetry_equiv_pos_site_id
 _symmetry_equiv_pos_as_xyz
  1  'x, y, z'
loop_
 _atom_site_type_symbol
 _atom_site_label
 _atom_site_symmetry_multiplicity
 _atom_site_fract_x
 _atom_site_fract_y
 _atom_site_fract_z
 _atom_site_occupancy
  Tb  Tb0  1  0.031825  0.707274  0.908706  1
  Tb  Tb1  1  0.352502  0.131182  0.173323  1
  Tb  Tb2  1  0.647432  0.869413  0.826793  1
  Sm  Sm3  1  0.126836  0.048477  0.756456  1
  Sm  Sm4  1  0.873413  0.951483  0.243624  1
  Dy  Dy5  1  0.968088  0.291408  0.090884  1
  Ni  Ni6  1  0.001008  0.000211  0.000527  1
  Br  Br7  1  0.550937  0.179909  0.917756  1
  Br  Br8  1  0.449764  0.820762  0.082724  1
  Br  Br9  1  0.344694  0.449538  0.269537  1
  Br  Br10  1  0.652979  0.550581  0.729697  1
  Br  Br11  1  0.254705  0.083486  0.453220  1
  Br  Br12  1  0.745550  0.917097  0.546920  1
  Br  Br13  1  0.778175  0.256330  0.340882  1
  Br  Br14  1  0.222933  0.744384  0.658357  1
  Br  Br15  1  0.082921  0.373289  0.830510  1
  Br  Br16  1  0.916240  0.625177  0.170086  1
