# generated using pymatgen
data_Ca20(Ag3Hg)3
_symmetry_space_group_name_H-M   'P 1'
_cell_length_a   8.10754100
_cell_length_b   8.10754100
_cell_length_c   14.78478400
_cell_angle_alpha   90.00000000
_cell_angle_beta   90.00000000
_cell_angle_gamma   90.00000000
_symmetry_Int_Tables_number   1
_chemical_formula_structural   Ca20(Ag3Hg)3
_chemical_formula_sum   'Ca20 Ag9 Hg3'
_cell_volume   971.83669031
_cell_formula_units_Z   1
loop_
 _symmetry_equiv_pos_site_id
 _symmetry_equiv_pos_as_xyz
  1  'x, y, z'
loop_
 _atom_site_type_symbol
 _atom_site_label
 _atom_site_symmetry_multiplicity
 _atom_site_fract_x
 _atom_site_fract_y
 _atom_site_fract_z
 _atom_site_occupancy
  Ca  Ca0  1  0.670326  0.164162  0.105313  1
  Ca  Ca1  1  0.168598  0.667387  0.607668  1
  Ca  Ca2  1  0.329674  0.835838  0.105313  1
  Ca  Ca3  1  0.831402  0.332613  0.607668  1
  Ca  Ca4  1  0.835838  0.670326  0.105313  1
  Ca  Ca5  1  0.332613  0.168598  0.607668  1
  Ca  Ca6  1  0.164162  0.329674  0.105313  1
  Ca  Ca7  1  0.667387  0.831402  0.607668  1
  Ca  Ca8  1  0.835838  0.329674  0.894687  1
  Ca  Ca9  1  0.332613  0.831402  0.392332  1
  Ca  Ca10  1  0.164162  0.670326  0.894687  1
  Ca  Ca11  1  0.667387  0.168598  0.392332  1
  Ca  Ca12  1  0.670326  0.835838  0.894687  1
  Ca  Ca13  1  0.168598  0.332613  0.392332  1
  Ca  Ca14  1  0.329674  0.164162  0.894687  1
  Ca  Ca15  1  0.831402  0.667387  0.392332  1
  Ca  Ca16  1  0.500000  0.500000  0.754413  1
  Ca  Ca17  1  0.000000  0.000000  0.250968  1
  Ca  Ca18  1  0.000000  0.000000  0.749032  1
  Ca  Ca19  1  0.500000  0.500000  0.245587  1
  Ag  Ag20  1  0.626062  0.126613  0.751322  1
  Ag  Ag21  1  0.126613  0.626062  0.248678  1
  Ag  Ag22  1  0.873387  0.373938  0.248678  1
  Ag  Ag23  1  0.373938  0.873387  0.751322  1
  Ag  Ag24  1  0.873387  0.626062  0.751322  1
  Ag  Ag25  1  0.373938  0.126613  0.248678  1
  Ag  Ag26  1  0.126613  0.373938  0.751322  1
  Ag  Ag27  1  0.626062  0.873387  0.248678  1
  Ag  Ag28  1  0.000000  0.000000  0.000000  1
  Hg  Hg29  1  0.500000  0.500000  0.500000  1
  Hg  Hg30  1  0.500000  0.500000  0.000000  1
  Hg  Hg31  1  0.000000  0.000000  0.500000  1
