# generated using pymatgen
data_Ba2ErFeO5
_symmetry_space_group_name_H-M   'P 1'
_cell_length_a   6.12971400
_cell_length_b   7.92567614
_cell_length_c   12.67564512
_cell_angle_alpha   91.50676046
_cell_angle_beta   90.00000000
_cell_angle_gamma   90.00000000
_symmetry_Int_Tables_number   1
_chemical_formula_structural   Ba2ErFeO5
_chemical_formula_sum   'Ba8 Er4 Fe4 O20'
_cell_volume   615.59688460
_cell_formula_units_Z   4
loop_
 _symmetry_equiv_pos_site_id
 _symmetry_equiv_pos_as_xyz
  1  'x, y, z'
loop_
 _atom_site_type_symbol
 _atom_site_label
 _atom_site_symmetry_multiplicity
 _atom_site_fract_x
 _atom_site_fract_y
 _atom_site_fract_z
 _atom_site_occupancy
  Ba  Ba0  1  0.758342  0.490492  0.355936  1
  Ba  Ba1  1  0.741658  0.990492  0.855936  1
  Ba  Ba2  1  0.241658  0.509508  0.644064  1
  Ba  Ba3  1  0.258342  0.009508  0.144064  1
  Ba  Ba4  1  0.753379  0.994824  0.380172  1
  Ba  Ba5  1  0.746621  0.494824  0.880172  1
  Ba  Ba6  1  0.246621  0.005176  0.619828  1
  Ba  Ba7  1  0.253379  0.505176  0.119828  1
  Er  Er8  1  0.748238  0.262932  0.631452  1
  Er  Er9  1  0.751762  0.762932  0.131452  1
  Er  Er10  1  0.251762  0.737068  0.368548  1
  Er  Er11  1  0.248238  0.237068  0.868548  1
  Fe  Fe12  1  0.739956  0.744234  0.586439  1
  Fe  Fe13  1  0.760044  0.244234  0.086439  1
  Fe  Fe14  1  0.260044  0.255766  0.413561  1
  Fe  Fe15  1  0.239956  0.755766  0.913561  1
  O  O16  1  0.757278  0.971862  0.638035  1
  O  O17  1  0.742722  0.471862  0.138035  1
  O  O18  1  0.242722  0.028138  0.361965  1
  O  O19  1  0.257278  0.528138  0.861965  1
  O  O20  1  0.736568  0.054828  0.173743  1
  O  O21  1  0.763432  0.554828  0.673743  1
  O  O22  1  0.263432  0.945172  0.826257  1
  O  O23  1  0.236568  0.445172  0.326257  1
  O  O24  1  0.542320  0.747181  0.270914  1
  O  O25  1  0.957680  0.247181  0.770914  1
  O  O26  1  0.457680  0.252819  0.729086  1
  O  O27  1  0.042320  0.752819  0.229086  1
  O  O28  1  0.534058  0.228689  0.982136  1
  O  O29  1  0.965942  0.728689  0.482136  1
  O  O30  1  0.465942  0.771311  0.017864  1
  O  O31  1  0.034058  0.271311  0.517864  1
  O  O32  1  0.033617  0.232312  0.014893  1
  O  O33  1  0.466383  0.732312  0.514893  1
  O  O34  1  0.966383  0.767688  0.985107  1
  O  O35  1  0.533617  0.267688  0.485107  1
