# generated using pymatgen
data_LiLa6Pr10Cd3Ir4
_symmetry_space_group_name_H-M   'P 1'
_cell_length_a   10.05468280
_cell_length_b   10.10035342
_cell_length_c   10.10035337
_cell_angle_alpha   59.63258481
_cell_angle_beta   60.29725881
_cell_angle_gamma   60.29724850
_symmetry_Int_Tables_number   1
_chemical_formula_structural   LiLa6Pr10Cd3Ir4
_chemical_formula_sum   'Li1 La6 Pr10 Cd3 Ir4'
_cell_volume   726.49423745
_cell_formula_units_Z   1
loop_
 _symmetry_equiv_pos_site_id
 _symmetry_equiv_pos_as_xyz
  1  'x, y, z'
loop_
 _atom_site_type_symbol
 _atom_site_label
 _atom_site_symmetry_multiplicity
 _atom_site_fract_x
 _atom_site_fract_y
 _atom_site_fract_z
 _atom_site_occupancy
  Li  Li0  1  0.572269  0.570535  0.570535  1
  La  La1  1  0.346278  0.348254  0.348254  1
  La  La2  1  0.348087  0.345492  0.959138  1
  La  La3  1  0.348087  0.959138  0.345492  1
  La  La4  1  0.959636  0.347594  0.347594  1
  La  La5  1  0.812010  0.188918  0.188918  1
  La  La6  1  0.184874  0.814485  0.814485  1
  Pr  Pr7  1  0.192131  0.809069  0.192461  1
  Pr  Pr8  1  0.810180  0.188445  0.810652  1
  Pr  Pr9  1  0.192131  0.192461  0.809069  1
  Pr  Pr10  1  0.810180  0.810652  0.188445  1
  Pr  Pr11  1  0.936430  0.563700  0.563700  1
  Pr  Pr12  1  0.562290  0.936899  0.936899  1
  Pr  Pr13  1  0.562778  0.937697  0.562606  1
  Pr  Pr14  1  0.938017  0.561975  0.938011  1
  Pr  Pr15  1  0.562778  0.562606  0.937697  1
  Pr  Pr16  1  0.938017  0.938011  0.561975  1
  Cd  Cd17  1  0.580634  0.582517  0.258198  1
  Cd  Cd18  1  0.580634  0.258198  0.582517  1
  Cd  Cd19  1  0.257810  0.580709  0.580709  1
  Ir  Ir20  1  0.137465  0.144173  0.144173  1
  Ir  Ir21  1  0.145528  0.136958  0.576394  1
  Ir  Ir22  1  0.145528  0.576394  0.136958  1
  Ir  Ir23  1  0.576228  0.145117  0.145117  1
