# generated using pymatgen
data_Eu4ScZn3Pt4
_symmetry_space_group_name_H-M   'P 1'
_cell_length_a   4.37525500
_cell_length_b   7.35177303
_cell_length_c   8.30306060
_cell_angle_alpha   91.11603132
_cell_angle_beta   90.00000000
_cell_angle_gamma   90.00000000
_symmetry_Int_Tables_number   1
_chemical_formula_structural   Eu4ScZn3Pt4
_chemical_formula_sum   'Eu4 Sc1 Zn3 Pt4'
_cell_volume   267.02460143
_cell_formula_units_Z   1
loop_
 _symmetry_equiv_pos_site_id
 _symmetry_equiv_pos_as_xyz
  1  'x, y, z'
loop_
 _atom_site_type_symbol
 _atom_site_label
 _atom_site_symmetry_multiplicity
 _atom_site_fract_x
 _atom_site_fract_y
 _atom_site_fract_z
 _atom_site_occupancy
  Eu  Eu0  1  0.750000  0.464239  0.830410  1
  Eu  Eu1  1  0.250000  0.035356  0.309134  1
  Eu  Eu2  1  0.750000  0.985338  0.693892  1
  Eu  Eu3  1  0.250000  0.522670  0.177072  1
  Sc  Sc4  1  0.250000  0.633735  0.565413  1
  Zn  Zn5  1  0.250000  0.147649  0.933964  1
  Zn  Zn6  1  0.750000  0.357932  0.428846  1
  Zn  Zn7  1  0.750000  0.850803  0.064565  1
  Pt  Pt8  1  0.250000  0.775548  0.878969  1
  Pt  Pt9  1  0.250000  0.277429  0.617240  1
  Pt  Pt10  1  0.750000  0.730270  0.386318  1
  Pt  Pt11  1  0.750000  0.219030  0.114176  1
