# generated using pymatgen
data_LaNd2Co8TcP6
_symmetry_space_group_name_H-M   'P 1'
_cell_length_a   3.78883600
_cell_length_b   10.71004400
_cell_length_c   12.44367100
_cell_angle_alpha   90.00000000
_cell_angle_beta   90.00000000
_cell_angle_gamma   90.00000000
_symmetry_Int_Tables_number   1
_chemical_formula_structural   LaNd2Co8TcP6
_chemical_formula_sum   'La2 Nd4 Co16 Tc2 P12'
_cell_volume   504.94675139
_cell_formula_units_Z   2
loop_
 _symmetry_equiv_pos_site_id
 _symmetry_equiv_pos_as_xyz
  1  'x, y, z'
loop_
 _atom_site_type_symbol
 _atom_site_label
 _atom_site_symmetry_multiplicity
 _atom_site_fract_x
 _atom_site_fract_y
 _atom_site_fract_z
 _atom_site_occupancy
  La  La0  1  0.000000  0.500000  0.524315  1
  La  La1  1  0.500000  0.000000  0.475685  1
  Nd  Nd2  1  0.500000  0.817354  0.205299  1
  Nd  Nd3  1  0.500000  0.182646  0.205299  1
  Nd  Nd4  1  0.000000  0.682646  0.794701  1
  Nd  Nd5  1  0.000000  0.317354  0.794701  1
  Co  Co6  1  0.500000  0.500000  0.704881  1
  Co  Co7  1  0.000000  0.000000  0.295119  1
  Co  Co8  1  0.000000  0.500000  0.988113  1
  Co  Co9  1  0.500000  0.000000  0.011887  1
  Co  Co10  1  0.500000  0.332036  0.992159  1
  Co  Co11  1  0.500000  0.667964  0.992159  1
  Co  Co12  1  0.000000  0.167964  0.007841  1
  Co  Co13  1  0.000000  0.832036  0.007841  1
  Co  Co14  1  0.500000  0.296966  0.429866  1
  Co  Co15  1  0.500000  0.703034  0.429866  1
  Co  Co16  1  0.000000  0.203034  0.570134  1
  Co  Co17  1  0.000000  0.796966  0.570134  1
  Co  Co18  1  0.500000  0.881741  0.710687  1
  Co  Co19  1  0.500000  0.118259  0.710687  1
  Co  Co20  1  0.000000  0.618259  0.289313  1
  Co  Co21  1  0.000000  0.381741  0.289313  1
  Tc  Tc22  1  0.500000  0.500000  0.153752  1
  Tc  Tc23  1  0.000000  0.000000  0.846248  1
  P  P24  1  0.500000  0.500000  0.886097  1
  P  P25  1  0.000000  0.000000  0.113903  1
  P  P26  1  0.500000  0.500000  0.342150  1
  P  P27  1  0.000000  0.000000  0.657850  1
  P  P28  1  0.500000  0.304639  0.614767  1
  P  P29  1  0.500000  0.695361  0.614767  1
  P  P30  1  0.000000  0.195361  0.385233  1
  P  P31  1  0.000000  0.804639  0.385233  1
  P  P32  1  0.500000  0.847820  0.895598  1
  P  P33  1  0.500000  0.152180  0.895598  1
  P  P34  1  0.000000  0.652180  0.104402  1
  P  P35  1  0.000000  0.347820  0.104402  1
