# generated using pymatgen
data_Ba2Fe2IrN3
_symmetry_space_group_name_H-M   'P 1'
_cell_length_a   6.83650069
_cell_length_b   6.83650082
_cell_length_c   6.74050773
_cell_angle_alpha   88.70072085
_cell_angle_beta   88.70072683
_cell_angle_gamma   117.34093207
_symmetry_Int_Tables_number   1
_chemical_formula_structural   Ba2Fe2IrN3
_chemical_formula_sum   'Ba4 Fe4 Ir2 N6'
_cell_volume   279.57700790
_cell_formula_units_Z   2
loop_
 _symmetry_equiv_pos_site_id
 _symmetry_equiv_pos_as_xyz
  1  'x, y, z'
loop_
 _atom_site_type_symbol
 _atom_site_label
 _atom_site_symmetry_multiplicity
 _atom_site_fract_x
 _atom_site_fract_y
 _atom_site_fract_z
 _atom_site_occupancy
  Ba  Ba0  1  0.837618  0.672214  0.899958  1
  Ba  Ba1  1  0.327786  0.162382  0.600042  1
  Ba  Ba2  1  0.162382  0.327786  0.100042  1
  Ba  Ba3  1  0.672214  0.837618  0.399958  1
  Fe  Fe4  1  0.556265  0.154496  0.103555  1
  Fe  Fe5  1  0.443735  0.845504  0.896445  1
  Fe  Fe6  1  0.845504  0.443735  0.396445  1
  Fe  Fe7  1  0.154496  0.556265  0.603555  1
  Ir  Ir8  1  0.805188  0.194812  0.750000  1
  Ir  Ir9  1  0.194812  0.805188  0.250000  1
  N  N10  1  0.383431  0.616569  0.750000  1
  N  N11  1  0.616569  0.383431  0.250000  1
  N  N12  1  0.014854  0.715151  0.502895  1
  N  N13  1  0.715151  0.014854  0.002895  1
  N  N14  1  0.985146  0.284849  0.497105  1
  N  N15  1  0.284849  0.985146  0.997105  1
