# generated using pymatgen
data_SrAc(Al5Os)4
_symmetry_space_group_name_H-M   'P 1'
_cell_length_a   6.95240977
_cell_length_b   6.95241006
_cell_length_c   9.28737900
_cell_angle_alpha   90.00000000
_cell_angle_beta   90.00000000
_cell_angle_gamma   96.43781222
_symmetry_Int_Tables_number   1
_chemical_formula_structural   SrAc(Al5Os)4
_chemical_formula_sum   'Sr1 Ac1 Al20 Os4'
_cell_volume   446.08399067
_cell_formula_units_Z   1
loop_
 _symmetry_equiv_pos_site_id
 _symmetry_equiv_pos_as_xyz
  1  'x, y, z'
loop_
 _atom_site_type_symbol
 _atom_site_label
 _atom_site_symmetry_multiplicity
 _atom_site_fract_x
 _atom_site_fract_y
 _atom_site_fract_z
 _atom_site_occupancy
  Sr  Sr0  1  0.878058  0.121942  0.750000  1
  Ac  Ac1  1  0.122503  0.877497  0.250000  1
  Al  Al2  1  0.622435  0.377565  0.545155  1
  Al  Al3  1  0.379081  0.620919  0.449794  1
  Al  Al4  1  0.379081  0.620919  0.050206  1
  Al  Al5  1  0.622435  0.377565  0.954845  1
  Al  Al6  1  0.225912  0.228688  0.501547  1
  Al  Al7  1  0.771312  0.774088  0.501547  1
  Al  Al8  1  0.771312  0.774088  0.998453  1
  Al  Al9  1  0.225912  0.228688  0.998453  1
  Al  Al10  1  0.837163  0.162837  0.101265  1
  Al  Al11  1  0.164987  0.835013  0.895841  1
  Al  Al12  1  0.164987  0.835013  0.604159  1
  Al  Al13  1  0.837163  0.162837  0.398735  1
  Al  Al14  1  0.858064  0.587717  0.750000  1
  Al  Al15  1  0.142030  0.410516  0.250000  1
  Al  Al16  1  0.412283  0.141936  0.750000  1
  Al  Al17  1  0.589484  0.857970  0.250000  1
  Al  Al18  1  0.218117  0.480341  0.750000  1
  Al  Al19  1  0.778643  0.515417  0.250000  1
  Al  Al20  1  0.519659  0.781883  0.750000  1
  Al  Al21  1  0.484583  0.221357  0.250000  1
  Os  Os22  1  0.999420  0.502022  0.499904  1
  Os  Os23  1  0.999420  0.502022  0.000096  1
  Os  Os24  1  0.497978  0.000580  0.000096  1
  Os  Os25  1  0.497978  0.000580  0.499904  1
