# generated using pymatgen
data_Ce2CuP2Rh4Au
_symmetry_space_group_name_H-M   'P 1'
_cell_length_a   3.91388600
_cell_length_b   3.91388600
_cell_length_c   11.28614500
_cell_angle_alpha   90.00000000
_cell_angle_beta   90.00000000
_cell_angle_gamma   90.00000000
_symmetry_Int_Tables_number   1
_chemical_formula_structural   Ce2CuP2Rh4Au
_chemical_formula_sum   'Ce2 Cu1 P2 Rh4 Au1'
_cell_volume   172.88685305
_cell_formula_units_Z   1
loop_
 _symmetry_equiv_pos_site_id
 _symmetry_equiv_pos_as_xyz
  1  'x, y, z'
loop_
 _atom_site_type_symbol
 _atom_site_label
 _atom_site_symmetry_multiplicity
 _atom_site_fract_x
 _atom_site_fract_y
 _atom_site_fract_z
 _atom_site_occupancy
  Ce  Ce0  1  0.500000  0.000000  0.748984  1
  Ce  Ce1  1  0.000000  0.500000  0.251016  1
  Cu  Cu2  1  0.500000  0.500000  0.500000  1
  P  P3  1  0.500000  0.000000  0.119976  1
  P  P4  1  0.000000  0.500000  0.880024  1
  Rh  Rh5  1  0.000000  0.500000  0.676781  1
  Rh  Rh6  1  0.500000  0.000000  0.323219  1
  Rh  Rh7  1  0.000000  0.000000  0.000000  1
  Rh  Rh8  1  0.500000  0.500000  0.000000  1
  Au  Au9  1  0.000000  0.000000  0.500000  1
