# generated using pymatgen
data_Sm4Y2FeBr10
_symmetry_space_group_name_H-M   'P 1'
_cell_length_a   7.41260939
_cell_length_b   9.23913186
_cell_length_c   9.23937436
_cell_angle_alpha   107.31017714
_cell_angle_beta   96.34337069
_cell_angle_gamma   104.90399233
_symmetry_Int_Tables_number   1
_chemical_formula_structural   Sm4Y2FeBr10
_chemical_formula_sum   'Sm4 Y2 Fe1 Br10'
_cell_volume   571.66608839
_cell_formula_units_Z   1
loop_
 _symmetry_equiv_pos_site_id
 _symmetry_equiv_pos_as_xyz
  1  'x, y, z'
loop_
 _atom_site_type_symbol
 _atom_site_label
 _atom_site_symmetry_multiplicity
 _atom_site_fract_x
 _atom_site_fract_y
 _atom_site_fract_z
 _atom_site_occupancy
  Sm  Sm0  1  0.119700  0.044299  0.756800  1
  Sm  Sm1  1  0.880300  0.955701  0.243200  1
  Sm  Sm2  1  0.966783  0.287069  0.085587  1
  Sm  Sm3  1  0.033217  0.712931  0.914413  1
  Y  Y4  1  0.360548  0.131267  0.174800  1
  Y  Y5  1  0.639452  0.868733  0.825200  1
  Fe  Fe6  1  0.000000  0.000000  0.000000  1
  Br  Br7  1  0.348108  0.444112  0.269351  1
  Br  Br8  1  0.651892  0.555888  0.730649  1
  Br  Br9  1  0.256935  0.085862  0.453694  1
  Br  Br10  1  0.743065  0.914138  0.546306  1
  Br  Br11  1  0.086526  0.368442  0.819604  1
  Br  Br12  1  0.913474  0.631558  0.180396  1
  Br  Br13  1  0.455577  0.821098  0.088975  1
  Br  Br14  1  0.544423  0.178902  0.911025  1
  Br  Br15  1  0.776905  0.254653  0.344499  1
  Br  Br16  1  0.223095  0.745347  0.655501  1
