# generated using pymatgen
data_Nb2Co9W
_symmetry_space_group_name_H-M   'P 1'
_cell_length_a   6.88005153
_cell_length_b   6.88005152
_cell_length_c   6.88005240
_cell_angle_alpha   43.80323177
_cell_angle_beta   43.80323121
_cell_angle_gamma   43.80323237
_symmetry_Int_Tables_number   1
_chemical_formula_structural   Nb2Co9W
_chemical_formula_sum   'Nb2 Co9 W1'
_cell_volume   141.66296292
_cell_formula_units_Z   1
loop_
 _symmetry_equiv_pos_site_id
 _symmetry_equiv_pos_as_xyz
  1  'x, y, z'
loop_
 _atom_site_type_symbol
 _atom_site_label
 _atom_site_symmetry_multiplicity
 _atom_site_fract_x
 _atom_site_fract_y
 _atom_site_fract_z
 _atom_site_occupancy
  Nb  Nb0  1  0.780678  0.780678  0.780678  1
  Nb  Nb1  1  0.000446  0.000446  0.000446  1
  Co  Co2  1  0.285845  0.762751  0.285845  1
  Co  Co3  1  0.762751  0.285845  0.285845  1
  Co  Co4  1  0.285845  0.285845  0.762751  1
  Co  Co5  1  0.713725  0.241731  0.713725  1
  Co  Co6  1  0.241731  0.713725  0.713725  1
  Co  Co7  1  0.713725  0.713725  0.241731  1
  Co  Co8  1  0.003106  0.496671  0.496671  1
  Co  Co9  1  0.496671  0.496671  0.003106  1
  Co  Co10  1  0.496671  0.003106  0.496671  1
  W  W11  1  0.218806  0.218806  0.218806  1
