# generated using pymatgen
data_Yb4Dy5Ho(CuPb3)2
_symmetry_space_group_name_H-M   'P 1'
_cell_length_a   9.18671003
_cell_length_b   9.18670949
_cell_length_c   6.78039500
_cell_angle_alpha   90.00000000
_cell_angle_beta   90.00000000
_cell_angle_gamma   119.99071047
_symmetry_Int_Tables_number   1
_chemical_formula_structural   Yb4Dy5Ho(CuPb3)2
_chemical_formula_sum   'Yb4 Dy5 Ho1 Cu2 Pb6'
_cell_volume   495.61707870
_cell_formula_units_Z   1
loop_
 _symmetry_equiv_pos_site_id
 _symmetry_equiv_pos_as_xyz
  1  'x, y, z'
loop_
 _atom_site_type_symbol
 _atom_site_label
 _atom_site_symmetry_multiplicity
 _atom_site_fract_x
 _atom_site_fract_y
 _atom_site_fract_z
 _atom_site_occupancy
  Yb  Yb0  1  0.333293  0.666586  0.499964  1
  Yb  Yb1  1  0.666586  0.333293  0.499964  1
  Yb  Yb2  1  0.666586  0.333293  0.000036  1
  Yb  Yb3  1  0.333293  0.666586  0.000036  1
  Dy  Dy4  1  0.258330  0.000023  0.750000  1
  Dy  Dy5  1  0.741673  0.999991  0.250000  1
  Dy  Dy6  1  0.000023  0.258330  0.750000  1
  Dy  Dy7  1  0.999991  0.741673  0.250000  1
  Dy  Dy8  1  0.741737  0.741737  0.750000  1
  Ho  Ho9  1  0.258244  0.258244  0.250000  1
  Cu  Cu10  1  0.000239  0.000239  0.499853  1
  Cu  Cu11  1  0.000239  0.000239  0.000147  1
  Pb  Pb12  1  0.613838  0.000012  0.750000  1
  Pb  Pb13  1  0.386095  0.000207  0.250000  1
  Pb  Pb14  1  0.000012  0.613838  0.750000  1
  Pb  Pb15  1  0.000207  0.386095  0.250000  1
  Pb  Pb16  1  0.386145  0.386145  0.750000  1
  Pb  Pb17  1  0.613470  0.613470  0.250000  1
