# generated using pymatgen
data_DyHoB6Os
_symmetry_space_group_name_H-M   'P 1'
_cell_length_a   3.65099200
_cell_length_b   9.13413400
_cell_length_c   11.51889600
_cell_angle_alpha   90.00000000
_cell_angle_beta   90.00000000
_cell_angle_gamma   90.00000000
_symmetry_Int_Tables_number   1
_chemical_formula_structural   DyHoB6Os
_chemical_formula_sum   'Dy4 Ho4 B24 Os4'
_cell_volume   384.13963294
_cell_formula_units_Z   4
loop_
 _symmetry_equiv_pos_site_id
 _symmetry_equiv_pos_as_xyz
  1  'x, y, z'
loop_
 _atom_site_type_symbol
 _atom_site_label
 _atom_site_symmetry_multiplicity
 _atom_site_fract_x
 _atom_site_fract_y
 _atom_site_fract_z
 _atom_site_occupancy
  Dy  Dy0  1  0.000000  0.321927  0.413862  1
  Dy  Dy1  1  0.000000  0.678073  0.586138  1
  Dy  Dy2  1  0.000000  0.821927  0.086138  1
  Dy  Dy3  1  0.000000  0.178073  0.913862  1
  Ho  Ho4  1  0.000000  0.944088  0.373001  1
  Ho  Ho5  1  0.000000  0.055912  0.627000  1
  Ho  Ho6  1  0.000000  0.444088  0.126999  1
  Ho  Ho7  1  0.000000  0.555912  0.873000  1
  B  B8  1  0.500000  0.554106  0.432865  1
  B  B9  1  0.500000  0.445894  0.567135  1
  B  B10  1  0.500000  0.054106  0.067135  1
  B  B11  1  0.500000  0.945894  0.932865  1
  B  B12  1  0.500000  0.748620  0.419752  1
  B  B13  1  0.500000  0.251380  0.580248  1
  B  B14  1  0.500000  0.248620  0.080248  1
  B  B15  1  0.500000  0.751380  0.919752  1
  B  B16  1  0.500000  0.791202  0.266536  1
  B  B17  1  0.500000  0.208798  0.733464  1
  B  B18  1  0.500000  0.291201  0.233464  1
  B  B19  1  0.500000  0.708798  0.766536  1
  B  B20  1  0.500000  0.631611  0.185165  1
  B  B21  1  0.500000  0.368389  0.814835  1
  B  B22  1  0.500000  0.131611  0.314835  1
  B  B23  1  0.500000  0.868389  0.685165  1
  B  B24  1  0.500000  0.983334  0.213242  1
  B  B25  1  0.500000  0.016666  0.786758  1
  B  B26  1  0.500000  0.483334  0.286758  1
  B  B27  1  0.500000  0.516666  0.713242  1
  B  B28  1  0.500000  0.606633  0.029482  1
  B  B29  1  0.500000  0.393367  0.970518  1
  B  B30  1  0.500000  0.106633  0.470518  1
  B  B31  1  0.500000  0.893367  0.529482  1
  Os  Os32  1  0.000000  0.637852  0.321035  1
  Os  Os33  1  0.000000  0.362148  0.678965  1
  Os  Os34  1  0.000000  0.137852  0.178965  1
  Os  Os35  1  0.000000  0.862148  0.821035  1
