# generated using pymatgen
data_Y7Zr4In9Rh4
_symmetry_space_group_name_H-M   'P 1'
_cell_length_a   12.86692988
_cell_length_b   12.86692924
_cell_length_c   3.63603300
_cell_angle_alpha   90.00000000
_cell_angle_beta   90.00000000
_cell_angle_gamma   111.04690800
_symmetry_Int_Tables_number   1
_chemical_formula_structural   Y7Zr4In9Rh4
_chemical_formula_sum   'Y7 Zr4 In9 Rh4'
_cell_volume   561.81424722
_cell_formula_units_Z   1
loop_
 _symmetry_equiv_pos_site_id
 _symmetry_equiv_pos_as_xyz
  1  'x, y, z'
loop_
 _atom_site_type_symbol
 _atom_site_label
 _atom_site_symmetry_multiplicity
 _atom_site_fract_x
 _atom_site_fract_y
 _atom_site_fract_z
 _atom_site_occupancy
  Y  Y0  1  0.631149  0.368851  0.000000  1
  Y  Y1  1  0.368851  0.631149  0.000000  1
  Y  Y2  1  0.841103  0.158897  0.000000  1
  Y  Y3  1  0.158897  0.841103  0.000000  1
  Y  Y4  1  0.000000  0.000000  0.000000  1
  Y  Y5  1  0.308440  0.308440  0.000000  1
  Y  Y6  1  0.691560  0.691560  0.000000  1
  Zr  Zr7  1  0.077125  0.422625  0.000000  1
  Zr  Zr8  1  0.922875  0.577375  0.000000  1
  Zr  Zr9  1  0.422625  0.077125  0.000000  1
  Zr  Zr10  1  0.577375  0.922875  0.000000  1
  In  In11  1  0.852004  0.369221  0.500000  1
  In  In12  1  0.147996  0.630779  0.500000  1
  In  In13  1  0.369221  0.852004  0.500000  1
  In  In14  1  0.630779  0.147996  0.500000  1
  In  In15  1  0.072041  0.222630  0.500000  1
  In  In16  1  0.927959  0.777370  0.500000  1
  In  In17  1  0.222630  0.072041  0.500000  1
  In  In18  1  0.777370  0.927959  0.500000  1
  In  In19  1  0.500000  0.500000  0.500000  1
  Rh  Rh20  1  0.234736  0.448317  0.500000  1
  Rh  Rh21  1  0.765264  0.551683  0.500000  1
  Rh  Rh22  1  0.448317  0.234736  0.500000  1
  Rh  Rh23  1  0.551683  0.765264  0.500000  1
