# generated using pymatgen
data_Tb6Lu2Ti5Si16Mo7
_symmetry_space_group_name_H-M   'P 1'
_cell_length_a   6.93580678
_cell_length_b   6.92663326
_cell_length_c   12.82440805
_cell_angle_alpha   89.92388824
_cell_angle_beta   90.08991757
_cell_angle_gamma   90.02092564
_symmetry_Int_Tables_number   1
_chemical_formula_structural   Tb6Lu2Ti5Si16Mo7
_chemical_formula_sum   'Tb6 Lu2 Ti5 Si16 Mo7'
_cell_volume   616.10617458
_cell_formula_units_Z   1
loop_
 _symmetry_equiv_pos_site_id
 _symmetry_equiv_pos_as_xyz
  1  'x, y, z'
loop_
 _atom_site_type_symbol
 _atom_site_label
 _atom_site_symmetry_multiplicity
 _atom_site_fract_x
 _atom_site_fract_y
 _atom_site_fract_z
 _atom_site_occupancy
  Tb  Tb0  1  0.501984  0.160620  0.218898  1
  Tb  Tb1  1  0.839451  0.496185  0.281561  1
  Tb  Tb2  1  0.160644  0.502351  0.782045  1
  Tb  Tb3  1  0.660033  0.997420  0.968016  1
  Tb  Tb4  1  0.003263  0.339189  0.532088  1
  Tb  Tb5  1  0.996327  0.661719  0.030936  1
  Lu  Lu6  1  0.341722  0.001350  0.467924  1
  Lu  Lu7  1  0.499293  0.841385  0.718650  1
  Ti  Ti8  1  0.329741  0.330523  0.998963  1
  Ti  Ti9  1  0.169607  0.829483  0.250566  1
  Ti  Ti10  1  0.827884  0.171231  0.749740  1
  Ti  Ti11  1  0.669152  0.667984  0.499497  1
  Ti  Ti12  1  0.993430  0.841558  0.625368  1
  Si  Si13  1  0.204535  0.126267  0.682956  1
  Si  Si14  1  0.372826  0.702286  0.933153  1
  Si  Si15  1  0.627820  0.297687  0.434686  1
  Si  Si16  1  0.699587  0.372112  0.065608  1
  Si  Si17  1  0.302029  0.632363  0.566114  1
  Si  Si18  1  0.798565  0.872310  0.184533  1
  Si  Si19  1  0.128413  0.199134  0.317661  1
  Si  Si20  1  0.871310  0.799990  0.814767  1
  Si  Si21  1  0.288493  0.959480  0.062595  1
  Si  Si22  1  0.539701  0.789260  0.313687  1
  Si  Si23  1  0.459092  0.209102  0.811831  1
  Si  Si24  1  0.787399  0.543245  0.687231  1
  Si  Si25  1  0.211234  0.458691  0.187240  1
  Si  Si26  1  0.707603  0.040813  0.563780  1
  Si  Si27  1  0.959018  0.288802  0.937003  1
  Si  Si28  1  0.044685  0.712254  0.437648  1
  Mo  Mo29  1  0.161427  0.007801  0.874313  1
  Mo  Mo30  1  0.491860  0.659611  0.124421  1
  Mo  Mo31  1  0.506017  0.340439  0.623259  1
  Mo  Mo32  1  0.657234  0.491692  0.876504  1
  Mo  Mo33  1  0.342319  0.505383  0.375581  1
  Mo  Mo34  1  0.839212  0.990906  0.374386  1
  Mo  Mo35  1  0.007088  0.159376  0.126792  1
