# generated using pymatgen
data_Ce2Tm3Co2
_symmetry_space_group_name_H-M   'P 1'
_cell_length_a   8.69199211
_cell_length_b   8.69199253
_cell_length_c   6.74813543
_cell_angle_alpha   85.68149108
_cell_angle_beta   85.68149235
_cell_angle_gamma   42.00568964
_symmetry_Int_Tables_number   1
_chemical_formula_structural   Ce2Tm3Co2
_chemical_formula_sum   'Ce4 Tm6 Co4'
_cell_volume   340.06651753
_cell_formula_units_Z   2
loop_
 _symmetry_equiv_pos_site_id
 _symmetry_equiv_pos_as_xyz
  1  'x, y, z'
loop_
 _atom_site_type_symbol
 _atom_site_label
 _atom_site_symmetry_multiplicity
 _atom_site_fract_x
 _atom_site_fract_y
 _atom_site_fract_z
 _atom_site_occupancy
  Ce  Ce0  1  0.012614  0.798577  0.899162  1
  Ce  Ce1  1  0.201423  0.987386  0.600838  1
  Ce  Ce2  1  0.987386  0.201423  0.100838  1
  Ce  Ce3  1  0.798577  0.012614  0.399162  1
  Tm  Tm4  1  0.355271  0.215714  0.825111  1
  Tm  Tm5  1  0.784286  0.644729  0.674889  1
  Tm  Tm6  1  0.644729  0.784286  0.174889  1
  Tm  Tm7  1  0.215714  0.355271  0.325111  1
  Tm  Tm8  1  0.580286  0.419714  0.750000  1
  Tm  Tm9  1  0.419714  0.580286  0.250000  1
  Co  Co10  1  0.153931  0.623252  0.597188  1
  Co  Co11  1  0.376748  0.846069  0.902812  1
  Co  Co12  1  0.846069  0.376748  0.402812  1
  Co  Co13  1  0.623252  0.153931  0.097188  1
