# generated using pymatgen
data_TbY3Tm2GaCo2
_symmetry_space_group_name_H-M   'P 1'
_cell_length_a   8.25856203
_cell_length_b   8.28750892
_cell_length_c   8.28751014
_cell_angle_alpha   112.03617662
_cell_angle_beta   109.21939985
_cell_angle_gamma   107.32621243
_symmetry_Int_Tables_number   1
_chemical_formula_structural   TbY3Tm2GaCo2
_chemical_formula_sum   'Tb2 Y6 Tm4 Ga2 Co4'
_cell_volume   435.17787086
_cell_formula_units_Z   2
loop_
 _symmetry_equiv_pos_site_id
 _symmetry_equiv_pos_as_xyz
  1  'x, y, z'
loop_
 _atom_site_type_symbol
 _atom_site_label
 _atom_site_symmetry_multiplicity
 _atom_site_fract_x
 _atom_site_fract_y
 _atom_site_fract_z
 _atom_site_occupancy
  Tb  Tb0  1  0.959686  0.262028  0.697658  1
  Tb  Tb1  1  0.040314  0.737972  0.302342  1
  Y  Y2  1  0.563417  0.259955  0.303461  1
  Y  Y3  1  0.436583  0.740045  0.696539  1
  Y  Y4  1  0.179969  0.779578  0.960974  1
  Y  Y5  1  0.820031  0.781003  0.599610  1
  Y  Y6  1  0.179969  0.218997  0.400390  1
  Y  Y7  1  0.820031  0.220422  0.039026  1
  Tm  Tm8  1  0.671581  0.857235  0.184797  1
  Tm  Tm9  1  0.328419  0.513216  0.185654  1
  Tm  Tm10  1  0.328419  0.142765  0.815203  1
  Tm  Tm11  1  0.671581  0.486784  0.814346  1
  Ga  Ga12  1  0.000000  0.500000  0.500000  1
  Ga  Ga13  1  0.500000  0.000000  0.500000  1
  Co  Co14  1  0.116917  0.115645  0.001272  1
  Co  Co15  1  0.883083  0.884355  0.998728  1
  Co  Co16  1  0.660224  0.500901  0.159322  1
  Co  Co17  1  0.339776  0.499099  0.840678  1
