# generated using pymatgen
data_Ti16IrRh7O4
_symmetry_space_group_name_H-M   'P 1'
_cell_length_a   8.22566667
_cell_length_b   8.23369782
_cell_length_c   8.23369700
_cell_angle_alpha   59.99999926
_cell_angle_beta   59.96769654
_cell_angle_gamma   59.96769615
_symmetry_Int_Tables_number   1
_chemical_formula_structural   Ti16IrRh7O4
_chemical_formula_sum   'Ti16 Ir1 Rh7 O4'
_cell_volume   394.12472967
_cell_formula_units_Z   1
loop_
 _symmetry_equiv_pos_site_id
 _symmetry_equiv_pos_as_xyz
  1  'x, y, z'
loop_
 _atom_site_type_symbol
 _atom_site_label
 _atom_site_symmetry_multiplicity
 _atom_site_fract_x
 _atom_site_fract_y
 _atom_site_fract_z
 _atom_site_occupancy
  Ti  Ti0  1  0.817052  0.183094  0.816761  1
  Ti  Ti1  1  0.181551  0.817980  0.182489  1
  Ti  Ti2  1  0.431488  0.068446  0.431618  1
  Ti  Ti3  1  0.431488  0.068446  0.068446  1
  Ti  Ti4  1  0.066949  0.432101  0.432101  1
  Ti  Ti5  1  0.066949  0.432101  0.068848  1
  Ti  Ti6  1  0.181551  0.182489  0.817980  1
  Ti  Ti7  1  0.431488  0.431618  0.068446  1
  Ti  Ti8  1  0.125186  0.624938  0.624938  1
  Ti  Ti9  1  0.625166  0.626549  0.121738  1
  Ti  Ti10  1  0.625166  0.626549  0.626549  1
  Ti  Ti11  1  0.625166  0.121738  0.626549  1
  Ti  Ti12  1  0.181551  0.817980  0.817980  1
  Ti  Ti13  1  0.817052  0.183094  0.183094  1
  Ti  Ti14  1  0.066949  0.068848  0.432101  1
  Ti  Ti15  1  0.817052  0.816761  0.183094  1
  Ir  Ir16  1  0.771564  0.409479  0.409479  1
  Rh  Rh17  1  0.411300  0.770999  0.408851  1
  Rh  Rh18  1  0.842408  0.841094  0.475404  1
  Rh  Rh19  1  0.842408  0.841094  0.841094  1
  Rh  Rh20  1  0.473553  0.842149  0.842149  1
  Rh  Rh21  1  0.411300  0.408851  0.408851  1
  Rh  Rh22  1  0.411300  0.408851  0.770999  1
  Rh  Rh23  1  0.842408  0.475404  0.841094  1
  O  O24  1  0.125498  0.124840  0.624822  1
  O  O25  1  0.625456  0.124848  0.124848  1
  O  O26  1  0.125498  0.124840  0.124840  1
  O  O27  1  0.125498  0.624822  0.124840  1
