# generated using pymatgen
data_HgBi6(AsO5)4
_symmetry_space_group_name_H-M   'P 1'
_cell_length_a   7.17034676
_cell_length_b   7.87118850
_cell_length_c   9.46610610
_cell_angle_alpha   105.09035611
_cell_angle_beta   95.55608012
_cell_angle_gamma   111.52829296
_symmetry_Int_Tables_number   1
_chemical_formula_structural   HgBi6(AsO5)4
_chemical_formula_sum   'Hg1 Bi6 As4 O20'
_cell_volume   468.71549072
_cell_formula_units_Z   1
loop_
 _symmetry_equiv_pos_site_id
 _symmetry_equiv_pos_as_xyz
  1  'x, y, z'
loop_
 _atom_site_type_symbol
 _atom_site_label
 _atom_site_symmetry_multiplicity
 _atom_site_fract_x
 _atom_site_fract_y
 _atom_site_fract_z
 _atom_site_occupancy
  Hg  Hg0  1  0.000000  0.000000  0.000000  1
  Bi  Bi1  1  0.345947  0.132521  0.511466  1
  Bi  Bi2  1  0.654053  0.867479  0.488534  1
  Bi  Bi3  1  0.442320  0.798064  0.083917  1
  Bi  Bi4  1  0.557680  0.201936  0.916083  1
  Bi  Bi5  1  0.805822  0.288332  0.324679  1
  Bi  Bi6  1  0.194178  0.711668  0.675321  1
  As  As7  1  0.054643  0.265367  0.763167  1
  As  As8  1  0.945357  0.734633  0.236833  1
  As  As9  1  0.345199  0.393677  0.252298  1
  As  As10  1  0.654801  0.606323  0.747702  1
  O  O11  1  0.116391  0.238367  0.276411  1
  O  O12  1  0.883609  0.761633  0.723589  1
  O  O13  1  0.152619  0.512953  0.832306  1
  O  O14  1  0.847381  0.487047  0.167694  1
  O  O15  1  0.666234  0.093260  0.103660  1
  O  O16  1  0.333766  0.906740  0.896340  1
  O  O17  1  0.546339  0.027632  0.364369  1
  O  O18  1  0.453661  0.972368  0.635631  1
  O  O19  1  0.360545  0.625665  0.302547  1
  O  O20  1  0.639455  0.374335  0.697453  1
  O  O21  1  0.243397  0.177565  0.753650  1
  O  O22  1  0.756603  0.822435  0.246350  1
  O  O23  1  0.543582  0.387284  0.367740  1
  O  O24  1  0.456418  0.612716  0.632260  1
  O  O25  1  0.073861  0.814215  0.421560  1
  O  O26  1  0.926139  0.185785  0.578440  1
  O  O27  1  0.109464  0.837487  0.129499  1
  O  O28  1  0.890536  0.162513  0.870501  1
  O  O29  1  0.348418  0.310585  0.065448  1
  O  O30  1  0.651582  0.689415  0.934552  1
