# generated using pymatgen
data_Tb2Ce8Y3Er7(CoBi2)4
_symmetry_space_group_name_H-M   'P 1'
_cell_length_a   7.91907001
_cell_length_b   9.06277000
_cell_length_c   12.17022423
_cell_angle_alpha   90.00000000
_cell_angle_beta   89.95349773
_cell_angle_gamma   90.00000000
_symmetry_Int_Tables_number   1
_chemical_formula_structural   Tb2Ce8Y3Er7(CoBi2)4
_chemical_formula_sum   'Tb2 Ce8 Y3 Er7 Co4 Bi8'
_cell_volume   873.44100752
_cell_formula_units_Z   1
loop_
 _symmetry_equiv_pos_site_id
 _symmetry_equiv_pos_as_xyz
  1  'x, y, z'
loop_
 _atom_site_type_symbol
 _atom_site_label
 _atom_site_symmetry_multiplicity
 _atom_site_fract_x
 _atom_site_fract_y
 _atom_site_fract_z
 _atom_site_occupancy
  Tb  Tb0  1  0.981209  0.750000  0.499327  1
  Tb  Tb1  1  0.518647  0.750000  0.999841  1
  Ce  Ce2  1  0.656199  0.013317  0.550872  1
  Ce  Ce3  1  0.344566  0.987045  0.448514  1
  Ce  Ce4  1  0.155368  0.987372  0.948757  1
  Ce  Ce5  1  0.344566  0.512955  0.448514  1
  Ce  Ce6  1  0.844023  0.013239  0.051126  1
  Ce  Ce7  1  0.656199  0.486683  0.550872  1
  Ce  Ce8  1  0.844023  0.486761  0.051126  1
  Ce  Ce9  1  0.155368  0.512628  0.948757  1
  Y  Y10  1  0.835950  0.750000  0.790062  1
  Y  Y11  1  0.164426  0.250000  0.210031  1
  Y  Y12  1  0.335397  0.250000  0.710188  1
  Er  Er13  1  0.664828  0.750000  0.290544  1
  Er  Er14  1  0.367659  0.750000  0.700721  1
  Er  Er15  1  0.632564  0.250000  0.299558  1
  Er  Er16  1  0.867456  0.250000  0.799531  1
  Er  Er17  1  0.132028  0.750000  0.200755  1
  Er  Er18  1  0.020175  0.250000  0.500106  1
  Er  Er19  1  0.479955  0.250000  0.000547  1
  Co  Co20  1  0.628509  0.750000  0.538686  1
  Co  Co21  1  0.368292  0.250000  0.460302  1
  Co  Co22  1  0.131775  0.250000  0.960256  1
  Co  Co23  1  0.870832  0.750000  0.040548  1
  Bi  Bi24  1  0.566451  0.492981  0.825390  1
  Bi  Bi25  1  0.434397  0.506089  0.175125  1
  Bi  Bi26  1  0.066288  0.505564  0.674555  1
  Bi  Bi27  1  0.434397  0.993911  0.175125  1
  Bi  Bi28  1  0.932859  0.493335  0.325158  1
  Bi  Bi29  1  0.566451  0.007019  0.825390  1
  Bi  Bi30  1  0.932859  0.006665  0.325158  1
  Bi  Bi31  1  0.066288  0.994436  0.674555  1
