# generated using pymatgen
data_Th3ScPd12
_symmetry_space_group_name_H-M   'P 1'
_cell_length_a   5.89065700
_cell_length_b   5.89065622
_cell_length_c   9.67754200
_cell_angle_alpha   90.00000000
_cell_angle_beta   90.00000000
_cell_angle_gamma   119.99999874
_symmetry_Int_Tables_number   1
_chemical_formula_structural   Th3ScPd12
_chemical_formula_sum   'Th3 Sc1 Pd12'
_cell_volume   290.81922700
_cell_formula_units_Z   1
loop_
 _symmetry_equiv_pos_site_id
 _symmetry_equiv_pos_as_xyz
  1  'x, y, z'
loop_
 _atom_site_type_symbol
 _atom_site_label
 _atom_site_symmetry_multiplicity
 _atom_site_fract_x
 _atom_site_fract_y
 _atom_site_fract_z
 _atom_site_occupancy
  Th  Th0  1  0.000000  0.000000  0.493584  1
  Th  Th1  1  0.000000  0.000000  0.006416  1
  Th  Th2  1  0.666667  0.333333  0.750000  1
  Sc  Sc3  1  0.333333  0.666667  0.250000  1
  Pd  Pd4  1  0.497908  0.502092  0.495386  1
  Pd  Pd5  1  0.497908  0.995815  0.495386  1
  Pd  Pd6  1  0.004185  0.502092  0.495386  1
  Pd  Pd7  1  0.497908  0.502092  0.004614  1
  Pd  Pd8  1  0.497908  0.995815  0.004614  1
  Pd  Pd9  1  0.004185  0.502092  0.004614  1
  Pd  Pd10  1  0.824893  0.649786  0.250000  1
  Pd  Pd11  1  0.350214  0.175107  0.250000  1
  Pd  Pd12  1  0.824893  0.175107  0.250000  1
  Pd  Pd13  1  0.173909  0.347819  0.750000  1
  Pd  Pd14  1  0.652181  0.826091  0.750000  1
  Pd  Pd15  1  0.173909  0.826091  0.750000  1
