# generated using pymatgen
data_LuCo2(SiRh)3
_symmetry_space_group_name_H-M   'P 1'
_cell_length_a   3.79492600
_cell_length_b   10.90648600
_cell_length_c   12.38493400
_cell_angle_alpha   90.00000000
_cell_angle_beta   90.00000000
_cell_angle_gamma   90.00000000
_symmetry_Int_Tables_number   1
_chemical_formula_structural   LuCo2(SiRh)3
_chemical_formula_sum   'Lu4 Co8 Si12 Rh12'
_cell_volume   512.60383909
_cell_formula_units_Z   4
loop_
 _symmetry_equiv_pos_site_id
 _symmetry_equiv_pos_as_xyz
  1  'x, y, z'
loop_
 _atom_site_type_symbol
 _atom_site_label
 _atom_site_symmetry_multiplicity
 _atom_site_fract_x
 _atom_site_fract_y
 _atom_site_fract_z
 _atom_site_occupancy
  Lu  Lu0  1  0.250000  0.583091  0.707449  1
  Lu  Lu1  1  0.250000  0.916909  0.207449  1
  Lu  Lu2  1  0.750000  0.416909  0.292551  1
  Lu  Lu3  1  0.750000  0.083091  0.792551  1
  Co  Co4  1  0.250000  0.888168  0.697389  1
  Co  Co5  1  0.250000  0.611832  0.197389  1
  Co  Co6  1  0.750000  0.111832  0.302611  1
  Co  Co7  1  0.750000  0.388168  0.802611  1
  Co  Co8  1  0.250000  0.468361  0.931094  1
  Co  Co9  1  0.250000  0.031639  0.431094  1
  Co  Co10  1  0.750000  0.531639  0.068906  1
  Co  Co11  1  0.750000  0.968361  0.568906  1
  Si  Si12  1  0.250000  0.424460  0.108701  1
  Si  Si13  1  0.250000  0.075540  0.608701  1
  Si  Si14  1  0.750000  0.575540  0.891299  1
  Si  Si15  1  0.750000  0.924460  0.391299  1
  Si  Si16  1  0.250000  0.276187  0.873041  1
  Si  Si17  1  0.250000  0.223813  0.373041  1
  Si  Si18  1  0.750000  0.723813  0.126959  1
  Si  Si19  1  0.750000  0.776187  0.626959  1
  Si  Si20  1  0.250000  0.602975  0.386927  1
  Si  Si21  1  0.250000  0.897025  0.886927  1
  Si  Si22  1  0.750000  0.397025  0.613073  1
  Si  Si23  1  0.750000  0.102975  0.113073  1
  Rh  Rh24  1  0.250000  0.705700  0.990496  1
  Rh  Rh25  1  0.250000  0.794300  0.490496  1
  Rh  Rh26  1  0.750000  0.294300  0.009504  1
  Rh  Rh27  1  0.750000  0.205700  0.509504  1
  Rh  Rh28  1  0.250000  0.406515  0.484812  1
  Rh  Rh29  1  0.250000  0.093485  0.984812  1
  Rh  Rh30  1  0.750000  0.593485  0.515188  1
  Rh  Rh31  1  0.750000  0.906515  0.015188  1
  Rh  Rh32  1  0.250000  0.223768  0.182000  1
  Rh  Rh33  1  0.250000  0.276232  0.682000  1
  Rh  Rh34  1  0.750000  0.776232  0.818000  1
  Rh  Rh35  1  0.750000  0.723768  0.318000  1
