# generated using pymatgen
data_Al11ZnRe2W
_symmetry_space_group_name_H-M   'P 1'
_cell_length_a   5.19706198
_cell_length_b   5.21453974
_cell_length_c   9.17795638
_cell_angle_alpha   105.54729720
_cell_angle_beta   86.87733452
_cell_angle_gamma   100.08473757
_symmetry_Int_Tables_number   1
_chemical_formula_structural   Al11ZnRe2W
_chemical_formula_sum   'Al11 Zn1 Re2 W1'
_cell_volume   235.91458669
_cell_formula_units_Z   1
loop_
 _symmetry_equiv_pos_site_id
 _symmetry_equiv_pos_as_xyz
  1  'x, y, z'
loop_
 _atom_site_type_symbol
 _atom_site_label
 _atom_site_symmetry_multiplicity
 _atom_site_fract_x
 _atom_site_fract_y
 _atom_site_fract_z
 _atom_site_occupancy
  Al  Al0  1  0.895143  0.310422  0.609420  1
  Al  Al1  1  0.142987  0.704029  0.378804  1
  Al  Al2  1  0.148139  0.466518  0.883828  1
  Al  Al3  1  0.839060  0.543275  0.133705  1
  Al  Al4  1  0.019980  0.986221  0.977893  1
  Al  Al5  1  0.552442  0.105836  0.892211  1
  Al  Al6  1  0.483505  0.898215  0.132683  1
  Al  Al7  1  0.545616  0.326016  0.372011  1
  Al  Al8  1  0.403108  0.668851  0.634281  1
  Al  Al9  1  0.918958  0.837641  0.660431  1
  Al  Al10  1  0.018254  0.136473  0.290046  1
  Zn  Zn11  1  0.376974  0.168153  0.633685  1
  Re  Re12  1  0.669680  0.608334  0.865799  1
  Re  Re13  1  0.321873  0.381668  0.130710  1
  W  W14  1  0.664281  0.858347  0.404489  1
