# generated using pymatgen
data_KTb6(CI6)2
_symmetry_space_group_name_H-M   'P 1'
_cell_length_a   9.49915486
_cell_length_b   9.48237834
_cell_length_c   9.95144095
_cell_angle_alpha   72.36792006
_cell_angle_beta   71.27566511
_cell_angle_gamma   73.02687807
_symmetry_Int_Tables_number   1
_chemical_formula_structural   KTb6(CI6)2
_chemical_formula_sum   'K1 Tb6 C2 I12'
_cell_volume   790.00361332
_cell_formula_units_Z   1
loop_
 _symmetry_equiv_pos_site_id
 _symmetry_equiv_pos_as_xyz
  1  'x, y, z'
loop_
 _atom_site_type_symbol
 _atom_site_label
 _atom_site_symmetry_multiplicity
 _atom_site_fract_x
 _atom_site_fract_y
 _atom_site_fract_z
 _atom_site_occupancy
  K  K0  1  0.000000  0.499999  0.999999  1
  Tb  Tb1  1  0.475028  0.106881  0.196183  1
  Tb  Tb2  1  0.764228  0.031342  0.412514  1
  Tb  Tb3  1  0.587217  0.738105  0.476341  1
  Tb  Tb4  1  0.412783  0.261895  0.523659  1
  Tb  Tb5  1  0.235773  0.968657  0.587486  1
  Tb  Tb6  1  0.524973  0.893119  0.803816  1
  C  C7  1  0.493640  0.024687  0.426766  1
  C  C8  1  0.506360  0.975313  0.573234  1
  I  I9  1  0.799474  0.159305  0.080721  1
  I  I10  1  0.586074  0.780530  0.141014  1
  I  I11  1  0.352569  0.432557  0.222225  1
  I  I12  1  0.137143  0.068572  0.294116  1
  I  I13  1  0.923492  0.720351  0.355748  1
  I  I14  1  0.715601  0.363600  0.431558  1
  I  I15  1  0.284400  0.636400  0.568442  1
  I  I16  1  0.076508  0.279648  0.644253  1
  I  I17  1  0.862857  0.931428  0.705884  1
  I  I18  1  0.647431  0.567443  0.777775  1
  I  I19  1  0.413926  0.219470  0.858987  1
  I  I20  1  0.200527  0.840694  0.919279  1
