# generated using pymatgen
data_Cs2Pr(PdO2)3
_symmetry_space_group_name_H-M   'P 1'
_cell_length_a   10.30804305
_cell_length_b   9.07741034
_cell_length_c   8.09449833
_cell_angle_alpha   73.52956550
_cell_angle_beta   57.61619104
_cell_angle_gamma   48.85424629
_symmetry_Int_Tables_number   1
_chemical_formula_structural   Cs2Pr(PdO2)3
_chemical_formula_sum   'Cs4 Pr2 Pd6 O12'
_cell_volume   478.81880952
_cell_formula_units_Z   2
loop_
 _symmetry_equiv_pos_site_id
 _symmetry_equiv_pos_as_xyz
  1  'x, y, z'
loop_
 _atom_site_type_symbol
 _atom_site_label
 _atom_site_symmetry_multiplicity
 _atom_site_fract_x
 _atom_site_fract_y
 _atom_site_fract_z
 _atom_site_occupancy
  Cs  Cs0  1  0.750000  0.750000  0.750000  1
  Cs  Cs1  1  0.250000  0.250000  0.250000  1
  Cs  Cs2  1  0.221393  0.778607  0.221393  1
  Cs  Cs3  1  0.778607  0.221393  0.778607  1
  Pr  Pr4  1  0.669110  0.669110  0.330890  1
  Pr  Pr5  1  0.330890  0.330890  0.669110  1
  Pd  Pd6  1  0.697421  0.004894  0.302579  1
  Pd  Pd7  1  0.995106  0.302579  0.004894  1
  Pd  Pd8  1  0.004894  0.697421  0.995106  1
  Pd  Pd9  1  0.302579  0.995106  0.697421  1
  Pd  Pd10  1  0.311568  0.688432  0.688432  1
  Pd  Pd11  1  0.688432  0.311568  0.311568  1
  O  O12  1  0.303829  0.494558  0.890625  1
  O  O13  1  0.310989  0.890625  0.494558  1
  O  O14  1  0.890625  0.310989  0.303829  1
  O  O15  1  0.494558  0.303829  0.310989  1
  O  O16  1  0.696171  0.505442  0.109375  1
  O  O17  1  0.689011  0.109375  0.505442  1
  O  O18  1  0.706616  0.900079  0.099921  1
  O  O19  1  0.505442  0.696171  0.689011  1
  O  O20  1  0.900079  0.706616  0.293384  1
  O  O21  1  0.099921  0.293384  0.706616  1
  O  O22  1  0.293384  0.099921  0.900079  1
  O  O23  1  0.109375  0.689011  0.696171  1
