# generated using pymatgen
data_Th6TcRhAu6
_symmetry_space_group_name_H-M   'P 1'
_cell_length_a   8.26867701
_cell_length_b   8.26867680
_cell_length_c   8.26867849
_cell_angle_alpha   114.11491934
_cell_angle_beta   114.11492800
_cell_angle_gamma   114.11490322
_symmetry_Int_Tables_number   1
_chemical_formula_structural   Th6TcRhAu6
_chemical_formula_sum   'Th6 Tc1 Rh1 Au6'
_cell_volume   340.52567799
_cell_formula_units_Z   1
loop_
 _symmetry_equiv_pos_site_id
 _symmetry_equiv_pos_as_xyz
  1  'x, y, z'
loop_
 _atom_site_type_symbol
 _atom_site_label
 _atom_site_symmetry_multiplicity
 _atom_site_fract_x
 _atom_site_fract_y
 _atom_site_fract_z
 _atom_site_occupancy
  Th  Th0  1  0.040204  0.387770  0.278555  1
  Th  Th1  1  0.387770  0.278555  0.040204  1
  Th  Th2  1  0.721445  0.959796  0.612230  1
  Th  Th3  1  0.278555  0.040204  0.387770  1
  Th  Th4  1  0.612230  0.721445  0.959796  1
  Th  Th5  1  0.959796  0.612230  0.721445  1
  Tc  Tc6  1  0.000000  0.000000  0.000000  1
  Rh  Rh7  1  0.500000  0.500000  0.500000  1
  Au  Au8  1  0.422546  0.928390  0.766082  1
  Au  Au9  1  0.928390  0.766082  0.422546  1
  Au  Au10  1  0.233918  0.577454  0.071610  1
  Au  Au11  1  0.766082  0.422546  0.928390  1
  Au  Au12  1  0.071610  0.233918  0.577454  1
  Au  Au13  1  0.577454  0.071610  0.233918  1
