# generated using pymatgen
data_Ca3YbBi6
_symmetry_space_group_name_H-M   'P 1'
_cell_length_a   6.48613500
_cell_length_b   6.77684600
_cell_length_c   14.96061600
_cell_angle_alpha   90.00000000
_cell_angle_beta   90.00000000
_cell_angle_gamma   90.00000000
_symmetry_Int_Tables_number   1
_chemical_formula_structural   Ca3YbBi6
_chemical_formula_sum   'Ca6 Yb2 Bi12'
_cell_volume   657.60192554
_cell_formula_units_Z   2
loop_
 _symmetry_equiv_pos_site_id
 _symmetry_equiv_pos_as_xyz
  1  'x, y, z'
loop_
 _atom_site_type_symbol
 _atom_site_label
 _atom_site_symmetry_multiplicity
 _atom_site_fract_x
 _atom_site_fract_y
 _atom_site_fract_z
 _atom_site_occupancy
  Ca  Ca0  1  0.938865  0.000000  0.250000  1
  Ca  Ca1  1  0.561135  0.500000  0.250000  1
  Ca  Ca2  1  0.061050  0.000000  0.750000  1
  Ca  Ca3  1  0.438950  0.500000  0.750000  1
  Ca  Ca4  1  0.250000  0.250000  0.000305  1
  Ca  Ca5  1  0.250000  0.750000  0.499695  1
  Yb  Yb6  1  0.750000  0.750000  0.999782  1
  Yb  Yb7  1  0.750000  0.250000  0.500218  1
  Bi  Bi8  1  0.750000  0.750000  0.433955  1
  Bi  Bi9  1  0.750000  0.250000  0.066045  1
  Bi  Bi10  1  0.250000  0.250000  0.566041  1
  Bi  Bi11  1  0.250000  0.750000  0.933959  1
  Bi  Bi12  1  0.420767  0.932767  0.149693  1
  Bi  Bi13  1  0.420767  0.067233  0.350307  1
  Bi  Bi14  1  0.079233  0.432767  0.350307  1
  Bi  Bi15  1  0.079233  0.567233  0.149693  1
  Bi  Bi16  1  0.579740  0.066770  0.850297  1
  Bi  Bi17  1  0.579740  0.933230  0.649703  1
  Bi  Bi18  1  0.920260  0.566770  0.649703  1
  Bi  Bi19  1  0.920260  0.433230  0.850297  1
