# generated using pymatgen
data_Ca2TiV(SiO5)2
_symmetry_space_group_name_H-M   'P 1'
_cell_length_a   5.48670152
_cell_length_b   5.52163397
_cell_length_c   7.07952130
_cell_angle_alpha   104.36420778
_cell_angle_beta   103.91174201
_cell_angle_gamma   105.75384776
_symmetry_Int_Tables_number   1
_chemical_formula_structural   Ca2TiV(SiO5)2
_chemical_formula_sum   'Ca2 Ti1 V1 Si2 O10'
_cell_volume   188.75838224
_cell_formula_units_Z   1
loop_
 _symmetry_equiv_pos_site_id
 _symmetry_equiv_pos_as_xyz
  1  'x, y, z'
loop_
 _atom_site_type_symbol
 _atom_site_label
 _atom_site_symmetry_multiplicity
 _atom_site_fract_x
 _atom_site_fract_y
 _atom_site_fract_z
 _atom_site_occupancy
  Ca  Ca0  1  0.167932  0.828925  0.745503  1
  Ca  Ca1  1  0.832068  0.171075  0.254497  1
  Ti  Ti2  1  0.500000  0.500000  0.000000  1
  V  V3  1  0.500000  0.500000  0.500000  1
  Si  Si4  1  0.181797  0.818744  0.251815  1
  Si  Si5  1  0.818203  0.181256  0.748185  1
  O  O6  1  0.246056  0.118896  0.409431  1
  O  O7  1  0.122736  0.253610  0.908572  1
  O  O8  1  0.753944  0.881104  0.590569  1
  O  O9  1  0.877264  0.746390  0.091428  1
  O  O10  1  0.565055  0.430621  0.253643  1
  O  O11  1  0.434945  0.569379  0.746357  1
  O  O12  1  0.611175  0.187890  0.884229  1
  O  O13  1  0.183431  0.609106  0.382552  1
  O  O14  1  0.388825  0.812110  0.115771  1
  O  O15  1  0.816569  0.390894  0.617448  1
