# generated using pymatgen
data_Ba4Si5P3Ir8
_symmetry_space_group_name_H-M   'P 1'
_cell_length_a   6.81123529
_cell_length_b   7.70976943
_cell_length_c   7.88430553
_cell_angle_alpha   87.87473949
_cell_angle_beta   90.13470628
_cell_angle_gamma   89.71120176
_symmetry_Int_Tables_number   1
_chemical_formula_structural   Ba4Si5P3Ir8
_chemical_formula_sum   'Ba4 Si5 P3 Ir8'
_cell_volume   413.73757510
_cell_formula_units_Z   1
loop_
 _symmetry_equiv_pos_site_id
 _symmetry_equiv_pos_as_xyz
  1  'x, y, z'
loop_
 _atom_site_type_symbol
 _atom_site_label
 _atom_site_symmetry_multiplicity
 _atom_site_fract_x
 _atom_site_fract_y
 _atom_site_fract_z
 _atom_site_occupancy
  Ba  Ba0  1  0.373316  0.003279  0.240896  1
  Ba  Ba1  1  0.869465  0.496015  0.760192  1
  Ba  Ba2  1  0.126013  0.498732  0.233426  1
  Ba  Ba3  1  0.624107  0.999708  0.765133  1
  Si  Si4  1  0.856824  0.810677  0.441987  1
  Si  Si5  1  0.921012  0.132465  0.071358  1
  Si  Si6  1  0.581585  0.636656  0.074244  1
  Si  Si7  1  0.082461  0.867406  0.927964  1
  Si  Si8  1  0.354816  0.690025  0.557975  1
  P  P9  1  0.418693  0.366806  0.927546  1
  P  P10  1  0.146311  0.188512  0.559735  1
  P  P11  1  0.645383  0.312801  0.437838  1
  Ir  Ir12  1  0.391552  0.380449  0.620822  1
  Ir  Ir13  1  0.611642  0.610378  0.379827  1
  Ir  Ir14  1  0.112673  0.891677  0.622517  1
  Ir  Ir15  1  0.167761  0.173227  0.858236  1
  Ir  Ir16  1  0.657412  0.327609  0.139160  1
  Ir  Ir17  1  0.835461  0.833707  0.140210  1
  Ir  Ir18  1  0.332119  0.659552  0.859986  1
  Ir  Ir19  1  0.891395  0.120319  0.380949  1
