# generated using pymatgen
data_Y4Ga18Ni2Ir3Ru
_symmetry_space_group_name_H-M   'P 1'
_cell_length_a   7.55450590
_cell_length_b   7.55450466
_cell_length_c   9.47879730
_cell_angle_alpha   90.04786237
_cell_angle_beta   90.04786533
_cell_angle_gamma   120.21040950
_symmetry_Int_Tables_number   1
_chemical_formula_structural   Y4Ga18Ni2Ir3Ru
_chemical_formula_sum   'Y4 Ga18 Ni2 Ir3 Ru1'
_cell_volume   467.48814623
_cell_formula_units_Z   1
loop_
 _symmetry_equiv_pos_site_id
 _symmetry_equiv_pos_as_xyz
  1  'x, y, z'
loop_
 _atom_site_type_symbol
 _atom_site_label
 _atom_site_symmetry_multiplicity
 _atom_site_fract_x
 _atom_site_fract_y
 _atom_site_fract_z
 _atom_site_occupancy
  Y  Y0  1  0.995756  0.660101  0.249772  1
  Y  Y1  1  0.004963  0.340534  0.749966  1
  Y  Y2  1  0.659466  0.995037  0.250034  1
  Y  Y3  1  0.339899  0.004244  0.750228  1
  Ga  Ga4  1  0.110446  0.111268  0.249781  1
  Ga  Ga5  1  0.888732  0.889554  0.750219  1
  Ga  Ga6  1  0.996961  0.326936  0.077208  1
  Ga  Ga7  1  0.998976  0.670866  0.922923  1
  Ga  Ga8  1  0.000198  0.673408  0.578649  1
  Ga  Ga9  1  0.326592  0.999802  0.421351  1
  Ga  Ga10  1  0.999060  0.327167  0.421801  1
  Ga  Ga11  1  0.672833  0.000940  0.578199  1
  Ga  Ga12  1  0.673064  0.003039  0.922792  1
  Ga  Ga13  1  0.329134  0.001024  0.077077  1
  Ga  Ga14  1  0.328328  0.328650  0.564303  1
  Ga  Ga15  1  0.671350  0.671672  0.435697  1
  Ga  Ga16  1  0.671288  0.668872  0.061964  1
  Ga  Ga17  1  0.331128  0.328712  0.938036  1
  Ga  Ga18  1  0.335760  0.539276  0.249762  1
  Ga  Ga19  1  0.663683  0.457435  0.751851  1
  Ga  Ga20  1  0.542565  0.336317  0.248149  1
  Ga  Ga21  1  0.460724  0.664240  0.750238  1
  Ni  Ni22  1  0.999935  0.000065  0.000000  1
  Ni  Ni23  1  0.999659  0.000341  0.500000  1
  Ir  Ir24  1  0.328191  0.671809  0.000000  1
  Ir  Ir25  1  0.328023  0.671977  0.500000  1
  Ir  Ir26  1  0.671280  0.328720  0.500000  1
  Ru  Ru27  1  0.672004  0.327996  0.000000  1
