# generated using pymatgen
data_Hf3Nb(SiIr)4
_symmetry_space_group_name_H-M   'P 1'
_cell_length_a   3.92572200
_cell_length_b   6.49557318
_cell_length_c   7.39660630
_cell_angle_alpha   89.80807456
_cell_angle_beta   90.00000000
_cell_angle_gamma   90.00000000
_symmetry_Int_Tables_number   1
_chemical_formula_structural   Hf3Nb(SiIr)4
_chemical_formula_sum   'Hf3 Nb1 Si4 Ir4'
_cell_volume   188.61103055
_cell_formula_units_Z   1
loop_
 _symmetry_equiv_pos_site_id
 _symmetry_equiv_pos_as_xyz
  1  'x, y, z'
loop_
 _atom_site_type_symbol
 _atom_site_label
 _atom_site_symmetry_multiplicity
 _atom_site_fract_x
 _atom_site_fract_y
 _atom_site_fract_z
 _atom_site_occupancy
  Hf  Hf0  1  0.750000  0.520724  0.823531  1
  Hf  Hf1  1  0.250000  0.979233  0.317226  1
  Hf  Hf2  1  0.750000  0.022624  0.680951  1
  Nb  Nb3  1  0.250000  0.479681  0.176508  1
  Si  Si4  1  0.250000  0.227930  0.884496  1
  Si  Si5  1  0.250000  0.724336  0.621121  1
  Si  Si6  1  0.750000  0.768834  0.122628  1
  Si  Si7  1  0.750000  0.281459  0.372823  1
  Ir  Ir8  1  0.250000  0.847544  0.934803  1
  Ir  Ir9  1  0.250000  0.345664  0.562666  1
  Ir  Ir10  1  0.750000  0.653990  0.439174  1
  Ir  Ir11  1  0.750000  0.147982  0.064075  1
