# generated using pymatgen
data_Fe2Sb12RhAu
_symmetry_space_group_name_H-M   'P 1'
_cell_length_a   8.07055148
_cell_length_b   8.05211265
_cell_length_c   9.34343992
_cell_angle_alpha   54.98465356
_cell_angle_beta   54.84416079
_cell_angle_gamma   70.48187420
_symmetry_Int_Tables_number   1
_chemical_formula_structural   Fe2Sb12RhAu
_chemical_formula_sum   'Fe2 Sb12 Rh1 Au1'
_cell_volume   406.56616389
_cell_formula_units_Z   1
loop_
 _symmetry_equiv_pos_site_id
 _symmetry_equiv_pos_as_xyz
  1  'x, y, z'
loop_
 _atom_site_type_symbol
 _atom_site_label
 _atom_site_symmetry_multiplicity
 _atom_site_fract_x
 _atom_site_fract_y
 _atom_site_fract_z
 _atom_site_occupancy
  Fe  Fe0  1  0.500000  0.000000  0.500000  1
  Fe  Fe1  1  0.000000  0.500000  0.500000  1
  Sb  Sb2  1  0.674991  0.675439  0.485010  1
  Sb  Sb3  1  0.325009  0.324561  0.514990  1
  Sb  Sb4  1  0.640546  0.656279  0.200465  1
  Sb  Sb5  1  0.359454  0.343721  0.799535  1
  Sb  Sb6  1  0.170189  0.860761  0.641660  1
  Sb  Sb7  1  0.829811  0.139239  0.358340  1
  Sb  Sb8  1  0.848198  0.165835  0.658352  1
  Sb  Sb9  1  0.151802  0.834165  0.341648  1
  Sb  Sb10  1  0.811173  0.495442  0.830692  1
  Sb  Sb11  1  0.188827  0.504558  0.169308  1
  Sb  Sb12  1  0.508468  0.175678  0.164924  1
  Sb  Sb13  1  0.491532  0.824322  0.835076  1
  Rh  Rh14  1  0.500000  0.000000  0.000000  1
  Au  Au15  1  0.000000  0.500000  0.000000  1
