# generated using pymatgen
data_Tb3YAl18CuRh5
_symmetry_space_group_name_H-M   'P 1'
_cell_length_a   7.56064457
_cell_length_b   7.56052375
_cell_length_c   9.44961705
_cell_angle_alpha   90.07422883
_cell_angle_beta   90.07204029
_cell_angle_gamma   119.61776355
_symmetry_Int_Tables_number   1
_chemical_formula_structural   Tb3YAl18CuRh5
_chemical_formula_sum   'Tb3 Y1 Al18 Cu1 Rh5'
_cell_volume   469.58482164
_cell_formula_units_Z   1
loop_
 _symmetry_equiv_pos_site_id
 _symmetry_equiv_pos_as_xyz
  1  'x, y, z'
loop_
 _atom_site_type_symbol
 _atom_site_label
 _atom_site_symmetry_multiplicity
 _atom_site_fract_x
 _atom_site_fract_y
 _atom_site_fract_z
 _atom_site_occupancy
  Tb  Tb0  1  0.005096  0.328592  0.750283  1
  Tb  Tb1  1  0.671417  0.994894  0.249722  1
  Tb  Tb2  1  0.328587  0.005092  0.750288  1
  Y  Y3  1  0.994891  0.671418  0.249730  1
  Al  Al4  1  0.128715  0.128709  0.251382  1
  Al  Al5  1  0.871262  0.871252  0.748627  1
  Al  Al6  1  0.000772  0.337729  0.076401  1
  Al  Al7  1  0.999233  0.662297  0.923621  1
  Al  Al8  1  0.999846  0.665420  0.574078  1
  Al  Al9  1  0.334534  0.000124  0.425892  1
  Al  Al10  1  0.000154  0.334596  0.425901  1
  Al  Al11  1  0.665426  0.999841  0.574101  1
  Al  Al12  1  0.662295  0.999225  0.923600  1
  Al  Al13  1  0.337674  0.000746  0.076393  1
  Al  Al14  1  0.333258  0.333250  0.550409  1
  Al  Al15  1  0.666773  0.666746  0.449579  1
  Al  Al16  1  0.664271  0.664245  0.051459  1
  Al  Al17  1  0.335747  0.335742  0.948550  1
  Al  Al18  1  0.339155  0.549080  0.250251  1
  Al  Al19  1  0.660847  0.450952  0.749751  1
  Al  Al20  1  0.549094  0.339163  0.250254  1
  Al  Al21  1  0.450948  0.660843  0.749749  1
  Cu  Cu22  1  0.000004  0.000009  0.999995  1
  Rh  Rh23  1  0.671930  0.328117  0.000035  1
  Rh  Rh24  1  0.328073  0.671903  0.000026  1
  Rh  Rh25  1  0.328061  0.671907  0.499970  1
  Rh  Rh26  1  0.671942  0.328113  0.499968  1
  Rh  Rh27  1  0.999994  0.999998  0.499985  1
