# generated using pymatgen
data_Tb6Dy6InCo4Ni
_symmetry_space_group_name_H-M   'P 1'
_cell_length_a   8.33128382
_cell_length_b   8.33128452
_cell_length_c   8.32786676
_cell_angle_alpha   110.79189228
_cell_angle_beta   110.56828712
_cell_angle_gamma   107.09706667
_symmetry_Int_Tables_number   1
_chemical_formula_structural   Tb6Dy6InCo4Ni
_chemical_formula_sum   'Tb6 Dy6 In1 Co4 Ni1'
_cell_volume   444.30387172
_cell_formula_units_Z   1
loop_
 _symmetry_equiv_pos_site_id
 _symmetry_equiv_pos_as_xyz
  1  'x, y, z'
loop_
 _atom_site_type_symbol
 _atom_site_label
 _atom_site_symmetry_multiplicity
 _atom_site_fract_x
 _atom_site_fract_y
 _atom_site_fract_z
 _atom_site_occupancy
  Tb  Tb0  1  0.404962  0.210065  0.194369  1
  Tb  Tb1  1  0.595038  0.789935  0.805631  1
  Tb  Tb2  1  0.015697  0.210594  0.805631  1
  Tb  Tb3  1  0.984303  0.789406  0.194369  1
  Tb  Tb4  1  0.185552  0.293672  0.479225  1
  Tb  Tb5  1  0.814448  0.706328  0.520775  1
  Dy  Dy6  1  0.186064  0.706508  0.892572  1
  Dy  Dy7  1  0.813936  0.293492  0.107428  1
  Dy  Dy8  1  0.315592  0.621741  0.305453  1
  Dy  Dy9  1  0.684408  0.378259  0.694547  1
  Dy  Dy10  1  0.316287  0.010139  0.694547  1
  Dy  Dy11  1  0.683713  0.989861  0.305453  1
  In  In12  1  0.500000  0.500000  0.000000  1
  Co  Co13  1  0.378248  0.999715  0.377963  1
  Co  Co14  1  0.621752  0.000285  0.622037  1
  Co  Co15  1  0.112157  0.612157  0.500000  1
  Co  Co16  1  0.887843  0.387843  0.500000  1
  Ni  Ni17  1  0.000000  0.000000  0.000000  1
