# generated using pymatgen
data_Nb4Ag2Se4O19
_symmetry_space_group_name_H-M   'P 1'
_cell_length_a   4.02768014
_cell_length_b   10.39826065
_cell_length_c   11.15388068
_cell_angle_alpha   106.33810584
_cell_angle_beta   90.06527219
_cell_angle_gamma   97.31121858
_symmetry_Int_Tables_number   1
_chemical_formula_structural   Nb4Ag2Se4O19
_chemical_formula_sum   'Nb4 Ag2 Se4 O19'
_cell_volume   444.29100288
_cell_formula_units_Z   1
loop_
 _symmetry_equiv_pos_site_id
 _symmetry_equiv_pos_as_xyz
  1  'x, y, z'
loop_
 _atom_site_type_symbol
 _atom_site_label
 _atom_site_symmetry_multiplicity
 _atom_site_fract_x
 _atom_site_fract_y
 _atom_site_fract_z
 _atom_site_occupancy
  Nb  Nb0  1  0.339072  0.187572  0.704284  1
  Nb  Nb1  1  0.660928  0.812428  0.295716  1
  Nb  Nb2  1  0.567033  0.552361  0.680910  1
  Nb  Nb3  1  0.432967  0.447639  0.319090  1
  Ag  Ag4  1  0.780520  0.939771  0.862906  1
  Ag  Ag5  1  0.219480  0.060229  0.137094  1
  Se  Se6  1  0.343613  0.825934  0.583873  1
  Se  Se7  1  0.656387  0.174066  0.416127  1
  Se  Se8  1  0.286294  0.715672  0.987205  1
  Se  Se9  1  0.713706  0.284328  0.012795  1
  O  O10  1  0.644312  0.876033  0.487169  1
  O  O11  1  0.355688  0.123967  0.512831  1
  O  O12  1  0.320923  0.977543  0.696237  1
  O  O13  1  0.679077  0.022457  0.303763  1
  O  O14  1  0.599762  0.762173  0.671850  1
  O  O15  1  0.400238  0.237827  0.328150  1
  O  O16  1  0.560178  0.646177  0.873983  1
  O  O17  1  0.439822  0.353823  0.126017  1
  O  O18  1  0.601065  0.770552  0.109667  1
  O  O19  1  0.398935  0.229448  0.890333  1
  O  O20  1  0.248489  0.866434  0.960657  1
  O  O21  1  0.751511  0.133566  0.039343  1
  O  O22  1  0.883420  0.178487  0.704966  1
  O  O23  1  0.116580  0.821513  0.295034  1
  O  O24  1  0.458604  0.372445  0.699384  1
  O  O25  1  0.541396  0.627555  0.300616  1
  O  O26  1  0.500000  0.500000  0.500000  1
  O  O27  1  0.025866  0.570149  0.691264  1
  O  O28  1  0.974134  0.429851  0.308736  1
