# generated using pymatgen
data_LaH5Ru
_symmetry_space_group_name_H-M   'P 1'
_cell_length_a   4.64194900
_cell_length_b   4.81005800
_cell_length_c   12.30847200
_cell_angle_alpha   90.00000000
_cell_angle_beta   90.00000000
_cell_angle_gamma   90.00000000
_symmetry_Int_Tables_number   1
_chemical_formula_structural   LaH5Ru
_chemical_formula_sum   'La4 H20 Ru4'
_cell_volume   274.82410344
_cell_formula_units_Z   4
loop_
 _symmetry_equiv_pos_site_id
 _symmetry_equiv_pos_as_xyz
  1  'x, y, z'
loop_
 _atom_site_type_symbol
 _atom_site_label
 _atom_site_symmetry_multiplicity
 _atom_site_fract_x
 _atom_site_fract_y
 _atom_site_fract_z
 _atom_site_occupancy
  La  La0  1  0.732136  0.338134  0.141167  1
  La  La1  1  0.232136  0.161866  0.858833  1
  La  La2  1  0.267864  0.838134  0.358833  1
  La  La3  1  0.767864  0.661866  0.641167  1
  H  H4  1  0.845905  0.351816  0.956831  1
  H  H5  1  0.422714  0.021740  0.686273  1
  H  H6  1  0.964309  0.876913  0.010473  1
  H  H7  1  0.723661  0.975757  0.840011  1
  H  H8  1  0.431849  0.348687  0.322950  1
  H  H9  1  0.776339  0.024243  0.340011  1
  H  H10  1  0.464309  0.623087  0.989527  1
  H  H11  1  0.276339  0.475757  0.659989  1
  H  H12  1  0.922714  0.478260  0.313727  1
  H  H13  1  0.654095  0.648184  0.456831  1
  H  H14  1  0.035691  0.376913  0.489527  1
  H  H15  1  0.154095  0.851816  0.543169  1
  H  H16  1  0.568151  0.848687  0.177050  1
  H  H17  1  0.931849  0.151313  0.677050  1
  H  H18  1  0.068151  0.651313  0.822950  1
  H  H19  1  0.077286  0.978260  0.186273  1
  H  H20  1  0.345905  0.148184  0.043169  1
  H  H21  1  0.577286  0.521740  0.813727  1
  H  H22  1  0.535691  0.123087  0.510473  1
  H  H23  1  0.223661  0.524243  0.159989  1
  Ru  Ru24  1  0.215745  0.170223  0.592978  1
  Ru  Ru25  1  0.284255  0.829777  0.092978  1
  Ru  Ru26  1  0.784255  0.670223  0.907022  1
  Ru  Ru27  1  0.715745  0.329777  0.407022  1
