# generated using pymatgen
data_LiPr8HgRh2
_symmetry_space_group_name_H-M   'P 1'
_cell_length_a   10.02255213
_cell_length_b   10.02255194
_cell_length_c   9.97777400
_cell_angle_alpha   60.14767464
_cell_angle_beta   60.14767524
_cell_angle_gamma   60.19948140
_symmetry_Int_Tables_number   1
_chemical_formula_structural   LiPr8HgRh2
_chemical_formula_sum   'Li2 Pr16 Hg2 Rh4'
_cell_volume   711.36824443
_cell_formula_units_Z   2
loop_
 _symmetry_equiv_pos_site_id
 _symmetry_equiv_pos_as_xyz
  1  'x, y, z'
loop_
 _atom_site_type_symbol
 _atom_site_label
 _atom_site_symmetry_multiplicity
 _atom_site_fract_x
 _atom_site_fract_y
 _atom_site_fract_z
 _atom_site_occupancy
  Li  Li0  1  0.569764  0.569764  0.576797  1
  Li  Li1  1  0.569764  0.569764  0.283676  1
  Pr  Pr2  1  0.348831  0.348831  0.351265  1
  Pr  Pr3  1  0.348831  0.348831  0.951070  1
  Pr  Pr4  1  0.347027  0.956583  0.348194  1
  Pr  Pr5  1  0.956583  0.347027  0.348194  1
  Pr  Pr6  1  0.811494  0.189806  0.189392  1
  Pr  Pr7  1  0.189806  0.811495  0.809307  1
  Pr  Pr8  1  0.189806  0.811494  0.189391  1
  Pr  Pr9  1  0.811494  0.189806  0.809307  1
  Pr  Pr10  1  0.193602  0.193602  0.806398  1
  Pr  Pr11  1  0.815169  0.815169  0.184831  1
  Pr  Pr12  1  0.938423  0.562754  0.562258  1
  Pr  Pr13  1  0.562754  0.938423  0.936566  1
  Pr  Pr14  1  0.562754  0.938423  0.562258  1
  Pr  Pr15  1  0.938423  0.562754  0.936566  1
  Pr  Pr16  1  0.563861  0.563861  0.936139  1
  Pr  Pr17  1  0.938942  0.938942  0.561058  1
  Hg  Hg18  1  0.589055  0.249329  0.580808  1
  Hg  Hg19  1  0.249329  0.589055  0.580808  1
  Rh  Rh20  1  0.142986  0.142986  0.141359  1
  Rh  Rh21  1  0.142986  0.142986  0.572669  1
  Rh  Rh22  1  0.143945  0.574370  0.140843  1
  Rh  Rh23  1  0.574370  0.143945  0.140843  1
