# generated using pymatgen
data_Li4MgIn7Pd4
_symmetry_space_group_name_H-M   'P 1'
_cell_length_a   6.81020607
_cell_length_b   4.58318000
_cell_length_c   9.21950711
_cell_angle_alpha   90.00000000
_cell_angle_beta   89.98281393
_cell_angle_gamma   90.00000000
_symmetry_Int_Tables_number   1
_chemical_formula_structural   Li4MgIn7Pd4
_chemical_formula_sum   'Li4 Mg1 In7 Pd4'
_cell_volume   287.76293322
_cell_formula_units_Z   1
loop_
 _symmetry_equiv_pos_site_id
 _symmetry_equiv_pos_as_xyz
  1  'x, y, z'
loop_
 _atom_site_type_symbol
 _atom_site_label
 _atom_site_symmetry_multiplicity
 _atom_site_fract_x
 _atom_site_fract_y
 _atom_site_fract_z
 _atom_site_occupancy
  Li  Li0  1  0.251064  0.250000  0.125144  1
  Li  Li1  1  0.750441  0.750000  0.375049  1
  Li  Li2  1  0.248782  0.250000  0.625441  1
  Li  Li3  1  0.750361  0.750000  0.874029  1
  Mg  Mg4  1  0.999691  0.750000  0.124757  1
  In  In5  1  0.499397  0.750000  0.124906  1
  In  In6  1  0.000562  0.250000  0.368083  1
  In  In7  1  0.499783  0.250000  0.373397  1
  In  In8  1  0.500234  0.750000  0.624735  1
  In  In9  1  0.000415  0.750000  0.624994  1
  In  In10  1  0.499589  0.250000  0.877037  1
  In  In11  1  0.999920  0.250000  0.882338  1
  Pd  Pd12  1  0.752244  0.250000  0.125303  1
  Pd  Pd13  1  0.247880  0.750000  0.374826  1
  Pd  Pd14  1  0.751780  0.250000  0.625340  1
  Pd  Pd15  1  0.247853  0.750000  0.874620  1
