# generated using pymatgen
data_TbY5Pd7Rh
_symmetry_space_group_name_H-M   'P 1'
_cell_length_a   7.87402758
_cell_length_b   7.87124046
_cell_length_c   7.87801142
_cell_angle_alpha   114.19388098
_cell_angle_beta   114.23168525
_cell_angle_gamma   114.17194454
_symmetry_Int_Tables_number   1
_chemical_formula_structural   TbY5Pd7Rh
_chemical_formula_sum   'Tb1 Y5 Pd7 Rh1'
_cell_volume   292.21444640
_cell_formula_units_Z   1
loop_
 _symmetry_equiv_pos_site_id
 _symmetry_equiv_pos_as_xyz
  1  'x, y, z'
loop_
 _atom_site_type_symbol
 _atom_site_label
 _atom_site_symmetry_multiplicity
 _atom_site_fract_x
 _atom_site_fract_y
 _atom_site_fract_z
 _atom_site_occupancy
  Tb  Tb0  1  0.398802  0.024360  0.272456  1
  Y  Y1  1  0.024281  0.272561  0.398760  1
  Y  Y2  1  0.272645  0.398842  0.024181  1
  Y  Y3  1  0.601171  0.975614  0.727572  1
  Y  Y4  1  0.975761  0.727675  0.601009  1
  Y  Y5  1  0.727277  0.601106  0.975847  1
  Pd  Pd6  1  0.499943  0.499814  0.499873  1
  Pd  Pd7  1  0.229582  0.063545  0.551083  1
  Pd  Pd8  1  0.063464  0.551007  0.229256  1
  Pd  Pd9  1  0.551014  0.229289  0.063588  1
  Pd  Pd10  1  0.770438  0.936363  0.448792  1
  Pd  Pd11  1  0.936375  0.449042  0.770624  1
  Pd  Pd12  1  0.448862  0.770754  0.936735  1
  Rh  Rh13  1  0.000384  0.000026  0.000223  1
