# generated using pymatgen
data_Y4Er(SiB4)2
_symmetry_space_group_name_H-M   'P 1'
_cell_length_a   7.23131800
_cell_length_b   7.23131800
_cell_length_c   8.07923600
_cell_angle_alpha   90.00000000
_cell_angle_beta   90.00000000
_cell_angle_gamma   90.00000000
_symmetry_Int_Tables_number   1
_chemical_formula_structural   Y4Er(SiB4)2
_chemical_formula_sum   'Y8 Er2 Si4 B16'
_cell_volume   422.47908588
_cell_formula_units_Z   2
loop_
 _symmetry_equiv_pos_site_id
 _symmetry_equiv_pos_as_xyz
  1  'x, y, z'
loop_
 _atom_site_type_symbol
 _atom_site_label
 _atom_site_symmetry_multiplicity
 _atom_site_fract_x
 _atom_site_fract_y
 _atom_site_fract_z
 _atom_site_occupancy
  Y  Y0  1  0.680358  0.180358  0.224761  1
  Y  Y1  1  0.319642  0.819642  0.775239  1
  Y  Y2  1  0.319642  0.819642  0.224761  1
  Y  Y3  1  0.819642  0.680358  0.224761  1
  Y  Y4  1  0.819642  0.680358  0.775239  1
  Y  Y5  1  0.680358  0.180358  0.775239  1
  Y  Y6  1  0.180358  0.319642  0.775239  1
  Y  Y7  1  0.180358  0.319642  0.224761  1
  Er  Er8  1  0.000000  0.000000  0.500000  1
  Er  Er9  1  0.500000  0.500000  0.500000  1
  Si  Si10  1  0.115342  0.615342  0.500000  1
  Si  Si11  1  0.884658  0.384658  0.500000  1
  Si  Si12  1  0.384658  0.115342  0.500000  1
  Si  Si13  1  0.615342  0.884658  0.500000  1
  B  B14  1  0.172542  0.039097  0.000000  1
  B  B15  1  0.827458  0.960903  0.000000  1
  B  B16  1  0.960903  0.172542  0.000000  1
  B  B17  1  0.327458  0.539097  0.000000  1
  B  B18  1  0.039097  0.827458  0.000000  1
  B  B19  1  0.672542  0.460903  0.000000  1
  B  B20  1  0.539097  0.672542  0.000000  1
  B  B21  1  0.460903  0.327458  0.000000  1
  B  B22  1  0.089858  0.589858  0.000000  1
  B  B23  1  0.910142  0.410142  0.000000  1
  B  B24  1  0.410142  0.089858  0.000000  1
  B  B25  1  0.589858  0.910142  0.000000  1
  B  B26  1  0.000000  0.000000  0.162646  1
  B  B27  1  0.000000  0.000000  0.837354  1
  B  B28  1  0.500000  0.500000  0.837354  1
  B  B29  1  0.500000  0.500000  0.162646  1
