# generated using pymatgen
data_Cs2PrI5
_symmetry_space_group_name_H-M   'P 1'
_cell_length_a   9.84785700
_cell_length_b   10.22531800
_cell_length_c   15.67282100
_cell_angle_alpha   90.00000000
_cell_angle_beta   90.00000000
_cell_angle_gamma   90.00000000
_symmetry_Int_Tables_number   1
_chemical_formula_structural   Cs2PrI5
_chemical_formula_sum   'Cs8 Pr4 I20'
_cell_volume   1578.21341374
_cell_formula_units_Z   4
loop_
 _symmetry_equiv_pos_site_id
 _symmetry_equiv_pos_as_xyz
  1  'x, y, z'
loop_
 _atom_site_type_symbol
 _atom_site_label
 _atom_site_symmetry_multiplicity
 _atom_site_fract_x
 _atom_site_fract_y
 _atom_site_fract_z
 _atom_site_occupancy
  Cs  Cs0  1  0.943159  0.003549  0.827544  1
  Cs  Cs1  1  0.056841  0.996451  0.172456  1
  Cs  Cs2  1  0.443159  0.996451  0.672456  1
  Cs  Cs3  1  0.056841  0.503549  0.172456  1
  Cs  Cs4  1  0.556841  0.003549  0.327544  1
  Cs  Cs5  1  0.943159  0.496451  0.827544  1
  Cs  Cs6  1  0.556841  0.496451  0.327544  1
  Cs  Cs7  1  0.443159  0.503549  0.672456  1
  Pr  Pr8  1  0.927004  0.750000  0.503535  1
  Pr  Pr9  1  0.072996  0.250000  0.496465  1
  Pr  Pr10  1  0.427004  0.250000  0.996465  1
  Pr  Pr11  1  0.572996  0.750000  0.003535  1
  I  I12  1  0.116459  0.750000  0.670786  1
  I  I13  1  0.883541  0.250000  0.329214  1
  I  I14  1  0.616459  0.250000  0.829214  1
  I  I15  1  0.383541  0.750000  0.170786  1
  I  I16  1  0.841453  0.044137  0.569991  1
  I  I17  1  0.158547  0.955863  0.430009  1
  I  I18  1  0.341453  0.955863  0.930009  1
  I  I19  1  0.158547  0.544137  0.430009  1
  I  I20  1  0.658547  0.044137  0.069991  1
  I  I21  1  0.841453  0.455863  0.569991  1
  I  I22  1  0.658547  0.455863  0.069991  1
  I  I23  1  0.341453  0.544137  0.930009  1
  I  I24  1  0.598501  0.750000  0.512699  1
  I  I25  1  0.401499  0.250000  0.487301  1
  I  I26  1  0.098501  0.250000  0.987301  1
  I  I27  1  0.901499  0.750000  0.012699  1
  I  I28  1  0.652409  0.750000  0.806295  1
  I  I29  1  0.347591  0.250000  0.193705  1
  I  I30  1  0.152409  0.250000  0.693705  1
  I  I31  1  0.847591  0.750000  0.306295  1
