# generated using pymatgen
data_DyErZr2Al17GaRh6
_symmetry_space_group_name_H-M   'P 1'
_cell_length_a   7.52232600
_cell_length_b   7.50112807
_cell_length_c   9.36012100
_cell_angle_alpha   90.00000000
_cell_angle_beta   90.00000000
_cell_angle_gamma   119.69389815
_symmetry_Int_Tables_number   1
_chemical_formula_structural   DyErZr2Al17GaRh6
_chemical_formula_sum   'Dy1 Er1 Zr2 Al17 Ga1 Rh6'
_cell_volume   458.79867416
_cell_formula_units_Z   1
loop_
 _symmetry_equiv_pos_site_id
 _symmetry_equiv_pos_as_xyz
  1  'x, y, z'
loop_
 _atom_site_type_symbol
 _atom_site_label
 _atom_site_symmetry_multiplicity
 _atom_site_fract_x
 _atom_site_fract_y
 _atom_site_fract_z
 _atom_site_occupancy
  Dy  Dy0  1  0.327151  0.006744  0.250000  1
  Er  Er1  1  0.670881  0.994022  0.750000  1
  Zr  Zr2  1  0.994553  0.670772  0.750000  1
  Zr  Zr3  1  0.006091  0.327165  0.250000  1
  Al  Al4  1  0.124921  0.123486  0.750000  1
  Al  Al5  1  0.999210  0.337244  0.575517  1
  Al  Al6  1  0.000761  0.662358  0.426303  1
  Al  Al7  1  0.000761  0.662358  0.073697  1
  Al  Al8  1  0.332437  0.998254  0.920859  1
  Al  Al9  1  0.999210  0.337244  0.924483  1
  Al  Al10  1  0.667625  0.001657  0.078088  1
  Al  Al11  1  0.667625  0.001657  0.421912  1
  Al  Al12  1  0.332437  0.998254  0.579141  1
  Al  Al13  1  0.331740  0.334441  0.054357  1
  Al  Al14  1  0.669150  0.666881  0.942840  1
  Al  Al15  1  0.669150  0.666881  0.557160  1
  Al  Al16  1  0.331740  0.334441  0.445643  1
  Al  Al17  1  0.334331  0.549394  0.750000  1
  Al  Al18  1  0.667290  0.450801  0.250000  1
  Al  Al19  1  0.556180  0.343623  0.750000  1
  Al  Al20  1  0.443210  0.656617  0.250000  1
  Ga  Ga21  1  0.870971  0.871684  0.250000  1
  Rh  Rh22  1  0.672699  0.327993  0.499385  1
  Rh  Rh23  1  0.328608  0.673125  0.500971  1
  Rh  Rh24  1  0.328608  0.673125  0.999029  1
  Rh  Rh25  1  0.672699  0.327993  0.000615  1
  Rh  Rh26  1  0.999978  0.000893  0.501233  1
  Rh  Rh27  1  0.999978  0.000893  0.998767  1
