# generated using pymatgen
data_UPa(HBr2)2
_symmetry_space_group_name_H-M   'P 1'
_cell_length_a   3.85097800
_cell_length_b   3.85097819
_cell_length_c   15.50348000
_cell_angle_alpha   90.00000000
_cell_angle_beta   90.00000000
_cell_angle_gamma   119.99999834
_symmetry_Int_Tables_number   1
_chemical_formula_structural   UPa(HBr2)2
_chemical_formula_sum   'U1 Pa1 H2 Br4'
_cell_volume   199.11406061
_cell_formula_units_Z   1
loop_
 _symmetry_equiv_pos_site_id
 _symmetry_equiv_pos_as_xyz
  1  'x, y, z'
loop_
 _atom_site_type_symbol
 _atom_site_label
 _atom_site_symmetry_multiplicity
 _atom_site_fract_x
 _atom_site_fract_y
 _atom_site_fract_z
 _atom_site_occupancy
  U  U0  1  0.000000  0.000000  0.250000  1
  Pa  Pa1  1  0.000000  0.000000  0.750000  1
  H  H2  1  0.333333  0.666667  0.750000  1
  H  H3  1  0.666667  0.333333  0.250000  1
  Br  Br4  1  0.333333  0.666667  0.120806  1
  Br  Br5  1  0.666667  0.333333  0.882863  1
  Br  Br6  1  0.666667  0.333333  0.617137  1
  Br  Br7  1  0.333333  0.666667  0.379194  1
