# generated using pymatgen
data_Tb2Dy4Co17P12Os
_symmetry_space_group_name_H-M   'P 1'
_cell_length_a   3.70322200
_cell_length_b   10.50620400
_cell_length_c   12.21501100
_cell_angle_alpha   90.00000000
_cell_angle_beta   90.00000000
_cell_angle_gamma   90.00000000
_symmetry_Int_Tables_number   1
_chemical_formula_structural   Tb2Dy4Co17P12Os
_chemical_formula_sum   'Tb2 Dy4 Co17 P12 Os1'
_cell_volume   475.24706069
_cell_formula_units_Z   1
loop_
 _symmetry_equiv_pos_site_id
 _symmetry_equiv_pos_as_xyz
  1  'x, y, z'
loop_
 _atom_site_type_symbol
 _atom_site_label
 _atom_site_symmetry_multiplicity
 _atom_site_fract_x
 _atom_site_fract_y
 _atom_site_fract_z
 _atom_site_occupancy
  Tb  Tb0  1  0.000000  0.500000  0.524605  1
  Tb  Tb1  1  0.500000  0.000000  0.478394  1
  Dy  Dy2  1  0.500000  0.817444  0.206978  1
  Dy  Dy3  1  0.500000  0.182556  0.206978  1
  Dy  Dy4  1  0.000000  0.683155  0.794138  1
  Dy  Dy5  1  0.000000  0.316845  0.794138  1
  Co  Co6  1  0.000000  0.000000  0.840320  1
  Co  Co7  1  0.500000  0.500000  0.704010  1
  Co  Co8  1  0.000000  0.000000  0.295156  1
  Co  Co9  1  0.000000  0.500000  0.988224  1
  Co  Co10  1  0.500000  0.000000  0.014352  1
  Co  Co11  1  0.500000  0.332724  0.991396  1
  Co  Co12  1  0.500000  0.667276  0.991396  1
  Co  Co13  1  0.000000  0.166796  0.005697  1
  Co  Co14  1  0.000000  0.833204  0.005697  1
  Co  Co15  1  0.500000  0.297370  0.429925  1
  Co  Co16  1  0.500000  0.702630  0.429925  1
  Co  Co17  1  0.000000  0.203215  0.568849  1
  Co  Co18  1  0.000000  0.796785  0.568849  1
  Co  Co19  1  0.500000  0.879247  0.709618  1
  Co  Co20  1  0.500000  0.120753  0.709618  1
  Co  Co21  1  0.000000  0.620196  0.290567  1
  Co  Co22  1  0.000000  0.379804  0.290567  1
  P  P23  1  0.500000  0.500000  0.881310  1
  P  P24  1  0.000000  0.000000  0.116696  1
  P  P25  1  0.500000  0.500000  0.350140  1
  P  P26  1  0.000000  0.000000  0.656317  1
  P  P27  1  0.500000  0.310529  0.616413  1
  P  P28  1  0.500000  0.689471  0.616413  1
  P  P29  1  0.000000  0.188700  0.384073  1
  P  P30  1  0.000000  0.811300  0.384073  1
  P  P31  1  0.500000  0.849306  0.892308  1
  P  P32  1  0.500000  0.150694  0.892308  1
  P  P33  1  0.000000  0.655655  0.105997  1
  P  P34  1  0.000000  0.344345  0.105997  1
  Os  Os35  1  0.500000  0.500000  0.158561  1
