# generated using pymatgen
data_Mn12P7
_symmetry_space_group_name_H-M   'P 1'
_cell_length_a   8.87769700
_cell_length_b   8.87769800
_cell_length_c   3.27003100
_cell_angle_alpha   90.00000000
_cell_angle_beta   90.00000000
_cell_angle_gamma   119.99999998
_symmetry_Int_Tables_number   1
_chemical_formula_structural   Mn12P7
_chemical_formula_sum   'Mn12 P7'
_cell_volume   223.19434520
_cell_formula_units_Z   1
loop_
 _symmetry_equiv_pos_site_id
 _symmetry_equiv_pos_as_xyz
  1  'x, y, z'
loop_
 _atom_site_type_symbol
 _atom_site_label
 _atom_site_symmetry_multiplicity
 _atom_site_fract_x
 _atom_site_fract_y
 _atom_site_fract_z
 _atom_site_occupancy
  Mn  Mn0  1  0.794946  0.790982  0.500000  1
  Mn  Mn1  1  0.996036  0.205054  0.500000  1
  Mn  Mn2  1  0.209018  0.003964  0.500000  1
  Mn  Mn3  1  0.734451  0.986976  0.000000  1
  Mn  Mn4  1  0.252525  0.265549  0.000000  1
  Mn  Mn5  1  0.013024  0.747475  0.000000  1
  Mn  Mn6  1  0.493258  0.625985  0.000000  1
  Mn  Mn7  1  0.132727  0.506742  0.000000  1
  Mn  Mn8  1  0.374015  0.867273  0.000000  1
  Mn  Mn9  1  0.863655  0.480513  0.500000  1
  Mn  Mn10  1  0.616858  0.136345  0.500000  1
  Mn  Mn11  1  0.519487  0.383142  0.500000  1
  P  P12  1  0.718421  0.558419  0.000000  1
  P  P13  1  0.839998  0.281579  0.000000  1
  P  P14  1  0.441581  0.160002  0.000000  1
  P  P15  1  0.543138  0.834395  0.500000  1
  P  P16  1  0.291258  0.456862  0.500000  1
  P  P17  1  0.165605  0.708742  0.500000  1
  P  P18  1  0.000000  0.000000  0.000000  1
