# generated using pymatgen
data_Dy5YVB14W
_symmetry_space_group_name_H-M   'P 1'
_cell_length_a   8.16951602
_cell_length_b   8.16951588
_cell_length_c   9.46353900
_cell_angle_alpha   90.00000000
_cell_angle_beta   90.00000000
_cell_angle_gamma   155.61612933
_symmetry_Int_Tables_number   1
_chemical_formula_structural   Dy5YVB14W
_chemical_formula_sum   'Dy5 Y1 V1 B14 W1'
_cell_volume   260.75729109
_cell_formula_units_Z   1
loop_
 _symmetry_equiv_pos_site_id
 _symmetry_equiv_pos_as_xyz
  1  'x, y, z'
loop_
 _atom_site_type_symbol
 _atom_site_label
 _atom_site_symmetry_multiplicity
 _atom_site_fract_x
 _atom_site_fract_y
 _atom_site_fract_z
 _atom_site_occupancy
  Dy  Dy0  1  0.893839  0.106161  0.437643  1
  Dy  Dy1  1  0.106811  0.893189  0.558039  1
  Dy  Dy2  1  0.893839  0.106161  0.062357  1
  Dy  Dy3  1  0.106811  0.893189  0.941961  1
  Dy  Dy4  1  0.755274  0.244726  0.750000  1
  Y  Y5  1  0.241850  0.758150  0.250000  1
  V  V6  1  0.052895  0.947105  0.250000  1
  B  B7  1  0.727313  0.272687  0.467062  1
  B  B8  1  0.272607  0.727393  0.531488  1
  B  B9  1  0.727313  0.272687  0.032938  1
  B  B10  1  0.272607  0.727393  0.968512  1
  B  B11  1  0.632309  0.367691  0.150120  1
  B  B12  1  0.365240  0.634760  0.853785  1
  B  B13  1  0.632309  0.367691  0.349880  1
  B  B14  1  0.365240  0.634760  0.646215  1
  B  B15  1  0.521348  0.478652  0.095249  1
  B  B16  1  0.480317  0.519683  0.909132  1
  B  B17  1  0.521348  0.478652  0.404751  1
  B  B18  1  0.480317  0.519683  0.590868  1
  B  B19  1  0.459571  0.540429  0.250000  1
  B  B20  1  0.544138  0.455862  0.750000  1
  W  W21  1  0.946708  0.053292  0.750000  1
