# generated using pymatgen
data_YTh3(Al8Pd3)3
_symmetry_space_group_name_H-M   'P 1'
_cell_length_a   7.62551623
_cell_length_b   7.64166919
_cell_length_c   13.23347632
_cell_angle_alpha   84.50858155
_cell_angle_beta   78.99928966
_cell_angle_gamma   59.90934537
_symmetry_Int_Tables_number   1
_chemical_formula_structural   YTh3(Al8Pd3)3
_chemical_formula_sum   'Y1 Th3 Al24 Pd9'
_cell_volume   654.95300200
_cell_formula_units_Z   1
loop_
 _symmetry_equiv_pos_site_id
 _symmetry_equiv_pos_as_xyz
  1  'x, y, z'
loop_
 _atom_site_type_symbol
 _atom_site_label
 _atom_site_symmetry_multiplicity
 _atom_site_fract_x
 _atom_site_fract_y
 _atom_site_fract_z
 _atom_site_occupancy
  Y  Y0  1  0.394872  0.167848  0.806782  1
  Th  Th1  1  0.605206  0.832567  0.192532  1
  Th  Th2  1  0.733339  0.498878  0.806671  1
  Th  Th3  1  0.266831  0.501225  0.192520  1
  Al  Al4  1  0.684412  0.836250  0.943157  1
  Al  Al5  1  0.314014  0.166592  0.051564  1
  Al  Al6  1  0.144536  0.833870  0.562803  1
  Al  Al7  1  0.854027  0.165962  0.440180  1
  Al  Al8  1  0.480054  0.166811  0.560564  1
  Al  Al9  1  0.518836  0.833714  0.442337  1
  Al  Al10  1  0.211551  0.165306  0.336221  1
  Al  Al11  1  0.783929  0.837794  0.666548  1
  Al  Al12  1  0.434989  0.506986  0.666712  1
  Al  Al13  1  0.564524  0.489594  0.336347  1
  Al  Al14  1  0.114243  0.156422  0.665273  1
  Al  Al15  1  0.887979  0.844197  0.338004  1
  Al  Al16  1  0.350134  0.499316  0.943161  1
  Al  Al17  1  0.652099  0.496535  0.053110  1
  Al  Al18  1  0.017585  0.165601  0.953047  1
  Al  Al19  1  0.986303  0.835062  0.041084  1
  Al  Al20  1  0.186643  0.499798  0.442339  1
  Al  Al21  1  0.813233  0.499886  0.559110  1
  Al  Al22  1  0.738142  0.163484  0.184210  1
  Al  Al23  1  0.263157  0.838833  0.815530  1
  Al  Al24  1  0.063618  0.631601  0.813916  1
  Al  Al25  1  0.938950  0.364916  0.185667  1
  Al  Al26  1  0.856522  0.038449  0.815211  1
  Al  Al27  1  0.140468  0.962621  0.184169  1
  Pd  Pd28  1  0.120135  0.492594  0.637906  1
  Pd  Pd29  1  0.879646  0.507710  0.362371  1
  Pd  Pd30  1  0.657333  0.171197  0.999721  1
  Pd  Pd31  1  0.342726  0.828411  0.000111  1
  Pd  Pd32  1  0.537579  0.167094  0.362615  1
  Pd  Pd33  1  0.462378  0.832808  0.637969  1
  Pd  Pd34  1  0.778835  0.175087  0.637750  1
  Pd  Pd35  1  0.221235  0.825013  0.362893  1
  Pd  Pd36  1  0.999936  0.499964  0.999899  1
