# generated using pymatgen
data_NaSb12(IrRu)2
_symmetry_space_group_name_H-M   'P 1'
_cell_length_a   8.14822812
_cell_length_b   8.14822918
_cell_length_c   8.13710818
_cell_angle_alpha   109.47882440
_cell_angle_beta   109.41245446
_cell_angle_gamma   109.57765199
_symmetry_Int_Tables_number   1
_chemical_formula_structural   NaSb12(IrRu)2
_chemical_formula_sum   'Na1 Sb12 Ir2 Ru2'
_cell_volume   415.60172878
_cell_formula_units_Z   1
loop_
 _symmetry_equiv_pos_site_id
 _symmetry_equiv_pos_as_xyz
  1  'x, y, z'
loop_
 _atom_site_type_symbol
 _atom_site_label
 _atom_site_symmetry_multiplicity
 _atom_site_fract_x
 _atom_site_fract_y
 _atom_site_fract_z
 _atom_site_occupancy
  Na  Na0  1  0.000000  0.000000  0.000000  1
  Sb  Sb1  1  0.660985  0.842433  0.503418  1
  Sb  Sb2  1  0.339015  0.157567  0.496582  1
  Sb  Sb3  1  0.845598  0.184736  0.342448  1
  Sb  Sb4  1  0.815408  0.660963  0.157621  1
  Sb  Sb5  1  0.842289  0.503151  0.657552  1
  Sb  Sb6  1  0.184592  0.339037  0.842379  1
  Sb  Sb7  1  0.154402  0.815264  0.657552  1
  Sb  Sb8  1  0.503341  0.657787  0.842379  1
  Sb  Sb9  1  0.496659  0.342213  0.157621  1
  Sb  Sb10  1  0.157711  0.496849  0.342448  1
  Sb  Sb11  1  0.342036  0.845252  0.187288  1
  Sb  Sb12  1  0.657964  0.154748  0.812712  1
  Ir  Ir13  1  0.500000  0.000000  0.000000  1
  Ir  Ir14  1  0.000000  0.500000  0.000000  1
  Ru  Ru15  1  0.500000  0.500000  0.500000  1
  Ru  Ru16  1  0.000000  0.000000  0.500000  1
