# generated using pymatgen
data_TbZnCdAg3
_symmetry_space_group_name_H-M   'P 1'
_cell_length_a   5.44892045
_cell_length_b   5.44891975
_cell_length_c   5.44892068
_cell_angle_alpha   61.94933969
_cell_angle_beta   61.94934742
_cell_angle_gamma   61.94933356
_symmetry_Int_Tables_number   1
_chemical_formula_structural   TbZnCdAg3
_chemical_formula_sum   'Tb1 Zn1 Cd1 Ag3'
_cell_volume   119.38724315
_cell_formula_units_Z   1
loop_
 _symmetry_equiv_pos_site_id
 _symmetry_equiv_pos_as_xyz
  1  'x, y, z'
loop_
 _atom_site_type_symbol
 _atom_site_label
 _atom_site_symmetry_multiplicity
 _atom_site_fract_x
 _atom_site_fract_y
 _atom_site_fract_z
 _atom_site_occupancy
  Tb  Tb0  1  0.000146  0.000146  0.000146  1
  Zn  Zn1  1  0.624326  0.624326  0.624326  1
  Cd  Cd2  1  0.251755  0.251755  0.251755  1
  Ag  Ag3  1  0.623931  0.623931  0.125912  1
  Ag  Ag4  1  0.623931  0.125912  0.623931  1
  Ag  Ag5  1  0.125912  0.623931  0.623931  1
