# generated using pymatgen
data_Hf3Ta3Fe2(BRu2)4
_symmetry_space_group_name_H-M   'P 1'
_cell_length_a   9.30332812
_cell_length_b   9.30332809
_cell_length_c   3.08755400
_cell_angle_alpha   90.00000000
_cell_angle_beta   90.00000000
_cell_angle_gamma   90.04749538
_symmetry_Int_Tables_number   1
_chemical_formula_structural   Hf3Ta3Fe2(BRu2)4
_chemical_formula_sum   'Hf3 Ta3 Fe2 B4 Ru8'
_cell_volume   267.23361582
_cell_formula_units_Z   1
loop_
 _symmetry_equiv_pos_site_id
 _symmetry_equiv_pos_as_xyz
  1  'x, y, z'
loop_
 _atom_site_type_symbol
 _atom_site_label
 _atom_site_symmetry_multiplicity
 _atom_site_fract_x
 _atom_site_fract_y
 _atom_site_fract_z
 _atom_site_occupancy
  Hf  Hf0  1  0.826615  0.672762  0.000000  1
  Hf  Hf1  1  0.172762  0.326615  0.000000  1
  Hf  Hf2  1  0.326318  0.826318  0.000000  1
  Ta  Ta3  1  0.671408  0.171408  0.000000  1
  Ta  Ta4  1  0.499851  0.501173  0.000000  1
  Ta  Ta5  1  0.001173  0.999851  0.000000  1
  Fe  Fe6  1  0.504880  0.004880  0.500000  1
  Fe  Fe7  1  0.998527  0.498527  0.500000  1
  B  B8  1  0.613549  0.888479  0.000000  1
  B  B9  1  0.388479  0.113549  0.000000  1
  B  B10  1  0.111824  0.611824  0.000000  1
  B  B11  1  0.887304  0.387304  0.000000  1
  Ru  Ru12  1  0.566909  0.724418  0.500000  1
  Ru  Ru13  1  0.437626  0.276871  0.500000  1
  Ru  Ru14  1  0.065887  0.776816  0.500000  1
  Ru  Ru15  1  0.928246  0.220538  0.500000  1
  Ru  Ru16  1  0.276816  0.565887  0.500000  1
  Ru  Ru17  1  0.720538  0.428246  0.500000  1
  Ru  Ru18  1  0.224418  0.066909  0.500000  1
  Ru  Ru19  1  0.776871  0.937626  0.500000  1
