# generated using pymatgen
data_Sm4Mn4AlCo3O20
_symmetry_space_group_name_H-M   'P 1'
_cell_length_a   5.74265300
_cell_length_b   7.41918596
_cell_length_c   8.61521086
_cell_angle_alpha   90.51311928
_cell_angle_beta   90.00000000
_cell_angle_gamma   90.00000000
_symmetry_Int_Tables_number   1
_chemical_formula_structural   Sm4Mn4AlCo3O20
_chemical_formula_sum   'Sm4 Mn4 Al1 Co3 O20'
_cell_volume   367.04332190
_cell_formula_units_Z   1
loop_
 _symmetry_equiv_pos_site_id
 _symmetry_equiv_pos_as_xyz
  1  'x, y, z'
loop_
 _atom_site_type_symbol
 _atom_site_label
 _atom_site_symmetry_multiplicity
 _atom_site_fract_x
 _atom_site_fract_y
 _atom_site_fract_z
 _atom_site_occupancy
  Sm  Sm0  1  0.500000  0.367526  0.327172  1
  Sm  Sm1  1  0.500000  0.631839  0.672424  1
  Sm  Sm2  1  0.500000  0.140156  0.830882  1
  Sm  Sm3  1  0.500000  0.857579  0.170254  1
  Mn  Mn4  1  0.246123  0.998198  0.499079  1
  Mn  Mn5  1  0.753877  0.998198  0.499079  1
  Mn  Mn6  1  0.757316  0.501005  0.002122  1
  Mn  Mn7  1  0.242684  0.501005  0.002122  1
  Al  Al8  1  0.000000  0.609125  0.358110  1
  Co  Co9  1  0.000000  0.089132  0.149394  1
  Co  Co10  1  0.000000  0.909394  0.850479  1
  Co  Co11  1  0.000000  0.396788  0.643592  1
  O  O12  1  0.000000  0.342965  0.064214  1
  O  O13  1  0.000000  0.656226  0.934774  1
  O  O14  1  0.000000  0.154308  0.566484  1
  O  O15  1  0.000000  0.842196  0.429368  1
  O  O16  1  0.220636  0.999572  0.999958  1
  O  O17  1  0.779364  0.999572  0.999958  1
  O  O18  1  0.779426  0.505281  0.494919  1
  O  O19  1  0.220574  0.505281  0.494919  1
  O  O20  1  0.252738  0.100174  0.292073  1
  O  O21  1  0.747601  0.898259  0.707244  1
  O  O22  1  0.252399  0.898259  0.707244  1
  O  O23  1  0.747000  0.396804  0.793187  1
  O  O24  1  0.747262  0.100174  0.292073  1
  O  O25  1  0.244001  0.602734  0.211644  1
  O  O26  1  0.755999  0.602734  0.211644  1
  O  O27  1  0.253000  0.396804  0.793187  1
  O  O28  1  0.500000  0.340149  0.055586  1
  O  O29  1  0.500000  0.661445  0.947383  1
  O  O30  1  0.500000  0.159075  0.552963  1
  O  O31  1  0.500000  0.838042  0.446468  1
