# generated using pymatgen
data_La7Pr3(Si9Pd)2
_symmetry_space_group_name_H-M   'P 1'
_cell_length_a   4.26042828
_cell_length_b   4.33542357
_cell_length_c   35.45824900
_cell_angle_alpha   86.49800436
_cell_angle_beta   86.52837372
_cell_angle_gamma   90.04228427
_symmetry_Int_Tables_number   1
_chemical_formula_structural   La7Pr3(Si9Pd)2
_chemical_formula_sum   'La7 Pr3 Si18 Pd2'
_cell_volume   652.51175640
_cell_formula_units_Z   1
loop_
 _symmetry_equiv_pos_site_id
 _symmetry_equiv_pos_as_xyz
  1  'x, y, z'
loop_
 _atom_site_type_symbol
 _atom_site_label
 _atom_site_symmetry_multiplicity
 _atom_site_fract_x
 _atom_site_fract_y
 _atom_site_fract_z
 _atom_site_occupancy
  La  La0  1  0.949434  0.450138  0.100887  1
  La  La1  1  0.349931  0.849633  0.299459  1
  La  La2  1  0.752272  0.251716  0.495833  1
  La  La3  1  0.150166  0.650066  0.699862  1
  La  La4  1  0.548440  0.048534  0.904056  1
  La  La5  1  0.999089  0.999589  0.001923  1
  La  La6  1  0.399902  0.400305  0.200036  1
  Pr  Pr7  1  0.801167  0.800255  0.397660  1
  Pr  Pr8  1  0.201190  0.201702  0.595977  1
  Pr  Pr9  1  0.600362  0.600621  0.798997  1
  Si  Si10  1  0.466751  0.966922  0.067134  1
  Si  Si11  1  0.866717  0.367000  0.265700  1
  Si  Si12  1  0.268041  0.767879  0.462914  1
  Si  Si13  1  0.667525  0.167503  0.664101  1
  Si  Si14  1  0.065545  0.566678  0.867793  1
  Si  Si15  1  0.917074  0.917612  0.166731  1
  Si  Si16  1  0.317283  0.316817  0.365164  1
  Si  Si17  1  0.718196  0.718936  0.563669  1
  Si  Si18  1  0.116833  0.117013  0.767502  1
  Si  Si19  1  0.516018  0.516642  0.968758  1
  Si  Si20  1  0.433140  0.933495  0.133668  1
  Si  Si21  1  0.833230  0.332428  0.332535  1
  Si  Si22  1  0.235034  0.733801  0.530117  1
  Si  Si23  1  0.634011  0.133838  0.732165  1
  Si  Si24  1  0.032936  0.532489  0.935110  1
  Si  Si25  1  0.482562  0.482598  0.035499  1
  Si  Si26  1  0.882994  0.883377  0.233527  1
  Si  Si27  1  0.284238  0.283512  0.431537  1
  Pd  Pd28  1  0.684779  0.683667  0.631417  1
  Pd  Pd29  1  0.082339  0.082439  0.835867  1
