# generated using pymatgen
data_KSnGePd3
_symmetry_space_group_name_H-M   'P 1'
_cell_length_a   7.28910824
_cell_length_b   7.28910935
_cell_length_c   7.28910882
_cell_angle_alpha   119.04424198
_cell_angle_beta   83.17944927
_cell_angle_gamma   129.29218277
_symmetry_Int_Tables_number   1
_chemical_formula_structural   KSnGePd3
_chemical_formula_sum   'K2 Sn2 Ge2 Pd6'
_cell_volume   251.63784979
_cell_formula_units_Z   2
loop_
 _symmetry_equiv_pos_site_id
 _symmetry_equiv_pos_as_xyz
  1  'x, y, z'
loop_
 _atom_site_type_symbol
 _atom_site_label
 _atom_site_symmetry_multiplicity
 _atom_site_fract_x
 _atom_site_fract_y
 _atom_site_fract_z
 _atom_site_occupancy
  K  K0  1  0.456161  0.206161  0.250000  1
  K  K1  1  0.521984  0.771983  0.750000  1
  Sn  Sn2  1  0.792437  0.693637  0.098799  1
  Sn  Sn3  1  0.094838  0.693637  0.401200  1
  Ge  Ge4  1  0.869590  0.303747  0.565843  1
  Ge  Ge5  1  0.237904  0.303747  0.934158  1
  Pd  Pd6  1  0.007689  0.459573  0.951885  1
  Pd  Pd7  1  0.004217  0.206418  0.204781  1
  Pd  Pd8  1  0.501637  0.799437  0.295219  1
  Pd  Pd9  1  0.007689  0.055804  0.548115  1
  Pd  Pd10  1  0.501637  0.206418  0.702201  1
  Pd  Pd11  1  0.004217  0.799437  0.797799  1
