# generated using pymatgen
data_Lu10SiAgPb6
_symmetry_space_group_name_H-M   'P 1'
_cell_length_a   9.07838400
_cell_length_b   9.07838435
_cell_length_c   6.62217300
_cell_angle_alpha   90.00000000
_cell_angle_beta   90.00000000
_cell_angle_gamma   120.00000600
_symmetry_Int_Tables_number   1
_chemical_formula_structural   Lu10SiAgPb6
_chemical_formula_sum   'Lu10 Si1 Ag1 Pb6'
_cell_volume   472.65933758
_cell_formula_units_Z   1
loop_
 _symmetry_equiv_pos_site_id
 _symmetry_equiv_pos_as_xyz
  1  'x, y, z'
loop_
 _atom_site_type_symbol
 _atom_site_label
 _atom_site_symmetry_multiplicity
 _atom_site_fract_x
 _atom_site_fract_y
 _atom_site_fract_z
 _atom_site_occupancy
  Lu  Lu0  1  0.254695  0.000000  0.730031  1
  Lu  Lu1  1  0.745305  0.000000  0.269969  1
  Lu  Lu2  1  0.000000  0.254695  0.730031  1
  Lu  Lu3  1  0.000000  0.745305  0.269969  1
  Lu  Lu4  1  0.745305  0.745305  0.730031  1
  Lu  Lu5  1  0.254695  0.254695  0.269969  1
  Lu  Lu6  1  0.333333  0.666667  0.500000  1
  Lu  Lu7  1  0.666667  0.333333  0.500000  1
  Lu  Lu8  1  0.666667  0.333333  0.000000  1
  Lu  Lu9  1  0.333333  0.666667  0.000000  1
  Si  Si10  1  0.000000  0.000000  0.500000  1
  Ag  Ag11  1  0.000000  0.000000  0.000000  1
  Pb  Pb12  1  0.605905  0.000000  0.750960  1
  Pb  Pb13  1  0.394095  0.000000  0.249040  1
  Pb  Pb14  1  0.000000  0.605905  0.750960  1
  Pb  Pb15  1  0.000000  0.394095  0.249040  1
  Pb  Pb16  1  0.394095  0.394095  0.750960  1
  Pb  Pb17  1  0.605905  0.605905  0.249040  1
