# generated using pymatgen
data_DyPdPt4
_symmetry_space_group_name_H-M   'P 1'
_cell_length_a   5.33426612
_cell_length_b   5.33426605
_cell_length_c   5.33426600
_cell_angle_alpha   60.00000033
_cell_angle_beta   60.00000072
_cell_angle_gamma   60.00000009
_symmetry_Int_Tables_number   1
_chemical_formula_structural   DyPdPt4
_chemical_formula_sum   'Dy1 Pd1 Pt4'
_cell_volume   107.32700868
_cell_formula_units_Z   1
loop_
 _symmetry_equiv_pos_site_id
 _symmetry_equiv_pos_as_xyz
  1  'x, y, z'
loop_
 _atom_site_type_symbol
 _atom_site_label
 _atom_site_symmetry_multiplicity
 _atom_site_fract_x
 _atom_site_fract_y
 _atom_site_fract_z
 _atom_site_occupancy
  Dy  Dy0  1  0.500000  0.500000  0.500000  1
  Pd  Pd1  1  0.750000  0.750000  0.750000  1
  Pt  Pt2  1  0.124765  0.625705  0.124765  1
  Pt  Pt3  1  0.124765  0.124765  0.625705  1
  Pt  Pt4  1  0.625705  0.124765  0.124765  1
  Pt  Pt5  1  0.124765  0.124765  0.124765  1
