# generated using pymatgen
data_La2Pr4Ga4Pt13
_symmetry_space_group_name_H-M   'P 1'
_cell_length_a   8.45109872
_cell_length_b   8.45109895
_cell_length_c   8.45049700
_cell_angle_alpha   109.52457913
_cell_angle_beta   109.52458688
_cell_angle_gamma   109.36744778
_symmetry_Int_Tables_number   1
_chemical_formula_structural   La2Pr4Ga4Pt13
_chemical_formula_sum   'La2 Pr4 Ga4 Pt13'
_cell_volume   464.59024234
_cell_formula_units_Z   1
loop_
 _symmetry_equiv_pos_site_id
 _symmetry_equiv_pos_as_xyz
  1  'x, y, z'
loop_
 _atom_site_type_symbol
 _atom_site_label
 _atom_site_symmetry_multiplicity
 _atom_site_fract_x
 _atom_site_fract_y
 _atom_site_fract_z
 _atom_site_occupancy
  La  La0  1  0.699138  0.000409  0.699548  1
  La  La1  1  0.000409  0.699138  0.699548  1
  Pr  Pr2  1  0.698623  0.698623  0.000732  1
  Pr  Pr3  1  0.301347  0.000281  0.301628  1
  Pr  Pr4  1  0.000281  0.301347  0.301628  1
  Pr  Pr5  1  0.302109  0.302109  0.000732  1
  Ga  Ga6  1  0.000250  0.000250  0.497205  1
  Ga  Ga7  1  0.000298  0.500298  0.000598  1
  Ga  Ga8  1  0.500298  0.000298  0.000598  1
  Ga  Ga9  1  0.496956  0.496956  0.497205  1
  Pt  Pt10  1  0.320219  0.320219  0.640439  1
  Pt  Pt11  1  0.680115  0.000286  0.320133  1
  Pt  Pt12  1  0.000286  0.680115  0.320133  1
  Pt  Pt13  1  0.679821  0.320316  0.000136  1
  Pt  Pt14  1  0.319847  0.640019  0.320133  1
  Pt  Pt15  1  0.999884  0.319996  0.679842  1
  Pt  Pt16  1  0.320316  0.679821  0.000136  1
  Pt  Pt17  1  0.319996  0.999884  0.679842  1
  Pt  Pt18  1  0.640019  0.319847  0.320133  1
  Pt  Pt19  1  0.679646  0.679646  0.359291  1
  Pt  Pt20  1  0.679957  0.359845  0.679842  1
  Pt  Pt21  1  0.359845  0.679957  0.679842  1
  Pt  Pt22  1  0.000338  0.000338  0.000677  1
