# generated using pymatgen
data_Pr3NdGe2(BO4)4
_symmetry_space_group_name_H-M   'P 1'
_cell_length_a   13.87431600
_cell_length_b   4.53573486
_cell_length_c   9.65152397
_cell_angle_alpha   90.10388997
_cell_angle_beta   90.00000000
_cell_angle_gamma   90.00000000
_symmetry_Int_Tables_number   1
_chemical_formula_structural   Pr3NdGe2(BO4)4
_chemical_formula_sum   'Pr6 Nd2 Ge4 B8 O32'
_cell_volume   607.37151648
_cell_formula_units_Z   2
loop_
 _symmetry_equiv_pos_site_id
 _symmetry_equiv_pos_as_xyz
  1  'x, y, z'
loop_
 _atom_site_type_symbol
 _atom_site_label
 _atom_site_symmetry_multiplicity
 _atom_site_fract_x
 _atom_site_fract_y
 _atom_site_fract_z
 _atom_site_occupancy
  Pr  Pr0  1  0.859970  0.044095  0.027058  1
  Pr  Pr1  1  0.640030  0.544097  0.027058  1
  Pr  Pr2  1  0.140741  0.045593  0.472565  1
  Pr  Pr3  1  0.359259  0.545595  0.472565  1
  Pr  Pr4  1  0.640428  0.454907  0.527562  1
  Pr  Pr5  1  0.859572  0.954906  0.527562  1
  Nd  Nd6  1  0.358594  0.454016  0.972411  1
  Nd  Nd7  1  0.141406  0.954015  0.972411  1
  Ge  Ge8  1  0.499346  0.079376  0.248888  1
  Ge  Ge9  1  0.000654  0.579375  0.248888  1
  Ge  Ge10  1  0.000616  0.421256  0.751176  1
  Ge  Ge11  1  0.499384  0.921255  0.751176  1
  B  B12  1  0.200629  0.465622  0.203263  1
  B  B13  1  0.299371  0.965622  0.203263  1
  B  B14  1  0.799679  0.466528  0.295305  1
  B  B15  1  0.700321  0.966528  0.295305  1
  B  B16  1  0.299367  0.034070  0.705604  1
  B  B17  1  0.200633  0.534070  0.705604  1
  B  B18  1  0.700269  0.033602  0.795994  1
  B  B19  1  0.799731  0.533602  0.795994  1
  O  O20  1  0.193051  0.459743  0.053929  1
  O  O21  1  0.306949  0.959742  0.053929  1
  O  O22  1  0.493614  0.296542  0.099980  1
  O  O23  1  0.006386  0.796543  0.099980  1
  O  O24  1  0.893851  0.354227  0.232335  1
  O  O25  1  0.606149  0.854226  0.232335  1
  O  O26  1  0.720355  0.270916  0.239281  1
  O  O27  1  0.779645  0.770916  0.239281  1
  O  O28  1  0.279805  0.270481  0.259648  1
  O  O29  1  0.220195  0.770481  0.259648  1
  O  O30  1  0.106615  0.351949  0.265770  1
  O  O31  1  0.393385  0.851948  0.265770  1
  O  O32  1  0.504716  0.296516  0.398276  1
  O  O33  1  0.995284  0.796517  0.398276  1
  O  O34  1  0.807506  0.460408  0.444499  1
  O  O35  1  0.692494  0.960407  0.444499  1
  O  O36  1  0.307283  0.039689  0.556297  1
  O  O37  1  0.192717  0.539690  0.556297  1
  O  O38  1  0.005273  0.204861  0.601509  1
  O  O39  1  0.494727  0.704860  0.601509  1
  O  O40  1  0.606011  0.146894  0.734150  1
  O  O41  1  0.893989  0.646894  0.734150  1
  O  O42  1  0.779525  0.229100  0.739569  1
  O  O43  1  0.720475  0.729100  0.739569  1
  O  O44  1  0.220024  0.229096  0.761830  1
  O  O45  1  0.279976  0.729096  0.761830  1
  O  O46  1  0.393246  0.148820  0.768278  1
  O  O47  1  0.106754  0.648820  0.768278  1
  O  O48  1  0.996607  0.202771  0.899703  1
  O  O49  1  0.503393  0.702770  0.899703  1
  O  O50  1  0.692619  0.038928  0.945116  1
  O  O51  1  0.807381  0.538929  0.945116  1
