# generated using pymatgen
data_Hf4Si4Pd3Pt
_symmetry_space_group_name_H-M   'P 1'
_cell_length_a   3.89404100
_cell_length_b   6.61575280
_cell_length_c   7.61299168
_cell_angle_alpha   90.15180737
_cell_angle_beta   90.00000000
_cell_angle_gamma   90.00000000
_symmetry_Int_Tables_number   1
_chemical_formula_structural   Hf4Si4Pd3Pt
_chemical_formula_sum   'Hf4 Si4 Pd3 Pt1'
_cell_volume   196.12529972
_cell_formula_units_Z   1
loop_
 _symmetry_equiv_pos_site_id
 _symmetry_equiv_pos_as_xyz
  1  'x, y, z'
loop_
 _atom_site_type_symbol
 _atom_site_label
 _atom_site_symmetry_multiplicity
 _atom_site_fract_x
 _atom_site_fract_y
 _atom_site_fract_z
 _atom_site_occupancy
  Hf  Hf0  1  0.250000  0.527975  0.678079  1
  Hf  Hf1  1  0.750000  0.471976  0.321964  1
  Hf  Hf2  1  0.250000  0.027081  0.820523  1
  Hf  Hf3  1  0.750000  0.973192  0.179080  1
  Si  Si4  1  0.250000  0.258322  0.124083  1
  Si  Si5  1  0.750000  0.741560  0.876165  1
  Si  Si6  1  0.250000  0.758370  0.376297  1
  Si  Si7  1  0.750000  0.240558  0.624384  1
  Pd  Pd8  1  0.250000  0.144383  0.437418  1
  Pd  Pd9  1  0.750000  0.356925  0.937744  1
  Pd  Pd10  1  0.250000  0.643886  0.062150  1
  Pt  Pt11  1  0.750000  0.855771  0.562113  1
