# generated using pymatgen
data_Pr16MgCd3(PdRu)2
_symmetry_space_group_name_H-M   'P 1'
_cell_length_a   10.07442676
_cell_length_b   10.07442704
_cell_length_c   10.14531440
_cell_angle_alpha   59.69022428
_cell_angle_beta   59.69022292
_cell_angle_gamma   59.62415350
_symmetry_Int_Tables_number   1
_chemical_formula_structural   Pr16MgCd3(PdRu)2
_chemical_formula_sum   'Pr16 Mg1 Cd3 Pd2 Ru2'
_cell_volume   722.61103965
_cell_formula_units_Z   1
loop_
 _symmetry_equiv_pos_site_id
 _symmetry_equiv_pos_as_xyz
  1  'x, y, z'
loop_
 _atom_site_type_symbol
 _atom_site_label
 _atom_site_symmetry_multiplicity
 _atom_site_fract_x
 _atom_site_fract_y
 _atom_site_fract_z
 _atom_site_occupancy
  Pr  Pr0  1  0.346997  0.346997  0.357211  1
  Pr  Pr1  1  0.347595  0.347595  0.948573  1
  Pr  Pr2  1  0.343084  0.957942  0.348787  1
  Pr  Pr3  1  0.957942  0.343084  0.348787  1
  Pr  Pr4  1  0.816037  0.190405  0.191839  1
  Pr  Pr5  1  0.187217  0.816452  0.803923  1
  Pr  Pr6  1  0.190405  0.816037  0.191839  1
  Pr  Pr7  1  0.816452  0.187217  0.803923  1
  Pr  Pr8  1  0.189816  0.189816  0.810169  1
  Pr  Pr9  1  0.807148  0.807148  0.192599  1
  Pr  Pr10  1  0.936504  0.559550  0.566491  1
  Pr  Pr11  1  0.557939  0.937751  0.940051  1
  Pr  Pr12  1  0.559550  0.936504  0.566491  1
  Pr  Pr13  1  0.937751  0.557939  0.940051  1
  Pr  Pr14  1  0.562905  0.562905  0.938485  1
  Pr  Pr15  1  0.938600  0.938600  0.560853  1
  Mg  Mg16  1  0.574968  0.574968  0.574314  1
  Cd  Cd17  1  0.580683  0.580683  0.258351  1
  Cd  Cd18  1  0.582430  0.256230  0.580426  1
  Cd  Cd19  1  0.256230  0.582430  0.580426  1
  Pd  Pd20  1  0.148034  0.573265  0.141033  1
  Pd  Pd21  1  0.573265  0.148034  0.141033  1
  Ru  Ru22  1  0.143949  0.143949  0.137625  1
  Ru  Ru23  1  0.144495  0.144495  0.576721  1
