# generated using pymatgen
data_Nb3Ga2FeN
_symmetry_space_group_name_H-M   'P 1'
_cell_length_a   8.18958641
_cell_length_b   8.18958607
_cell_length_c   8.18958700
_cell_angle_alpha   60.00000029
_cell_angle_beta   60.00000167
_cell_angle_gamma   59.99999973
_symmetry_Int_Tables_number   1
_chemical_formula_structural   Nb3Ga2FeN
_chemical_formula_sum   'Nb12 Ga8 Fe4 N4'
_cell_volume   388.39258509
_cell_formula_units_Z   4
loop_
 _symmetry_equiv_pos_site_id
 _symmetry_equiv_pos_as_xyz
  1  'x, y, z'
loop_
 _atom_site_type_symbol
 _atom_site_label
 _atom_site_symmetry_multiplicity
 _atom_site_fract_x
 _atom_site_fract_y
 _atom_site_fract_z
 _atom_site_occupancy
  Nb  Nb0  1  0.804117  0.804117  0.195883  1
  Nb  Nb1  1  0.195883  0.195883  0.804117  1
  Nb  Nb2  1  0.804117  0.195883  0.804117  1
  Nb  Nb3  1  0.195883  0.804117  0.195883  1
  Nb  Nb4  1  0.195883  0.804117  0.804117  1
  Nb  Nb5  1  0.804117  0.195883  0.195883  1
  Nb  Nb6  1  0.445883  0.445883  0.054117  1
  Nb  Nb7  1  0.054117  0.054117  0.445883  1
  Nb  Nb8  1  0.445883  0.054117  0.445883  1
  Nb  Nb9  1  0.054117  0.445883  0.054117  1
  Nb  Nb10  1  0.054117  0.445883  0.445883  1
  Nb  Nb11  1  0.445883  0.054117  0.054117  1
  Ga  Ga12  1  0.752146  0.415952  0.415952  1
  Ga  Ga13  1  0.415952  0.752146  0.415952  1
  Ga  Ga14  1  0.415952  0.415952  0.752146  1
  Ga  Ga15  1  0.415952  0.415952  0.415952  1
  Ga  Ga16  1  0.497854  0.834048  0.834048  1
  Ga  Ga17  1  0.834048  0.497854  0.834048  1
  Ga  Ga18  1  0.834048  0.834048  0.497854  1
  Ga  Ga19  1  0.834048  0.834048  0.834048  1
  Fe  Fe20  1  0.125000  0.625000  0.625000  1
  Fe  Fe21  1  0.625000  0.125000  0.625000  1
  Fe  Fe22  1  0.625000  0.625000  0.125000  1
  Fe  Fe23  1  0.625000  0.625000  0.625000  1
  N  N24  1  0.625000  0.125000  0.125000  1
  N  N25  1  0.125000  0.625000  0.125000  1
  N  N26  1  0.125000  0.125000  0.625000  1
  N  N27  1  0.125000  0.125000  0.125000  1
