# generated using pymatgen
data_Li3ZnSiPt3
_symmetry_space_group_name_H-M   'P 1'
_cell_length_a   6.80845183
_cell_length_b   6.80845118
_cell_length_c   6.80845100
_cell_angle_alpha   61.35802066
_cell_angle_beta   61.35803324
_cell_angle_gamma   61.35803334
_symmetry_Int_Tables_number   1
_chemical_formula_structural   Li3ZnSiPt3
_chemical_formula_sum   'Li6 Zn2 Si2 Pt6'
_cell_volume   229.97684276
_cell_formula_units_Z   2
loop_
 _symmetry_equiv_pos_site_id
 _symmetry_equiv_pos_as_xyz
  1  'x, y, z'
loop_
 _atom_site_type_symbol
 _atom_site_label
 _atom_site_symmetry_multiplicity
 _atom_site_fract_x
 _atom_site_fract_y
 _atom_site_fract_z
 _atom_site_occupancy
  Li  Li0  1  0.559594  0.838877  0.345175  1
  Li  Li1  1  0.345175  0.559594  0.838877  1
  Li  Li2  1  0.838877  0.345175  0.559594  1
  Li  Li3  1  0.654825  0.161123  0.440406  1
  Li  Li4  1  0.161123  0.440406  0.654825  1
  Li  Li5  1  0.440406  0.654825  0.161123  1
  Zn  Zn6  1  0.279534  0.279534  0.279534  1
  Zn  Zn7  1  0.720466  0.720466  0.720466  1
  Si  Si8  1  0.902715  0.902715  0.902715  1
  Si  Si9  1  0.097285  0.097285  0.097285  1
  Pt  Pt10  1  0.896686  0.500000  0.103314  1
  Pt  Pt11  1  0.103314  0.896686  0.500000  1
  Pt  Pt12  1  0.500000  0.103314  0.896686  1
  Pt  Pt13  1  0.271728  0.000000  0.728272  1
  Pt  Pt14  1  0.728272  0.271728  0.000000  1
  Pt  Pt15  1  0.000000  0.728272  0.271728  1
