# generated using pymatgen
data_YTh3(B2Ir5)2
_symmetry_space_group_name_H-M   'P 1'
_cell_length_a   11.11970158
_cell_length_b   11.11970129
_cell_length_c   11.11970178
_cell_angle_alpha   28.82692199
_cell_angle_beta   28.82692506
_cell_angle_gamma   28.82692704
_symmetry_Int_Tables_number   1
_chemical_formula_structural   YTh3(B2Ir5)2
_chemical_formula_sum   'Y1 Th3 B4 Ir10'
_cell_volume   282.65520236
_cell_formula_units_Z   1
loop_
 _symmetry_equiv_pos_site_id
 _symmetry_equiv_pos_as_xyz
  1  'x, y, z'
loop_
 _atom_site_type_symbol
 _atom_site_label
 _atom_site_symmetry_multiplicity
 _atom_site_fract_x
 _atom_site_fract_y
 _atom_site_fract_z
 _atom_site_occupancy
  Y  Y0  1  0.050705  0.050705  0.050705  1
  Th  Th1  1  0.150819  0.150819  0.150819  1
  Th  Th2  1  0.949980  0.949980  0.949980  1
  Th  Th3  1  0.846841  0.846841  0.846841  1
  B  B4  1  0.617701  0.617701  0.617701  1
  B  B5  1  0.717093  0.717093  0.717093  1
  B  B6  1  0.382827  0.382827  0.382827  1
  B  B7  1  0.283693  0.283693  0.283693  1
  Ir  Ir8  1  0.406923  0.899994  0.406923  1
  Ir  Ir9  1  0.899994  0.406923  0.406923  1
  Ir  Ir10  1  0.500527  0.500527  0.000579  1
  Ir  Ir11  1  0.500527  0.000579  0.500527  1
  Ir  Ir12  1  0.000579  0.500527  0.500527  1
  Ir  Ir13  1  0.499876  0.499876  0.499876  1
  Ir  Ir14  1  0.592885  0.099224  0.592885  1
  Ir  Ir15  1  0.592885  0.592885  0.099224  1
  Ir  Ir16  1  0.099224  0.592885  0.592885  1
  Ir  Ir17  1  0.406923  0.406923  0.899994  1
