# generated using pymatgen
data_UF10
_symmetry_space_group_name_H-M   'P 1'
_cell_length_a   11.19808900
_cell_length_b   5.31884399
_cell_length_c   7.35276843
_cell_angle_alpha   89.91844139
_cell_angle_beta   90.00000000
_cell_angle_gamma   90.00000000
_symmetry_Int_Tables_number   1
_chemical_formula_structural   UF10
_chemical_formula_sum   'U2 F20'
_cell_volume   437.93697609
_cell_formula_units_Z   2
loop_
 _symmetry_equiv_pos_site_id
 _symmetry_equiv_pos_as_xyz
  1  'x, y, z'
loop_
 _atom_site_type_symbol
 _atom_site_label
 _atom_site_symmetry_multiplicity
 _atom_site_fract_x
 _atom_site_fract_y
 _atom_site_fract_z
 _atom_site_occupancy
  U  U0  1  0.000000  0.500000  0.500000  1
  U  U1  1  0.500000  0.500000  0.000000  1
  F  F2  1  0.855840  0.789936  0.979091  1
  F  F3  1  0.355840  0.210064  0.520909  1
  F  F4  1  0.144160  0.210064  0.020909  1
  F  F5  1  0.644160  0.789936  0.479091  1
  F  F6  1  0.849794  0.002347  0.096996  1
  F  F7  1  0.349794  0.997653  0.403004  1
  F  F8  1  0.150206  0.997653  0.903004  1
  F  F9  1  0.650206  0.002347  0.596996  1
  F  F10  1  0.074870  0.637450  0.270153  1
  F  F11  1  0.574870  0.362550  0.229847  1
  F  F12  1  0.925130  0.362550  0.729847  1
  F  F13  1  0.425130  0.637450  0.770153  1
  F  F14  1  0.860743  0.374057  0.349986  1
  F  F15  1  0.360743  0.625943  0.150014  1
  F  F16  1  0.139257  0.625943  0.650014  1
  F  F17  1  0.639257  0.374057  0.849986  1
  F  F18  1  0.091274  0.177197  0.455711  1
  F  F19  1  0.591274  0.822803  0.044289  1
  F  F20  1  0.408726  0.177197  0.955711  1
  F  F21  1  0.908726  0.822803  0.544289  1
