# generated using pymatgen
data_HfNb3(SiRh)4
_symmetry_space_group_name_H-M   'P 1'
_cell_length_a   3.80540000
_cell_length_b   6.47079448
_cell_length_c   7.40444673
_cell_angle_alpha   89.69171626
_cell_angle_beta   90.00000000
_cell_angle_gamma   90.00000000
_symmetry_Int_Tables_number   1
_chemical_formula_structural   HfNb3(SiRh)4
_chemical_formula_sum   'Hf1 Nb3 Si4 Rh4'
_cell_volume   182.32417044
_cell_formula_units_Z   1
loop_
 _symmetry_equiv_pos_site_id
 _symmetry_equiv_pos_as_xyz
  1  'x, y, z'
loop_
 _atom_site_type_symbol
 _atom_site_label
 _atom_site_symmetry_multiplicity
 _atom_site_fract_x
 _atom_site_fract_y
 _atom_site_fract_z
 _atom_site_occupancy
  Hf  Hf0  1  0.750000  0.474925  0.322634  1
  Nb  Nb1  1  0.250000  0.024506  0.825791  1
  Nb  Nb2  1  0.750000  0.973883  0.171844  1
  Nb  Nb3  1  0.250000  0.526124  0.678247  1
  Si  Si4  1  0.250000  0.262946  0.119145  1
  Si  Si5  1  0.250000  0.775279  0.378434  1
  Si  Si6  1  0.750000  0.730553  0.874974  1
  Si  Si7  1  0.750000  0.229197  0.627615  1
  Rh  Rh8  1  0.250000  0.645027  0.064895  1
  Rh  Rh9  1  0.250000  0.148814  0.437233  1
  Rh  Rh10  1  0.750000  0.854675  0.561478  1
  Rh  Rh11  1  0.750000  0.354072  0.937710  1
