# generated using pymatgen
data_Pr6IrBr10
_symmetry_space_group_name_H-M   'P 1'
_cell_length_a   7.71584626
_cell_length_b   9.65662336
_cell_length_c   9.61480882
_cell_angle_alpha   108.87996337
_cell_angle_beta   96.75307124
_cell_angle_gamma   106.27430286
_symmetry_Int_Tables_number   1
_chemical_formula_structural   Pr6IrBr10
_chemical_formula_sum   'Pr6 Ir1 Br10'
_cell_volume   633.34931470
_cell_formula_units_Z   1
loop_
 _symmetry_equiv_pos_site_id
 _symmetry_equiv_pos_as_xyz
  1  'x, y, z'
loop_
 _atom_site_type_symbol
 _atom_site_label
 _atom_site_symmetry_multiplicity
 _atom_site_fract_x
 _atom_site_fract_y
 _atom_site_fract_z
 _atom_site_occupancy
  Pr  Pr0  1  0.973092  0.305400  0.099090  1
  Pr  Pr1  1  0.026908  0.694600  0.900910  1
  Pr  Pr2  1  0.631191  0.857215  0.812520  1
  Pr  Pr3  1  0.368809  0.142785  0.187480  1
  Pr  Pr4  1  0.127855  0.047258  0.756228  1
  Pr  Pr5  1  0.872145  0.952742  0.243772  1
  Ir  Ir6  1  0.000000  0.000000  0.000000  1
  Br  Br7  1  0.548831  0.173508  0.919628  1
  Br  Br8  1  0.451169  0.826492  0.080372  1
  Br  Br9  1  0.750164  0.917231  0.545782  1
  Br  Br10  1  0.249836  0.082769  0.454218  1
  Br  Br11  1  0.088591  0.367005  0.830720  1
  Br  Br12  1  0.911409  0.632995  0.169280  1
  Br  Br13  1  0.202855  0.741448  0.648327  1
  Br  Br14  1  0.797145  0.258552  0.351673  1
  Br  Br15  1  0.641284  0.540686  0.725812  1
  Br  Br16  1  0.358716  0.459314  0.274188  1
