# generated using pymatgen
data_TaNb2AlCuN
_symmetry_space_group_name_H-M   'P 1'
_cell_length_a   7.00513100
_cell_length_b   7.00488800
_cell_length_c   6.99715200
_cell_angle_alpha   90.00000000
_cell_angle_beta   90.00000000
_cell_angle_gamma   90.00000000
_symmetry_Int_Tables_number   1
_chemical_formula_structural   TaNb2AlCuN
_chemical_formula_sum   'Ta4 Nb8 Al4 Cu4 N4'
_cell_volume   343.35135475
_cell_formula_units_Z   4
loop_
 _symmetry_equiv_pos_site_id
 _symmetry_equiv_pos_as_xyz
  1  'x, y, z'
loop_
 _atom_site_type_symbol
 _atom_site_label
 _atom_site_symmetry_multiplicity
 _atom_site_fract_x
 _atom_site_fract_y
 _atom_site_fract_z
 _atom_site_occupancy
  Ta  Ta0  1  0.791236  0.958016  0.373999  1
  Ta  Ta1  1  0.708764  0.041984  0.873999  1
  Ta  Ta2  1  0.208764  0.458016  0.126001  1
  Ta  Ta3  1  0.291236  0.541984  0.626001  1
  Nb  Nb4  1  0.956531  0.372876  0.790352  1
  Nb  Nb5  1  0.043469  0.872876  0.709648  1
  Nb  Nb6  1  0.456531  0.127124  0.209648  1
  Nb  Nb7  1  0.543469  0.627124  0.290352  1
  Nb  Nb8  1  0.375409  0.791830  0.958058  1
  Nb  Nb9  1  0.875409  0.708170  0.041942  1
  Nb  Nb10  1  0.124591  0.208170  0.458058  1
  Nb  Nb11  1  0.624591  0.291830  0.541942  1
  Al  Al12  1  0.573633  0.426316  0.926445  1
  Al  Al13  1  0.426367  0.926316  0.573555  1
  Al  Al14  1  0.926367  0.573684  0.426445  1
  Al  Al15  1  0.073633  0.073684  0.073555  1
  Cu  Cu16  1  0.177446  0.820138  0.321898  1
  Cu  Cu17  1  0.322554  0.179862  0.821898  1
  Cu  Cu18  1  0.822554  0.320138  0.178102  1
  Cu  Cu19  1  0.677446  0.679862  0.678102  1
  N  N20  1  0.874398  0.119709  0.622813  1
  N  N21  1  0.625602  0.880291  0.122813  1
  N  N22  1  0.125602  0.619709  0.877187  1
  N  N23  1  0.374398  0.380291  0.377187  1
