# generated using pymatgen
data_Ho2Tm6In3Ir
_symmetry_space_group_name_H-M   'P 1'
_cell_length_a   10.29955700
_cell_length_b   10.30151978
_cell_length_c   6.98979105
_cell_angle_alpha   89.98758968
_cell_angle_beta   90.00000000
_cell_angle_gamma   119.99370064
_symmetry_Int_Tables_number   1
_chemical_formula_structural   Ho2Tm6In3Ir
_chemical_formula_sum   'Ho4 Tm12 In6 Ir2'
_cell_volume   642.30635926
_cell_formula_units_Z   2
loop_
 _symmetry_equiv_pos_site_id
 _symmetry_equiv_pos_as_xyz
  1  'x, y, z'
loop_
 _atom_site_type_symbol
 _atom_site_label
 _atom_site_symmetry_multiplicity
 _atom_site_fract_x
 _atom_site_fract_y
 _atom_site_fract_z
 _atom_site_occupancy
  Ho  Ho0  1  0.532657  0.065314  0.514824  1
  Ho  Ho1  1  0.934872  0.467431  0.514781  1
  Ho  Ho2  1  0.532558  0.467431  0.514781  1
  Ho  Ho3  1  0.467249  0.934497  0.014714  1
  Tm  Tm4  1  0.066069  0.533001  0.014665  1
  Tm  Tm5  1  0.466933  0.533001  0.014665  1
  Tm  Tm6  1  0.176754  0.353510  0.721789  1
  Tm  Tm7  1  0.646752  0.823208  0.721539  1
  Tm  Tm8  1  0.176455  0.823208  0.721539  1
  Tm  Tm9  1  0.823319  0.646636  0.220869  1
  Tm  Tm10  1  0.353229  0.176848  0.221082  1
  Tm  Tm11  1  0.823619  0.176848  0.221082  1
  Tm  Tm12  1  0.666784  0.333566  0.896061  1
  Tm  Tm13  1  0.333186  0.666374  0.395728  1
  Tm  Tm14  1  0.999975  0.999951  0.500204  1
  Tm  Tm15  1  0.999996  0.999991  0.000348  1
  In  In16  1  0.837328  0.674657  0.761804  1
  In  In17  1  0.325339  0.162681  0.761700  1
  In  In18  1  0.837341  0.162681  0.761700  1
  In  In19  1  0.162876  0.325750  0.261218  1
  In  In20  1  0.674529  0.837076  0.261496  1
  In  In21  1  0.162548  0.837076  0.261496  1
  Ir  Ir22  1  0.666649  0.333298  0.289540  1
  Ir  Ir23  1  0.332984  0.665969  0.790374  1
