# generated using pymatgen
data_Dy5Sc(Si3Ru)8
_symmetry_space_group_name_H-M   'P 1'
_cell_length_a   10.09945830
_cell_length_b   10.09945805
_cell_length_c   8.13130050
_cell_angle_alpha   90.02799050
_cell_angle_beta   90.02799043
_cell_angle_gamma   132.56000054
_symmetry_Int_Tables_number   1
_chemical_formula_structural   Dy5Sc(Si3Ru)8
_chemical_formula_sum   'Dy5 Sc1 Si24 Ru8'
_cell_volume   610.89918105
_cell_formula_units_Z   1
loop_
 _symmetry_equiv_pos_site_id
 _symmetry_equiv_pos_as_xyz
  1  'x, y, z'
loop_
 _atom_site_type_symbol
 _atom_site_label
 _atom_site_symmetry_multiplicity
 _atom_site_fract_x
 _atom_site_fract_y
 _atom_site_fract_z
 _atom_site_occupancy
  Dy  Dy0  1  0.000000  0.000000  0.000000  1
  Dy  Dy1  1  0.502686  0.002453  0.749568  1
  Dy  Dy2  1  0.997547  0.497314  0.250432  1
  Dy  Dy3  1  0.497314  0.997547  0.250432  1
  Dy  Dy4  1  0.002453  0.502686  0.749568  1
  Sc  Sc5  1  0.500000  0.500000  0.500000  1
  Si  Si6  1  0.794496  0.205504  0.500000  1
  Si  Si7  1  0.295130  0.704870  0.000000  1
  Si  Si8  1  0.205504  0.794496  0.500000  1
  Si  Si9  1  0.704870  0.295130  0.000000  1
  Si  Si10  1  0.333161  0.333161  0.831382  1
  Si  Si11  1  0.666839  0.666839  0.168618  1
  Si  Si12  1  0.169285  0.169285  0.334181  1
  Si  Si13  1  0.830715  0.830715  0.665819  1
  Si  Si14  1  0.121676  0.886920  0.727874  1
  Si  Si15  1  0.113080  0.878324  0.272126  1
  Si  Si16  1  0.610717  0.378253  0.230418  1
  Si  Si17  1  0.621747  0.389283  0.769582  1
  Si  Si18  1  0.878324  0.113080  0.272126  1
  Si  Si19  1  0.886920  0.121676  0.727874  1
  Si  Si20  1  0.389283  0.621747  0.769582  1
  Si  Si21  1  0.378253  0.610717  0.230418  1
  Si  Si22  1  0.345785  0.113918  0.504736  1
  Si  Si23  1  0.886082  0.654215  0.495264  1
  Si  Si24  1  0.388295  0.155004  0.005182  1
  Si  Si25  1  0.844996  0.611705  0.994818  1
  Si  Si26  1  0.654215  0.886082  0.495264  1
  Si  Si27  1  0.113918  0.345785  0.504736  1
  Si  Si28  1  0.611705  0.844996  0.994818  1
  Si  Si29  1  0.155004  0.388295  0.005182  1
  Ru  Ru30  1  0.667979  0.332021  0.500000  1
  Ru  Ru31  1  0.169321  0.830679  0.000000  1
  Ru  Ru32  1  0.332021  0.667979  0.500000  1
  Ru  Ru33  1  0.830679  0.169321  0.000000  1
  Ru  Ru34  1  0.126361  0.126361  0.626809  1
  Ru  Ru35  1  0.873639  0.873639  0.373191  1
  Ru  Ru36  1  0.373652  0.373652  0.128215  1
  Ru  Ru37  1  0.626348  0.626348  0.871785  1
