# generated using pymatgen
data_CaY6Co6AgSn22
_symmetry_space_group_name_H-M   'P 1'
_cell_length_a   9.68120600
_cell_length_b   9.68120658
_cell_length_c   10.00161400
_cell_angle_alpha   90.00000000
_cell_angle_beta   90.00000000
_cell_angle_gamma   119.99999803
_symmetry_Int_Tables_number   1
_chemical_formula_structural   CaY6Co6AgSn22
_chemical_formula_sum   'Ca1 Y6 Co6 Ag1 Sn22'
_cell_volume   811.81987249
_cell_formula_units_Z   1
loop_
 _symmetry_equiv_pos_site_id
 _symmetry_equiv_pos_as_xyz
  1  'x, y, z'
loop_
 _atom_site_type_symbol
 _atom_site_label
 _atom_site_symmetry_multiplicity
 _atom_site_fract_x
 _atom_site_fract_y
 _atom_site_fract_z
 _atom_site_occupancy
  Ca  Ca0  1  0.000000  0.000000  0.000000  1
  Y  Y1  1  0.042962  0.521481  0.307210  1
  Y  Y2  1  0.478519  0.957038  0.307210  1
  Y  Y3  1  0.478519  0.521481  0.307210  1
  Y  Y4  1  0.957038  0.478519  0.692790  1
  Y  Y5  1  0.521481  0.042962  0.692790  1
  Y  Y6  1  0.521481  0.478519  0.692790  1
  Co  Co7  1  0.169195  0.830805  0.802174  1
  Co  Co8  1  0.661610  0.830805  0.802174  1
  Co  Co9  1  0.169195  0.338390  0.802174  1
  Co  Co10  1  0.830805  0.169195  0.197826  1
  Co  Co11  1  0.338390  0.169195  0.197826  1
  Co  Co12  1  0.830805  0.661610  0.197826  1
  Ag  Ag13  1  0.000000  0.000000  0.500000  1
  Sn  Sn14  1  0.113908  0.886092  0.275410  1
  Sn  Sn15  1  0.772185  0.886092  0.275410  1
  Sn  Sn16  1  0.113908  0.227815  0.275410  1
  Sn  Sn17  1  0.886092  0.113908  0.724590  1
  Sn  Sn18  1  0.227815  0.113908  0.724590  1
  Sn  Sn19  1  0.886092  0.772185  0.724590  1
  Sn  Sn20  1  0.345830  0.000000  0.000000  1
  Sn  Sn21  1  0.654170  0.654170  0.000000  1
  Sn  Sn22  1  0.000000  0.345830  0.000000  1
  Sn  Sn23  1  0.345830  0.345830  0.000000  1
  Sn  Sn24  1  0.000000  0.654170  0.000000  1
  Sn  Sn25  1  0.654170  0.000000  0.000000  1
  Sn  Sn26  1  0.783619  0.567236  0.452325  1
  Sn  Sn27  1  0.783619  0.216381  0.452325  1
  Sn  Sn28  1  0.432764  0.216381  0.452325  1
  Sn  Sn29  1  0.216381  0.432764  0.547675  1
  Sn  Sn30  1  0.216381  0.783619  0.547675  1
  Sn  Sn31  1  0.567236  0.783619  0.547675  1
  Sn  Sn32  1  0.666667  0.333333  0.184496  1
  Sn  Sn33  1  0.333333  0.666667  0.815504  1
  Sn  Sn34  1  0.666667  0.333333  0.882920  1
  Sn  Sn35  1  0.333333  0.666667  0.117080  1
