# generated using pymatgen
data_Hf8Nb2ZnSn7
_symmetry_space_group_name_H-M   'P 1'
_cell_length_a   5.81211400
_cell_length_b   8.64228530
_cell_length_c   8.64235900
_cell_angle_alpha   119.99972970
_cell_angle_beta   90.00007379
_cell_angle_gamma   89.99986419
_symmetry_Int_Tables_number   1
_chemical_formula_structural   Hf8Nb2ZnSn7
_chemical_formula_sum   'Hf8 Nb2 Zn1 Sn7'
_cell_volume   375.94718776
_cell_formula_units_Z   1
loop_
 _symmetry_equiv_pos_site_id
 _symmetry_equiv_pos_as_xyz
  1  'x, y, z'
loop_
 _atom_site_type_symbol
 _atom_site_label
 _atom_site_symmetry_multiplicity
 _atom_site_fract_x
 _atom_site_fract_y
 _atom_site_fract_z
 _atom_site_occupancy
  Hf  Hf0  1  0.000001  0.666662  0.333326  1
  Hf  Hf1  1  0.000001  0.333336  0.666674  1
  Hf  Hf2  1  0.736859  0.275897  0.000000  1
  Hf  Hf3  1  0.736875  0.724113  0.724097  1
  Hf  Hf4  1  0.736875  0.000016  0.275903  1
  Hf  Hf5  1  0.263133  0.724105  0.000000  1
  Hf  Hf6  1  0.263127  0.275883  0.275902  1
  Hf  Hf7  1  0.263127  0.999982  0.724098  1
  Nb  Nb8  1  0.500001  0.333339  0.666677  1
  Nb  Nb9  1  0.500001  0.666662  0.333323  1
  Zn  Zn10  1  0.500000  0.000001  0.000000  1
  Sn  Sn11  1  0.751297  0.613246  0.000000  1
  Sn  Sn12  1  0.751285  0.386781  0.386778  1
  Sn  Sn13  1  0.751285  0.000003  0.613222  1
  Sn  Sn14  1  0.248701  0.386756  0.000000  1
  Sn  Sn15  1  0.248717  0.613219  0.613222  1
  Sn  Sn16  1  0.248717  0.999997  0.386778  1
  Sn  Sn17  1  0.999998  0.000002  0.000000  1
