# generated using pymatgen
data_DyNb5(B2Ru5)2
_symmetry_space_group_name_H-M   'P 1'
_cell_length_a   9.52519136
_cell_length_b   9.52519136
_cell_length_c   3.05766300
_cell_angle_alpha   90.00000000
_cell_angle_beta   90.00000000
_cell_angle_gamma   90.36135677
_symmetry_Int_Tables_number   1
_chemical_formula_structural   DyNb5(B2Ru5)2
_chemical_formula_sum   'Dy1 Nb5 B4 Ru10'
_cell_volume   277.41401587
_cell_formula_units_Z   1
loop_
 _symmetry_equiv_pos_site_id
 _symmetry_equiv_pos_as_xyz
  1  'x, y, z'
loop_
 _atom_site_type_symbol
 _atom_site_label
 _atom_site_symmetry_multiplicity
 _atom_site_fract_x
 _atom_site_fract_y
 _atom_site_fract_z
 _atom_site_occupancy
  Dy  Dy0  1  0.824465  0.675535  0.000000  1
  Nb  Nb1  1  0.178114  0.321886  0.000000  1
  Nb  Nb2  1  0.324373  0.823242  0.000000  1
  Nb  Nb3  1  0.676758  0.175627  0.000000  1
  Nb  Nb4  1  0.500951  0.500544  0.000000  1
  Nb  Nb5  1  0.999456  0.999049  0.000000  1
  B  B6  1  0.618567  0.881433  0.000000  1
  B  B7  1  0.377240  0.122760  0.000000  1
  B  B8  1  0.123339  0.619796  0.000000  1
  B  B9  1  0.880204  0.376661  0.000000  1
  Ru  Ru10  1  0.558688  0.724856  0.500000  1
  Ru  Ru11  1  0.426788  0.282875  0.500000  1
  Ru  Ru12  1  0.082084  0.782487  0.500000  1
  Ru  Ru13  1  0.930476  0.216262  0.500000  1
  Ru  Ru14  1  0.283738  0.569524  0.500000  1
  Ru  Ru15  1  0.717513  0.417916  0.500000  1
  Ru  Ru16  1  0.217125  0.073212  0.500000  1
  Ru  Ru17  1  0.775144  0.941312  0.500000  1
  Ru  Ru18  1  0.496058  0.003942  0.500000  1
  Ru  Ru19  1  0.008920  0.491080  0.500000  1
