# generated using pymatgen
data_SrY6FeCl12
_symmetry_space_group_name_H-M   'P 1'
_cell_length_a   8.92378382
_cell_length_b   8.96009367
_cell_length_c   8.67035886
_cell_angle_alpha   105.41628623
_cell_angle_beta   105.63366765
_cell_angle_gamma   106.21754839
_symmetry_Int_Tables_number   1
_chemical_formula_structural   SrY6FeCl12
_chemical_formula_sum   'Sr1 Y6 Fe1 Cl12'
_cell_volume   595.84298081
_cell_formula_units_Z   1
loop_
 _symmetry_equiv_pos_site_id
 _symmetry_equiv_pos_as_xyz
  1  'x, y, z'
loop_
 _atom_site_type_symbol
 _atom_site_label
 _atom_site_symmetry_multiplicity
 _atom_site_fract_x
 _atom_site_fract_y
 _atom_site_fract_z
 _atom_site_occupancy
  Sr  Sr0  1  0.500000  0.500000  0.500000  1
  Y  Y1  1  0.106695  0.316139  0.012024  1
  Y  Y2  1  0.316232  0.016996  0.106764  1
  Y  Y3  1  0.016527  0.095659  0.291412  1
  Y  Y4  1  0.983472  0.904341  0.708588  1
  Y  Y5  1  0.683768  0.983003  0.893235  1
  Y  Y6  1  0.893305  0.683861  0.987976  1
  Fe  Fe7  1  0.000000  0.000000  0.000000  1
  Cl  Cl8  1  0.211985  0.676217  0.073689  1
  Cl  Cl9  1  0.443496  0.357567  0.138076  1
  Cl  Cl10  1  0.679440  0.072232  0.214258  1
  Cl  Cl11  1  0.931361  0.789704  0.327217  1
  Cl  Cl12  1  0.143540  0.436137  0.355334  1
  Cl  Cl13  1  0.358362  0.144836  0.443819  1
  Cl  Cl14  1  0.641638  0.855164  0.556181  1
  Cl  Cl15  1  0.856459  0.563863  0.644666  1
  Cl  Cl16  1  0.068640  0.210297  0.672784  1
  Cl  Cl17  1  0.320561  0.927769  0.785742  1
  Cl  Cl18  1  0.556503  0.642432  0.861924  1
  Cl  Cl19  1  0.788015  0.323784  0.926311  1
