# generated using pymatgen
data_Sm10Si16Sn
_symmetry_space_group_name_H-M   'P 1'
_cell_length_a   11.32763757
_cell_length_b   11.26283374
_cell_length_c   11.32763880
_cell_angle_alpha   144.65190776
_cell_angle_beta   135.89550683
_cell_angle_gamma   57.85242435
_symmetry_Int_Tables_number   1
_chemical_formula_structural   Sm10Si16Sn
_chemical_formula_sum   'Sm10 Si16 Sn1'
_cell_volume   576.72642743
_cell_formula_units_Z   1
loop_
 _symmetry_equiv_pos_site_id
 _symmetry_equiv_pos_as_xyz
  1  'x, y, z'
loop_
 _atom_site_type_symbol
 _atom_site_label
 _atom_site_symmetry_multiplicity
 _atom_site_fract_x
 _atom_site_fract_y
 _atom_site_fract_z
 _atom_site_occupancy
  Sm  Sm0  1  0.754733  0.760758  0.516790  1
  Sm  Sm1  1  0.441047  0.972606  0.016828  1
  Sm  Sm2  1  0.848036  0.368311  0.018261  1
  Sm  Sm3  1  0.955777  0.972606  0.531558  1
  Sm  Sm4  1  0.150773  0.162837  0.515109  1
  Sm  Sm5  1  0.350050  0.368311  0.520276  1
  Sm  Sm6  1  0.243968  0.760758  0.006026  1
  Sm  Sm7  1  0.544199  0.557552  0.496862  1
  Sm  Sm8  1  0.060690  0.557552  0.013353  1
  Sm  Sm9  1  0.647728  0.162837  0.012064  1
  Si  Si10  1  0.198203  0.590583  0.392381  1
  Si  Si11  1  0.999320  0.085707  0.086386  1
  Si  Si12  1  0.699320  0.283984  0.584665  1
  Si  Si13  1  0.800267  0.185694  0.385428  1
  Si  Si14  1  0.896044  0.500420  0.604378  1
  Si  Si15  1  0.413354  0.861150  0.447795  1
  Si  Si16  1  0.102744  0.710044  0.607299  1
  Si  Si17  1  0.300514  0.893251  0.592738  1
  Si  Si18  1  0.584317  0.039046  0.454730  1
  Si  Si19  1  0.999254  0.430849  0.431596  1
  Si  Si20  1  0.884844  0.834984  0.950141  1
  Si  Si21  1  0.401355  0.499971  0.098617  1
  Si  Si22  1  0.113063  0.070782  0.957718  1
  Si  Si23  1  0.292105  0.235710  0.943606  1
  Si  Si24  1  0.499494  0.397642  0.898148  1
  Si  Si25  1  0.596615  0.705428  0.108812  1
  Sn  Sn26  1  0.722190  0.692124  0.969933  1
