# generated using pymatgen
data_Fe3CoSi8(W6C)2
_symmetry_space_group_name_H-M   'P 1'
_cell_length_a   7.78561852
_cell_length_b   7.78561883
_cell_length_c   7.78141257
_cell_angle_alpha   59.98211709
_cell_angle_beta   59.98211678
_cell_angle_gamma   59.99999959
_symmetry_Int_Tables_number   1
_chemical_formula_structural   Fe3CoSi8(W6C)2
_chemical_formula_sum   'Fe3 Co1 Si8 W12 C2'
_cell_volume   333.43582352
_cell_formula_units_Z   1
loop_
 _symmetry_equiv_pos_site_id
 _symmetry_equiv_pos_as_xyz
  1  'x, y, z'
loop_
 _atom_site_type_symbol
 _atom_site_label
 _atom_site_symmetry_multiplicity
 _atom_site_fract_x
 _atom_site_fract_y
 _atom_site_fract_z
 _atom_site_occupancy
  Fe  Fe0  1  0.125000  0.625000  0.125000  1
  Fe  Fe1  1  0.125000  0.125000  0.125000  1
  Fe  Fe2  1  0.625000  0.125000  0.125000  1
  Co  Co3  1  0.125000  0.125000  0.625000  1
  Si  Si4  1  0.915088  0.253822  0.916003  1
  Si  Si5  1  0.334912  0.996178  0.333997  1
  Si  Si6  1  0.334912  0.334912  0.333997  1
  Si  Si7  1  0.996178  0.334912  0.333997  1
  Si  Si8  1  0.915551  0.915551  0.253347  1
  Si  Si9  1  0.253822  0.915088  0.916003  1
  Si  Si10  1  0.334449  0.334449  0.996653  1
  Si  Si11  1  0.915088  0.915088  0.916003  1
  W  W12  1  0.308413  0.691073  0.692101  1
  W  W13  1  0.308413  0.308413  0.692101  1
  W  W14  1  0.558927  0.941587  0.557899  1
  W  W15  1  0.941587  0.558927  0.557899  1
  W  W16  1  0.558187  0.941069  0.942558  1
  W  W17  1  0.691813  0.308931  0.307442  1
  W  W18  1  0.941069  0.558187  0.942558  1
  W  W19  1  0.308931  0.691813  0.307442  1
  W  W20  1  0.558187  0.558187  0.942558  1
  W  W21  1  0.691073  0.308413  0.692101  1
  W  W22  1  0.691813  0.691813  0.307442  1
  W  W23  1  0.941587  0.941587  0.557899  1
  C  C24  1  0.749882  0.749882  0.750355  1
  C  C25  1  0.500118  0.500118  0.499645  1
