# generated using pymatgen
data_TbLuNi7P4
_symmetry_space_group_name_H-M   'P 1'
_cell_length_a   3.68039000
_cell_length_b   9.14225900
_cell_length_c   10.23215500
_cell_angle_alpha   90.00000000
_cell_angle_beta   90.00000000
_cell_angle_gamma   90.00000000
_symmetry_Int_Tables_number   1
_chemical_formula_structural   TbLuNi7P4
_chemical_formula_sum   'Tb2 Lu2 Ni14 P8'
_cell_volume   344.28212354
_cell_formula_units_Z   2
loop_
 _symmetry_equiv_pos_site_id
 _symmetry_equiv_pos_as_xyz
  1  'x, y, z'
loop_
 _atom_site_type_symbol
 _atom_site_label
 _atom_site_symmetry_multiplicity
 _atom_site_fract_x
 _atom_site_fract_y
 _atom_site_fract_z
 _atom_site_occupancy
  Tb  Tb0  1  0.000000  0.435978  0.178145  1
  Tb  Tb1  1  0.500000  0.564022  0.678145  1
  Lu  Lu2  1  0.000000  0.058053  0.395337  1
  Lu  Lu3  1  0.500000  0.941947  0.895337  1
  Ni  Ni4  1  0.000000  0.055873  0.700463  1
  Ni  Ni5  1  0.500000  0.944127  0.200463  1
  Ni  Ni6  1  0.000000  0.726302  0.510113  1
  Ni  Ni7  1  0.500000  0.273698  0.010113  1
  Ni  Ni8  1  0.000000  0.095794  0.093541  1
  Ni  Ni9  1  0.500000  0.904206  0.593541  1
  Ni  Ni10  1  0.000000  0.746989  0.273418  1
  Ni  Ni11  1  0.500000  0.253011  0.773418  1
  Ni  Ni12  1  0.000000  0.305597  0.602627  1
  Ni  Ni13  1  0.500000  0.694403  0.102627  1
  Ni  Ni14  1  0.000000  0.687637  0.911584  1
  Ni  Ni15  1  0.500000  0.312363  0.411584  1
  Ni  Ni16  1  0.000000  0.417188  0.869647  1
  Ni  Ni17  1  0.500000  0.582812  0.369647  1
  P  P18  1  0.000000  0.178463  0.889743  1
  P  P19  1  0.500000  0.821537  0.389743  1
  P  P20  1  0.000000  0.846479  0.082059  1
  P  P21  1  0.500000  0.153521  0.582059  1
  P  P22  1  0.000000  0.810521  0.716276  1
  P  P23  1  0.500000  0.189479  0.216276  1
  P  P24  1  0.000000  0.480162  0.461146  1
  P  P25  1  0.500000  0.519838  0.961146  1
