# generated using pymatgen
data_VAs(PO3)6
_symmetry_space_group_name_H-M   'P 1'
_cell_length_a   5.21990369
_cell_length_b   7.09896891
_cell_length_c   10.72876159
_cell_angle_alpha   98.46449842
_cell_angle_beta   92.64774047
_cell_angle_gamma   91.02878000
_symmetry_Int_Tables_number   1
_chemical_formula_structural   VAs(PO3)6
_chemical_formula_sum   'V1 As1 P6 O18'
_cell_volume   392.69060809
_cell_formula_units_Z   1
loop_
 _symmetry_equiv_pos_site_id
 _symmetry_equiv_pos_as_xyz
  1  'x, y, z'
loop_
 _atom_site_type_symbol
 _atom_site_label
 _atom_site_symmetry_multiplicity
 _atom_site_fract_x
 _atom_site_fract_y
 _atom_site_fract_z
 _atom_site_occupancy
  V  V0  1  0.000000  0.500000  0.500000  1
  As  As1  1  0.000000  0.000000  0.000000  1
  P  P2  1  0.521603  0.957068  0.186854  1
  P  P3  1  0.241885  0.317346  0.232255  1
  P  P4  1  0.508916  0.332693  0.638653  1
  P  P5  1  0.478397  0.042932  0.813146  1
  P  P6  1  0.758115  0.682654  0.767745  1
  P  P7  1  0.491084  0.667307  0.361347  1
  O  O8  1  0.481580  0.177554  0.238190  1
  O  O9  1  0.100956  0.274535  0.105204  1
  O  O10  1  0.327187  0.883617  0.081154  1
  O  O11  1  0.227308  0.362301  0.613781  1
  O  O12  1  0.687304  0.335031  0.533193  1
  O  O13  1  0.199495  0.069486  0.839248  1
  O  O14  1  0.608931  0.481698  0.761736  1
  O  O15  1  0.899044  0.725465  0.894796  1
  O  O16  1  0.542273  0.133472  0.688994  1
  O  O17  1  0.772692  0.637699  0.386219  1
  O  O18  1  0.908409  0.686365  0.651745  1
  O  O19  1  0.800505  0.930514  0.160752  1
  O  O20  1  0.518420  0.822446  0.761810  1
  O  O21  1  0.672813  0.116383  0.918846  1
  O  O22  1  0.457727  0.866528  0.311006  1
  O  O23  1  0.091591  0.313635  0.348255  1
  O  O24  1  0.391069  0.518302  0.238264  1
  O  O25  1  0.312696  0.664969  0.466807  1
