# generated using pymatgen
data_Er2TmIn3IrRh2
_symmetry_space_group_name_H-M   'P 1'
_cell_length_a   7.54862101
_cell_length_b   7.54466365
_cell_length_c   3.85308700
_cell_angle_alpha   90.00000000
_cell_angle_beta   90.00000000
_cell_angle_gamma   120.01144874
_symmetry_Int_Tables_number   1
_chemical_formula_structural   Er2TmIn3IrRh2
_chemical_formula_sum   'Er2 Tm1 In3 Ir1 Rh2'
_cell_volume   190.01891662
_cell_formula_units_Z   1
loop_
 _symmetry_equiv_pos_site_id
 _symmetry_equiv_pos_as_xyz
  1  'x, y, z'
loop_
 _atom_site_type_symbol
 _atom_site_label
 _atom_site_symmetry_multiplicity
 _atom_site_fract_x
 _atom_site_fract_y
 _atom_site_fract_z
 _atom_site_occupancy
  Er  Er0  1  0.004589  0.409896  0.500000  1
  Er  Er1  1  0.590141  0.594677  0.500000  1
  Tm  Tm2  1  0.405126  0.995389  0.500000  1
  In  In3  1  0.260367  0.258689  0.000000  1
  In  In4  1  0.998774  0.739838  0.000000  1
  In  In5  1  0.740926  0.001414  0.000000  1
  Ir  Ir6  1  0.333462  0.667175  0.000000  1
  Rh  Rh7  1  0.000251  0.000017  0.500000  1
  Rh  Rh8  1  0.666365  0.332905  0.000000  1
