# generated using pymatgen
data_ErNpB6Os
_symmetry_space_group_name_H-M   'P 1'
_cell_length_a   3.56365400
_cell_length_b   9.28768200
_cell_length_c   11.36724200
_cell_angle_alpha   90.00000000
_cell_angle_beta   90.00000000
_cell_angle_gamma   90.00000000
_symmetry_Int_Tables_number   1
_chemical_formula_structural   ErNpB6Os
_chemical_formula_sum   'Er4 Np4 B24 Os4'
_cell_volume   376.23394318
_cell_formula_units_Z   4
loop_
 _symmetry_equiv_pos_site_id
 _symmetry_equiv_pos_as_xyz
  1  'x, y, z'
loop_
 _atom_site_type_symbol
 _atom_site_label
 _atom_site_symmetry_multiplicity
 _atom_site_fract_x
 _atom_site_fract_y
 _atom_site_fract_z
 _atom_site_occupancy
  Er  Er0  1  0.000000  0.337130  0.406387  1
  Er  Er1  1  0.000000  0.662870  0.593613  1
  Er  Er2  1  0.000000  0.837130  0.093613  1
  Er  Er3  1  0.000000  0.162870  0.906387  1
  Np  Np4  1  0.000000  0.959288  0.402108  1
  Np  Np5  1  0.000000  0.040712  0.597892  1
  Np  Np6  1  0.000000  0.459288  0.097892  1
  Np  Np7  1  0.000000  0.540712  0.902108  1
  B  B8  1  0.500000  0.551459  0.431621  1
  B  B9  1  0.500000  0.448541  0.568379  1
  B  B10  1  0.500000  0.051459  0.068379  1
  B  B11  1  0.500000  0.948541  0.931621  1
  B  B12  1  0.500000  0.743118  0.423791  1
  B  B13  1  0.500000  0.256882  0.576209  1
  B  B14  1  0.500000  0.243118  0.076209  1
  B  B15  1  0.500000  0.756882  0.923791  1
  B  B16  1  0.500000  0.803592  0.274789  1
  B  B17  1  0.500000  0.196408  0.725211  1
  B  B18  1  0.500000  0.303592  0.225211  1
  B  B19  1  0.500000  0.696408  0.774789  1
  B  B20  1  0.500000  0.643944  0.188697  1
  B  B21  1  0.500000  0.356056  0.811303  1
  B  B22  1  0.500000  0.143944  0.311303  1
  B  B23  1  0.500000  0.856056  0.688697  1
  B  B24  1  0.500000  0.987034  0.220188  1
  B  B25  1  0.500000  0.012966  0.779812  1
  B  B26  1  0.500000  0.487034  0.279812  1
  B  B27  1  0.500000  0.512966  0.720188  1
  B  B28  1  0.500000  0.643812  0.040168  1
  B  B29  1  0.500000  0.356188  0.959832  1
  B  B30  1  0.500000  0.143812  0.459832  1
  B  B31  1  0.500000  0.856188  0.540168  1
  Os  Os32  1  0.000000  0.644418  0.320141  1
  Os  Os33  1  0.000000  0.355582  0.679859  1
  Os  Os34  1  0.000000  0.144418  0.179859  1
  Os  Os35  1  0.000000  0.855582  0.820141  1
