# generated using pymatgen
data_CaU9O20
_symmetry_space_group_name_H-M   'P 1'
_cell_length_a   6.61620105
_cell_length_b   7.64446318
_cell_length_c   8.55000197
_cell_angle_alpha   102.90402808
_cell_angle_beta   97.36004224
_cell_angle_gamma   106.75929873
_symmetry_Int_Tables_number   1
_chemical_formula_structural   CaU9O20
_chemical_formula_sum   'Ca1 U9 O20'
_cell_volume   394.93349471
_cell_formula_units_Z   1
loop_
 _symmetry_equiv_pos_site_id
 _symmetry_equiv_pos_as_xyz
  1  'x, y, z'
loop_
 _atom_site_type_symbol
 _atom_site_label
 _atom_site_symmetry_multiplicity
 _atom_site_fract_x
 _atom_site_fract_y
 _atom_site_fract_z
 _atom_site_occupancy
  Ca  Ca0  1  0.000000  0.000000  0.000000  1
  U  U1  1  0.000000  0.500000  0.000000  1
  U  U2  1  0.400500  0.801781  0.802763  1
  U  U3  1  0.395184  0.297793  0.800843  1
  U  U4  1  0.799309  0.099565  0.602854  1
  U  U5  1  0.800797  0.601597  0.601931  1
  U  U6  1  0.199203  0.398403  0.398069  1
  U  U7  1  0.200691  0.900435  0.397146  1
  U  U8  1  0.604816  0.702207  0.199157  1
  U  U9  1  0.599500  0.198219  0.197237  1
  O  O10  1  0.361501  0.078262  0.945620  1
  O  O11  1  0.353326  0.574426  0.951057  1
  O  O12  1  0.049713  0.234133  0.844743  1
  O  O13  1  0.053373  0.713338  0.843061  1
  O  O14  1  0.444678  0.520980  0.648966  1
  O  O15  1  0.445486  0.025367  0.646339  1
  O  O16  1  0.742762  0.373410  0.750770  1
  O  O17  1  0.737942  0.869996  0.741781  1
  O  O18  1  0.150615  0.674744  0.545523  1
  O  O19  1  0.146988  0.173363  0.548522  1
  O  O20  1  0.849385  0.325256  0.454477  1
  O  O21  1  0.555322  0.479020  0.351034  1
  O  O22  1  0.554514  0.974633  0.353661  1
  O  O23  1  0.853012  0.826637  0.451478  1
  O  O24  1  0.262058  0.130004  0.258219  1
  O  O25  1  0.257238  0.626590  0.249230  1
  O  O26  1  0.646674  0.425574  0.048943  1
  O  O27  1  0.638499  0.921738  0.054380  1
  O  O28  1  0.946627  0.286662  0.156939  1
  O  O29  1  0.950287  0.765867  0.155257  1
