# generated using pymatgen
data_Nd8P14Ir15Rh
_symmetry_space_group_name_H-M   'P 1'
_cell_length_a   3.99481500
_cell_length_b   12.85804935
_cell_length_c   13.24936655
_cell_angle_alpha   80.76950124
_cell_angle_beta   90.00000000
_cell_angle_gamma   90.00000000
_symmetry_Int_Tables_number   1
_chemical_formula_structural   Nd8P14Ir15Rh
_chemical_formula_sum   'Nd8 P14 Ir15 Rh1'
_cell_volume   671.74814663
_cell_formula_units_Z   1
loop_
 _symmetry_equiv_pos_site_id
 _symmetry_equiv_pos_as_xyz
  1  'x, y, z'
loop_
 _atom_site_type_symbol
 _atom_site_label
 _atom_site_symmetry_multiplicity
 _atom_site_fract_x
 _atom_site_fract_y
 _atom_site_fract_z
 _atom_site_occupancy
  Nd  Nd0  1  0.750000  0.790711  0.561346  1
  Nd  Nd1  1  0.250000  0.209076  0.438932  1
  Nd  Nd2  1  0.750000  0.481241  0.706402  1
  Nd  Nd3  1  0.250000  0.518708  0.293599  1
  Nd  Nd4  1  0.750000  0.720067  0.896939  1
  Nd  Nd5  1  0.250000  0.103268  0.789415  1
  Nd  Nd6  1  0.750000  0.896796  0.210680  1
  Nd  Nd7  1  0.250000  0.280050  0.102944  1
  P  P8  1  0.250000  0.908906  0.409513  1
  P  P9  1  0.750000  0.473438  0.127901  1
  P  P10  1  0.250000  0.526434  0.872068  1
  P  P11  1  0.750000  0.090788  0.590142  1
  P  P12  1  0.250000  0.741730  0.080860  1
  P  P13  1  0.750000  0.258329  0.919065  1
  P  P14  1  0.750000  0.156191  0.281527  1
  P  P15  1  0.250000  0.843986  0.718558  1
  P  P16  1  0.250000  0.052348  0.098674  1
  P  P17  1  0.750000  0.947534  0.901125  1
  P  P18  1  0.250000  0.312992  0.689150  1
  P  P19  1  0.750000  0.686954  0.311025  1
  P  P20  1  0.250000  0.607337  0.563385  1
  P  P21  1  0.750000  0.392852  0.436740  1
  Ir  Ir22  1  0.750000  0.011058  0.423990  1
  Ir  Ir23  1  0.250000  0.662447  0.731171  1
  Ir  Ir24  1  0.750000  0.337290  0.268983  1
  Ir  Ir25  1  0.250000  0.552508  0.046867  1
  Ir  Ir26  1  0.750000  0.447536  0.953291  1
  Ir  Ir27  1  0.250000  0.061764  0.272189  1
  Ir  Ir28  1  0.750000  0.938972  0.727340  1
  Ir  Ir29  1  0.250000  0.422721  0.527109  1
  Ir  Ir30  1  0.750000  0.577029  0.472928  1
  Ir  Ir31  1  0.250000  0.915090  0.997954  1
  Ir  Ir32  1  0.750000  0.084895  0.001874  1
  Ir  Ir33  1  0.250000  0.729460  0.393692  1
  Ir  Ir34  1  0.750000  0.270621  0.606166  1
  Ir  Ir35  1  0.250000  0.341553  0.858975  1
  Ir  Ir36  1  0.750000  0.658538  0.141008  1
  Rh  Rh37  1  0.250000  0.988782  0.576473  1
