# generated using pymatgen
data_BaGdGe4N7
_symmetry_space_group_name_H-M   'P 1'
_cell_length_a   6.37554300
_cell_length_b   6.37554258
_cell_length_c   10.41946000
_cell_angle_alpha   90.00000000
_cell_angle_beta   90.00000000
_cell_angle_gamma   119.99999701
_symmetry_Int_Tables_number   1
_chemical_formula_structural   BaGdGe4N7
_chemical_formula_sum   'Ba2 Gd2 Ge8 N14'
_cell_volume   366.78383414
_cell_formula_units_Z   2
loop_
 _symmetry_equiv_pos_site_id
 _symmetry_equiv_pos_as_xyz
  1  'x, y, z'
loop_
 _atom_site_type_symbol
 _atom_site_label
 _atom_site_symmetry_multiplicity
 _atom_site_fract_x
 _atom_site_fract_y
 _atom_site_fract_z
 _atom_site_occupancy
  Ba  Ba0  1  0.333333  0.666667  0.363638  1
  Ba  Ba1  1  0.666667  0.333333  0.863638  1
  Gd  Gd2  1  0.333333  0.666667  0.736218  1
  Gd  Gd3  1  0.666667  0.333333  0.236218  1
  Ge  Ge4  1  0.826284  0.652567  0.546638  1
  Ge  Ge5  1  0.173716  0.826284  0.046638  1
  Ge  Ge6  1  0.652567  0.826284  0.046638  1
  Ge  Ge7  1  0.347433  0.173716  0.546638  1
  Ge  Ge8  1  0.826284  0.173716  0.546638  1
  Ge  Ge9  1  0.173716  0.347433  0.046638  1
  Ge  Ge10  1  0.000000  0.000000  0.813550  1
  Ge  Ge11  1  0.000000  0.000000  0.313550  1
  N  N12  1  0.000000  0.000000  0.621828  1
  N  N13  1  0.000000  0.000000  0.121828  1
  N  N14  1  0.157766  0.315532  0.870033  1
  N  N15  1  0.842234  0.157766  0.370033  1
  N  N16  1  0.315532  0.157766  0.370033  1
  N  N17  1  0.684468  0.842234  0.870033  1
  N  N18  1  0.157766  0.842234  0.870033  1
  N  N19  1  0.842234  0.684468  0.370033  1
  N  N20  1  0.986213  0.493107  0.602885  1
  N  N21  1  0.493107  0.986213  0.102885  1
  N  N22  1  0.493107  0.506893  0.102885  1
  N  N23  1  0.506893  0.493107  0.602885  1
  N  N24  1  0.013787  0.506893  0.102885  1
  N  N25  1  0.506893  0.013787  0.602885  1
