# generated using pymatgen
data_YbY6Lu(B6Os)4
_symmetry_space_group_name_H-M   'P 1'
_cell_length_a   3.64788600
_cell_length_b   9.14501888
_cell_length_c   11.53784102
_cell_angle_alpha   89.95057982
_cell_angle_beta   90.00000000
_cell_angle_gamma   90.00000000
_symmetry_Int_Tables_number   1
_chemical_formula_structural   YbY6Lu(B6Os)4
_chemical_formula_sum   'Yb1 Y6 Lu1 B24 Os4'
_cell_volume   384.90207561
_cell_formula_units_Z   1
loop_
 _symmetry_equiv_pos_site_id
 _symmetry_equiv_pos_as_xyz
  1  'x, y, z'
loop_
 _atom_site_type_symbol
 _atom_site_label
 _atom_site_symmetry_multiplicity
 _atom_site_fract_x
 _atom_site_fract_y
 _atom_site_fract_z
 _atom_site_occupancy
  Yb  Yb0  1  0.000000  0.323269  0.413689  1
  Y  Y1  1  0.000000  0.676304  0.585525  1
  Y  Y2  1  0.000000  0.821581  0.086054  1
  Y  Y3  1  0.000000  0.178951  0.914188  1
  Y  Y4  1  0.000000  0.944202  0.371888  1
  Y  Y5  1  0.000000  0.057981  0.627736  1
  Y  Y6  1  0.000000  0.443384  0.127984  1
  Lu  Lu7  1  0.000000  0.556226  0.872224  1
  B  B8  1  0.500000  0.553351  0.432569  1
  B  B9  1  0.500000  0.446127  0.567704  1
  B  B10  1  0.500000  0.053080  0.066420  1
  B  B11  1  0.500000  0.945077  0.932452  1
  B  B12  1  0.500000  0.747592  0.418910  1
  B  B13  1  0.500000  0.253324  0.581219  1
  B  B14  1  0.500000  0.247581  0.080593  1
  B  B15  1  0.500000  0.750044  0.919150  1
  B  B16  1  0.500000  0.790851  0.266032  1
  B  B17  1  0.500000  0.210885  0.734409  1
  B  B18  1  0.500000  0.289820  0.233807  1
  B  B19  1  0.500000  0.708017  0.766832  1
  B  B20  1  0.500000  0.631506  0.186022  1
  B  B21  1  0.500000  0.370305  0.815419  1
  B  B22  1  0.500000  0.131824  0.313669  1
  B  B23  1  0.500000  0.867922  0.685979  1
  B  B24  1  0.500000  0.983493  0.211781  1
  B  B25  1  0.500000  0.016093  0.787569  1
  B  B26  1  0.500000  0.483215  0.287922  1
  B  B27  1  0.500000  0.517356  0.713831  1
  B  B28  1  0.500000  0.606116  0.028196  1
  B  B29  1  0.500000  0.395328  0.969829  1
  B  B30  1  0.500000  0.105472  0.470870  1
  B  B31  1  0.500000  0.893978  0.529528  1
  Os  Os32  1  0.000000  0.638628  0.320704  1
  Os  Os33  1  0.000000  0.363863  0.680730  1
  Os  Os34  1  0.000000  0.136521  0.177133  1
  Os  Os35  1  0.000000  0.860730  0.821436  1
