# generated using pymatgen
data_SrCa3(MnN2)4
_symmetry_space_group_name_H-M   'P 1'
_cell_length_a   7.32642911
_cell_length_b   5.72882375
_cell_length_c   5.76635028
_cell_angle_alpha   66.13377191
_cell_angle_beta   88.65723712
_cell_angle_gamma   90.26381501
_symmetry_Int_Tables_number   1
_chemical_formula_structural   SrCa3(MnN2)4
_chemical_formula_sum   'Sr1 Ca3 Mn4 N8'
_cell_volume   221.24231931
_cell_formula_units_Z   1
loop_
 _symmetry_equiv_pos_site_id
 _symmetry_equiv_pos_as_xyz
  1  'x, y, z'
loop_
 _atom_site_type_symbol
 _atom_site_label
 _atom_site_symmetry_multiplicity
 _atom_site_fract_x
 _atom_site_fract_y
 _atom_site_fract_z
 _atom_site_occupancy
  Sr  Sr0  1  0.412840  0.818289  0.334857  1
  Ca  Ca1  1  0.070574  0.307222  0.315088  1
  Ca  Ca2  1  0.588671  0.195468  0.678284  1
  Ca  Ca3  1  0.919703  0.688942  0.677175  1
  Mn  Mn4  1  0.634863  0.400898  0.103410  1
  Mn  Mn5  1  0.137435  0.101085  0.890283  1
  Mn  Mn6  1  0.364645  0.593391  0.907966  1
  Mn  Mn7  1  0.864005  0.900277  0.097296  1
  N  N8  1  0.076172  0.929605  0.240362  1
  N  N9  1  0.586961  0.571606  0.760681  1
  N  N10  1  0.920957  0.072170  0.745822  1
  N  N11  1  0.412311  0.410407  0.252510  1
  N  N12  1  0.698599  0.089514  0.157215  1
  N  N13  1  0.188597  0.424917  0.832321  1
  N  N14  1  0.316135  0.919070  0.835122  1
  N  N15  1  0.807532  0.577139  0.171607  1
