# generated using pymatgen
data_K3Te(OF)3
_symmetry_space_group_name_H-M   'P 1'
_cell_length_a   6.33543585
_cell_length_b   6.33543519
_cell_length_c   6.33543585
_cell_angle_alpha   60.36471334
_cell_angle_beta   60.36472113
_cell_angle_gamma   60.36471445
_symmetry_Int_Tables_number   1
_chemical_formula_structural   K3Te(OF)3
_chemical_formula_sum   'K3 Te1 O3 F3'
_cell_volume   181.29365114
_cell_formula_units_Z   1
loop_
 _symmetry_equiv_pos_site_id
 _symmetry_equiv_pos_as_xyz
  1  'x, y, z'
loop_
 _atom_site_type_symbol
 _atom_site_label
 _atom_site_symmetry_multiplicity
 _atom_site_fract_x
 _atom_site_fract_y
 _atom_site_fract_z
 _atom_site_occupancy
  K  K0  1  0.256540  0.256540  0.256540  1
  K  K1  1  0.486826  0.486826  0.486826  1
  K  K2  1  0.752023  0.752023  0.752023  1
  Te  Te3  1  0.000878  0.000878  0.000878  1
  O  O4  1  0.277569  0.761168  0.116251  1
  O  O5  1  0.761168  0.116250  0.277569  1
  O  O6  1  0.116251  0.277569  0.761168  1
  F  F7  1  0.853301  0.705551  0.164123  1
  F  F8  1  0.164123  0.853301  0.705551  1
  F  F9  1  0.705551  0.164123  0.853301  1
