# generated using pymatgen
data_NbAlInNiPt8
_symmetry_space_group_name_H-M   'P 1'
_cell_length_a   3.99301300
_cell_length_b   3.99301300
_cell_length_c   11.65504900
_cell_angle_alpha   90.00000000
_cell_angle_beta   90.00000000
_cell_angle_gamma   90.00000000
_symmetry_Int_Tables_number   1
_chemical_formula_structural   NbAlInNiPt8
_chemical_formula_sum   'Nb1 Al1 In1 Ni1 Pt8'
_cell_volume   185.82988236
_cell_formula_units_Z   1
loop_
 _symmetry_equiv_pos_site_id
 _symmetry_equiv_pos_as_xyz
  1  'x, y, z'
loop_
 _atom_site_type_symbol
 _atom_site_label
 _atom_site_symmetry_multiplicity
 _atom_site_fract_x
 _atom_site_fract_y
 _atom_site_fract_z
 _atom_site_occupancy
  Nb  Nb0  1  0.000000  0.000000  0.993275  1
  Al  Al1  1  0.000000  0.000000  0.664886  1
  In  In2  1  0.000000  0.000000  0.342928  1
  Ni  Ni3  1  0.500000  0.500000  0.669388  1
  Pt  Pt4  1  0.500000  0.500000  0.991387  1
  Pt  Pt5  1  0.500000  0.500000  0.338240  1
  Pt  Pt6  1  0.500000  0.000000  0.157901  1
  Pt  Pt7  1  0.500000  0.000000  0.521146  1
  Pt  Pt8  1  0.500000  0.000000  0.820900  1
  Pt  Pt9  1  0.000000  0.500000  0.157901  1
  Pt  Pt10  1  0.000000  0.500000  0.521146  1
  Pt  Pt11  1  0.000000  0.500000  0.820900  1
