# generated using pymatgen
data_HoTe28
_symmetry_space_group_name_H-M   'P 1'
_cell_length_a   11.94840564
_cell_length_b   10.77129257
_cell_length_c   12.42422500
_cell_angle_alpha   114.70317048
_cell_angle_beta   123.63460921
_cell_angle_gamma   88.59305117
_symmetry_Int_Tables_number   1
_chemical_formula_structural   HoTe28
_chemical_formula_sum   'Ho1 Te28'
_cell_volume   1163.32830564
_cell_formula_units_Z   1
loop_
 _symmetry_equiv_pos_site_id
 _symmetry_equiv_pos_as_xyz
  1  'x, y, z'
loop_
 _atom_site_type_symbol
 _atom_site_label
 _atom_site_symmetry_multiplicity
 _atom_site_fract_x
 _atom_site_fract_y
 _atom_site_fract_z
 _atom_site_occupancy
  Ho  Ho0  1  0.500000  0.000000  0.000000  1
  Te  Te1  1  0.239299  0.105874  0.429881  1
  Te  Te2  1  0.605642  0.156948  0.433906  1
  Te  Te3  1  0.276392  0.264559  0.887680  1
  Te  Te4  1  0.911970  0.303156  0.887048  1
  Te  Te5  1  0.209104  0.556150  0.726421  1
  Te  Te6  1  0.802880  0.529725  0.635527  1
  Te  Te7  1  0.394358  0.843052  0.566094  1
  Te  Te8  1  0.760701  0.894126  0.570119  1
  Te  Te9  1  0.088030  0.696844  0.112952  1
  Te  Te10  1  0.723608  0.735441  0.112320  1
  Te  Te11  1  0.197120  0.470275  0.364473  1
  Te  Te12  1  0.790896  0.443850  0.273579  1
  Te  Te13  1  0.763568  0.073695  0.846027  1
  Te  Te14  1  0.222230  0.974903  0.717948  1
  Te  Te15  1  0.810620  0.681230  0.898804  1
  Te  Te16  1  0.376857  0.768561  0.032244  1
  Te  Te17  1  0.514101  0.267196  0.237477  1
  Te  Te18  1  0.043130  0.274854  0.360248  1
  Te  Te19  1  0.777770  0.025097  0.282052  1
  Te  Te20  1  0.236432  0.926305  0.153973  1
  Te  Te21  1  0.623143  0.231439  0.967756  1
  Te  Te22  1  0.189380  0.318770  0.101196  1
  Te  Te23  1  0.956870  0.725146  0.639752  1
  Te  Te24  1  0.485899  0.732804  0.762523  1
  Te  Te25  1  0.044947  0.379826  0.736392  1
  Te  Te26  1  0.499563  0.295559  0.590679  1
  Te  Te27  1  0.500437  0.704441  0.409321  1
  Te  Te28  1  0.955053  0.620174  0.263608  1
