# generated using pymatgen
data_Dy8CdInNi2
_symmetry_space_group_name_H-M   'P 1'
_cell_length_a   9.57155036
_cell_length_b   9.57159220
_cell_length_c   9.56527500
_cell_angle_alpha   60.02369314
_cell_angle_beta   60.02353760
_cell_angle_gamma   60.15108307
_symmetry_Int_Tables_number   1
_chemical_formula_structural   Dy8CdInNi2
_chemical_formula_sum   'Dy16 Cd2 In2 Ni4'
_cell_volume   620.57982157
_cell_formula_units_Z   2
loop_
 _symmetry_equiv_pos_site_id
 _symmetry_equiv_pos_as_xyz
  1  'x, y, z'
loop_
 _atom_site_type_symbol
 _atom_site_label
 _atom_site_symmetry_multiplicity
 _atom_site_fract_x
 _atom_site_fract_y
 _atom_site_fract_z
 _atom_site_occupancy
  Dy  Dy0  1  0.347633  0.347599  0.347272  1
  Dy  Dy1  1  0.347569  0.347535  0.957550  1
  Dy  Dy2  1  0.349994  0.953200  0.348331  1
  Dy  Dy3  1  0.953180  0.349979  0.348348  1
  Dy  Dy4  1  0.811852  0.188922  0.188296  1
  Dy  Dy5  1  0.188929  0.811799  0.810986  1
  Dy  Dy6  1  0.188919  0.811866  0.188293  1
  Dy  Dy7  1  0.811787  0.188931  0.810992  1
  Dy  Dy8  1  0.187844  0.187847  0.812225  1
  Dy  Dy9  1  0.810511  0.810523  0.189489  1
  Dy  Dy10  1  0.938042  0.564206  0.563662  1
  Dy  Dy11  1  0.564215  0.938026  0.934077  1
  Dy  Dy12  1  0.564205  0.938033  0.563678  1
  Dy  Dy13  1  0.938035  0.564215  0.934083  1
  Dy  Dy14  1  0.564724  0.564741  0.935268  1
  Dy  Dy15  1  0.937929  0.937925  0.562073  1
  Cd  Cd16  1  0.579835  0.255154  0.582508  1
  Cd  Cd17  1  0.255154  0.579835  0.582508  1
  In  In18  1  0.580761  0.580761  0.583182  1
  In  In19  1  0.580763  0.580764  0.255291  1
  Ni  Ni20  1  0.141887  0.141888  0.144036  1
  Ni  Ni21  1  0.141886  0.141889  0.572212  1
  Ni  Ni22  1  0.141189  0.573171  0.142818  1
  Ni  Ni23  1  0.573158  0.141190  0.142824  1
