# generated using pymatgen
data_NaZr2CuSe5
_symmetry_space_group_name_H-M   'P 1'
_cell_length_a   7.26568158
_cell_length_b   7.26568252
_cell_length_c   16.37521800
_cell_angle_alpha   90.00000000
_cell_angle_beta   90.00000000
_cell_angle_gamma   149.26328924
_symmetry_Int_Tables_number   1
_chemical_formula_structural   NaZr2CuSe5
_chemical_formula_sum   'Na2 Zr4 Cu2 Se10'
_cell_volume   441.81497344
_cell_formula_units_Z   2
loop_
 _symmetry_equiv_pos_site_id
 _symmetry_equiv_pos_as_xyz
  1  'x, y, z'
loop_
 _atom_site_type_symbol
 _atom_site_label
 _atom_site_symmetry_multiplicity
 _atom_site_fract_x
 _atom_site_fract_y
 _atom_site_fract_z
 _atom_site_occupancy
  Na  Na0  1  0.033442  0.966558  0.250000  1
  Na  Na1  1  0.966558  0.033442  0.750000  1
  Zr  Zr2  1  0.209326  0.790674  0.901685  1
  Zr  Zr3  1  0.790674  0.209326  0.401685  1
  Zr  Zr4  1  0.209326  0.790674  0.598315  1
  Zr  Zr5  1  0.790674  0.209326  0.098315  1
  Cu  Cu6  1  0.322012  0.677988  0.250000  1
  Cu  Cu7  1  0.677988  0.322012  0.750000  1
  Se  Se8  1  0.159147  0.840853  0.439210  1
  Se  Se9  1  0.840853  0.159147  0.939210  1
  Se  Se10  1  0.290854  0.709146  0.750000  1
  Se  Se11  1  0.422511  0.577489  0.370961  1
  Se  Se12  1  0.159147  0.840853  0.060790  1
  Se  Se13  1  0.577489  0.422511  0.870961  1
  Se  Se14  1  0.577489  0.422511  0.629039  1
  Se  Se15  1  0.422511  0.577489  0.129039  1
  Se  Se16  1  0.840853  0.159147  0.560790  1
  Se  Se17  1  0.709146  0.290854  0.250000  1
