# generated using pymatgen
data_Tb7Lu9(In3Fe)2
_symmetry_space_group_name_H-M   'P 1'
_cell_length_a   10.16747610
_cell_length_b   10.17461710
_cell_length_c   7.11635161
_cell_angle_alpha   90.05885191
_cell_angle_beta   90.01293829
_cell_angle_gamma   119.98990890
_symmetry_Int_Tables_number   1
_chemical_formula_structural   Tb7Lu9(In3Fe)2
_chemical_formula_sum   'Tb7 Lu9 In6 Fe2'
_cell_volume   637.62161245
_cell_formula_units_Z   1
loop_
 _symmetry_equiv_pos_site_id
 _symmetry_equiv_pos_as_xyz
  1  'x, y, z'
loop_
 _atom_site_type_symbol
 _atom_site_label
 _atom_site_symmetry_multiplicity
 _atom_site_fract_x
 _atom_site_fract_y
 _atom_site_fract_z
 _atom_site_occupancy
  Tb  Tb0  1  0.929136  0.464463  0.785833  1
  Tb  Tb1  1  0.535444  0.464400  0.785604  1
  Tb  Tb2  1  0.465521  0.931057  0.286132  1
  Tb  Tb3  1  0.070006  0.534669  0.284666  1
  Tb  Tb4  1  0.464477  0.534747  0.284548  1
  Tb  Tb5  1  0.999798  0.999648  0.773407  1
  Tb  Tb6  1  0.000602  0.001120  0.273631  1
  Lu  Lu7  1  0.820120  0.640082  0.489281  1
  Lu  Lu8  1  0.361564  0.180120  0.490844  1
  Lu  Lu9  1  0.818756  0.180058  0.491083  1
  Lu  Lu10  1  0.179468  0.359058  0.988008  1
  Lu  Lu11  1  0.638854  0.820140  0.987405  1
  Lu  Lu12  1  0.181091  0.820446  0.987665  1
  Lu  Lu13  1  0.666338  0.332552  0.180759  1
  Lu  Lu14  1  0.334108  0.668341  0.680565  1
  Lu  Lu15  1  0.535861  0.071860  0.787673  1
  In  In16  1  0.836317  0.672760  0.041861  1
  In  In17  1  0.328454  0.163361  0.041389  1
  In  In18  1  0.834768  0.163053  0.041542  1
  In  In19  1  0.164001  0.327584  0.541472  1
  In  In20  1  0.672879  0.836480  0.540476  1
  In  In21  1  0.164010  0.836850  0.540699  1
  Fe  Fe22  1  0.665886  0.331249  0.562117  1
  Fe  Fe23  1  0.332539  0.665902  0.059414  1
