# generated using pymatgen
data_TbHo19(SiBi2)4
_symmetry_space_group_name_H-M   'P 1'
_cell_length_a   8.03012536
_cell_length_b   9.15619500
_cell_length_c   12.01411553
_cell_angle_alpha   90.00000000
_cell_angle_beta   90.03406166
_cell_angle_gamma   90.00000000
_symmetry_Int_Tables_number   1
_chemical_formula_structural   TbHo19(SiBi2)4
_chemical_formula_sum   'Tb1 Ho19 Si4 Bi8'
_cell_volume   883.34241733
_cell_formula_units_Z   1
loop_
 _symmetry_equiv_pos_site_id
 _symmetry_equiv_pos_as_xyz
  1  'x, y, z'
loop_
 _atom_site_type_symbol
 _atom_site_label
 _atom_site_symmetry_multiplicity
 _atom_site_fract_x
 _atom_site_fract_y
 _atom_site_fract_z
 _atom_site_occupancy
  Tb  Tb0  1  0.166533  0.750000  0.212244  1
  Ho  Ho1  1  0.820697  0.553135  0.062594  1
  Ho  Ho2  1  0.679303  0.946844  0.562777  1
  Ho  Ho3  1  0.179301  0.053090  0.937334  1
  Ho  Ho4  1  0.320740  0.446610  0.437391  1
  Ho  Ho5  1  0.179301  0.446910  0.937334  1
  Ho  Ho6  1  0.320740  0.053390  0.437391  1
  Ho  Ho7  1  0.820697  0.946865  0.062594  1
  Ho  Ho8  1  0.679303  0.553156  0.562777  1
  Ho  Ho9  1  0.333690  0.750000  0.711788  1
  Ho  Ho10  1  0.833770  0.250000  0.788274  1
  Ho  Ho11  1  0.666225  0.250000  0.288420  1
  Ho  Ho12  1  0.461250  0.750000  0.001257  1
  Ho  Ho13  1  0.038674  0.750000  0.501526  1
  Ho  Ho14  1  0.539056  0.250000  0.998530  1
  Ho  Ho15  1  0.960933  0.250000  0.498617  1
  Ho  Ho16  1  0.637232  0.750000  0.295364  1
  Ho  Ho17  1  0.863111  0.750000  0.795195  1
  Ho  Ho18  1  0.363130  0.250000  0.704681  1
  Ho  Ho19  1  0.136792  0.250000  0.204675  1
  Si  Si20  1  0.411773  0.750000  0.478769  1
  Si  Si21  1  0.087833  0.750000  0.977999  1
  Si  Si22  1  0.588093  0.250000  0.521115  1
  Si  Si23  1  0.911910  0.250000  0.020994  1
  Bi  Bi24  1  0.932201  0.510400  0.325820  1
  Bi  Bi25  1  0.567172  0.989053  0.825491  1
  Bi  Bi26  1  0.067217  0.010980  0.674475  1
  Bi  Bi27  1  0.433366  0.488655  0.174394  1
  Bi  Bi28  1  0.067217  0.489020  0.674475  1
  Bi  Bi29  1  0.433366  0.011345  0.174394  1
  Bi  Bi30  1  0.932201  0.989600  0.325820  1
  Bi  Bi31  1  0.567172  0.510947  0.825491  1
