# generated using pymatgen
data_Sm8TcHg3
_symmetry_space_group_name_H-M   'P 1'
_cell_length_a   10.46086600
_cell_length_b   10.46058374
_cell_length_c   7.25488000
_cell_angle_alpha   90.00000000
_cell_angle_beta   90.00000000
_cell_angle_gamma   120.00156933
_symmetry_Int_Tables_number   1
_chemical_formula_structural   Sm8TcHg3
_chemical_formula_sum   'Sm16 Tc2 Hg6'
_cell_volume   687.50768435
_cell_formula_units_Z   2
loop_
 _symmetry_equiv_pos_site_id
 _symmetry_equiv_pos_as_xyz
  1  'x, y, z'
loop_
 _atom_site_type_symbol
 _atom_site_label
 _atom_site_symmetry_multiplicity
 _atom_site_fract_x
 _atom_site_fract_y
 _atom_site_fract_z
 _atom_site_occupancy
  Sm  Sm0  1  0.666664  0.333299  0.179332  1
  Sm  Sm1  1  0.999998  0.000017  0.270963  1
  Sm  Sm2  1  0.462670  0.925358  0.295300  1
  Sm  Sm3  1  0.074657  0.537356  0.295321  1
  Sm  Sm4  1  0.462693  0.537348  0.295343  1
  Sm  Sm5  1  0.344984  0.172508  0.483442  1
  Sm  Sm6  1  0.827530  0.172488  0.483458  1
  Sm  Sm7  1  0.827496  0.655008  0.483462  1
  Sm  Sm8  1  0.333336  0.666702  0.679332  1
  Sm  Sm9  1  0.000002  0.999983  0.770963  1
  Sm  Sm10  1  0.537329  0.074641  0.795300  1
  Sm  Sm11  1  0.537307  0.462652  0.795342  1
  Sm  Sm12  1  0.925344  0.462644  0.795320  1
  Sm  Sm13  1  0.172469  0.827511  0.983458  1
  Sm  Sm14  1  0.655015  0.827491  0.983442  1
  Sm  Sm15  1  0.172504  0.344992  0.983464  1
  Tc  Tc16  1  0.333326  0.666652  0.060016  1
  Tc  Tc17  1  0.666674  0.333348  0.560017  1
  Hg  Hg18  1  0.335463  0.167729  0.038781  1
  Hg  Hg19  1  0.832281  0.167705  0.038776  1
  Hg  Hg20  1  0.832242  0.664498  0.038810  1
  Hg  Hg21  1  0.167758  0.335503  0.538809  1
  Hg  Hg22  1  0.167719  0.832294  0.538776  1
  Hg  Hg23  1  0.664536  0.832270  0.538781  1
