# generated using pymatgen
data_Hf3Mn(Ni4P3)2
_symmetry_space_group_name_H-M   'P 1'
_cell_length_a   12.03595025
_cell_length_b   12.02320665
_cell_length_c   3.62888500
_cell_angle_alpha   90.00000000
_cell_angle_beta   90.00000000
_cell_angle_gamma   119.96498632
_symmetry_Int_Tables_number   1
_chemical_formula_structural   Hf3Mn(Ni4P3)2
_chemical_formula_sum   'Hf6 Mn2 Ni16 P12'
_cell_volume   454.94369731
_cell_formula_units_Z   2
loop_
 _symmetry_equiv_pos_site_id
 _symmetry_equiv_pos_as_xyz
  1  'x, y, z'
loop_
 _atom_site_type_symbol
 _atom_site_label
 _atom_site_symmetry_multiplicity
 _atom_site_fract_x
 _atom_site_fract_y
 _atom_site_fract_z
 _atom_site_occupancy
  Hf  Hf0  1  0.818479  0.819224  0.500000  1
  Hf  Hf1  1  0.000000  0.175253  0.500000  1
  Hf  Hf2  1  0.335539  0.667906  0.000000  1
  Hf  Hf3  1  0.664461  0.332366  0.000000  1
  Hf  Hf4  1  0.000000  0.554201  0.000000  1
  Hf  Hf5  1  0.181521  0.000746  0.500000  1
  Mn  Mn6  1  0.449503  0.449183  0.000000  1
  Mn  Mn7  1  0.550497  0.999681  0.000000  1
  Ni  Ni8  1  0.624799  0.818640  0.000000  1
  Ni  Ni9  1  0.375201  0.193841  0.000000  1
  Ni  Ni10  1  0.000000  0.724337  0.500000  1
  Ni  Ni11  1  0.280804  0.281261  0.500000  1
  Ni  Ni12  1  0.870441  0.349696  0.500000  1
  Ni  Ni13  1  0.719196  0.000456  0.500000  1
  Ni  Ni14  1  0.815216  0.629252  0.000000  1
  Ni  Ni15  1  0.184784  0.814036  0.000000  1
  Ni  Ni16  1  0.359138  0.875249  0.500000  1
  Ni  Ni17  1  0.129559  0.479255  0.500000  1
  Ni  Ni18  1  0.640862  0.516111  0.500000  1
  Ni  Ni19  1  0.000000  0.000077  0.000000  1
  Ni  Ni20  1  0.518002  0.647032  0.500000  1
  Ni  Ni21  1  0.481998  0.129030  0.500000  1
  Ni  Ni22  1  0.197030  0.375318  0.000000  1
  Ni  Ni23  1  0.802970  0.178287  0.000000  1
  P  P24  1  0.000000  0.345184  0.000000  1
  P  P25  1  0.825144  0.512762  0.500000  1
  P  P26  1  0.678877  0.163879  0.500000  1
  P  P27  1  0.177704  0.175552  0.000000  1
  P  P28  1  0.637893  0.640945  0.000000  1
  P  P29  1  0.822296  0.997848  0.000000  1
  P  P30  1  0.517834  0.835739  0.500000  1
  P  P31  1  0.174856  0.687617  0.500000  1
  P  P32  1  0.362107  0.003052  0.000000  1
  P  P33  1  0.482166  0.317906  0.500000  1
  P  P34  1  0.000000  0.824074  0.000000  1
  P  P35  1  0.321123  0.485002  0.500000  1
