# generated using pymatgen
data_Lu5Tl2CuPb
_symmetry_space_group_name_H-M   'P 1'
_cell_length_a   8.90218684
_cell_length_b   8.90218809
_cell_length_c   6.71126956
_cell_angle_alpha   89.95068266
_cell_angle_beta   89.95067798
_cell_angle_gamma   119.80331875
_symmetry_Int_Tables_number   1
_chemical_formula_structural   Lu5Tl2CuPb
_chemical_formula_sum   'Lu10 Tl4 Cu2 Pb2'
_cell_volume   461.51461939
_cell_formula_units_Z   2
loop_
 _symmetry_equiv_pos_site_id
 _symmetry_equiv_pos_as_xyz
  1  'x, y, z'
loop_
 _atom_site_type_symbol
 _atom_site_label
 _atom_site_symmetry_multiplicity
 _atom_site_fract_x
 _atom_site_fract_y
 _atom_site_fract_z
 _atom_site_occupancy
  Lu  Lu0  1  0.250349  0.994429  0.747683  1
  Lu  Lu1  1  0.749651  0.005571  0.252317  1
  Lu  Lu2  1  0.994429  0.250349  0.747683  1
  Lu  Lu3  1  0.005571  0.749651  0.252317  1
  Lu  Lu4  1  0.748438  0.748438  0.747954  1
  Lu  Lu5  1  0.251562  0.251562  0.252046  1
  Lu  Lu6  1  0.330905  0.669095  0.500000  1
  Lu  Lu7  1  0.669095  0.330905  0.500000  1
  Lu  Lu8  1  0.669451  0.330549  0.000000  1
  Lu  Lu9  1  0.330549  0.669451  0.000000  1
  Tl  Tl10  1  0.602548  0.997455  0.752207  1
  Tl  Tl11  1  0.397452  0.002545  0.247793  1
  Tl  Tl12  1  0.997455  0.602548  0.752207  1
  Tl  Tl13  1  0.002545  0.397452  0.247793  1
  Cu  Cu14  1  0.000000  0.000000  0.000000  1
  Cu  Cu15  1  0.000000  0.000000  0.500000  1
  Pb  Pb16  1  0.393183  0.393183  0.752348  1
  Pb  Pb17  1  0.606817  0.606817  0.247652  1
