# generated using pymatgen
data_Pr7Nd(ErIr3)2
_symmetry_space_group_name_H-M   'P 1'
_cell_length_a   11.24419823
_cell_length_b   11.25217600
_cell_length_c   6.56368613
_cell_angle_alpha   90.00000000
_cell_angle_beta   89.97705452
_cell_angle_gamma   90.00000000
_symmetry_Int_Tables_number   1
_chemical_formula_structural   Pr7Nd(ErIr3)2
_chemical_formula_sum   'Pr14 Nd2 Er4 Ir12'
_cell_volume   830.44864405
_cell_formula_units_Z   2
loop_
 _symmetry_equiv_pos_site_id
 _symmetry_equiv_pos_as_xyz
  1  'x, y, z'
loop_
 _atom_site_type_symbol
 _atom_site_label
 _atom_site_symmetry_multiplicity
 _atom_site_fract_x
 _atom_site_fract_y
 _atom_site_fract_z
 _atom_site_occupancy
  Pr  Pr0  1  0.711365  0.087365  0.881131  1
  Pr  Pr1  1  0.711365  0.912635  0.381131  1
  Pr  Pr2  1  0.586977  0.788806  0.881222  1
  Pr  Pr3  1  0.586977  0.211194  0.381222  1
  Pr  Pr4  1  0.412086  0.789160  0.381163  1
  Pr  Pr5  1  0.412086  0.210840  0.881163  1
  Pr  Pr6  1  0.211389  0.412304  0.618631  1
  Pr  Pr7  1  0.211389  0.587696  0.118631  1
  Pr  Pr8  1  0.788567  0.412447  0.118921  1
  Pr  Pr9  1  0.788567  0.587553  0.618921  1
  Pr  Pr10  1  0.912518  0.711474  0.118929  1
  Pr  Pr11  1  0.912518  0.288526  0.618929  1
  Pr  Pr12  1  0.087830  0.711726  0.619167  1
  Pr  Pr13  1  0.087830  0.288274  0.119167  1
  Nd  Nd14  1  0.289297  0.086645  0.382355  1
  Nd  Nd15  1  0.289297  0.913355  0.882355  1
  Er  Er16  1  0.000547  0.000175  0.499622  1
  Er  Er17  1  0.000547  0.999825  0.999622  1
  Er  Er18  1  0.499906  0.499972  0.999810  1
  Er  Er19  1  0.499906  0.500028  0.499810  1
  Ir  Ir20  1  0.852843  0.147036  0.249918  1
  Ir  Ir21  1  0.852843  0.852964  0.749918  1
  Ir  Ir22  1  0.147930  0.146259  0.749152  1
  Ir  Ir23  1  0.147930  0.853741  0.249152  1
  Ir  Ir24  1  0.647065  0.352897  0.749871  1
  Ir  Ir25  1  0.647065  0.647103  0.249871  1
  Ir  Ir26  1  0.352791  0.352302  0.250251  1
  Ir  Ir27  1  0.352791  0.647698  0.750251  1
  Ir  Ir28  1  0.498856  0.999918  0.117489  1
  Ir  Ir29  1  0.498856  0.000082  0.617489  1
  Ir  Ir30  1  0.000032  0.500069  0.882368  1
  Ir  Ir31  1  0.000032  0.499931  0.382368  1
