# generated using pymatgen
data_Zr4Re15Tc9Sn
_symmetry_space_group_name_H-M   'P 1'
_cell_length_a   8.48255113
_cell_length_b   8.48254960
_cell_length_c   8.48255017
_cell_angle_alpha   109.52491405
_cell_angle_beta   109.52491633
_cell_angle_gamma   109.52490755
_symmetry_Int_Tables_number   1
_chemical_formula_structural   Zr4Re15Tc9Sn
_chemical_formula_sum   'Zr4 Re15 Tc9 Sn1'
_cell_volume   468.91172840
_cell_formula_units_Z   1
loop_
 _symmetry_equiv_pos_site_id
 _symmetry_equiv_pos_as_xyz
  1  'x, y, z'
loop_
 _atom_site_type_symbol
 _atom_site_label
 _atom_site_symmetry_multiplicity
 _atom_site_fract_x
 _atom_site_fract_y
 _atom_site_fract_z
 _atom_site_occupancy
  Zr  Zr0  1  0.628494  0.999718  0.999718  1
  Zr  Zr1  1  0.999718  0.628494  0.999718  1
  Zr  Zr2  1  0.999718  0.999718  0.628494  1
  Zr  Zr3  1  0.369855  0.369855  0.369855  1
  Re  Re4  1  0.606423  0.606423  0.280653  1
  Re  Re5  1  0.280653  0.606423  0.606423  1
  Re  Re6  1  0.606423  0.280653  0.606423  1
  Re  Re7  1  0.377551  0.195889  0.000758  1
  Re  Re8  1  0.181279  0.805143  0.805143  1
  Re  Re9  1  0.377551  0.000758  0.195889  1
  Re  Re10  1  0.195889  0.377551  0.000758  1
  Re  Re11  1  0.000758  0.377551  0.195889  1
  Re  Re12  1  0.805143  0.181279  0.805143  1
  Re  Re13  1  0.805143  0.805143  0.181279  1
  Re  Re14  1  0.000758  0.195889  0.377551  1
  Re  Re15  1  0.195889  0.000758  0.377551  1
  Re  Re16  1  0.621730  0.621730  0.816423  1
  Re  Re17  1  0.816423  0.621730  0.621730  1
  Re  Re18  1  0.621730  0.816423  0.621730  1
  Tc  Tc19  1  0.394030  0.676242  0.000759  1
  Tc  Tc20  1  0.719569  0.324228  0.324228  1
  Tc  Tc21  1  0.394030  0.000759  0.676242  1
  Tc  Tc22  1  0.676242  0.394030  0.000759  1
  Tc  Tc23  1  0.000759  0.394030  0.676242  1
  Tc  Tc24  1  0.324228  0.719569  0.324228  1
  Tc  Tc25  1  0.324228  0.324228  0.719569  1
  Tc  Tc26  1  0.000759  0.676242  0.394030  1
  Tc  Tc27  1  0.676242  0.000759  0.394030  1
  Sn  Sn28  1  0.998778  0.998778  0.998778  1
