# generated using pymatgen
data_SmMg4(SbPt)5
_symmetry_space_group_name_H-M   'P 1'
_cell_length_a   19.02828498
_cell_length_b   19.02828514
_cell_length_c   19.02828475
_cell_angle_alpha   13.63073375
_cell_angle_beta   13.63073344
_cell_angle_gamma   13.63073402
_symmetry_Int_Tables_number   1
_chemical_formula_structural   SmMg4(SbPt)5
_chemical_formula_sum   'Sm1 Mg4 Sb5 Pt5'
_cell_volume   332.93341786
_cell_formula_units_Z   1
loop_
 _symmetry_equiv_pos_site_id
 _symmetry_equiv_pos_as_xyz
  1  'x, y, z'
loop_
 _atom_site_type_symbol
 _atom_site_label
 _atom_site_symmetry_multiplicity
 _atom_site_fract_x
 _atom_site_fract_y
 _atom_site_fract_z
 _atom_site_occupancy
  Sm  Sm0  1  0.299414  0.299414  0.299414  1
  Mg  Mg1  1  0.701178  0.701178  0.701178  1
  Mg  Mg2  1  0.100166  0.100166  0.100166  1
  Mg  Mg3  1  0.499159  0.499159  0.499159  1
  Mg  Mg4  1  0.897983  0.897983  0.897983  1
  Sb  Sb5  1  0.596942  0.596942  0.596942  1
  Sb  Sb6  1  0.800749  0.800749  0.800749  1
  Sb  Sb7  1  0.199142  0.199142  0.199142  1
  Sb  Sb8  1  0.003049  0.003049  0.003049  1
  Sb  Sb9  1  0.402063  0.402063  0.402063  1
  Pt  Pt10  1  0.051159  0.051159  0.051159  1
  Pt  Pt11  1  0.449957  0.449957  0.449957  1
  Pt  Pt12  1  0.848931  0.848931  0.848931  1
  Pt  Pt13  1  0.247200  0.247200  0.247200  1
  Pt  Pt14  1  0.652908  0.652908  0.652908  1
