# generated using pymatgen
data_Ho6GaSi11Pt8
_symmetry_space_group_name_H-M   'P 1'
_cell_length_a   4.25681800
_cell_length_b   8.59684375
_cell_length_c   12.87646814
_cell_angle_alpha   80.41301644
_cell_angle_beta   90.00000000
_cell_angle_gamma   90.00000000
_symmetry_Int_Tables_number   1
_chemical_formula_structural   Ho6GaSi11Pt8
_chemical_formula_sum   'Ho6 Ga1 Si11 Pt8'
_cell_volume   464.63585326
_cell_formula_units_Z   1
loop_
 _symmetry_equiv_pos_site_id
 _symmetry_equiv_pos_as_xyz
  1  'x, y, z'
loop_
 _atom_site_type_symbol
 _atom_site_label
 _atom_site_symmetry_multiplicity
 _atom_site_fract_x
 _atom_site_fract_y
 _atom_site_fract_z
 _atom_site_occupancy
  Ho  Ho0  1  0.250000  0.766419  0.438631  1
  Ho  Ho1  1  0.250000  0.588297  0.184320  1
  Ho  Ho2  1  0.750000  0.235711  0.560891  1
  Ho  Ho3  1  0.750000  0.405129  0.819277  1
  Ho  Ho4  1  0.750000  0.931551  0.817671  1
  Ho  Ho5  1  0.250000  0.069887  0.182486  1
  Ga  Ga6  1  0.750000  0.596409  0.573245  1
  Si  Si7  1  0.750000  0.125191  0.007112  1
  Si  Si8  1  0.750000  0.887035  0.564631  1
  Si  Si9  1  0.250000  0.690571  0.710699  1
  Si  Si10  1  0.750000  0.302597  0.284866  1
  Si  Si11  1  0.750000  0.805672  0.276628  1
  Si  Si12  1  0.250000  0.870814  0.994708  1
  Si  Si13  1  0.250000  0.190090  0.725126  1
  Si  Si14  1  0.250000  0.380192  0.000883  1
  Si  Si15  1  0.250000  0.128175  0.428001  1
  Si  Si16  1  0.750000  0.622386  0.996929  1
  Si  Si17  1  0.250000  0.417384  0.433688  1
  Pt  Pt18  1  0.750000  0.354620  0.097913  1
  Pt  Pt19  1  0.250000  0.968752  0.625579  1
  Pt  Pt20  1  0.750000  0.847826  0.087981  1
  Pt  Pt21  1  0.750000  0.031215  0.374765  1
  Pt  Pt22  1  0.250000  0.647766  0.898211  1
  Pt  Pt23  1  0.250000  0.148101  0.914192  1
  Pt  Pt24  1  0.750000  0.531243  0.372657  1
  Pt  Pt25  1  0.250000  0.456962  0.628909  1
