# generated using pymatgen
data_CaTh2Cd(SeO4)6
_symmetry_space_group_name_H-M   'P 1'
_cell_length_a   9.50556200
_cell_length_b   9.50553214
_cell_length_c   6.33285100
_cell_angle_alpha   89.99998614
_cell_angle_beta   89.99999397
_cell_angle_gamma   120.00005799
_symmetry_Int_Tables_number   1
_chemical_formula_structural   CaTh2Cd(SeO4)6
_chemical_formula_sum   'Ca1 Th2 Cd1 Se6 O24'
_cell_volume   495.54589338
_cell_formula_units_Z   1
loop_
 _symmetry_equiv_pos_site_id
 _symmetry_equiv_pos_as_xyz
  1  'x, y, z'
loop_
 _atom_site_type_symbol
 _atom_site_label
 _atom_site_symmetry_multiplicity
 _atom_site_fract_x
 _atom_site_fract_y
 _atom_site_fract_z
 _atom_site_occupancy
  Ca  Ca0  1  0.000000  0.000000  0.000000  1
  Th  Th1  1  0.333333  0.666665  0.247436  1
  Th  Th2  1  0.666667  0.333335  0.752563  1
  Cd  Cd3  1  0.000000  0.000000  0.500001  1
  Se  Se4  1  0.707225  0.099700  0.252884  1
  Se  Se5  1  0.392474  0.292774  0.252884  1
  Se  Se6  1  0.900301  0.607526  0.252883  1
  Se  Se7  1  0.099699  0.392475  0.747116  1
  Se  Se8  1  0.607525  0.707226  0.747115  1
  Se  Se9  1  0.292775  0.900300  0.747115  1
  O  O10  1  0.786912  0.542256  0.035608  1
  O  O11  1  0.755345  0.213090  0.035607  1
  O  O12  1  0.457742  0.244653  0.035606  1
  O  O13  1  0.826986  0.014497  0.252014  1
  O  O14  1  0.187511  0.173015  0.252014  1
  O  O15  1  0.445889  0.488213  0.250718  1
  O  O16  1  0.042324  0.554112  0.250718  1
  O  O17  1  0.985503  0.812488  0.252014  1
  O  O18  1  0.511786  0.957674  0.250718  1
  O  O19  1  0.459687  0.245199  0.467779  1
  O  O20  1  0.754800  0.214489  0.467777  1
  O  O21  1  0.785513  0.540311  0.467777  1
  O  O22  1  0.214488  0.459688  0.532224  1
  O  O23  1  0.245200  0.785511  0.532223  1
  O  O24  1  0.540312  0.754800  0.532221  1
  O  O25  1  0.488214  0.042326  0.749281  1
  O  O26  1  0.014498  0.187511  0.747985  1
  O  O27  1  0.957676  0.445889  0.749281  1
  O  O28  1  0.554111  0.511787  0.749281  1
  O  O29  1  0.812489  0.826985  0.747985  1
  O  O30  1  0.173013  0.985502  0.747985  1
  O  O31  1  0.542257  0.755346  0.964394  1
  O  O32  1  0.244655  0.786910  0.964392  1
  O  O33  1  0.213089  0.457743  0.964392  1
