# generated using pymatgen
data_V4S9Cl4
_symmetry_space_group_name_H-M   'P 1'
_cell_length_a   10.79602200
_cell_length_b   10.79602200
_cell_length_c   7.12769300
_cell_angle_alpha   90.00000000
_cell_angle_beta   90.00000000
_cell_angle_gamma   90.00000000
_symmetry_Int_Tables_number   1
_chemical_formula_structural   V4S9Cl4
_chemical_formula_sum   'V8 S18 Cl8'
_cell_volume   830.76177872
_cell_formula_units_Z   2
loop_
 _symmetry_equiv_pos_site_id
 _symmetry_equiv_pos_as_xyz
  1  'x, y, z'
loop_
 _atom_site_type_symbol
 _atom_site_label
 _atom_site_symmetry_multiplicity
 _atom_site_fract_x
 _atom_site_fract_y
 _atom_site_fract_z
 _atom_site_occupancy
  V  V0  1  0.638487  0.138487  0.380707  1
  V  V1  1  0.138487  0.638487  0.619293  1
  V  V2  1  0.361513  0.861513  0.380707  1
  V  V3  1  0.138487  0.361513  0.619293  1
  V  V4  1  0.861513  0.638487  0.619293  1
  V  V5  1  0.638487  0.861513  0.380707  1
  V  V6  1  0.361513  0.138487  0.380707  1
  V  V7  1  0.861513  0.361513  0.619293  1
  S  S8  1  0.000000  0.286216  0.852391  1
  S  S9  1  0.811541  0.000000  0.389459  1
  S  S10  1  0.188459  0.000000  0.389459  1
  S  S11  1  0.688459  0.500000  0.610541  1
  S  S12  1  0.786216  0.500000  0.852391  1
  S  S13  1  0.713784  0.000000  0.147609  1
  S  S14  1  0.500000  0.000000  0.531862  1
  S  S15  1  0.286216  0.000000  0.147609  1
  S  S16  1  0.500000  0.311541  0.389459  1
  S  S17  1  0.311541  0.500000  0.610541  1
  S  S18  1  0.500000  0.786216  0.147609  1
  S  S19  1  0.000000  0.811541  0.610541  1
  S  S20  1  0.000000  0.500000  0.468138  1
  S  S21  1  0.500000  0.688459  0.389459  1
  S  S22  1  0.500000  0.213784  0.147609  1
  S  S23  1  0.000000  0.188459  0.610541  1
  S  S24  1  0.213784  0.500000  0.852391  1
  S  S25  1  0.000000  0.713784  0.852391  1
  Cl  Cl26  1  0.297653  0.797653  0.700582  1
  Cl  Cl27  1  0.797653  0.702347  0.299418  1
  Cl  Cl28  1  0.702347  0.202347  0.700582  1
  Cl  Cl29  1  0.797653  0.297653  0.299418  1
  Cl  Cl30  1  0.202347  0.297653  0.299418  1
  Cl  Cl31  1  0.297653  0.202347  0.700582  1
  Cl  Cl32  1  0.702347  0.797653  0.700582  1
  Cl  Cl33  1  0.202347  0.702347  0.299418  1
