# generated using pymatgen
data_Pr9Nd3(Si7Cl3)2
_symmetry_space_group_name_H-M   'P 1'
_cell_length_a   4.05021300
_cell_length_b   11.64692989
_cell_length_c   16.35264500
_cell_angle_alpha   90.20683616
_cell_angle_beta   90.00000000
_cell_angle_gamma   90.00000000
_symmetry_Int_Tables_number   1
_chemical_formula_structural   Pr9Nd3(Si7Cl3)2
_chemical_formula_sum   'Pr9 Nd3 Si14 Cl6'
_cell_volume   771.39088607
_cell_formula_units_Z   1
loop_
 _symmetry_equiv_pos_site_id
 _symmetry_equiv_pos_as_xyz
  1  'x, y, z'
loop_
 _atom_site_type_symbol
 _atom_site_label
 _atom_site_symmetry_multiplicity
 _atom_site_fract_x
 _atom_site_fract_y
 _atom_site_fract_z
 _atom_site_occupancy
  Pr  Pr0  1  0.500000  0.335843  0.499622  1
  Pr  Pr1  1  0.000000  0.664065  0.000573  1
  Pr  Pr2  1  0.500000  0.353925  0.755019  1
  Pr  Pr3  1  0.000000  0.646207  0.744901  1
  Pr  Pr4  1  0.500000  0.353789  0.244606  1
  Pr  Pr5  1  0.000000  0.646294  0.255463  1
  Pr  Pr6  1  0.500000  0.055418  0.877290  1
  Pr  Pr7  1  0.500000  0.351429  0.000056  1
  Pr  Pr8  1  0.000000  0.648973  0.500099  1
  Nd  Nd9  1  0.000000  0.943873  0.622099  1
  Nd  Nd10  1  0.500000  0.056004  0.122090  1
  Nd  Nd11  1  0.000000  0.943864  0.378173  1
  Si  Si12  1  0.000000  0.142934  0.000137  1
  Si  Si13  1  0.500000  0.857660  0.500202  1
  Si  Si14  1  0.500000  0.568117  0.876788  1
  Si  Si15  1  0.000000  0.432275  0.623099  1
  Si  Si16  1  0.500000  0.568060  0.123694  1
  Si  Si17  1  0.000000  0.431986  0.376504  1
  Si  Si18  1  0.000000  0.248625  0.873944  1
  Si  Si19  1  0.500000  0.752317  0.626306  1
  Si  Si20  1  0.000000  0.247726  0.126213  1
  Si  Si21  1  0.500000  0.752360  0.374013  1
  Si  Si22  1  0.000000  0.456943  0.876541  1
  Si  Si23  1  0.500000  0.543523  0.623447  1
  Si  Si24  1  0.500000  0.543336  0.376709  1
  Si  Si25  1  0.000000  0.456826  0.123378  1
  Cl  Cl26  1  0.500000  0.104700  0.694980  1
  Cl  Cl27  1  0.000000  0.893977  0.803749  1
  Cl  Cl28  1  0.000000  0.136207  0.500427  1
  Cl  Cl29  1  0.500000  0.863132  0.000296  1
  Cl  Cl30  1  0.500000  0.104335  0.304313  1
  Cl  Cl31  1  0.000000  0.895278  0.195268  1
