# generated using pymatgen
data_DyHo15In4NiIr3
_symmetry_space_group_name_H-M   'P 1'
_cell_length_a   9.59292305
_cell_length_b   9.61380125
_cell_length_c   9.60464200
_cell_angle_alpha   60.03151756
_cell_angle_beta   59.95958766
_cell_angle_gamma   59.95835867
_symmetry_Int_Tables_number   1
_chemical_formula_structural   DyHo15In4NiIr3
_chemical_formula_sum   'Dy1 Ho15 In4 Ni1 Ir3'
_cell_volume   626.10316869
_cell_formula_units_Z   1
loop_
 _symmetry_equiv_pos_site_id
 _symmetry_equiv_pos_as_xyz
  1  'x, y, z'
loop_
 _atom_site_type_symbol
 _atom_site_label
 _atom_site_symmetry_multiplicity
 _atom_site_fract_x
 _atom_site_fract_y
 _atom_site_fract_z
 _atom_site_occupancy
  Dy  Dy0  1  0.439415  0.435676  0.062455  1
  Ho  Ho1  1  0.649339  0.652415  0.045181  1
  Ho  Ho2  1  0.190959  0.810510  0.188343  1
  Ho  Ho3  1  0.058460  0.440608  0.059881  1
  Ho  Ho4  1  0.190959  0.810510  0.810186  1
  Ho  Ho5  1  0.058460  0.440608  0.441050  1
  Ho  Ho6  1  0.810741  0.190284  0.189730  1
  Ho  Ho7  1  0.649339  0.652415  0.653066  1
  Ho  Ho8  1  0.810741  0.190284  0.809244  1
  Ho  Ho9  1  0.190704  0.188759  0.810268  1
  Ho  Ho10  1  0.049974  0.649441  0.650292  1
  Ho  Ho11  1  0.439558  0.061936  0.062182  1
  Ho  Ho12  1  0.058606  0.059574  0.440910  1
  Ho  Ho13  1  0.648709  0.046183  0.652555  1
  Ho  Ho14  1  0.810688  0.809374  0.189969  1
  Ho  Ho15  1  0.439558  0.061936  0.436324  1
  In  In16  1  0.418657  0.416211  0.416211  1
  In  In17  1  0.418657  0.416211  0.748923  1
  In  In18  1  0.418589  0.748883  0.416264  1
  In  In19  1  0.747209  0.417560  0.417617  1
  Ni  Ni20  1  0.423506  0.859270  0.858612  1
  Ir  Ir21  1  0.859006  0.858143  0.857951  1
  Ir  Ir22  1  0.859157  0.425065  0.857888  1
  Ir  Ir23  1  0.859006  0.858143  0.424899  1
