# generated using pymatgen
data_Tb4Si2TcB8
_symmetry_space_group_name_H-M   'P 1'
_cell_length_a   7.12206800
_cell_length_b   7.12206800
_cell_length_c   7.64838700
_cell_angle_alpha   90.00000000
_cell_angle_beta   90.00000000
_cell_angle_gamma   90.00000000
_symmetry_Int_Tables_number   1
_chemical_formula_structural   Tb4Si2TcB8
_chemical_formula_sum   'Tb8 Si4 Tc2 B16'
_cell_volume   387.95565479
_cell_formula_units_Z   2
loop_
 _symmetry_equiv_pos_site_id
 _symmetry_equiv_pos_as_xyz
  1  'x, y, z'
loop_
 _atom_site_type_symbol
 _atom_site_label
 _atom_site_symmetry_multiplicity
 _atom_site_fract_x
 _atom_site_fract_y
 _atom_site_fract_z
 _atom_site_occupancy
  Tb  Tb0  1  0.679816  0.179816  0.238816  1
  Tb  Tb1  1  0.320184  0.820184  0.761184  1
  Tb  Tb2  1  0.320184  0.820184  0.238816  1
  Tb  Tb3  1  0.820184  0.679816  0.238816  1
  Tb  Tb4  1  0.820184  0.679816  0.761184  1
  Tb  Tb5  1  0.679816  0.179816  0.761184  1
  Tb  Tb6  1  0.179816  0.320184  0.761184  1
  Tb  Tb7  1  0.179816  0.320184  0.238816  1
  Si  Si8  1  0.123079  0.623079  0.500000  1
  Si  Si9  1  0.876921  0.376921  0.500000  1
  Si  Si10  1  0.376921  0.123079  0.500000  1
  Si  Si11  1  0.623079  0.876921  0.500000  1
  Tc  Tc12  1  0.000000  0.000000  0.500000  1
  Tc  Tc13  1  0.500000  0.500000  0.500000  1
  B  B14  1  0.172129  0.039700  0.000000  1
  B  B15  1  0.827871  0.960300  0.000000  1
  B  B16  1  0.960300  0.172129  0.000000  1
  B  B17  1  0.327871  0.539700  0.000000  1
  B  B18  1  0.039700  0.827871  0.000000  1
  B  B19  1  0.672129  0.460300  0.000000  1
  B  B20  1  0.539700  0.672129  0.000000  1
  B  B21  1  0.460300  0.327871  0.000000  1
  B  B22  1  0.090538  0.590538  0.000000  1
  B  B23  1  0.909462  0.409462  0.000000  1
  B  B24  1  0.409462  0.090538  0.000000  1
  B  B25  1  0.590538  0.909462  0.000000  1
  B  B26  1  0.000000  0.000000  0.173564  1
  B  B27  1  0.000000  0.000000  0.826436  1
  B  B28  1  0.500000  0.500000  0.826436  1
  B  B29  1  0.500000  0.500000  0.173564  1
