# generated using pymatgen
data_Hf10Ti2(Ga3Sb)3
_symmetry_space_group_name_H-M   'P 1'
_cell_length_a   5.60737110
_cell_length_b   8.68823912
_cell_length_c   9.27696010
_cell_angle_alpha   89.74893834
_cell_angle_beta   90.05876783
_cell_angle_gamma   90.12545114
_symmetry_Int_Tables_number   1
_chemical_formula_structural   Hf10Ti2(Ga3Sb)3
_chemical_formula_sum   'Hf10 Ti2 Ga9 Sb3'
_cell_volume   451.95096511
_cell_formula_units_Z   1
loop_
 _symmetry_equiv_pos_site_id
 _symmetry_equiv_pos_as_xyz
  1  'x, y, z'
loop_
 _atom_site_type_symbol
 _atom_site_label
 _atom_site_symmetry_multiplicity
 _atom_site_fract_x
 _atom_site_fract_y
 _atom_site_fract_z
 _atom_site_occupancy
  Hf  Hf0  1  0.005033  0.253538  0.884471  1
  Hf  Hf1  1  0.496603  0.745230  0.118826  1
  Hf  Hf2  1  0.752747  0.470294  0.612578  1
  Hf  Hf3  1  0.253247  0.528470  0.377450  1
  Hf  Hf4  1  0.747030  0.969872  0.390436  1
  Hf  Hf5  1  0.247707  0.029943  0.611090  1
  Hf  Hf6  1  0.749128  0.378085  0.196946  1
  Hf  Hf7  1  0.249279  0.618070  0.808924  1
  Hf  Hf8  1  0.749695  0.873849  0.803338  1
  Hf  Hf9  1  0.250007  0.134415  0.192396  1
  Ti  Ti10  1  0.001569  0.745893  0.116033  1
  Ti  Ti11  1  0.497972  0.253443  0.885559  1
  Ga  Ga12  1  0.003752  0.747877  0.571995  1
  Ga  Ga13  1  0.500307  0.250260  0.428614  1
  Ga  Ga14  1  0.999872  0.250529  0.429489  1
  Ga  Ga15  1  0.496036  0.747514  0.570654  1
  Ga  Ga16  1  0.250906  0.449501  0.082310  1
  Ga  Ga17  1  0.743315  0.142003  0.651126  1
  Ga  Ga18  1  0.241695  0.863319  0.348961  1
  Ga  Ga19  1  0.758816  0.640973  0.351793  1
  Ga  Ga20  1  0.257399  0.360562  0.646664  1
  Sb  Sb21  1  0.748707  0.051247  0.085479  1
  Sb  Sb22  1  0.249070  0.947697  0.915279  1
  Sb  Sb23  1  0.750108  0.547413  0.919588  1
