# generated using pymatgen
data_Tb2Tm3(OsO6)2
_symmetry_space_group_name_H-M   'P 1'
_cell_length_a   6.82980947
_cell_length_b   6.82980943
_cell_length_c   7.43457652
_cell_angle_alpha   74.19956575
_cell_angle_beta   74.19957572
_cell_angle_gamma   48.82474622
_symmetry_Int_Tables_number   1
_chemical_formula_structural   Tb2Tm3(OsO6)2
_chemical_formula_sum   'Tb2 Tm3 Os2 O12'
_cell_volume   249.08950815
_cell_formula_units_Z   1
loop_
 _symmetry_equiv_pos_site_id
 _symmetry_equiv_pos_as_xyz
  1  'x, y, z'
loop_
 _atom_site_type_symbol
 _atom_site_label
 _atom_site_symmetry_multiplicity
 _atom_site_fract_x
 _atom_site_fract_y
 _atom_site_fract_z
 _atom_site_occupancy
  Tb  Tb0  1  0.801304  0.801304  0.357168  1
  Tb  Tb1  1  0.198696  0.198696  0.642832  1
  Tm  Tm2  1  0.187997  0.187997  0.170703  1
  Tm  Tm3  1  0.812003  0.812003  0.829297  1
  Tm  Tm4  1  0.500000  0.500000  0.500000  1
  Os  Os5  1  0.280637  0.719363  0.000000  1
  Os  Os6  1  0.719363  0.280637  0.000000  1
  O  O7  1  0.415694  0.919137  0.916260  1
  O  O8  1  0.080863  0.584306  0.083740  1
  O  O9  1  0.584306  0.080863  0.083740  1
  O  O10  1  0.919137  0.415694  0.916260  1
  O  O11  1  0.600712  0.097555  0.575835  1
  O  O12  1  0.902445  0.399288  0.424165  1
  O  O13  1  0.399288  0.902445  0.424165  1
  O  O14  1  0.999376  0.999376  0.824741  1
  O  O15  1  0.000624  0.000624  0.175259  1
  O  O16  1  0.499712  0.499712  0.794441  1
  O  O17  1  0.500288  0.500288  0.205559  1
  O  O18  1  0.097555  0.600712  0.575835  1
