# generated using pymatgen
data_MgGa2Pt5
_symmetry_space_group_name_H-M   'P 1'
_cell_length_a   5.55619100
_cell_length_b   5.55619038
_cell_length_c   4.00995100
_cell_angle_alpha   90.00000000
_cell_angle_beta   90.00000000
_cell_angle_gamma   96.28403154
_symmetry_Int_Tables_number   1
_chemical_formula_structural   MgGa2Pt5
_chemical_formula_sum   'Mg1 Ga2 Pt5'
_cell_volume   123.04841426
_cell_formula_units_Z   1
loop_
 _symmetry_equiv_pos_site_id
 _symmetry_equiv_pos_as_xyz
  1  'x, y, z'
loop_
 _atom_site_type_symbol
 _atom_site_label
 _atom_site_symmetry_multiplicity
 _atom_site_fract_x
 _atom_site_fract_y
 _atom_site_fract_z
 _atom_site_occupancy
  Mg  Mg0  1  0.723461  0.276539  0.500000  1
  Ga  Ga1  1  0.987517  0.012483  0.000000  1
  Ga  Ga2  1  0.289402  0.710598  0.500000  1
  Pt  Pt3  1  0.504583  0.495417  0.000000  1
  Pt  Pt4  1  0.007381  0.513812  0.000000  1
  Pt  Pt5  1  0.486188  0.992619  0.000000  1
  Pt  Pt6  1  0.215378  0.213910  0.500000  1
  Pt  Pt7  1  0.786090  0.784622  0.500000  1
