# generated using pymatgen
data_Pr8MgAgIrPt
_symmetry_space_group_name_H-M   'P 1'
_cell_length_a   10.05800588
_cell_length_b   10.05800541
_cell_length_c   10.05709800
_cell_angle_alpha   60.00298433
_cell_angle_beta   60.00298588
_cell_angle_gamma   60.34994035
_symmetry_Int_Tables_number   1
_chemical_formula_structural   Pr8MgAgIrPt
_chemical_formula_sum   'Pr16 Mg2 Ag2 Ir2 Pt2'
_cell_volume   721.33424533
_cell_formula_units_Z   2
loop_
 _symmetry_equiv_pos_site_id
 _symmetry_equiv_pos_as_xyz
  1  'x, y, z'
loop_
 _atom_site_type_symbol
 _atom_site_label
 _atom_site_symmetry_multiplicity
 _atom_site_fract_x
 _atom_site_fract_y
 _atom_site_fract_z
 _atom_site_occupancy
  Pr  Pr0  1  0.349434  0.349434  0.344194  1
  Pr  Pr1  1  0.349434  0.349434  0.956939  1
  Pr  Pr2  1  0.354332  0.948707  0.348481  1
  Pr  Pr3  1  0.948707  0.354332  0.348481  1
  Pr  Pr4  1  0.806950  0.188002  0.190877  1
  Pr  Pr5  1  0.188002  0.806950  0.814170  1
  Pr  Pr6  1  0.188002  0.806950  0.190877  1
  Pr  Pr7  1  0.806950  0.188002  0.814170  1
  Pr  Pr8  1  0.190433  0.190433  0.809567  1
  Pr  Pr9  1  0.806970  0.806970  0.193030  1
  Pr  Pr10  1  0.934692  0.563703  0.562953  1
  Pr  Pr11  1  0.563703  0.934692  0.938651  1
  Pr  Pr12  1  0.563703  0.934692  0.562953  1
  Pr  Pr13  1  0.934692  0.563703  0.938651  1
  Pr  Pr14  1  0.562369  0.562369  0.937631  1
  Pr  Pr15  1  0.935772  0.935772  0.564228  1
  Mg  Mg16  1  0.580056  0.275444  0.572250  1
  Mg  Mg17  1  0.275444  0.580056  0.572250  1
  Ag  Ag18  1  0.580795  0.580795  0.584668  1
  Ag  Ag19  1  0.580795  0.580795  0.253742  1
  Ir  Ir20  1  0.141128  0.573272  0.142800  1
  Ir  Ir21  1  0.573272  0.141128  0.142800  1
  Pt  Pt22  1  0.142182  0.142182  0.143621  1
  Pt  Pt23  1  0.142182  0.142182  0.572014  1
