# generated using pymatgen
data_Na4TbBiO6
_symmetry_space_group_name_H-M   'P 1'
_cell_length_a   5.86957830
_cell_length_b   5.86957723
_cell_length_c   5.95295886
_cell_angle_alpha   99.58594184
_cell_angle_beta   99.58594080
_cell_angle_gamma   119.95253905
_symmetry_Int_Tables_number   1
_chemical_formula_structural   Na4TbBiO6
_chemical_formula_sum   'Na4 Tb1 Bi1 O6'
_cell_volume   167.56867172
_cell_formula_units_Z   1
loop_
 _symmetry_equiv_pos_site_id
 _symmetry_equiv_pos_as_xyz
  1  'x, y, z'
loop_
 _atom_site_type_symbol
 _atom_site_label
 _atom_site_symmetry_multiplicity
 _atom_site_fract_x
 _atom_site_fract_y
 _atom_site_fract_z
 _atom_site_occupancy
  Na  Na0  1  0.499453  0.500545  0.000000  1
  Na  Na1  1  0.008940  0.991059  0.499998  1
  Na  Na2  1  0.656746  0.343254  0.500000  1
  Na  Na3  1  0.337887  0.662112  0.500000  1
  Tb  Tb4  1  0.832979  0.167019  0.000000  1
  Bi  Bi5  1  0.166976  0.833022  0.000000  1
  O  O6  1  0.944277  0.590387  0.216621  1
  O  O7  1  0.556652  0.929292  0.220967  1
  O  O8  1  0.218623  0.202857  0.221958  1
  O  O9  1  0.797143  0.781378  0.778041  1
  O  O10  1  0.070708  0.443347  0.779034  1
  O  O11  1  0.409615  0.055725  0.783380  1
