# generated using pymatgen
data_Tb2Co2SiGeH2
_symmetry_space_group_name_H-M   'P 1'
_cell_length_a   3.88468000
_cell_length_b   3.88468000
_cell_length_c   7.42898800
_cell_angle_alpha   90.00000000
_cell_angle_beta   90.00000000
_cell_angle_gamma   90.00000000
_symmetry_Int_Tables_number   1
_chemical_formula_structural   Tb2Co2SiGeH2
_chemical_formula_sum   'Tb2 Co2 Si1 Ge1 H2'
_cell_volume   112.10891673
_cell_formula_units_Z   1
loop_
 _symmetry_equiv_pos_site_id
 _symmetry_equiv_pos_as_xyz
  1  'x, y, z'
loop_
 _atom_site_type_symbol
 _atom_site_label
 _atom_site_symmetry_multiplicity
 _atom_site_fract_x
 _atom_site_fract_y
 _atom_site_fract_z
 _atom_site_occupancy
  Tb  Tb0  1  0.500000  0.000000  0.336275  1
  Tb  Tb1  1  0.000000  0.500000  0.666025  1
  Co  Co2  1  0.500000  0.500000  0.993963  1
  Co  Co3  1  0.000000  0.000000  0.993963  1
  Si  Si4  1  0.500000  0.000000  0.836548  1
  Ge  Ge5  1  0.000000  0.500000  0.173110  1
  H  H6  1  0.000000  0.000000  0.500058  1
  H  H7  1  0.500000  0.500000  0.500058  1
