# generated using pymatgen
data_Hf18Re7PRuW
_symmetry_space_group_name_H-M   'P 1'
_cell_length_a   8.61360000
_cell_length_b   8.61359964
_cell_length_c   8.59105900
_cell_angle_alpha   90.00000000
_cell_angle_beta   90.00000000
_cell_angle_gamma   120.00000139
_symmetry_Int_Tables_number   1
_chemical_formula_structural   Hf18Re7PRuW
_chemical_formula_sum   'Hf18 Re7 P1 Ru1 W1'
_cell_volume   552.00969971
_cell_formula_units_Z   1
loop_
 _symmetry_equiv_pos_site_id
 _symmetry_equiv_pos_as_xyz
  1  'x, y, z'
loop_
 _atom_site_type_symbol
 _atom_site_label
 _atom_site_symmetry_multiplicity
 _atom_site_fract_x
 _atom_site_fract_y
 _atom_site_fract_z
 _atom_site_occupancy
  Hf  Hf0  1  0.198256  0.801744  0.446953  1
  Hf  Hf1  1  0.198256  0.396510  0.446953  1
  Hf  Hf2  1  0.603490  0.801744  0.446953  1
  Hf  Hf3  1  0.803631  0.196369  0.549225  1
  Hf  Hf4  1  0.803631  0.607262  0.549225  1
  Hf  Hf5  1  0.392738  0.196369  0.549225  1
  Hf  Hf6  1  0.805856  0.194144  0.950222  1
  Hf  Hf7  1  0.805856  0.611712  0.950222  1
  Hf  Hf8  1  0.388288  0.194144  0.950222  1
  Hf  Hf9  1  0.197248  0.802752  0.053267  1
  Hf  Hf10  1  0.197248  0.394493  0.053267  1
  Hf  Hf11  1  0.605507  0.802752  0.053267  1
  Hf  Hf12  1  0.541981  0.458019  0.248719  1
  Hf  Hf13  1  0.541981  0.083963  0.248719  1
  Hf  Hf14  1  0.916037  0.458019  0.248719  1
  Hf  Hf15  1  0.459363  0.540637  0.751030  1
  Hf  Hf16  1  0.459363  0.918724  0.751030  1
  Hf  Hf17  1  0.081276  0.540637  0.751030  1
  Re  Re18  1  0.888588  0.111412  0.250962  1
  Re  Re19  1  0.888588  0.777175  0.250962  1
  Re  Re20  1  0.222825  0.111412  0.250962  1
  Re  Re21  1  0.110497  0.889503  0.749497  1
  Re  Re22  1  0.110497  0.220993  0.749497  1
  Re  Re23  1  0.779007  0.889503  0.749497  1
  Re  Re24  1  0.000000  0.000000  0.000621  1
  P  P25  1  0.666667  0.333333  0.751941  1
  Ru  Ru26  1  0.333333  0.666667  0.249190  1
  W  W27  1  0.000000  0.000000  0.498623  1
