# generated using pymatgen
data_Ho3CdIn3Ni2
_symmetry_space_group_name_H-M   'P 1'
_cell_length_a   7.83288700
_cell_length_b   7.83288714
_cell_length_c   3.66161700
_cell_angle_alpha   90.00000000
_cell_angle_beta   90.00000000
_cell_angle_gamma   119.99999632
_symmetry_Int_Tables_number   1
_chemical_formula_structural   Ho3CdIn3Ni2
_chemical_formula_sum   'Ho3 Cd1 In3 Ni2'
_cell_volume   194.55719396
_cell_formula_units_Z   1
loop_
 _symmetry_equiv_pos_site_id
 _symmetry_equiv_pos_as_xyz
  1  'x, y, z'
loop_
 _atom_site_type_symbol
 _atom_site_label
 _atom_site_symmetry_multiplicity
 _atom_site_fract_x
 _atom_site_fract_y
 _atom_site_fract_z
 _atom_site_occupancy
  Ho  Ho0  1  0.964438  0.579086  0.500000  1
  Ho  Ho1  1  0.420914  0.385353  0.500000  1
  Ho  Ho2  1  0.614647  0.035562  0.500000  1
  Cd  Cd3  1  0.333333  0.666667  0.000000  1
  In  In4  1  0.249087  0.994580  0.000000  1
  In  In5  1  0.745494  0.750913  0.000000  1
  In  In6  1  0.005420  0.254506  0.000000  1
  Ni  Ni7  1  0.000000  0.000000  0.500000  1
  Ni  Ni8  1  0.666667  0.333333  0.000000  1
