# generated using pymatgen
data_Tb4TmLu5Sn6
_symmetry_space_group_name_H-M   'P 1'
_cell_length_a   8.88502500
_cell_length_b   8.88502628
_cell_length_c   6.44484200
_cell_angle_alpha   90.00000000
_cell_angle_beta   90.00000000
_cell_angle_gamma   119.80226877
_symmetry_Int_Tables_number   1
_chemical_formula_structural   Tb4TmLu5Sn6
_chemical_formula_sum   'Tb4 Tm1 Lu5 Sn6'
_cell_volume   441.49130276
_cell_formula_units_Z   1
loop_
 _symmetry_equiv_pos_site_id
 _symmetry_equiv_pos_as_xyz
  1  'x, y, z'
loop_
 _atom_site_type_symbol
 _atom_site_label
 _atom_site_symmetry_multiplicity
 _atom_site_fract_x
 _atom_site_fract_y
 _atom_site_fract_z
 _atom_site_occupancy
  Tb  Tb0  1  0.238556  0.000063  0.750000  1
  Tb  Tb1  1  0.000063  0.238556  0.750000  1
  Tb  Tb2  1  0.761820  0.999696  0.250000  1
  Tb  Tb3  1  0.999696  0.761820  0.250000  1
  Tm  Tm4  1  0.241675  0.241675  0.250000  1
  Lu  Lu5  1  0.666658  0.333080  0.999656  1
  Lu  Lu6  1  0.333080  0.666658  0.999656  1
  Lu  Lu7  1  0.333080  0.666658  0.500344  1
  Lu  Lu8  1  0.666658  0.333080  0.500344  1
  Lu  Lu9  1  0.759777  0.759777  0.750000  1
  Sn  Sn10  1  0.398484  0.398484  0.750000  1
  Sn  Sn11  1  0.603562  0.998259  0.750000  1
  Sn  Sn12  1  0.998259  0.603562  0.750000  1
  Sn  Sn13  1  0.601424  0.601424  0.250000  1
  Sn  Sn14  1  0.396335  0.000872  0.250000  1
  Sn  Sn15  1  0.000872  0.396335  0.250000  1
