# generated using pymatgen
data_Ho2Zn2PdRh
_symmetry_space_group_name_H-M   'P 1'
_cell_length_a   4.00654900
_cell_length_b   7.00629804
_cell_length_c   8.22882505
_cell_angle_alpha   90.01233022
_cell_angle_beta   90.00000000
_cell_angle_gamma   90.00000000
_symmetry_Int_Tables_number   1
_chemical_formula_structural   Ho2Zn2PdRh
_chemical_formula_sum   'Ho4 Zn4 Pd2 Rh2'
_cell_volume   230.99197131
_cell_formula_units_Z   2
loop_
 _symmetry_equiv_pos_site_id
 _symmetry_equiv_pos_as_xyz
  1  'x, y, z'
loop_
 _atom_site_type_symbol
 _atom_site_label
 _atom_site_symmetry_multiplicity
 _atom_site_fract_x
 _atom_site_fract_y
 _atom_site_fract_z
 _atom_site_occupancy
  Ho  Ho0  1  0.250000  0.539690  0.180193  1
  Ho  Ho1  1  0.750000  0.460310  0.819807  1
  Ho  Ho2  1  0.250000  0.047707  0.308620  1
  Ho  Ho3  1  0.750000  0.952293  0.691380  1
  Zn  Zn4  1  0.250000  0.135092  0.937640  1
  Zn  Zn5  1  0.750000  0.864908  0.062360  1
  Zn  Zn6  1  0.250000  0.638259  0.566736  1
  Zn  Zn7  1  0.750000  0.361741  0.433264  1
  Pd  Pd8  1  0.750000  0.747093  0.378394  1
  Pd  Pd9  1  0.250000  0.252907  0.621606  1
  Rh  Rh10  1  0.750000  0.250225  0.122463  1
  Rh  Rh11  1  0.250000  0.749775  0.877537  1
