# generated using pymatgen
data_LuPaMnB6
_symmetry_space_group_name_H-M   'P 1'
_cell_length_a   3.57249600
_cell_length_b   9.02058500
_cell_length_c   11.37554000
_cell_angle_alpha   90.00000000
_cell_angle_beta   90.00000000
_cell_angle_gamma   90.00000000
_symmetry_Int_Tables_number   1
_chemical_formula_structural   LuPaMnB6
_chemical_formula_sum   'Lu4 Pa4 Mn4 B24'
_cell_volume   366.58819561
_cell_formula_units_Z   4
loop_
 _symmetry_equiv_pos_site_id
 _symmetry_equiv_pos_as_xyz
  1  'x, y, z'
loop_
 _atom_site_type_symbol
 _atom_site_label
 _atom_site_symmetry_multiplicity
 _atom_site_fract_x
 _atom_site_fract_y
 _atom_site_fract_z
 _atom_site_occupancy
  Lu  Lu0  1  0.000000  0.943826  0.372166  1
  Lu  Lu1  1  0.000000  0.056174  0.627834  1
  Lu  Lu2  1  0.000000  0.443826  0.127834  1
  Lu  Lu3  1  0.000000  0.556174  0.872166  1
  Pa  Pa4  1  0.000000  0.323824  0.413500  1
  Pa  Pa5  1  0.000000  0.676176  0.586500  1
  Pa  Pa6  1  0.000000  0.823824  0.086500  1
  Pa  Pa7  1  0.000000  0.176176  0.913500  1
  Mn  Mn8  1  0.000000  0.639411  0.320842  1
  Mn  Mn9  1  0.000000  0.360589  0.679158  1
  Mn  Mn10  1  0.000000  0.139411  0.179158  1
  Mn  Mn11  1  0.000000  0.860589  0.820842  1
  B  B12  1  0.500000  0.554496  0.431852  1
  B  B13  1  0.500000  0.445504  0.568148  1
  B  B14  1  0.500000  0.054496  0.068148  1
  B  B15  1  0.500000  0.945504  0.931852  1
  B  B16  1  0.500000  0.748739  0.418195  1
  B  B17  1  0.500000  0.251261  0.581805  1
  B  B18  1  0.500000  0.248739  0.081805  1
  B  B19  1  0.500000  0.751261  0.918195  1
  B  B20  1  0.500000  0.792147  0.266084  1
  B  B21  1  0.500000  0.207853  0.733916  1
  B  B22  1  0.500000  0.292147  0.233916  1
  B  B23  1  0.500000  0.707853  0.766084  1
  B  B24  1  0.500000  0.632232  0.185353  1
  B  B25  1  0.500000  0.367768  0.814647  1
  B  B26  1  0.500000  0.132232  0.314647  1
  B  B27  1  0.500000  0.867768  0.685353  1
  B  B28  1  0.500000  0.984739  0.213340  1
  B  B29  1  0.500000  0.015261  0.786660  1
  B  B30  1  0.500000  0.484739  0.286660  1
  B  B31  1  0.500000  0.515261  0.713340  1
  B  B32  1  0.500000  0.605882  0.029129  1
  B  B33  1  0.500000  0.394118  0.970871  1
  B  B34  1  0.500000  0.105882  0.470871  1
  B  B35  1  0.500000  0.894118  0.529129  1
