# generated using pymatgen
data_Yb2Mg2PdRh
_symmetry_space_group_name_H-M   'P 1'
_cell_length_a   4.19806400
_cell_length_b   7.16428062
_cell_length_c   8.44241794
_cell_angle_alpha   90.41561074
_cell_angle_beta   90.00000000
_cell_angle_gamma   90.00000000
_symmetry_Int_Tables_number   1
_chemical_formula_structural   Yb2Mg2PdRh
_chemical_formula_sum   'Yb4 Mg4 Pd2 Rh2'
_cell_volume   253.90839836
_cell_formula_units_Z   2
loop_
 _symmetry_equiv_pos_site_id
 _symmetry_equiv_pos_as_xyz
  1  'x, y, z'
loop_
 _atom_site_type_symbol
 _atom_site_label
 _atom_site_symmetry_multiplicity
 _atom_site_fract_x
 _atom_site_fract_y
 _atom_site_fract_z
 _atom_site_occupancy
  Yb  Yb0  1  0.250000  0.537700  0.180513  1
  Yb  Yb1  1  0.750000  0.462300  0.819487  1
  Yb  Yb2  1  0.250000  0.027440  0.331957  1
  Yb  Yb3  1  0.750000  0.972560  0.668043  1
  Mg  Mg4  1  0.250000  0.636928  0.556133  1
  Mg  Mg5  1  0.750000  0.363072  0.443867  1
  Mg  Mg6  1  0.250000  0.139506  0.936601  1
  Mg  Mg7  1  0.750000  0.860494  0.063399  1
  Pd  Pd8  1  0.750000  0.235705  0.129705  1
  Pd  Pd9  1  0.250000  0.764295  0.870295  1
  Rh  Rh10  1  0.750000  0.735920  0.368199  1
  Rh  Rh11  1  0.250000  0.264080  0.631801  1
