# generated using pymatgen
data_Hf18Re8AuSe
_symmetry_space_group_name_H-M   'P 1'
_cell_length_a   8.67155700
_cell_length_b   8.67155669
_cell_length_c   8.61495100
_cell_angle_alpha   90.00000000
_cell_angle_beta   90.00000000
_cell_angle_gamma   120.00000502
_symmetry_Int_Tables_number   1
_chemical_formula_structural   Hf18Re8AuSe
_chemical_formula_sum   'Hf18 Re8 Au1 Se1'
_cell_volume   561.01900278
_cell_formula_units_Z   1
loop_
 _symmetry_equiv_pos_site_id
 _symmetry_equiv_pos_as_xyz
  1  'x, y, z'
loop_
 _atom_site_type_symbol
 _atom_site_label
 _atom_site_symmetry_multiplicity
 _atom_site_fract_x
 _atom_site_fract_y
 _atom_site_fract_z
 _atom_site_occupancy
  Hf  Hf0  1  0.191687  0.808313  0.449495  1
  Hf  Hf1  1  0.191687  0.383374  0.449495  1
  Hf  Hf2  1  0.616626  0.808313  0.449495  1
  Hf  Hf3  1  0.807760  0.192240  0.548921  1
  Hf  Hf4  1  0.807760  0.615521  0.548921  1
  Hf  Hf5  1  0.384479  0.192240  0.548921  1
  Hf  Hf6  1  0.807760  0.192240  0.951079  1
  Hf  Hf7  1  0.807760  0.615521  0.951079  1
  Hf  Hf8  1  0.384479  0.192240  0.951079  1
  Hf  Hf9  1  0.191687  0.808313  0.050505  1
  Hf  Hf10  1  0.191687  0.383374  0.050505  1
  Hf  Hf11  1  0.616626  0.808313  0.050505  1
  Hf  Hf12  1  0.542954  0.457046  0.250000  1
  Hf  Hf13  1  0.542954  0.085908  0.250000  1
  Hf  Hf14  1  0.914092  0.457046  0.250000  1
  Hf  Hf15  1  0.455559  0.544441  0.750000  1
  Hf  Hf16  1  0.455559  0.911119  0.750000  1
  Hf  Hf17  1  0.088881  0.544441  0.750000  1
  Re  Re18  1  0.889589  0.110411  0.250000  1
  Re  Re19  1  0.889589  0.779177  0.250000  1
  Re  Re20  1  0.220823  0.110411  0.250000  1
  Re  Re21  1  0.109756  0.890244  0.750000  1
  Re  Re22  1  0.109756  0.219512  0.750000  1
  Re  Re23  1  0.780488  0.890244  0.750000  1
  Re  Re24  1  0.000000  0.000000  0.500120  1
  Re  Re25  1  0.000000  0.000000  0.999880  1
  Au  Au26  1  0.333333  0.666667  0.250000  1
  Se  Se27  1  0.666667  0.333333  0.750000  1
