# generated using pymatgen
data_BaMnSb12Os2Pd
_symmetry_space_group_name_H-M   'P 1'
_cell_length_a   8.20371488
_cell_length_b   8.18779585
_cell_length_c   8.20454798
_cell_angle_alpha   109.45355094
_cell_angle_beta   109.43923729
_cell_angle_gamma   109.47996618
_symmetry_Int_Tables_number   1
_chemical_formula_structural   BaMnSb12Os2Pd
_chemical_formula_sum   'Ba1 Mn1 Sb12 Os2 Pd1'
_cell_volume   424.45274997
_cell_formula_units_Z   1
loop_
 _symmetry_equiv_pos_site_id
 _symmetry_equiv_pos_as_xyz
  1  'x, y, z'
loop_
 _atom_site_type_symbol
 _atom_site_label
 _atom_site_symmetry_multiplicity
 _atom_site_fract_x
 _atom_site_fract_y
 _atom_site_fract_z
 _atom_site_occupancy
  Ba  Ba0  1  0.000000  0.000000  0.000000  1
  Mn  Mn1  1  0.500000  0.000000  0.000000  1
  Sb  Sb2  1  0.341334  0.177928  0.841026  1
  Sb  Sb3  1  0.658666  0.822072  0.158974  1
  Sb  Sb4  1  0.650274  0.498873  0.839915  1
  Sb  Sb5  1  0.349726  0.501127  0.160085  1
  Sb  Sb6  1  0.189458  0.848281  0.349702  1
  Sb  Sb7  1  0.810542  0.151719  0.650298  1
  Sb  Sb8  1  0.499987  0.841315  0.662807  1
  Sb  Sb9  1  0.500013  0.158685  0.337193  1
  Sb  Sb10  1  0.834553  0.336463  0.187135  1
  Sb  Sb11  1  0.165447  0.663537  0.812865  1
  Sb  Sb12  1  0.841483  0.660085  0.501278  1
  Sb  Sb13  1  0.158517  0.339915  0.498722  1
  Os  Os14  1  0.000000  0.000000  0.500000  1
  Os  Os15  1  0.500000  0.500000  0.500000  1
  Pd  Pd16  1  0.000000  0.500000  0.000000  1
