# generated using pymatgen
data_Tb4Dy8Co4NiSn
_symmetry_space_group_name_H-M   'P 1'
_cell_length_a   8.29662774
_cell_length_b   8.29662587
_cell_length_c   8.29662707
_cell_angle_alpha   107.12101040
_cell_angle_beta   110.58214819
_cell_angle_gamma   110.73580305
_symmetry_Int_Tables_number   1
_chemical_formula_structural   Tb4Dy8Co4NiSn
_chemical_formula_sum   'Tb4 Dy8 Co4 Ni1 Sn1'
_cell_volume   439.07263360
_cell_formula_units_Z   1
loop_
 _symmetry_equiv_pos_site_id
 _symmetry_equiv_pos_as_xyz
  1  'x, y, z'
loop_
 _atom_site_type_symbol
 _atom_site_label
 _atom_site_symmetry_multiplicity
 _atom_site_fract_x
 _atom_site_fract_y
 _atom_site_fract_z
 _atom_site_occupancy
  Tb  Tb0  1  0.480466  0.293805  0.186661  1
  Tb  Tb1  1  0.107144  0.293805  0.813339  1
  Tb  Tb2  1  0.892856  0.706195  0.186661  1
  Tb  Tb3  1  0.519534  0.706195  0.813339  1
  Dy  Dy4  1  0.306582  0.621356  0.314774  1
  Dy  Dy5  1  0.306582  0.991809  0.685226  1
  Dy  Dy6  1  0.693418  0.378644  0.685226  1
  Dy  Dy7  1  0.693418  0.008191  0.314774  1
  Dy  Dy8  1  0.195188  0.209094  0.404283  1
  Dy  Dy9  1  0.804812  0.790906  0.595717  1
  Dy  Dy10  1  0.195188  0.790906  0.986093  1
  Dy  Dy11  1  0.804812  0.209094  0.013907  1
  Co  Co12  1  0.500000  0.612768  0.112768  1
  Co  Co13  1  0.500000  0.387232  0.887232  1
  Co  Co14  1  0.376460  0.000000  0.376460  1
  Co  Co15  1  0.623540  0.000000  0.623540  1
  Ni  Ni16  1  0.000000  0.000000  0.000000  1
  Sn  Sn17  1  0.000000  0.500000  0.500000  1
