# generated using pymatgen
data_Dy2ErZrIn2Ir3
_symmetry_space_group_name_H-M   'P 1'
_cell_length_a   7.41181506
_cell_length_b   7.16206843
_cell_length_c   4.21981000
_cell_angle_alpha   90.00000000
_cell_angle_beta   90.00000000
_cell_angle_gamma   118.74197454
_symmetry_Int_Tables_number   1
_chemical_formula_structural   Dy2ErZrIn2Ir3
_chemical_formula_sum   'Dy2 Er1 Zr1 In2 Ir3'
_cell_volume   196.40546402
_cell_formula_units_Z   1
loop_
 _symmetry_equiv_pos_site_id
 _symmetry_equiv_pos_as_xyz
  1  'x, y, z'
loop_
 _atom_site_type_symbol
 _atom_site_label
 _atom_site_symmetry_multiplicity
 _atom_site_fract_x
 _atom_site_fract_y
 _atom_site_fract_z
 _atom_site_occupancy
  Dy  Dy0  1  0.417956  0.005282  0.000000  1
  Dy  Dy1  1  0.000223  0.394145  0.000000  1
  Er  Er2  1  0.582900  0.587673  0.000000  1
  Zr  Zr3  1  0.000426  0.752554  0.500000  1
  In  In4  1  0.254469  0.253029  0.500000  1
  In  In5  1  0.745137  0.998043  0.500000  1
  Ir  Ir6  1  0.998362  0.980613  0.000000  1
  Ir  Ir7  1  0.677496  0.354318  0.500000  1
  Ir  Ir8  1  0.323031  0.674343  0.500000  1
