# generated using pymatgen
data_Ce3Th(Ge5Os3)2
_symmetry_space_group_name_H-M   'P 1'
_cell_length_a   8.43919975
_cell_length_b   8.43521571
_cell_length_c   6.02097813
_cell_angle_alpha   70.39277119
_cell_angle_beta   70.49143168
_cell_angle_gamma   94.15056525
_symmetry_Int_Tables_number   1
_chemical_formula_structural   Ce3Th(Ge5Os3)2
_chemical_formula_sum   'Ce3 Th1 Ge10 Os6'
_cell_volume   372.27900217
_cell_formula_units_Z   1
loop_
 _symmetry_equiv_pos_site_id
 _symmetry_equiv_pos_as_xyz
  1  'x, y, z'
loop_
 _atom_site_type_symbol
 _atom_site_label
 _atom_site_symmetry_multiplicity
 _atom_site_fract_x
 _atom_site_fract_y
 _atom_site_fract_z
 _atom_site_occupancy
  Ce  Ce0  1  0.870216  0.595670  0.762339  1
  Ce  Ce1  1  0.402336  0.130763  0.738584  1
  Ce  Ce2  1  0.130019  0.405025  0.237421  1
  Th  Th3  1  0.596510  0.870105  0.261845  1
  Ge  Ge4  1  0.075861  0.262296  0.826631  1
  Ge  Ge5  1  0.740980  0.924357  0.671306  1
  Ge  Ge6  1  0.926811  0.736234  0.172223  1
  Ge  Ge7  1  0.258966  0.076284  0.328543  1
  Ge  Ge8  1  0.204242  0.793762  0.753261  1
  Ge  Ge9  1  0.797479  0.208565  0.245990  1
  Ge  Ge10  1  0.513039  0.485572  0.752525  1
  Ge  Ge11  1  0.485689  0.511143  0.249857  1
  Ge  Ge12  1  0.774844  0.227786  0.748301  1
  Ge  Ge13  1  0.223615  0.773682  0.249835  1
  Os  Os14  1  0.257446  0.548039  0.631774  1
  Os  Os15  1  0.455141  0.745340  0.866011  1
  Os  Os16  1  0.742168  0.452494  0.367755  1
  Os  Os17  1  0.546329  0.253599  0.134231  1
  Os  Os18  1  0.001679  0.998044  0.750925  1
  Os  Os19  1  0.996633  0.001242  0.250642  1
