# generated using pymatgen
data_TbTm5C2Cl7
_symmetry_space_group_name_H-M   'P 1'
_cell_length_a   9.97957809
_cell_length_b   9.97957871
_cell_length_c   11.36506300
_cell_angle_alpha   57.67211542
_cell_angle_beta   57.67211316
_cell_angle_gamma   20.92350173
_symmetry_Int_Tables_number   1
_chemical_formula_structural   TbTm5C2Cl7
_chemical_formula_sum   'Tb1 Tm5 C2 Cl7'
_cell_volume   339.22179652
_cell_formula_units_Z   1
loop_
 _symmetry_equiv_pos_site_id
 _symmetry_equiv_pos_as_xyz
  1  'x, y, z'
loop_
 _atom_site_type_symbol
 _atom_site_label
 _atom_site_symmetry_multiplicity
 _atom_site_fract_x
 _atom_site_fract_y
 _atom_site_fract_z
 _atom_site_occupancy
  Tb  Tb0  1  0.227425  0.227425  0.850481  1
  Tm  Tm1  1  0.315549  0.315549  0.361309  1
  Tm  Tm2  1  0.128107  0.128107  0.441475  1
  Tm  Tm3  1  0.871644  0.871644  0.559299  1
  Tm  Tm4  1  0.684853  0.684853  0.638935  1
  Tm  Tm5  1  0.771752  0.771752  0.153463  1
  C  C6  1  0.280282  0.280282  0.607004  1
  C  C7  1  0.720340  0.720340  0.389766  1
  Cl  Cl8  1  0.166230  0.166230  0.164327  1
  Cl  Cl9  1  0.838212  0.838212  0.835454  1
  Cl  Cl10  1  0.060584  0.060584  0.712805  1
  Cl  Cl11  1  0.939725  0.939725  0.285888  1
  Cl  Cl12  1  0.500402  0.500402  0.499184  1
  Cl  Cl13  1  0.386160  0.386160  0.070955  1
  Cl  Cl14  1  0.608736  0.608736  0.929655  1
