# generated using pymatgen
data_Sr4InSn3Pd4
_symmetry_space_group_name_H-M   'P 1'
_cell_length_a   4.64673500
_cell_length_b   7.70759600
_cell_length_c   8.48942410
_cell_angle_alpha   90.21326912
_cell_angle_beta   90.00000000
_cell_angle_gamma   90.00000000
_symmetry_Int_Tables_number   1
_chemical_formula_structural   Sr4InSn3Pd4
_chemical_formula_sum   'Sr4 In1 Sn3 Pd4'
_cell_volume   304.04794272
_cell_formula_units_Z   1
loop_
 _symmetry_equiv_pos_site_id
 _symmetry_equiv_pos_as_xyz
  1  'x, y, z'
loop_
 _atom_site_type_symbol
 _atom_site_label
 _atom_site_symmetry_multiplicity
 _atom_site_fract_x
 _atom_site_fract_y
 _atom_site_fract_z
 _atom_site_occupancy
  Sr  Sr0  1  0.250000  0.029620  0.320812  1
  Sr  Sr1  1  0.250000  0.528840  0.177356  1
  Sr  Sr2  1  0.750000  0.968888  0.679001  1
  Sr  Sr3  1  0.750000  0.472129  0.821183  1
  In  In4  1  0.750000  0.350511  0.433024  1
  Sn  Sn5  1  0.250000  0.150177  0.935069  1
  Sn  Sn6  1  0.250000  0.647081  0.563774  1
  Sn  Sn7  1  0.750000  0.848569  0.065696  1
  Pd  Pd8  1  0.250000  0.285565  0.627919  1
  Pd  Pd9  1  0.250000  0.786504  0.879909  1
  Pd  Pd10  1  0.750000  0.719826  0.378291  1
  Pd  Pd11  1  0.750000  0.212289  0.117966  1
