# generated using pymatgen
data_BaPr2BeS5
_symmetry_space_group_name_H-M   'P 1'
_cell_length_a   8.60402095
_cell_length_b   8.60402101
_cell_length_c   8.60402070
_cell_angle_alpha   125.18730166
_cell_angle_beta   125.18730001
_cell_angle_gamma   81.22802574
_symmetry_Int_Tables_number   1
_chemical_formula_structural   BaPr2BeS5
_chemical_formula_sum   'Ba2 Pr4 Be2 S10'
_cell_volume   409.77813812
_cell_formula_units_Z   2
loop_
 _symmetry_equiv_pos_site_id
 _symmetry_equiv_pos_as_xyz
  1  'x, y, z'
loop_
 _atom_site_type_symbol
 _atom_site_label
 _atom_site_symmetry_multiplicity
 _atom_site_fract_x
 _atom_site_fract_y
 _atom_site_fract_z
 _atom_site_occupancy
  Ba  Ba0  1  0.750000  0.750000  0.000000  1
  Ba  Ba1  1  0.250000  0.250000  0.000000  1
  Pr  Pr2  1  0.163552  0.336449  0.500001  1
  Pr  Pr3  1  0.836448  0.663552  0.500001  1
  Pr  Pr4  1  0.336447  0.836448  0.172896  1
  Pr  Pr5  1  0.663552  0.163552  0.827105  1
  Be  Be6  1  0.250000  0.750000  0.500000  1
  Be  Be7  1  0.750000  0.250000  0.500000  1
  S  S8  1  0.282905  0.782907  0.781839  1
  S  S9  1  0.001067  0.501068  0.218162  1
  S  S10  1  0.217094  0.998932  0.500000  1
  S  S11  1  0.498932  0.717095  0.500000  1
  S  S12  1  0.717095  0.217095  0.218162  1
  S  S13  1  0.998932  0.498933  0.781839  1
  S  S14  1  0.501068  0.282905  0.500000  1
  S  S15  1  0.782905  0.001067  0.500000  1
  S  S16  1  0.000000  0.000000  0.000000  1
  S  S17  1  0.499999  0.499999  0.000000  1
