# generated using pymatgen
data_DyHo3MoI4
_symmetry_space_group_name_H-M   'P 1'
_cell_length_a   11.47658662
_cell_length_b   11.45063829
_cell_length_c   5.98794800
_cell_angle_alpha   89.61061758
_cell_angle_beta   89.62437867
_cell_angle_gamma   89.67991144
_symmetry_Int_Tables_number   1
_chemical_formula_structural   DyHo3MoI4
_chemical_formula_sum   'Dy2 Ho6 Mo2 I8'
_cell_volume   786.85448238
_cell_formula_units_Z   2
loop_
 _symmetry_equiv_pos_site_id
 _symmetry_equiv_pos_as_xyz
  1  'x, y, z'
loop_
 _atom_site_type_symbol
 _atom_site_label
 _atom_site_symmetry_multiplicity
 _atom_site_fract_x
 _atom_site_fract_y
 _atom_site_fract_z
 _atom_site_occupancy
  Dy  Dy0  1  0.083366  0.203562  0.996035  1
  Dy  Dy1  1  0.916634  0.796438  0.003965  1
  Ho  Ho2  1  0.202937  0.915779  0.997520  1
  Ho  Ho3  1  0.797063  0.084221  0.002480  1
  Ho  Ho4  1  0.083841  0.796662  0.501495  1
  Ho  Ho5  1  0.916159  0.203338  0.498505  1
  Ho  Ho6  1  0.797618  0.917155  0.503999  1
  Ho  Ho7  1  0.202382  0.082845  0.496001  1
  Mo  Mo8  1  0.000121  0.999948  0.250391  1
  Mo  Mo9  1  0.999879  0.000052  0.749609  1
  I  I10  1  0.354973  0.849130  0.501389  1
  I  I11  1  0.645027  0.150870  0.498611  1
  I  I12  1  0.149654  0.644110  0.001742  1
  I  I13  1  0.850346  0.355890  0.998258  1
  I  I14  1  0.354899  0.147853  0.992817  1
  I  I15  1  0.645101  0.852147  0.007183  1
  I  I16  1  0.852130  0.644349  0.505509  1
  I  I17  1  0.147870  0.355651  0.494491  1
