# generated using pymatgen
data_YTm3CdPd
_symmetry_space_group_name_H-M   'P 1'
_cell_length_a   9.65740129
_cell_length_b   9.65211151
_cell_length_c   9.65211300
_cell_angle_alpha   60.03625149
_cell_angle_beta   59.98187595
_cell_angle_gamma   59.98186822
_symmetry_Int_Tables_number   1
_chemical_formula_structural   YTm3CdPd
_chemical_formula_sum   'Y4 Tm12 Cd4 Pd4'
_cell_volume   636.19424066
_cell_formula_units_Z   4
loop_
 _symmetry_equiv_pos_site_id
 _symmetry_equiv_pos_as_xyz
  1  'x, y, z'
loop_
 _atom_site_type_symbol
 _atom_site_label
 _atom_site_symmetry_multiplicity
 _atom_site_fract_x
 _atom_site_fract_y
 _atom_site_fract_z
 _atom_site_occupancy
  Y  Y0  1  0.565904  0.934096  0.565904  1
  Y  Y1  1  0.934096  0.565904  0.934096  1
  Y  Y2  1  0.565904  0.565904  0.934096  1
  Y  Y3  1  0.934096  0.934096  0.565904  1
  Tm  Tm4  1  0.353394  0.353743  0.353743  1
  Tm  Tm5  1  0.353743  0.353394  0.939120  1
  Tm  Tm6  1  0.353743  0.939120  0.353394  1
  Tm  Tm7  1  0.939120  0.353743  0.353743  1
  Tm  Tm8  1  0.811318  0.188682  0.188682  1
  Tm  Tm9  1  0.188682  0.811318  0.811318  1
  Tm  Tm10  1  0.188740  0.811260  0.188740  1
  Tm  Tm11  1  0.811260  0.188740  0.811260  1
  Tm  Tm12  1  0.188740  0.188740  0.811260  1
  Tm  Tm13  1  0.811260  0.811260  0.188740  1
  Tm  Tm14  1  0.936125  0.563875  0.563875  1
  Tm  Tm15  1  0.563875  0.936125  0.936125  1
  Cd  Cd16  1  0.582748  0.581824  0.581824  1
  Cd  Cd17  1  0.581824  0.582748  0.253605  1
  Cd  Cd18  1  0.581824  0.253605  0.582748  1
  Cd  Cd19  1  0.253605  0.581824  0.581824  1
  Pd  Pd20  1  0.145251  0.144104  0.144104  1
  Pd  Pd21  1  0.144104  0.145251  0.566542  1
  Pd  Pd22  1  0.144104  0.566542  0.145251  1
  Pd  Pd23  1  0.566542  0.144104  0.144104  1
