# generated using pymatgen
data_Yb3DySi10NiPt5
_symmetry_space_group_name_H-M   'P 1'
_cell_length_a   8.20201527
_cell_length_b   8.19830527
_cell_length_c   8.19696427
_cell_angle_alpha   138.35689368
_cell_angle_beta   104.17633237
_cell_angle_gamma   90.46166917
_symmetry_Int_Tables_number   1
_chemical_formula_structural   Yb3DySi10NiPt5
_chemical_formula_sum   'Yb3 Dy1 Si10 Ni1 Pt5'
_cell_volume   339.12527624
_cell_formula_units_Z   1
loop_
 _symmetry_equiv_pos_site_id
 _symmetry_equiv_pos_as_xyz
  1  'x, y, z'
loop_
 _atom_site_type_symbol
 _atom_site_label
 _atom_site_symmetry_multiplicity
 _atom_site_fract_x
 _atom_site_fract_y
 _atom_site_fract_z
 _atom_site_occupancy
  Yb  Yb0  1  0.102807  0.873350  0.236888  1
  Yb  Yb1  1  0.898271  0.135044  0.771067  1
  Yb  Yb2  1  0.362603  0.625631  0.729247  1
  Dy  Dy3  1  0.638181  0.366732  0.265009  1
  Si  Si4  1  0.999602  0.750529  0.751691  1
  Si  Si5  1  0.000240  0.248225  0.249402  1
  Si  Si6  1  0.273837  0.025563  0.749544  1
  Si  Si7  1  0.726136  0.476136  0.750947  1
  Si  Si8  1  0.725771  0.974887  0.250034  1
  Si  Si9  1  0.273870  0.524606  0.248610  1
  Si  Si10  1  0.755705  0.619904  0.162342  1
  Si  Si11  1  0.459006  0.094341  0.338981  1
  Si  Si12  1  0.541251  0.879918  0.633922  1
  Si  Si13  1  0.243863  0.405682  0.863417  1
  Ni  Ni14  1  0.500584  0.749231  0.249333  1
  Pt  Pt15  1  0.254196  0.136178  0.114563  1
  Pt  Pt16  1  0.500649  0.250518  0.751199  1
  Pt  Pt17  1  0.020897  0.638195  0.385803  1
  Pt  Pt18  1  0.978326  0.364374  0.616995  1
  Pt  Pt19  1  0.744204  0.860955  0.881005  1
