# generated using pymatgen
data_Er3Sc3Al13Si11Os8
_symmetry_space_group_name_H-M   'P 1'
_cell_length_a   8.55813232
_cell_length_b   8.72022631
_cell_length_c   9.14716801
_cell_angle_alpha   89.97471995
_cell_angle_beta   90.01226953
_cell_angle_gamma   119.11045002
_symmetry_Int_Tables_number   1
_chemical_formula_structural   Er3Sc3Al13Si11Os8
_chemical_formula_sum   'Er3 Sc3 Al13 Si11 Os8'
_cell_volume   596.41355361
_cell_formula_units_Z   1
loop_
 _symmetry_equiv_pos_site_id
 _symmetry_equiv_pos_as_xyz
  1  'x, y, z'
loop_
 _atom_site_type_symbol
 _atom_site_label
 _atom_site_symmetry_multiplicity
 _atom_site_fract_x
 _atom_site_fract_y
 _atom_site_fract_z
 _atom_site_occupancy
  Er  Er0  1  0.362480  0.184130  0.750179  1
  Er  Er1  1  0.187530  0.815583  0.248947  1
  Er  Er2  1  0.823409  0.184010  0.750158  1
  Sc  Sc3  1  0.196946  0.391738  0.248630  1
  Sc  Sc4  1  0.786486  0.573667  0.750386  1
  Sc  Sc5  1  0.608355  0.800103  0.248213  1
  Al  Al6  1  0.334785  0.669584  0.460831  1
  Al  Al7  1  0.171486  0.341111  0.573873  1
  Al  Al8  1  0.838438  0.679882  0.421860  1
  Al  Al9  1  0.676958  0.834606  0.581682  1
  Al  Al10  1  0.838437  0.679941  0.077407  1
  Al  Al11  1  0.339239  0.175435  0.416781  1
  Al  Al12  1  0.172614  0.343314  0.923728  1
  Al  Al13  1  0.158258  0.832367  0.584566  1
  Al  Al14  1  0.339547  0.175725  0.083009  1
  Al  Al15  1  0.837508  0.170247  0.416286  1
  Al  Al16  1  0.675437  0.833653  0.915511  1
  Al  Al17  1  0.837438  0.170163  0.083429  1
  Al  Al18  1  0.159528  0.831680  0.913615  1
  Si  Si19  1  0.334257  0.668375  0.054969  1
  Si  Si20  1  0.663200  0.324684  0.951724  1
  Si  Si21  1  0.663270  0.325137  0.547741  1
  Si  Si22  1  0.561586  0.115218  0.250045  1
  Si  Si23  1  0.440446  0.878268  0.748505  1
  Si  Si24  1  0.873598  0.441025  0.250027  1
  Si  Si25  1  0.120442  0.560390  0.748574  1
  Si  Si26  1  0.568430  0.446219  0.250109  1
  Si  Si27  1  0.439939  0.563273  0.748506  1
  Si  Si28  1  0.982516  0.005193  0.249100  1
  Si  Si29  1  0.958771  0.920588  0.749566  1
  Os  Os30  1  0.501400  0.997580  0.001547  1
  Os  Os31  1  0.998035  0.503819  0.999956  1
  Os  Os32  1  0.505039  0.005127  0.499849  1
  Os  Os33  1  0.506666  0.506676  0.999932  1
  Os  Os34  1  0.991404  0.500141  0.501112  1
  Os  Os35  1  0.509856  0.502685  0.501322  1
  Os  Os36  1  0.018613  0.024947  0.999438  1
  Os  Os37  1  0.017650  0.023714  0.498887  1
