# generated using pymatgen
data_CeSiGeMo2C
_symmetry_space_group_name_H-M   'P 1'
_cell_length_a   4.24048400
_cell_length_b   4.24048400
_cell_length_c   5.43168100
_cell_angle_alpha   90.00000000
_cell_angle_beta   90.00000000
_cell_angle_gamma   90.00000000
_symmetry_Int_Tables_number   1
_chemical_formula_structural   CeSiGeMo2C
_chemical_formula_sum   'Ce1 Si1 Ge1 Mo2 C1'
_cell_volume   97.67088297
_cell_formula_units_Z   1
loop_
 _symmetry_equiv_pos_site_id
 _symmetry_equiv_pos_as_xyz
  1  'x, y, z'
loop_
 _atom_site_type_symbol
 _atom_site_label
 _atom_site_symmetry_multiplicity
 _atom_site_fract_x
 _atom_site_fract_y
 _atom_site_fract_z
 _atom_site_occupancy
  Ce  Ce0  1  0.000000  0.000000  0.499857  1
  Si  Si1  1  0.500000  0.500000  0.726979  1
  Ge  Ge2  1  0.500000  0.500000  0.286862  1
  Mo  Mo3  1  0.000000  0.500000  0.991885  1
  Mo  Mo4  1  0.500000  0.000000  0.991885  1
  C  C5  1  0.000000  0.000000  0.002531  1
