# generated using pymatgen
data_Tb6DyY5Ni4
_symmetry_space_group_name_H-M   'P 1'
_cell_length_a   6.36167156
_cell_length_b   6.86530702
_cell_length_c   9.63505679
_cell_angle_alpha   90.01223454
_cell_angle_beta   90.17351981
_cell_angle_gamma   89.92016895
_symmetry_Int_Tables_number   1
_chemical_formula_structural   Tb6DyY5Ni4
_chemical_formula_sum   'Tb6 Dy1 Y5 Ni4'
_cell_volume   420.80710480
_cell_formula_units_Z   1
loop_
 _symmetry_equiv_pos_site_id
 _symmetry_equiv_pos_as_xyz
  1  'x, y, z'
loop_
 _atom_site_type_symbol
 _atom_site_label
 _atom_site_symmetry_multiplicity
 _atom_site_fract_x
 _atom_site_fract_y
 _atom_site_fract_z
 _atom_site_occupancy
  Tb  Tb0  1  0.322271  0.677603  0.066447  1
  Tb  Tb1  1  0.177957  0.178071  0.433767  1
  Tb  Tb2  1  0.677170  0.322232  0.565580  1
  Tb  Tb3  1  0.822252  0.821281  0.934059  1
  Tb  Tb4  1  0.678121  0.321754  0.933880  1
  Tb  Tb5  1  0.822210  0.822282  0.565455  1
  Dy  Dy6  1  0.322475  0.678190  0.434129  1
  Y  Y7  1  0.176572  0.177709  0.065200  1
  Y  Y8  1  0.859233  0.534242  0.250204  1
  Y  Y9  1  0.640782  0.034322  0.249548  1
  Y  Y10  1  0.140804  0.466594  0.749271  1
  Y  Y11  1  0.359588  0.966256  0.749542  1
  Ni  Ni12  1  0.057611  0.890396  0.251236  1
  Ni  Ni13  1  0.442371  0.392140  0.251687  1
  Ni  Ni14  1  0.942066  0.108342  0.750763  1
  Ni  Ni15  1  0.558518  0.608587  0.749229  1
