# generated using pymatgen
data_DyTm3Ga7Ag5
_symmetry_space_group_name_H-M   'P 1'
_cell_length_a   4.31536600
_cell_length_b   6.98954329
_cell_length_c   10.30671576
_cell_angle_alpha   90.11366380
_cell_angle_beta   90.00000000
_cell_angle_gamma   90.00000000
_symmetry_Int_Tables_number   1
_chemical_formula_structural   DyTm3Ga7Ag5
_chemical_formula_sum   'Dy1 Tm3 Ga7 Ag5'
_cell_volume   310.87505784
_cell_formula_units_Z   1
loop_
 _symmetry_equiv_pos_site_id
 _symmetry_equiv_pos_as_xyz
  1  'x, y, z'
loop_
 _atom_site_type_symbol
 _atom_site_label
 _atom_site_symmetry_multiplicity
 _atom_site_fract_x
 _atom_site_fract_y
 _atom_site_fract_z
 _atom_site_occupancy
  Dy  Dy0  1  0.000000  0.217214  0.827920  1
  Tm  Tm1  1  0.500000  0.780263  0.174233  1
  Tm  Tm2  1  0.500000  0.275096  0.326875  1
  Tm  Tm3  1  0.000000  0.725342  0.670267  1
  Ga  Ga4  1  0.500000  0.922495  0.845838  1
  Ga  Ga5  1  0.500000  0.429483  0.655997  1
  Ga  Ga6  1  0.000000  0.075188  0.153758  1
  Ga  Ga7  1  0.000000  0.572544  0.343378  1
  Ga  Ga8  1  0.500000  0.201144  0.036505  1
  Ga  Ga9  1  0.000000  0.302869  0.533672  1
  Ga  Ga10  1  0.000000  0.794952  0.964617  1
  Ag  Ag11  1  0.500000  0.543525  0.905241  1
  Ag  Ag12  1  0.500000  0.047523  0.599763  1
  Ag  Ag13  1  0.000000  0.457077  0.097696  1
  Ag  Ag14  1  0.000000  0.960426  0.401341  1
  Ag  Ag15  1  0.500000  0.694859  0.462900  1
