# generated using pymatgen
data_SrPr7(IrO6)4
_symmetry_space_group_name_H-M   'P 1'
_cell_length_a   5.48564019
_cell_length_b   9.48880770
_cell_length_c   10.23059800
_cell_angle_alpha   90.07774247
_cell_angle_beta   89.98487610
_cell_angle_gamma   90.03688403
_symmetry_Int_Tables_number   1
_chemical_formula_structural   SrPr7(IrO6)4
_chemical_formula_sum   'Sr1 Pr7 Ir4 O24'
_cell_volume   532.52435953
_cell_formula_units_Z   1
loop_
 _symmetry_equiv_pos_site_id
 _symmetry_equiv_pos_as_xyz
  1  'x, y, z'
loop_
 _atom_site_type_symbol
 _atom_site_label
 _atom_site_symmetry_multiplicity
 _atom_site_fract_x
 _atom_site_fract_y
 _atom_site_fract_z
 _atom_site_occupancy
  Sr  Sr0  1  0.528477  0.220299  0.364052  1
  Pr  Pr1  1  0.471556  0.602952  0.537829  1
  Pr  Pr2  1  0.973654  0.899198  0.462672  1
  Pr  Pr3  1  0.526133  0.100368  0.960604  1
  Pr  Pr4  1  0.028693  0.397888  0.037634  1
  Pr  Pr5  1  0.965111  0.781058  0.865907  1
  Pr  Pr6  1  0.464824  0.717850  0.133117  1
  Pr  Pr7  1  0.033446  0.280407  0.631610  1
  Ir  Ir8  1  0.455398  0.996849  0.642959  1
  Ir  Ir9  1  0.955430  0.503961  0.358766  1
  Ir  Ir10  1  0.545456  0.495925  0.857227  1
  Ir  Ir11  1  0.044668  0.003310  0.141334  1
  O  O12  1  0.245562  0.086873  0.509919  1
  O  O13  1  0.752322  0.417502  0.497282  1
  O  O14  1  0.752457  0.587851  0.994149  1
  O  O15  1  0.249645  0.908990  0.004762  1
  O  O16  1  0.728412  0.106792  0.574351  1
  O  O17  1  0.218366  0.395470  0.438340  1
  O  O18  1  0.276666  0.610093  0.934188  1
  O  O19  1  0.775610  0.888328  0.064885  1
  O  O20  1  0.562178  0.850855  0.519858  1
  O  O21  1  0.062423  0.653373  0.478405  1
  O  O22  1  0.439382  0.350677  0.980416  1
  O  O23  1  0.935119  0.148401  0.017686  1
  O  O24  1  0.176523  0.861161  0.256753  1
  O  O25  1  0.674301  0.638502  0.742150  1
  O  O26  1  0.835144  0.363369  0.242802  1
  O  O27  1  0.324658  0.139277  0.758714  1
  O  O28  1  0.845511  0.057121  0.281529  1
  O  O29  1  0.338874  0.441083  0.716203  1
  O  O30  1  0.162987  0.559192  0.216266  1
  O  O31  1  0.654903  0.937241  0.786094  1
  O  O32  1  0.310725  0.128810  0.170216  1
  O  O33  1  0.816958  0.369231  0.820714  1
  O  O34  1  0.684620  0.631506  0.320842  1
  O  O35  1  0.183805  0.868239  0.679768  1
