# generated using pymatgen
data_DyEr7VOs3C8
_symmetry_space_group_name_H-M   'P 1'
_cell_length_a   5.05018600
_cell_length_b   6.49254113
_cell_length_c   9.74996837
_cell_angle_alpha   89.72943082
_cell_angle_beta   90.00000000
_cell_angle_gamma   90.00000000
_symmetry_Int_Tables_number   1
_chemical_formula_structural   DyEr7VOs3C8
_chemical_formula_sum   'Dy1 Er7 V1 Os3 C8'
_cell_volume   319.68366665
_cell_formula_units_Z   1
loop_
 _symmetry_equiv_pos_site_id
 _symmetry_equiv_pos_as_xyz
  1  'x, y, z'
loop_
 _atom_site_type_symbol
 _atom_site_label
 _atom_site_symmetry_multiplicity
 _atom_site_fract_x
 _atom_site_fract_y
 _atom_site_fract_z
 _atom_site_occupancy
  Dy  Dy0  1  0.250000  0.029365  0.283494  1
  Er  Er1  1  0.250000  0.683050  0.558492  1
  Er  Er2  1  0.750000  0.321659  0.444332  1
  Er  Er3  1  0.750000  0.819620  0.054849  1
  Er  Er4  1  0.250000  0.175325  0.941954  1
  Er  Er5  1  0.250000  0.532903  0.213636  1
  Er  Er6  1  0.750000  0.468378  0.779357  1
  Er  Er7  1  0.750000  0.972398  0.717043  1
  V  V8  1  0.250000  0.722821  0.866782  1
  Os  Os9  1  0.750000  0.277964  0.133609  1
  Os  Os10  1  0.750000  0.776579  0.365173  1
  Os  Os11  1  0.250000  0.225830  0.634509  1
  C  C12  1  0.250000  0.459050  0.762694  1
  C  C13  1  0.750000  0.541988  0.242183  1
  C  C14  1  0.750000  0.042767  0.258800  1
  C  C15  1  0.250000  0.956393  0.741265  1
  C  C16  1  0.250000  0.818936  0.051645  1
  C  C17  1  0.750000  0.174266  0.949572  1
  C  C18  1  0.750000  0.675493  0.552324  1
  C  C19  1  0.250000  0.325216  0.448289  1
