# generated using pymatgen
data_Ba4Sr7Ca(WN4)4
_symmetry_space_group_name_H-M   'P 1'
_cell_length_a   9.86282349
_cell_length_b   10.63181873
_cell_length_c   11.98731920
_cell_angle_alpha   90.26731756
_cell_angle_beta   89.81615979
_cell_angle_gamma   90.13336661
_symmetry_Int_Tables_number   1
_chemical_formula_structural   Ba4Sr7Ca(WN4)4
_chemical_formula_sum   'Ba8 Sr14 Ca2 W8 N32'
_cell_volume   1256.96379946
_cell_formula_units_Z   2
loop_
 _symmetry_equiv_pos_site_id
 _symmetry_equiv_pos_as_xyz
  1  'x, y, z'
loop_
 _atom_site_type_symbol
 _atom_site_label
 _atom_site_symmetry_multiplicity
 _atom_site_fract_x
 _atom_site_fract_y
 _atom_site_fract_z
 _atom_site_occupancy
  Ba  Ba0  1  0.186650  0.729411  0.880088  1
  Ba  Ba1  1  0.813350  0.270589  0.119912  1
  Ba  Ba2  1  0.307534  0.229810  0.121538  1
  Ba  Ba3  1  0.812314  0.771452  0.379698  1
  Ba  Ba4  1  0.692466  0.770190  0.878462  1
  Ba  Ba5  1  0.187686  0.228548  0.620302  1
  Ba  Ba6  1  0.694496  0.274143  0.622113  1
  Ba  Ba7  1  0.305504  0.725857  0.377887  1
  Sr  Sr8  1  0.030457  0.622130  0.606885  1
  Sr  Sr9  1  0.969543  0.377870  0.393115  1
  Sr  Sr10  1  0.467406  0.123579  0.396610  1
  Sr  Sr11  1  0.966346  0.876132  0.103383  1
  Sr  Sr12  1  0.532594  0.876421  0.603390  1
  Sr  Sr13  1  0.033654  0.123868  0.896617  1
  Sr  Sr14  1  0.533186  0.377330  0.895577  1
  Sr  Sr15  1  0.466814  0.622670  0.104423  1
  Sr  Sr16  1  0.375773  0.534991  0.636825  1
  Sr  Sr17  1  0.624227  0.465009  0.363175  1
  Sr  Sr18  1  0.125883  0.033244  0.362803  1
  Sr  Sr19  1  0.623820  0.965320  0.137498  1
  Sr  Sr20  1  0.874117  0.966756  0.637197  1
  Sr  Sr21  1  0.376180  0.034680  0.862502  1
  Ca  Ca22  1  0.882873  0.456978  0.874995  1
  Ca  Ca23  1  0.117127  0.543022  0.125005  1
  W  W24  1  0.197097  0.901119  0.612494  1
  W  W25  1  0.802903  0.098881  0.387506  1
  W  W26  1  0.302738  0.400633  0.388392  1
  W  W27  1  0.806333  0.597250  0.109457  1
  W  W28  1  0.697262  0.599367  0.611608  1
  W  W29  1  0.193667  0.402750  0.890543  1
  W  W30  1  0.698791  0.100931  0.888437  1
  W  W31  1  0.301209  0.899069  0.111563  1
  N  N32  1  0.293585  0.763456  0.671546  1
  N  N33  1  0.706415  0.236544  0.328454  1
  N  N34  1  0.207674  0.260214  0.331676  1
  N  N35  1  0.709514  0.735764  0.168269  1
  N  N36  1  0.792326  0.739786  0.668324  1
  N  N37  1  0.290486  0.264236  0.831731  1
  N  N38  1  0.795542  0.242822  0.834659  1
  N  N39  1  0.204458  0.757178  0.165341  1
  N  N40  1  0.312167  0.510674  0.969450  1
  N  N41  1  0.687833  0.489326  0.030550  1
  N  N42  1  0.183086  0.005477  0.031605  1
  N  N43  1  0.683333  0.992911  0.467100  1
  N  N44  1  0.816914  0.994523  0.968395  1
  N  N45  1  0.316667  0.007089  0.532900  1
  N  N46  1  0.816222  0.494316  0.529550  1
  N  N47  1  0.183778  0.505684  0.470450  1
  N  N48  1  0.104748  0.494728  0.778228  1
  N  N49  1  0.895252  0.505272  0.221772  1
  N  N50  1  0.381358  0.992922  0.228268  1
  N  N51  1  0.886005  0.002730  0.273277  1
  N  N52  1  0.618642  0.007078  0.771732  1
  N  N53  1  0.113995  0.997270  0.726723  1
  N  N54  1  0.615348  0.504938  0.726927  1
  N  N55  1  0.384652  0.495062  0.273073  1
  N  N56  1  0.064188  0.843388  0.510548  1
  N  N57  1  0.935812  0.156612  0.489452  1
  N  N58  1  0.437471  0.345525  0.488927  1
  N  N59  1  0.939415  0.652339  0.006141  1
  N  N60  1  0.562529  0.654475  0.511073  1
  N  N61  1  0.060585  0.347661  0.993859  1
  N  N62  1  0.562738  0.154914  0.989015  1
  N  N63  1  0.437262  0.845086  0.010985  1
