# generated using pymatgen
data_BaTmTi4N7
_symmetry_space_group_name_H-M   'P 1'
_cell_length_a   6.44667000
_cell_length_b   6.44667037
_cell_length_c   10.44875600
_cell_angle_alpha   90.00000000
_cell_angle_beta   90.00000000
_cell_angle_gamma   119.99998781
_symmetry_Int_Tables_number   1
_chemical_formula_structural   BaTmTi4N7
_chemical_formula_sum   'Ba2 Tm2 Ti8 N14'
_cell_volume   376.06782389
_cell_formula_units_Z   2
loop_
 _symmetry_equiv_pos_site_id
 _symmetry_equiv_pos_as_xyz
  1  'x, y, z'
loop_
 _atom_site_type_symbol
 _atom_site_label
 _atom_site_symmetry_multiplicity
 _atom_site_fract_x
 _atom_site_fract_y
 _atom_site_fract_z
 _atom_site_occupancy
  Ba  Ba0  1  0.666667  0.333333  0.581972  1
  Ba  Ba1  1  0.333333  0.666667  0.081972  1
  Tm  Tm2  1  0.666667  0.333333  0.948874  1
  Tm  Tm3  1  0.333333  0.666667  0.448874  1
  Ti  Ti4  1  0.169683  0.339366  0.763671  1
  Ti  Ti5  1  0.830317  0.169683  0.263671  1
  Ti  Ti6  1  0.339366  0.169683  0.263671  1
  Ti  Ti7  1  0.660634  0.830317  0.763671  1
  Ti  Ti8  1  0.169683  0.830317  0.763671  1
  Ti  Ti9  1  0.830317  0.660634  0.263671  1
  Ti  Ti10  1  0.000000  0.000000  0.023269  1
  Ti  Ti11  1  0.000000  0.000000  0.523269  1
  N  N12  1  0.000000  0.000000  0.829965  1
  N  N13  1  0.000000  0.000000  0.329965  1
  N  N14  1  0.839152  0.678304  0.082330  1
  N  N15  1  0.160848  0.839152  0.582330  1
  N  N16  1  0.678304  0.839152  0.582330  1
  N  N17  1  0.321696  0.160848  0.082330  1
  N  N18  1  0.839152  0.160848  0.082330  1
  N  N19  1  0.160848  0.321696  0.582330  1
  N  N20  1  0.495604  0.504396  0.816913  1
  N  N21  1  0.991208  0.495604  0.316913  1
  N  N22  1  0.504396  0.008792  0.316913  1
  N  N23  1  0.495604  0.991208  0.816913  1
  N  N24  1  0.504396  0.495604  0.316913  1
  N  N25  1  0.008792  0.504396  0.816913  1
