# generated using pymatgen
data_Rb12HfMo3Se16
_symmetry_space_group_name_H-M   'P 1'
_cell_length_a   10.06384679
_cell_length_b   10.13394392
_cell_length_c   11.63284300
_cell_angle_alpha   90.00000000
_cell_angle_beta   90.00000000
_cell_angle_gamma   89.79694671
_symmetry_Int_Tables_number   1
_chemical_formula_structural   Rb12HfMo3Se16
_chemical_formula_sum   'Rb12 Hf1 Mo3 Se16'
_cell_volume   1186.38501521
_cell_formula_units_Z   1
loop_
 _symmetry_equiv_pos_site_id
 _symmetry_equiv_pos_as_xyz
  1  'x, y, z'
loop_
 _atom_site_type_symbol
 _atom_site_label
 _atom_site_symmetry_multiplicity
 _atom_site_fract_x
 _atom_site_fract_y
 _atom_site_fract_z
 _atom_site_occupancy
  Rb  Rb0  1  0.045421  0.796778  0.449466  1
  Rb  Rb1  1  0.452110  0.290541  0.543106  1
  Rb  Rb2  1  0.555796  0.711311  0.047016  1
  Rb  Rb3  1  0.947637  0.202716  0.959717  1
  Rb  Rb4  1  0.947637  0.202716  0.540283  1
  Rb  Rb5  1  0.555796  0.711311  0.452984  1
  Rb  Rb6  1  0.452110  0.290541  0.956894  1
  Rb  Rb7  1  0.045421  0.796778  0.050534  1
  Rb  Rb8  1  0.140279  0.586194  0.750000  1
  Rb  Rb9  1  0.361680  0.085107  0.250000  1
  Rb  Rb10  1  0.641395  0.919702  0.750000  1
  Rb  Rb11  1  0.859344  0.409419  0.250000  1
  Hf  Hf12  1  0.777876  0.984581  0.250000  1
  Mo  Mo13  1  0.721335  0.485845  0.750000  1
  Mo  Mo14  1  0.279345  0.516675  0.250000  1
  Mo  Mo15  1  0.218046  0.014295  0.750000  1
  Se  Se16  1  0.799294  0.736814  0.250000  1
  Se  Se17  1  0.703265  0.253993  0.750000  1
  Se  Se18  1  0.299462  0.748659  0.250000  1
  Se  Se19  1  0.201560  0.247970  0.750000  1
  Se  Se20  1  0.001205  0.922394  0.750000  1
  Se  Se21  1  0.494955  0.423166  0.250000  1
  Se  Se22  1  0.504148  0.578970  0.750000  1
  Se  Se23  1  0.009244  0.080613  0.250000  1
  Se  Se24  1  0.331602  0.946799  0.582831  1
  Se  Se25  1  0.166583  0.453028  0.419467  1
  Se  Se26  1  0.835600  0.549795  0.918457  1
  Se  Se27  1  0.659034  0.051835  0.068112  1
  Se  Se28  1  0.659034  0.051835  0.431888  1
  Se  Se29  1  0.835600  0.549795  0.581543  1
  Se  Se30  1  0.166583  0.453028  0.080533  1
  Se  Se31  1  0.331602  0.946799  0.917169  1
