# generated using pymatgen
data_Tb4Pr16Si15F
_symmetry_space_group_name_H-M   'P 1'
_cell_length_a   7.82529180
_cell_length_b   7.82875886
_cell_length_c   15.36724000
_cell_angle_alpha   89.89996893
_cell_angle_beta   89.80829109
_cell_angle_gamma   90.14131671
_symmetry_Int_Tables_number   1
_chemical_formula_structural   Tb4Pr16Si15F
_chemical_formula_sum   'Tb4 Pr16 Si15 F1'
_cell_volume   941.42323131
_cell_formula_units_Z   1
loop_
 _symmetry_equiv_pos_site_id
 _symmetry_equiv_pos_as_xyz
  1  'x, y, z'
loop_
 _atom_site_type_symbol
 _atom_site_label
 _atom_site_symmetry_multiplicity
 _atom_site_fract_x
 _atom_site_fract_y
 _atom_site_fract_z
 _atom_site_occupancy
  Tb  Tb0  1  0.311969  0.308664  0.998821  1
  Tb  Tb1  1  0.190713  0.805861  0.250152  1
  Tb  Tb2  1  0.799937  0.190996  0.753739  1
  Tb  Tb3  1  0.692596  0.686477  0.500421  1
  Pr  Pr4  1  0.381820  0.006589  0.443009  1
  Pr  Pr5  1  0.499689  0.867550  0.696963  1
  Pr  Pr6  1  0.513902  0.120679  0.195596  1
  Pr  Pr7  1  0.878506  0.484482  0.303967  1
  Pr  Pr8  1  0.128840  0.512499  0.803159  1
  Pr  Pr9  1  0.632600  0.987488  0.948187  1
  Pr  Pr10  1  0.006308  0.376060  0.552871  1
  Pr  Pr11  1  0.992557  0.623282  0.054218  1
  Pr  Pr12  1  0.142339  0.984372  0.876704  1
  Pr  Pr13  1  0.523972  0.626431  0.127474  1
  Pr  Pr14  1  0.477939  0.363642  0.630557  1
  Pr  Pr15  1  0.634184  0.524868  0.872805  1
  Pr  Pr16  1  0.370178  0.473401  0.374213  1
  Pr  Pr17  1  0.877817  0.021696  0.379331  1
  Pr  Pr18  1  0.980154  0.123298  0.122214  1
  Pr  Pr19  1  0.032747  0.891247  0.623752  1
  Si  Si20  1  0.331302  0.689501  0.955518  1
  Si  Si21  1  0.669615  0.309801  0.458116  1
  Si  Si22  1  0.695935  0.331266  0.043804  1
  Si  Si23  1  0.311340  0.668097  0.546953  1
  Si  Si24  1  0.813072  0.827476  0.208485  1
  Si  Si25  1  0.172771  0.186929  0.291493  1
  Si  Si26  1  0.843268  0.813690  0.793946  1
  Si  Si27  1  0.289732  0.921497  0.061800  1
  Si  Si28  1  0.580160  0.780531  0.312513  1
  Si  Si29  1  0.436984  0.210860  0.816311  1
  Si  Si30  1  0.792005  0.582678  0.685968  1
  Si  Si31  1  0.214521  0.421507  0.187212  1
  Si  Si32  1  0.707213  0.071939  0.561502  1
  Si  Si33  1  0.929819  0.289050  0.937460  1
  Si  Si34  1  0.079001  0.712221  0.441130  1
  F  F35  1  0.064497  0.203371  0.689637  1
