# generated using pymatgen
data_Tm4Al5Mo3
_symmetry_space_group_name_H-M   'P 1'
_cell_length_a   5.52420130
_cell_length_b   5.58890025
_cell_length_c   8.92439100
_cell_angle_alpha   90.00000000
_cell_angle_beta   90.00000000
_cell_angle_gamma   120.38820136
_symmetry_Int_Tables_number   1
_chemical_formula_structural   Tm4Al5Mo3
_chemical_formula_sum   'Tm4 Al5 Mo3'
_cell_volume   237.68013578
_cell_formula_units_Z   1
loop_
 _symmetry_equiv_pos_site_id
 _symmetry_equiv_pos_as_xyz
  1  'x, y, z'
loop_
 _atom_site_type_symbol
 _atom_site_label
 _atom_site_symmetry_multiplicity
 _atom_site_fract_x
 _atom_site_fract_y
 _atom_site_fract_z
 _atom_site_occupancy
  Tm  Tm0  1  0.333016  0.666509  0.444613  1
  Tm  Tm1  1  0.670531  0.335266  0.554856  1
  Tm  Tm2  1  0.670531  0.335266  0.945144  1
  Tm  Tm3  1  0.333016  0.666509  0.055387  1
  Al  Al4  1  0.823891  0.159432  0.250000  1
  Al  Al5  1  0.823891  0.664459  0.250000  1
  Al  Al6  1  0.318227  0.159113  0.250000  1
  Al  Al7  1  0.193843  0.849412  0.750000  1
  Al  Al8  1  0.193843  0.344430  0.750000  1
  Mo  Mo9  1  0.972457  0.986228  0.507914  1
  Mo  Mo10  1  0.972457  0.986228  0.992086  1
  Mo  Mo11  1  0.694297  0.847149  0.750000  1
