# generated using pymatgen
data_SrYb5Pr2(Si3Pd)4
_symmetry_space_group_name_H-M   'P 1'
_cell_length_a   8.27649600
_cell_length_b   8.27117903
_cell_length_c   8.45701700
_cell_angle_alpha   90.00000000
_cell_angle_beta   90.00000000
_cell_angle_gamma   120.02133097
_symmetry_Int_Tables_number   1
_chemical_formula_structural   SrYb5Pr2(Si3Pd)4
_chemical_formula_sum   'Sr1 Yb5 Pr2 Si12 Pd4'
_cell_volume   501.26614803
_cell_formula_units_Z   1
loop_
 _symmetry_equiv_pos_site_id
 _symmetry_equiv_pos_as_xyz
  1  'x, y, z'
loop_
 _atom_site_type_symbol
 _atom_site_label
 _atom_site_symmetry_multiplicity
 _atom_site_fract_x
 _atom_site_fract_y
 _atom_site_fract_z
 _atom_site_occupancy
  Sr  Sr0  1  0.500591  0.001182  0.250000  1
  Yb  Yb1  1  0.499580  0.500441  0.750000  1
  Yb  Yb2  1  0.500280  0.499750  0.250000  1
  Yb  Yb3  1  0.000860  0.500440  0.750000  1
  Yb  Yb4  1  0.999470  0.499750  0.250000  1
  Yb  Yb5  1  0.499507  0.999014  0.750000  1
  Pr  Pr6  1  0.999919  0.999839  0.750000  1
  Pr  Pr7  1  0.999998  0.999997  0.250000  1
  Si  Si8  1  0.836655  0.166694  0.995583  1
  Si  Si9  1  0.163351  0.833312  0.996208  1
  Si  Si10  1  0.330040  0.166694  0.995583  1
  Si  Si11  1  0.163351  0.833312  0.503792  1
  Si  Si12  1  0.669960  0.833312  0.996208  1
  Si  Si13  1  0.836655  0.166694  0.504417  1
  Si  Si14  1  0.834542  0.669084  0.999180  1
  Si  Si15  1  0.669960  0.833312  0.503792  1
  Si  Si16  1  0.165403  0.330807  0.999505  1
  Si  Si17  1  0.330040  0.166694  0.504417  1
  Si  Si18  1  0.165403  0.330807  0.500495  1
  Si  Si19  1  0.834542  0.669084  0.500820  1
  Pd  Pd20  1  0.667695  0.335391  0.991989  1
  Pd  Pd21  1  0.332250  0.664498  0.993736  1
  Pd  Pd22  1  0.332250  0.664498  0.506264  1
  Pd  Pd23  1  0.667695  0.335391  0.508011  1
