# generated using pymatgen
data_Pr6Mn3Al24Pt5
_symmetry_space_group_name_H-M   'P 1'
_cell_length_a   8.92999500
_cell_length_b   8.96046383
_cell_length_c   9.60819219
_cell_angle_alpha   90.28852692
_cell_angle_beta   90.00000000
_cell_angle_gamma   119.88757682
_symmetry_Int_Tables_number   1
_chemical_formula_structural   Pr6Mn3Al24Pt5
_chemical_formula_sum   'Pr6 Mn3 Al24 Pt5'
_cell_volume   666.55742592
_cell_formula_units_Z   1
loop_
 _symmetry_equiv_pos_site_id
 _symmetry_equiv_pos_as_xyz
  1  'x, y, z'
loop_
 _atom_site_type_symbol
 _atom_site_label
 _atom_site_symmetry_multiplicity
 _atom_site_fract_x
 _atom_site_fract_y
 _atom_site_fract_z
 _atom_site_occupancy
  Pr  Pr0  1  0.190335  0.380670  0.251297  1
  Pr  Pr1  1  0.809665  0.619330  0.748703  1
  Pr  Pr2  1  0.619023  0.810842  0.251160  1
  Pr  Pr3  1  0.380977  0.189158  0.748840  1
  Pr  Pr4  1  0.191820  0.810842  0.251160  1
  Pr  Pr5  1  0.808180  0.189158  0.748840  1
  Mn  Mn6  1  0.500000  0.000000  0.500000  1
  Mn  Mn7  1  0.000000  0.000000  0.000000  1
  Mn  Mn8  1  0.000000  0.000000  0.500000  1
  Al  Al9  1  0.333463  0.666929  0.020050  1
  Al  Al10  1  0.666537  0.333071  0.979950  1
  Al  Al11  1  0.661741  0.323480  0.520161  1
  Al  Al12  1  0.338259  0.676520  0.479839  1
  Al  Al13  1  0.159197  0.318394  0.572964  1
  Al  Al14  1  0.840803  0.681606  0.427036  1
  Al  Al15  1  0.679233  0.845873  0.574318  1
  Al  Al16  1  0.842119  0.684238  0.074671  1
  Al  Al17  1  0.320767  0.154127  0.425682  1
  Al  Al18  1  0.157881  0.315762  0.925329  1
  Al  Al19  1  0.166640  0.845873  0.574318  1
  Al  Al20  1  0.316585  0.158119  0.076672  1
  Al  Al21  1  0.833360  0.154127  0.425682  1
  Al  Al22  1  0.683415  0.841881  0.923328  1
  Al  Al23  1  0.841534  0.158119  0.076672  1
  Al  Al24  1  0.158466  0.841881  0.923328  1
  Al  Al25  1  0.563267  0.126534  0.257534  1
  Al  Al26  1  0.436733  0.873466  0.742466  1
  Al  Al27  1  0.870091  0.434000  0.249768  1
  Al  Al28  1  0.129909  0.566000  0.750232  1
  Al  Al29  1  0.563909  0.434000  0.249768  1
  Al  Al30  1  0.436091  0.566000  0.750232  1
  Al  Al31  1  0.000637  0.001274  0.250403  1
  Al  Al32  1  0.999363  0.998726  0.749597  1
  Pt  Pt33  1  0.500000  0.000000  0.000000  1
  Pt  Pt34  1  0.000000  0.500000  0.000000  1
  Pt  Pt35  1  0.500000  0.500000  0.000000  1
  Pt  Pt36  1  0.000000  0.500000  0.500000  1
  Pt  Pt37  1  0.500000  0.500000  0.500000  1
