# generated using pymatgen
data_AcLa3(Ni2I)2
_symmetry_space_group_name_H-M   'P 1'
_cell_length_a   4.15721500
_cell_length_b   4.15721579
_cell_length_c   17.93416500
_cell_angle_alpha   90.00000000
_cell_angle_beta   90.00000000
_cell_angle_gamma   119.99998576
_symmetry_Int_Tables_number   1
_chemical_formula_structural   AcLa3(Ni2I)2
_chemical_formula_sum   'Ac1 La3 Ni4 I2'
_cell_volume   268.42125893
_cell_formula_units_Z   1
loop_
 _symmetry_equiv_pos_site_id
 _symmetry_equiv_pos_as_xyz
  1  'x, y, z'
loop_
 _atom_site_type_symbol
 _atom_site_label
 _atom_site_symmetry_multiplicity
 _atom_site_fract_x
 _atom_site_fract_y
 _atom_site_fract_z
 _atom_site_occupancy
  Ac  Ac0  1  0.000000  0.000000  0.104413  1
  La  La1  1  0.000000  0.000000  0.891636  1
  La  La2  1  0.000000  0.000000  0.606006  1
  La  La3  1  0.000000  0.000000  0.398893  1
  Ni  Ni4  1  0.333333  0.666667  0.502828  1
  Ni  Ni5  1  0.666667  0.333333  0.502420  1
  Ni  Ni6  1  0.666667  0.333333  0.993371  1
  Ni  Ni7  1  0.333333  0.666667  0.994600  1
  I  I8  1  0.333333  0.666667  0.257093  1
  I  I9  1  0.666667  0.333333  0.748740  1
