# generated using pymatgen
data_Zr4Al2Tc5Mo
_symmetry_space_group_name_H-M   'P 1'
_cell_length_a   5.25083600
_cell_length_b   5.20062441
_cell_length_c   8.63934600
_cell_angle_alpha   90.00000000
_cell_angle_beta   90.00000000
_cell_angle_gamma   120.31988655
_symmetry_Int_Tables_number   1
_chemical_formula_structural   Zr4Al2Tc5Mo
_chemical_formula_sum   'Zr4 Al2 Tc5 Mo1'
_cell_volume   203.65097747
_cell_formula_units_Z   1
loop_
 _symmetry_equiv_pos_site_id
 _symmetry_equiv_pos_as_xyz
  1  'x, y, z'
loop_
 _atom_site_type_symbol
 _atom_site_label
 _atom_site_symmetry_multiplicity
 _atom_site_fract_x
 _atom_site_fract_y
 _atom_site_fract_z
 _atom_site_occupancy
  Zr  Zr0  1  0.333726  0.667453  0.433729  1
  Zr  Zr1  1  0.666500  0.333000  0.936099  1
  Zr  Zr2  1  0.666500  0.333000  0.563901  1
  Zr  Zr3  1  0.333726  0.667453  0.066271  1
  Al  Al4  1  0.998834  0.997668  0.001401  1
  Al  Al5  1  0.998834  0.997668  0.498599  1
  Tc  Tc6  1  0.829789  0.170716  0.250000  1
  Tc  Tc7  1  0.340924  0.170716  0.250000  1
  Tc  Tc8  1  0.660614  0.830872  0.750000  1
  Tc  Tc9  1  0.828463  0.656929  0.250000  1
  Tc  Tc10  1  0.170262  0.830872  0.750000  1
  Mo  Mo11  1  0.171829  0.343656  0.750000  1
