# generated using pymatgen
data_Hf6Al(Si3Ni8)2
_symmetry_space_group_name_H-M   'P 1'
_cell_length_a   8.09149232
_cell_length_b   8.09149250
_cell_length_c   8.09149300
_cell_angle_alpha   60.00000203
_cell_angle_beta   60.00000132
_cell_angle_gamma   59.99999923
_symmetry_Int_Tables_number   1
_chemical_formula_structural   Hf6Al(Si3Ni8)2
_chemical_formula_sum   'Hf6 Al1 Si6 Ni16'
_cell_volume   374.60272791
_cell_formula_units_Z   1
loop_
 _symmetry_equiv_pos_site_id
 _symmetry_equiv_pos_as_xyz
  1  'x, y, z'
loop_
 _atom_site_type_symbol
 _atom_site_label
 _atom_site_symmetry_multiplicity
 _atom_site_fract_x
 _atom_site_fract_y
 _atom_site_fract_z
 _atom_site_occupancy
  Hf  Hf0  1  0.793187  0.206813  0.793187  1
  Hf  Hf1  1  0.793187  0.793187  0.206813  1
  Hf  Hf2  1  0.206813  0.793187  0.793187  1
  Hf  Hf3  1  0.206813  0.206813  0.793187  1
  Hf  Hf4  1  0.793187  0.206813  0.206813  1
  Hf  Hf5  1  0.206813  0.793187  0.206813  1
  Al  Al6  1  0.500000  0.500000  0.500000  1
  Si  Si7  1  0.000000  0.500000  0.000000  1
  Si  Si8  1  0.500000  0.500000  0.000000  1
  Si  Si9  1  0.500000  0.000000  0.500000  1
  Si  Si10  1  0.000000  0.500000  0.500000  1
  Si  Si11  1  0.000000  0.000000  0.500000  1
  Si  Si12  1  0.500000  0.000000  0.000000  1
  Ni  Ni13  1  0.167451  0.167451  0.167451  1
  Ni  Ni14  1  0.620592  0.620592  0.138225  1
  Ni  Ni15  1  0.379408  0.379408  0.379408  1
  Ni  Ni16  1  0.167451  0.497647  0.167451  1
  Ni  Ni17  1  0.167451  0.167451  0.497647  1
  Ni  Ni18  1  0.138225  0.620592  0.620592  1
  Ni  Ni19  1  0.620592  0.138225  0.620592  1
  Ni  Ni20  1  0.832549  0.832549  0.832549  1
  Ni  Ni21  1  0.861775  0.379408  0.379408  1
  Ni  Ni22  1  0.379408  0.379408  0.861775  1
  Ni  Ni23  1  0.379408  0.861775  0.379408  1
  Ni  Ni24  1  0.502353  0.832549  0.832549  1
  Ni  Ni25  1  0.620592  0.620592  0.620592  1
  Ni  Ni26  1  0.832549  0.832549  0.502353  1
  Ni  Ni27  1  0.497647  0.167451  0.167451  1
  Ni  Ni28  1  0.832549  0.502353  0.832549  1
