# generated using pymatgen
data_MnCr(NiP)2
_symmetry_space_group_name_H-M   'P 1'
_cell_length_a   3.49131100
_cell_length_b   5.80394700
_cell_length_c   6.77981800
_cell_angle_alpha   90.00000000
_cell_angle_beta   90.00000000
_cell_angle_gamma   90.00000000
_symmetry_Int_Tables_number   1
_chemical_formula_structural   MnCr(NiP)2
_chemical_formula_sum   'Mn2 Cr2 Ni4 P4'
_cell_volume   137.38205561
_cell_formula_units_Z   2
loop_
 _symmetry_equiv_pos_site_id
 _symmetry_equiv_pos_as_xyz
  1  'x, y, z'
loop_
 _atom_site_type_symbol
 _atom_site_label
 _atom_site_symmetry_multiplicity
 _atom_site_fract_x
 _atom_site_fract_y
 _atom_site_fract_z
 _atom_site_occupancy
  Mn  Mn0  1  0.750000  0.467882  0.164724  1
  Mn  Mn1  1  0.750000  0.967882  0.335276  1
  Cr  Cr2  1  0.250000  0.531069  0.832877  1
  Cr  Cr3  1  0.250000  0.031069  0.667123  1
  Ni  Ni4  1  0.750000  0.359540  0.562170  1
  Ni  Ni5  1  0.750000  0.859540  0.937830  1
  Ni  Ni6  1  0.250000  0.642347  0.434638  1
  Ni  Ni7  1  0.250000  0.142347  0.065362  1
  P  P8  1  0.750000  0.241775  0.871279  1
  P  P9  1  0.750000  0.741775  0.628721  1
  P  P10  1  0.250000  0.757387  0.126353  1
  P  P11  1  0.250000  0.257387  0.373647  1
