# generated using pymatgen
data_La5Yb3In3Rh
_symmetry_space_group_name_H-M   'P 1'
_cell_length_a   10.96566100
_cell_length_b   10.96473732
_cell_length_c   7.07046900
_cell_angle_alpha   89.99990072
_cell_angle_beta   90.00003658
_cell_angle_gamma   119.99737737
_symmetry_Int_Tables_number   1
_chemical_formula_structural   La5Yb3In3Rh
_chemical_formula_sum   'La10 Yb6 In6 Rh2'
_cell_volume   736.24672884
_cell_formula_units_Z   2
loop_
 _symmetry_equiv_pos_site_id
 _symmetry_equiv_pos_as_xyz
  1  'x, y, z'
loop_
 _atom_site_type_symbol
 _atom_site_label
 _atom_site_symmetry_multiplicity
 _atom_site_fract_x
 _atom_site_fract_y
 _atom_site_fract_z
 _atom_site_occupancy
  La  La0  1  0.173882  0.347810  0.731089  1
  La  La1  1  0.652262  0.826147  0.731066  1
  La  La2  1  0.173895  0.826090  0.731008  1
  La  La3  1  0.826109  0.652168  0.231101  1
  La  La4  1  0.347764  0.173867  0.231082  1
  La  La5  1  0.826092  0.173923  0.231022  1
  La  La6  1  0.666653  0.333351  0.910992  1
  La  La7  1  0.333348  0.666651  0.411003  1
  La  La8  1  0.999868  0.000082  0.522775  1
  La  La9  1  0.000132  0.999917  0.022836  1
  Yb  Yb10  1  0.534071  0.068136  0.527332  1
  Yb  Yb11  1  0.931858  0.465922  0.527331  1
  Yb  Yb12  1  0.534064  0.465931  0.527342  1
  Yb  Yb13  1  0.465935  0.931876  0.027345  1
  Yb  Yb14  1  0.068128  0.534071  0.027345  1
  Yb  Yb15  1  0.465942  0.534062  0.027356  1
  In  In16  1  0.833251  0.666495  0.763128  1
  In  In17  1  0.333499  0.166756  0.763135  1
  In  In18  1  0.833263  0.166754  0.763083  1
  In  In19  1  0.166749  0.333504  0.263126  1
  In  In20  1  0.666500  0.833244  0.263133  1
  In  In21  1  0.166736  0.833246  0.263081  1
  Rh  Rh22  1  0.666699  0.333269  0.279476  1
  Rh  Rh23  1  0.333302  0.666731  0.779495  1
