# generated using pymatgen
data_Li4MnSn2S7
_symmetry_space_group_name_H-M   'P 1'
_cell_length_a   9.41818261
_cell_length_b   9.41818294
_cell_length_c   10.32928613
_cell_angle_alpha   86.69320217
_cell_angle_beta   86.69320168
_cell_angle_gamma   43.47597747
_symmetry_Int_Tables_number   1
_chemical_formula_structural   Li4MnSn2S7
_chemical_formula_sum   'Li8 Mn2 Sn4 S14'
_cell_volume   629.19576786
_cell_formula_units_Z   2
loop_
 _symmetry_equiv_pos_site_id
 _symmetry_equiv_pos_as_xyz
  1  'x, y, z'
loop_
 _atom_site_type_symbol
 _atom_site_label
 _atom_site_symmetry_multiplicity
 _atom_site_fract_x
 _atom_site_fract_y
 _atom_site_fract_z
 _atom_site_occupancy
  Li  Li0  1  0.525802  0.184108  0.410750  1
  Li  Li1  1  0.184108  0.525802  0.910750  1
  Li  Li2  1  0.911791  0.225315  0.335288  1
  Li  Li3  1  0.225315  0.911791  0.835288  1
  Li  Li4  1  0.679186  0.312138  0.696251  1
  Li  Li5  1  0.312138  0.679186  0.196251  1
  Li  Li6  1  0.041705  0.382420  0.615206  1
  Li  Li7  1  0.382420  0.041705  0.115206  1
  Mn  Mn8  1  0.934160  0.630806  0.259801  1
  Mn  Mn9  1  0.630806  0.934160  0.759801  1
  Sn  Sn10  1  0.472300  0.809903  0.469299  1
  Sn  Sn11  1  0.809903  0.472300  0.969299  1
  Sn  Sn12  1  0.078416  0.768700  0.538935  1
  Sn  Sn13  1  0.768700  0.078416  0.038935  1
  S  S14  1  0.367910  0.691446  0.633720  1
  S  S15  1  0.691446  0.367910  0.133720  1
  S  S16  1  0.216923  0.551949  0.351923  1
  S  S17  1  0.551949  0.216923  0.851923  1
  S  S18  1  0.993166  0.648214  0.708727  1
  S  S19  1  0.648214  0.993166  0.208727  1
  S  S20  1  0.273255  0.938711  0.280739  1
  S  S21  1  0.938711  0.273255  0.780739  1
  S  S22  1  0.417857  0.072125  0.572222  1
  S  S23  1  0.072125  0.417857  0.072222  1
  S  S24  1  0.835620  0.515178  0.418633  1
  S  S25  1  0.515178  0.835620  0.918633  1
  S  S26  1  0.796445  0.128949  0.496836  1
  S  S27  1  0.128949  0.796445  0.996836  1
