# generated using pymatgen
data_Tm5Pa5Ru6
_symmetry_space_group_name_H-M   'P 1'
_cell_length_a   6.48287700
_cell_length_b   7.91356604
_cell_length_c   8.08625430
_cell_angle_alpha   119.29604893
_cell_angle_beta   90.00000000
_cell_angle_gamma   90.00000000
_symmetry_Int_Tables_number   1
_chemical_formula_structural   Tm5Pa5Ru6
_chemical_formula_sum   'Tm5 Pa5 Ru6'
_cell_volume   361.78886554
_cell_formula_units_Z   1
loop_
 _symmetry_equiv_pos_site_id
 _symmetry_equiv_pos_as_xyz
  1  'x, y, z'
loop_
 _atom_site_type_symbol
 _atom_site_label
 _atom_site_symmetry_multiplicity
 _atom_site_fract_x
 _atom_site_fract_y
 _atom_site_fract_z
 _atom_site_occupancy
  Tm  Tm0  1  0.999540  0.668846  0.331908  1
  Tm  Tm1  1  0.999540  0.336937  0.668092  1
  Tm  Tm2  1  0.500460  0.336937  0.668092  1
  Tm  Tm3  1  0.500460  0.668846  0.331908  1
  Tm  Tm4  1  0.250000  0.744073  0.000000  1
  Pa  Pa5  1  0.750000  0.759976  0.761234  1
  Pa  Pa6  1  0.250000  0.240539  0.249588  1
  Pa  Pa7  1  0.750000  0.998741  0.238766  1
  Pa  Pa8  1  0.250000  0.990951  0.750412  1
  Pa  Pa9  1  0.750000  0.240607  0.000000  1
  Ru  Ru10  1  0.750000  0.359535  0.357857  1
  Ru  Ru11  1  0.250000  0.638461  0.611085  1
  Ru  Ru12  1  0.750000  0.001678  0.642143  1
  Ru  Ru13  1  0.250000  0.027376  0.388915  1
  Ru  Ru14  1  0.750000  0.636586  0.000000  1
  Ru  Ru15  1  0.250000  0.349911  0.000000  1
