# generated using pymatgen
data_Nd2SmMg3PtPb2
_symmetry_space_group_name_H-M   'P 1'
_cell_length_a   7.65351939
_cell_length_b   7.66398637
_cell_length_c   4.61228100
_cell_angle_alpha   90.00000000
_cell_angle_beta   90.00000000
_cell_angle_gamma   120.04524499
_symmetry_Int_Tables_number   1
_chemical_formula_structural   Nd2SmMg3PtPb2
_chemical_formula_sum   'Nd2 Sm1 Mg3 Pt1 Pb2'
_cell_volume   234.18771931
_cell_formula_units_Z   1
loop_
 _symmetry_equiv_pos_site_id
 _symmetry_equiv_pos_as_xyz
  1  'x, y, z'
loop_
 _atom_site_type_symbol
 _atom_site_label
 _atom_site_symmetry_multiplicity
 _atom_site_fract_x
 _atom_site_fract_y
 _atom_site_fract_z
 _atom_site_occupancy
  Nd  Nd0  1  0.604030  0.603918  0.000000  1
  Nd  Nd1  1  0.395970  0.999889  0.000000  1
  Sm  Sm2  1  0.000000  0.395382  0.000000  1
  Mg  Mg3  1  0.000000  0.773116  0.500000  1
  Mg  Mg4  1  0.226346  0.226861  0.500000  1
  Mg  Mg5  1  0.773654  0.000515  0.500000  1
  Pt  Pt6  1  0.000000  0.000842  0.000000  1
  Pb  Pb7  1  0.332333  0.665906  0.500000  1
  Pb  Pb8  1  0.667667  0.333572  0.500000  1
