# generated using pymatgen
data_Sc8Re2TcB24Rh
_symmetry_space_group_name_H-M   'P 1'
_cell_length_a   3.51367900
_cell_length_b   8.90084203
_cell_length_c   11.20475091
_cell_angle_alpha   90.08807775
_cell_angle_beta   90.00000000
_cell_angle_gamma   90.00000000
_symmetry_Int_Tables_number   1
_chemical_formula_structural   Sc8Re2TcB24Rh
_chemical_formula_sum   'Sc8 Re2 Tc1 B24 Rh1'
_cell_volume   350.42482851
_cell_formula_units_Z   1
loop_
 _symmetry_equiv_pos_site_id
 _symmetry_equiv_pos_as_xyz
  1  'x, y, z'
loop_
 _atom_site_type_symbol
 _atom_site_label
 _atom_site_symmetry_multiplicity
 _atom_site_fract_x
 _atom_site_fract_y
 _atom_site_fract_z
 _atom_site_occupancy
  Sc  Sc0  1  0.000000  0.945544  0.371392  1
  Sc  Sc1  1  0.000000  0.055065  0.627739  1
  Sc  Sc2  1  0.000000  0.555845  0.872097  1
  Sc  Sc3  1  0.000000  0.178936  0.911960  1
  Sc  Sc4  1  0.000000  0.825621  0.080613  1
  Sc  Sc5  1  0.000000  0.681870  0.591928  1
  Sc  Sc6  1  0.000000  0.313650  0.414964  1
  Sc  Sc7  1  0.000000  0.441484  0.127744  1
  Re  Re8  1  0.000000  0.361230  0.678470  1
  Re  Re9  1  0.000000  0.861057  0.820445  1
  Tc  Tc10  1  0.000000  0.139316  0.180549  1
  B  B11  1  0.500000  0.370479  0.817594  1
  B  B12  1  0.500000  0.979289  0.212340  1
  B  B13  1  0.500000  0.554453  0.435274  1
  B  B14  1  0.500000  0.295307  0.237360  1
  B  B15  1  0.500000  0.205076  0.735785  1
  B  B16  1  0.500000  0.098368  0.472389  1
  B  B17  1  0.500000  0.794169  0.263716  1
  B  B18  1  0.500000  0.446932  0.564162  1
  B  B19  1  0.500000  0.246444  0.578601  1
  B  B20  1  0.500000  0.480325  0.287486  1
  B  B21  1  0.500000  0.704910  0.764307  1
  B  B22  1  0.500000  0.752794  0.422157  1
  B  B23  1  0.500000  0.521094  0.712519  1
  B  B24  1  0.500000  0.898926  0.527040  1
  B  B25  1  0.500000  0.053103  0.065251  1
  B  B26  1  0.500000  0.599886  0.028039  1
  B  B27  1  0.500000  0.747137  0.921483  1
  B  B28  1  0.500000  0.020862  0.787062  1
  B  B29  1  0.500000  0.400997  0.973374  1
  B  B30  1  0.500000  0.947163  0.935044  1
  B  B31  1  0.500000  0.630622  0.181452  1
  B  B32  1  0.500000  0.252700  0.079002  1
  B  B33  1  0.500000  0.869802  0.682324  1
  B  B34  1  0.500000  0.130176  0.318144  1
  Rh  Rh35  1  0.000000  0.639368  0.320195  1
