# generated using pymatgen
data_Tm3In3Ni2Hg
_symmetry_space_group_name_H-M   'P 1'
_cell_length_a   7.78041300
_cell_length_b   7.78041248
_cell_length_c   3.64756000
_cell_angle_alpha   90.00000000
_cell_angle_beta   90.00000000
_cell_angle_gamma   119.99999795
_symmetry_Int_Tables_number   1
_chemical_formula_structural   Tm3In3Ni2Hg
_chemical_formula_sum   'Tm3 In3 Ni2 Hg1'
_cell_volume   191.22222089
_cell_formula_units_Z   1
loop_
 _symmetry_equiv_pos_site_id
 _symmetry_equiv_pos_as_xyz
  1  'x, y, z'
loop_
 _atom_site_type_symbol
 _atom_site_label
 _atom_site_symmetry_multiplicity
 _atom_site_fract_x
 _atom_site_fract_y
 _atom_site_fract_z
 _atom_site_occupancy
  Tm  Tm0  1  0.968249  0.579121  0.500000  1
  Tm  Tm1  1  0.420879  0.389129  0.500000  1
  Tm  Tm2  1  0.610871  0.031751  0.500000  1
  In  In3  1  0.252202  0.001019  0.000000  1
  In  In4  1  0.748818  0.747798  0.000000  1
  In  In5  1  0.998981  0.251182  0.000000  1
  Ni  Ni6  1  0.000000  0.000000  0.500000  1
  Ni  Ni7  1  0.666667  0.333333  0.000000  1
  Hg  Hg8  1  0.333333  0.666667  0.000000  1
