# generated using pymatgen
data_CaHoTh2(Al3Ir)6
_symmetry_space_group_name_H-M   'P 1'
_cell_length_a   7.61888455
_cell_length_b   7.61170463
_cell_length_c   9.51968200
_cell_angle_alpha   90.00000000
_cell_angle_beta   90.00000000
_cell_angle_gamma   119.40811301
_symmetry_Int_Tables_number   1
_chemical_formula_structural   CaHoTh2(Al3Ir)6
_chemical_formula_sum   'Ca1 Ho1 Th2 Al18 Ir6'
_cell_volume   480.93441543
_cell_formula_units_Z   1
loop_
 _symmetry_equiv_pos_site_id
 _symmetry_equiv_pos_as_xyz
  1  'x, y, z'
loop_
 _atom_site_type_symbol
 _atom_site_label
 _atom_site_symmetry_multiplicity
 _atom_site_fract_x
 _atom_site_fract_y
 _atom_site_fract_z
 _atom_site_occupancy
  Ca  Ca0  1  0.994828  0.672786  0.750000  1
  Ho  Ho1  1  0.673907  0.997992  0.750000  1
  Th  Th2  1  0.005114  0.328857  0.250000  1
  Th  Th3  1  0.327318  0.003438  0.250000  1
  Al  Al4  1  0.126130  0.127818  0.750000  1
  Al  Al5  1  0.865018  0.864407  0.250000  1
  Al  Al6  1  0.000406  0.337016  0.581311  1
  Al  Al7  1  0.993743  0.663993  0.431916  1
  Al  Al8  1  0.993743  0.663993  0.068084  1
  Al  Al9  1  0.335255  0.999190  0.918548  1
  Al  Al10  1  0.000406  0.337016  0.918689  1
  Al  Al11  1  0.664232  0.994210  0.070076  1
  Al  Al12  1  0.664232  0.994210  0.429924  1
  Al  Al13  1  0.335255  0.999190  0.581452  1
  Al  Al14  1  0.337052  0.336583  0.041358  1
  Al  Al15  1  0.668029  0.668131  0.944299  1
  Al  Al16  1  0.668029  0.668131  0.555701  1
  Al  Al17  1  0.337052  0.336583  0.458642  1
  Al  Al18  1  0.343507  0.553784  0.750000  1
  Al  Al19  1  0.660004  0.455966  0.250000  1
  Al  Al20  1  0.550608  0.338487  0.750000  1
  Al  Al21  1  0.456956  0.658951  0.250000  1
  Ir  Ir22  1  0.670410  0.325455  0.498559  1
  Ir  Ir23  1  0.328305  0.671590  0.497838  1
  Ir  Ir24  1  0.328305  0.671590  0.002162  1
  Ir  Ir25  1  0.670410  0.325455  0.001441  1
  Ir  Ir26  1  0.000871  0.002588  0.498073  1
  Ir  Ir27  1  0.000871  0.002588  0.001927  1
