# generated using pymatgen
data_Ce3In3IrPt2
_symmetry_space_group_name_H-M   'P 1'
_cell_length_a   7.71352300
_cell_length_b   7.71352200
_cell_length_c   4.03362300
_cell_angle_alpha   90.00000000
_cell_angle_beta   90.00000000
_cell_angle_gamma   120.00000002
_symmetry_Int_Tables_number   1
_chemical_formula_structural   Ce3In3IrPt2
_chemical_formula_sum   'Ce3 In3 Ir1 Pt2'
_cell_volume   207.84110250
_cell_formula_units_Z   1
loop_
 _symmetry_equiv_pos_site_id
 _symmetry_equiv_pos_as_xyz
  1  'x, y, z'
loop_
 _atom_site_type_symbol
 _atom_site_label
 _atom_site_symmetry_multiplicity
 _atom_site_fract_x
 _atom_site_fract_y
 _atom_site_fract_z
 _atom_site_occupancy
  Ce  Ce0  1  0.008615  0.590072  0.000000  1
  Ce  Ce1  1  0.409928  0.418543  0.000000  1
  Ce  Ce2  1  0.581457  0.991385  0.000000  1
  In  In3  1  0.746925  0.745840  0.500000  1
  In  In4  1  0.998914  0.253075  0.500000  1
  In  In5  1  0.254160  0.001086  0.500000  1
  Ir  Ir6  1  0.333333  0.666667  0.500000  1
  Pt  Pt7  1  0.000000  0.000000  0.000000  1
  Pt  Pt8  1  0.666667  0.333333  0.500000  1
