# generated using pymatgen
data_Hf6Rh9Au
_symmetry_space_group_name_H-M   'P 1'
_cell_length_a   5.58491076
_cell_length_b   10.99618339
_cell_length_c   4.36128900
_cell_angle_alpha   90.00000000
_cell_angle_beta   90.00000000
_cell_angle_gamma   91.33699550
_symmetry_Int_Tables_number   1
_chemical_formula_structural   Hf6Rh9Au
_chemical_formula_sum   'Hf6 Rh9 Au1'
_cell_volume   267.76562731
_cell_formula_units_Z   1
loop_
 _symmetry_equiv_pos_site_id
 _symmetry_equiv_pos_as_xyz
  1  'x, y, z'
loop_
 _atom_site_type_symbol
 _atom_site_label
 _atom_site_symmetry_multiplicity
 _atom_site_fract_x
 _atom_site_fract_y
 _atom_site_fract_z
 _atom_site_occupancy
  Hf  Hf0  1  0.010418  0.992212  0.000000  1
  Hf  Hf1  1  0.488995  0.502150  0.000000  1
  Hf  Hf2  1  0.364782  0.138807  0.500000  1
  Hf  Hf3  1  0.824641  0.362339  0.500000  1
  Hf  Hf4  1  0.154636  0.647026  0.500000  1
  Hf  Hf5  1  0.660627  0.852773  0.500000  1
  Rh  Rh6  1  0.510239  0.997232  0.000000  1
  Rh  Rh7  1  0.595292  0.255759  0.000000  1
  Rh  Rh8  1  0.990648  0.503852  0.000000  1
  Rh  Rh9  1  0.394843  0.739883  0.000000  1
  Rh  Rh10  1  0.894313  0.758869  0.000000  1
  Rh  Rh11  1  0.837402  0.108345  0.500000  1
  Rh  Rh12  1  0.313338  0.391038  0.500000  1
  Rh  Rh13  1  0.678208  0.607042  0.500000  1
  Rh  Rh14  1  0.188379  0.892797  0.500000  1
  Au  Au15  1  0.093243  0.249877  0.000000  1
