# generated using pymatgen
data_YHgIr2O7
_symmetry_space_group_name_H-M   'P 1'
_cell_length_a   7.28665999
_cell_length_b   7.44461280
_cell_length_c   7.28666027
_cell_angle_alpha   59.28030601
_cell_angle_beta   59.01703208
_cell_angle_gamma   59.28030164
_symmetry_Int_Tables_number   1
_chemical_formula_structural   YHgIr2O7
_chemical_formula_sum   'Y2 Hg2 Ir4 O14'
_cell_volume   274.35540868
_cell_formula_units_Z   2
loop_
 _symmetry_equiv_pos_site_id
 _symmetry_equiv_pos_as_xyz
  1  'x, y, z'
loop_
 _atom_site_type_symbol
 _atom_site_label
 _atom_site_symmetry_multiplicity
 _atom_site_fract_x
 _atom_site_fract_y
 _atom_site_fract_z
 _atom_site_occupancy
  Y  Y0  1  0.125000  0.625000  0.125000  1
  Y  Y1  1  0.125000  0.125000  0.125000  1
  Hg  Hg2  1  0.625000  0.125000  0.125000  1
  Hg  Hg3  1  0.125000  0.125000  0.625000  1
  Ir  Ir4  1  0.125000  0.625000  0.625000  1
  Ir  Ir5  1  0.625000  0.125000  0.625000  1
  Ir  Ir6  1  0.625000  0.625000  0.125000  1
  Ir  Ir7  1  0.625000  0.625000  0.625000  1
  O  O8  1  0.713652  0.690865  0.295363  1
  O  O9  1  0.295363  0.300120  0.713652  1
  O  O10  1  0.695919  0.304081  0.695919  1
  O  O11  1  0.288354  0.711646  0.288354  1
  O  O12  1  0.295363  0.690865  0.713652  1
  O  O13  1  0.713652  0.300120  0.295363  1
  O  O14  1  0.536348  0.559135  0.954637  1
  O  O15  1  0.954637  0.949880  0.536348  1
  O  O16  1  0.554081  0.945919  0.554081  1
  O  O17  1  0.961646  0.538354  0.961646  1
  O  O18  1  0.954637  0.559135  0.536348  1
  O  O19  1  0.536348  0.949880  0.954637  1
  O  O20  1  0.249604  0.250396  0.249604  1
  O  O21  1  0.000396  0.999604  0.000396  1
