# generated using pymatgen
data_La11NdIr3RuBr12
_symmetry_space_group_name_H-M   'P 1'
_cell_length_a   10.63998008
_cell_length_b   10.60354003
_cell_length_c   10.65387437
_cell_angle_alpha   109.16330569
_cell_angle_beta   110.10232810
_cell_angle_gamma   109.12437179
_symmetry_Int_Tables_number   1
_chemical_formula_structural   La11NdIr3RuBr12
_chemical_formula_sum   'La11 Nd1 Ir3 Ru1 Br12'
_cell_volume   925.49397877
_cell_formula_units_Z   1
loop_
 _symmetry_equiv_pos_site_id
 _symmetry_equiv_pos_as_xyz
  1  'x, y, z'
loop_
 _atom_site_type_symbol
 _atom_site_label
 _atom_site_symmetry_multiplicity
 _atom_site_fract_x
 _atom_site_fract_y
 _atom_site_fract_z
 _atom_site_occupancy
  La  La0  1  0.483745  0.751909  0.018381  1
  La  La1  1  0.234762  0.469426  0.484093  1
  La  La2  1  0.016071  0.030839  0.265237  1
  La  La3  1  0.232762  0.263008  0.746080  1
  La  La4  1  0.017849  0.485855  0.753556  1
  La  La5  1  0.484754  0.231919  0.466808  1
  La  La6  1  0.268358  0.013937  0.033234  1
  La  La7  1  0.752021  0.235611  0.266914  1
  La  La8  1  0.744452  0.013240  0.480860  1
  La  La9  1  0.467251  0.485180  0.232904  1
  La  La10  1  0.032318  0.266698  0.015855  1
  Nd  Nd11  1  0.266419  0.751618  0.235136  1
  Ir  Ir12  1  0.249462  0.498962  0.999676  1
  Ir  Ir13  1  0.000578  0.250160  0.499986  1
  Ir  Ir14  1  0.249682  0.250206  0.250001  1
  Ru  Ru15  1  0.500773  0.001295  0.250389  1
  Br  Br16  1  0.250221  0.991903  0.502934  1
  Br  Br17  1  0.509378  0.504508  0.755099  1
  Br  Br18  1  0.249577  0.755324  0.744978  1
  Br  Br19  1  0.991636  0.744747  0.998756  1
  Br  Br20  1  0.997065  0.507918  0.249786  1
  Br  Br21  1  0.744694  0.995441  0.990295  1
  Br  Br22  1  0.755153  0.744802  0.250579  1
  Br  Br23  1  0.501176  0.755346  0.508389  1
  Br  Br24  1  0.504519  0.249918  0.995407  1
  Br  Br25  1  0.754949  0.509653  0.504888  1
  Br  Br26  1  0.745135  0.249870  0.754591  1
  Br  Br27  1  0.995240  0.990707  0.745188  1
