# generated using pymatgen
data_YTh3(B10Ir)2
_symmetry_space_group_name_H-M   'P 1'
_cell_length_a   4.20169300
_cell_length_b   5.72308015
_cell_length_c   11.44546700
_cell_angle_alpha   90.00333715
_cell_angle_beta   90.00000000
_cell_angle_gamma   90.00000000
_symmetry_Int_Tables_number   1
_chemical_formula_structural   YTh3(B10Ir)2
_chemical_formula_sum   'Y1 Th3 B20 Ir2'
_cell_volume   275.22486167
_cell_formula_units_Z   1
loop_
 _symmetry_equiv_pos_site_id
 _symmetry_equiv_pos_as_xyz
  1  'x, y, z'
loop_
 _atom_site_type_symbol
 _atom_site_label
 _atom_site_symmetry_multiplicity
 _atom_site_fract_x
 _atom_site_fract_y
 _atom_site_fract_z
 _atom_site_occupancy
  Y  Y0  1  0.500000  0.301517  0.862662  1
  Th  Th1  1  0.500000  0.705181  0.134595  1
  Th  Th2  1  0.500000  0.797569  0.635933  1
  Th  Th3  1  0.500000  0.203206  0.363658  1
  B  B4  1  0.000000  0.118280  0.543963  1
  B  B5  1  0.000000  0.882903  0.456989  1
  B  B6  1  0.000000  0.617056  0.956328  1
  B  B7  1  0.000000  0.380882  0.042391  1
  B  B8  1  0.000000  0.137058  0.698155  1
  B  B9  1  0.000000  0.863175  0.302488  1
  B  B10  1  0.301576  0.216206  0.118608  1
  B  B11  1  0.301826  0.779203  0.881392  1
  B  B12  1  0.697912  0.716734  0.380671  1
  B  B13  1  0.697823  0.283051  0.621204  1
  B  B14  1  0.698174  0.779203  0.881392  1
  B  B15  1  0.698424  0.216206  0.118608  1
  B  B16  1  0.302177  0.283051  0.621204  1
  B  B17  1  0.302088  0.716734  0.380671  1
  B  B18  1  0.000000  0.053843  0.192746  1
  B  B19  1  0.000000  0.946274  0.807805  1
  B  B20  1  0.000000  0.553859  0.306313  1
  B  B21  1  0.000000  0.446458  0.693609  1
  B  B22  1  0.000000  0.363212  0.196504  1
  B  B23  1  0.000000  0.638504  0.802375  1
  Ir  Ir24  1  0.000000  0.500330  0.500876  1
  Ir  Ir25  1  0.000000  0.000300  0.998857  1
