# generated using pymatgen
data_Nd3GaGeRuRh
_symmetry_space_group_name_H-M   'P 1'
_cell_length_a   5.71450766
_cell_length_b   8.10447840
_cell_length_c   13.65188064
_cell_angle_alpha   90.05676191
_cell_angle_beta   90.32325902
_cell_angle_gamma   90.29786717
_symmetry_Int_Tables_number   1
_chemical_formula_structural   Nd3GaGeRuRh
_chemical_formula_sum   'Nd12 Ga4 Ge4 Ru4 Rh4'
_cell_volume   632.24203113
_cell_formula_units_Z   4
loop_
 _symmetry_equiv_pos_site_id
 _symmetry_equiv_pos_as_xyz
  1  'x, y, z'
loop_
 _atom_site_type_symbol
 _atom_site_label
 _atom_site_symmetry_multiplicity
 _atom_site_fract_x
 _atom_site_fract_y
 _atom_site_fract_z
 _atom_site_occupancy
  Nd  Nd0  1  0.631778  0.258308  0.252220  1
  Nd  Nd1  1  0.365539  0.745348  0.748954  1
  Nd  Nd2  1  0.363015  0.759324  0.247634  1
  Nd  Nd3  1  0.634692  0.239036  0.751027  1
  Nd  Nd4  1  0.148444  0.392434  0.099623  1
  Nd  Nd5  1  0.851000  0.605650  0.900285  1
  Nd  Nd6  1  0.850703  0.602410  0.599819  1
  Nd  Nd7  1  0.851311  0.893288  0.401441  1
  Nd  Nd8  1  0.148255  0.404243  0.399413  1
  Nd  Nd9  1  0.149882  0.099855  0.599513  1
  Nd  Nd10  1  0.151512  0.097288  0.900346  1
  Nd  Nd11  1  0.848133  0.904403  0.099642  1
  Ga  Ga12  1  0.630145  0.248166  0.999425  1
  Ga  Ga13  1  0.370503  0.751289  0.000278  1
  Ga  Ga14  1  0.374417  0.749626  0.499491  1
  Ga  Ga15  1  0.631787  0.250484  0.500543  1
  Ge  Ge16  1  0.132582  0.111003  0.251690  1
  Ge  Ge17  1  0.864279  0.889989  0.749244  1
  Ge  Ge18  1  0.861576  0.610623  0.248453  1
  Ge  Ge19  1  0.135379  0.389729  0.750835  1
  Ru  Ru20  1  0.359685  0.030978  0.093409  1
  Ru  Ru21  1  0.640815  0.967349  0.907873  1
  Ru  Ru22  1  0.642066  0.972177  0.591087  1
  Ru  Ru23  1  0.638456  0.527035  0.407406  1
  Rh  Rh24  1  0.360446  0.031389  0.407917  1
  Rh  Rh25  1  0.363819  0.468981  0.593441  1
  Rh  Rh26  1  0.363566  0.471709  0.907537  1
  Rh  Rh27  1  0.636217  0.527883  0.091452  1
