# generated using pymatgen
data_Sm12Ga3GeI12
_symmetry_space_group_name_H-M   'P 1'
_cell_length_a   10.74277307
_cell_length_b   10.73699562
_cell_length_c   10.73701419
_cell_angle_alpha   109.46026335
_cell_angle_beta   109.48201990
_cell_angle_gamma   109.48214664
_symmetry_Int_Tables_number   1
_chemical_formula_structural   Sm12Ga3GeI12
_chemical_formula_sum   'Sm12 Ga3 Ge1 I12'
_cell_volume   953.24178420
_cell_formula_units_Z   1
loop_
 _symmetry_equiv_pos_site_id
 _symmetry_equiv_pos_as_xyz
  1  'x, y, z'
loop_
 _atom_site_type_symbol
 _atom_site_label
 _atom_site_symmetry_multiplicity
 _atom_site_fract_x
 _atom_site_fract_y
 _atom_site_fract_z
 _atom_site_occupancy
  Sm  Sm0  1  0.468355  0.483965  0.233985  1
  Sm  Sm1  1  0.750000  0.234441  0.265559  1
  Sm  Sm2  1  0.750001  0.015499  0.484500  1
  Sm  Sm3  1  0.234501  0.469001  0.484501  1
  Sm  Sm4  1  0.265630  0.750018  0.233984  1
  Sm  Sm5  1  0.031644  0.266014  0.016034  1
  Sm  Sm6  1  0.015557  0.031117  0.265558  1
  Sm  Sm7  1  0.484388  0.750019  0.016035  1
  Sm  Sm8  1  0.484443  0.234443  0.468883  1
  Sm  Sm9  1  0.015612  0.483968  0.749982  1
  Sm  Sm10  1  0.265499  0.015499  0.031000  1
  Sm  Sm11  1  0.234369  0.266011  0.749978  1
  Ga  Ga12  1  0.250000  0.250345  0.249658  1
  Ga  Ga13  1  0.499657  0.999316  0.249659  1
  Ga  Ga14  1  0.000343  0.250342  0.500685  1
  Ge  Ge15  1  0.249998  0.499996  0.999997  1
  I  I16  1  0.250000  0.756760  0.743242  1
  I  I17  1  0.514051  0.507214  0.757577  1
  I  I18  1  0.985949  0.742424  0.992787  1
  I  I19  1  0.743525  0.250363  0.757576  1
  I  I20  1  0.993241  0.986482  0.743240  1
  I  I21  1  0.250000  0.992841  0.507160  1
  I  I22  1  0.757161  0.514320  0.507160  1
  I  I23  1  0.506838  0.250362  0.992787  1
  I  I24  1  0.756475  0.742425  0.249637  1
  I  I25  1  0.742840  0.992841  0.985681  1
  I  I26  1  0.993163  0.507212  0.249637  1
  I  I27  1  0.506759  0.756760  0.513519  1
