# generated using pymatgen
data_YSiPtRh
_symmetry_space_group_name_H-M   'P 1'
_cell_length_a   9.21681413
_cell_length_b   9.21681402
_cell_length_c   4.09499700
_cell_angle_alpha   90.00000000
_cell_angle_beta   90.00000000
_cell_angle_gamma   154.99713830
_symmetry_Int_Tables_number   1
_chemical_formula_structural   YSiPtRh
_chemical_formula_sum   'Y2 Si2 Pt2 Rh2'
_cell_volume   147.03137373
_cell_formula_units_Z   2
loop_
 _symmetry_equiv_pos_site_id
 _symmetry_equiv_pos_as_xyz
  1  'x, y, z'
loop_
 _atom_site_type_symbol
 _atom_site_label
 _atom_site_symmetry_multiplicity
 _atom_site_fract_x
 _atom_site_fract_y
 _atom_site_fract_z
 _atom_site_occupancy
  Y  Y0  1  0.103751  0.896249  0.750000  1
  Y  Y1  1  0.896249  0.103751  0.250000  1
  Si  Si2  1  0.320824  0.679176  0.750000  1
  Si  Si3  1  0.679176  0.320824  0.250000  1
  Pt  Pt4  1  0.548326  0.451674  0.250000  1
  Pt  Pt5  1  0.451674  0.548326  0.750000  1
  Rh  Rh6  1  0.250437  0.749563  0.250000  1
  Rh  Rh7  1  0.749563  0.250437  0.750000  1
