# generated using pymatgen
data_Lu12Mn2InTcPb
_symmetry_space_group_name_H-M   'P 1'
_cell_length_a   8.22910873
_cell_length_b   8.22856233
_cell_length_c   8.22910763
_cell_angle_alpha   108.70590608
_cell_angle_beta   108.58857951
_cell_angle_gamma   111.13483361
_symmetry_Int_Tables_number   1
_chemical_formula_structural   Lu12Mn2InTcPb
_chemical_formula_sum   'Lu12 Mn2 In1 Tc1 Pb1'
_cell_volume   428.66421839
_cell_formula_units_Z   1
loop_
 _symmetry_equiv_pos_site_id
 _symmetry_equiv_pos_as_xyz
  1  'x, y, z'
loop_
 _atom_site_type_symbol
 _atom_site_label
 _atom_site_symmetry_multiplicity
 _atom_site_fract_x
 _atom_site_fract_y
 _atom_site_fract_z
 _atom_site_occupancy
  Lu  Lu0  1  0.309671  0.306169  0.615896  1
  Lu  Lu1  1  0.690329  0.693831  0.384104  1
  Lu  Lu2  1  0.690274  0.306169  0.996499  1
  Lu  Lu3  1  0.309726  0.693831  0.003501  1
  Lu  Lu4  1  0.193471  0.430345  0.236874  1
  Lu  Lu5  1  0.806529  0.569655  0.763126  1
  Lu  Lu6  1  0.193370  0.956552  0.763184  1
  Lu  Lu7  1  0.953757  0.191541  0.762275  1
  Lu  Lu8  1  0.806630  0.043448  0.236816  1
  Lu  Lu9  1  0.046243  0.808459  0.237725  1
  Lu  Lu10  1  0.429266  0.191541  0.237784  1
  Lu  Lu11  1  0.570734  0.808459  0.762216  1
  Mn  Mn12  1  0.384197  0.384205  0.000008  1
  Mn  Mn13  1  0.615803  0.615795  0.999992  1
  In  In14  1  0.500000  0.000000  0.500000  1
  Tc  Tc15  1  0.000000  0.000000  0.000000  1
  Pb  Pb16  1  0.000000  0.500000  0.500000  1
