# generated using pymatgen
data_Ac2US5
_symmetry_space_group_name_H-M   'P 1'
_cell_length_a   7.75763100
_cell_length_b   8.42068300
_cell_length_c   12.34564600
_cell_angle_alpha   90.00000000
_cell_angle_beta   90.00000000
_cell_angle_gamma   90.00000000
_symmetry_Int_Tables_number   1
_chemical_formula_structural   Ac2US5
_chemical_formula_sum   'Ac8 U4 S20'
_cell_volume   806.47378771
_cell_formula_units_Z   4
loop_
 _symmetry_equiv_pos_site_id
 _symmetry_equiv_pos_as_xyz
  1  'x, y, z'
loop_
 _atom_site_type_symbol
 _atom_site_label
 _atom_site_symmetry_multiplicity
 _atom_site_fract_x
 _atom_site_fract_y
 _atom_site_fract_z
 _atom_site_occupancy
  Ac  Ac0  1  0.529426  0.501460  0.325131  1
  Ac  Ac1  1  0.970574  0.998540  0.825131  1
  Ac  Ac2  1  0.470574  0.001460  0.674869  1
  Ac  Ac3  1  0.029426  0.498540  0.174869  1
  Ac  Ac4  1  0.470574  0.498540  0.674869  1
  Ac  Ac5  1  0.029426  0.001460  0.174869  1
  Ac  Ac6  1  0.529426  0.998540  0.325131  1
  Ac  Ac7  1  0.970574  0.501460  0.825131  1
  U  U8  1  0.062390  0.750000  0.493408  1
  U  U9  1  0.437610  0.750000  0.993408  1
  U  U10  1  0.937610  0.250000  0.506592  1
  U  U11  1  0.562390  0.250000  0.006592  1
  S  S12  1  0.841901  0.964235  0.589513  1
  S  S13  1  0.658099  0.535765  0.089513  1
  S  S14  1  0.158099  0.464235  0.410487  1
  S  S15  1  0.341901  0.035765  0.910487  1
  S  S16  1  0.158099  0.035765  0.410487  1
  S  S17  1  0.341901  0.464235  0.910487  1
  S  S18  1  0.841901  0.535765  0.589513  1
  S  S19  1  0.658099  0.964235  0.089513  1
  S  S20  1  0.837992  0.750000  0.314869  1
  S  S21  1  0.662008  0.750000  0.814869  1
  S  S22  1  0.162008  0.250000  0.685131  1
  S  S23  1  0.337992  0.250000  0.185131  1
  S  S24  1  0.444463  0.750000  0.496977  1
  S  S25  1  0.055537  0.750000  0.996977  1
  S  S26  1  0.555537  0.250000  0.503023  1
  S  S27  1  0.944463  0.250000  0.003023  1
  S  S28  1  0.186657  0.750000  0.709131  1
  S  S29  1  0.313343  0.750000  0.209131  1
  S  S30  1  0.813343  0.250000  0.290869  1
  S  S31  1  0.686657  0.250000  0.790869  1
