# generated using pymatgen
data_Er2Al16Pt9
_symmetry_space_group_name_H-M   'P 1'
_cell_length_a   11.14037102
_cell_length_b   11.14037154
_cell_length_c   11.14037199
_cell_angle_alpha   158.66949354
_cell_angle_beta   115.09713401
_cell_angle_gamma   69.16660147
_symmetry_Int_Tables_number   1
_chemical_formula_structural   Er2Al16Pt9
_chemical_formula_sum   'Er2 Al16 Pt9'
_cell_volume   452.16178115
_cell_formula_units_Z   1
loop_
 _symmetry_equiv_pos_site_id
 _symmetry_equiv_pos_as_xyz
  1  'x, y, z'
loop_
 _atom_site_type_symbol
 _atom_site_label
 _atom_site_symmetry_multiplicity
 _atom_site_fract_x
 _atom_site_fract_y
 _atom_site_fract_z
 _atom_site_occupancy
  Er  Er0  1  0.228361  0.228361  0.000000  1
  Er  Er1  1  0.771639  0.771639  0.000000  1
  Al  Al2  1  0.270850  0.390979  0.879871  1
  Al  Al3  1  0.091579  0.920141  0.171438  1
  Al  Al4  1  0.513314  0.204412  0.308903  1
  Al  Al5  1  0.251297  0.079859  0.171438  1
  Al  Al6  1  0.912634  0.412634  0.500000  1
  Al  Al7  1  0.729150  0.609021  0.120129  1
  Al  Al8  1  0.895509  0.204412  0.691097  1
  Al  Al9  1  0.486686  0.795588  0.691097  1
  Al  Al10  1  0.386174  0.000000  0.386174  1
  Al  Al11  1  0.613826  0.000000  0.613826  1
  Al  Al12  1  0.488892  0.609021  0.879871  1
  Al  Al13  1  0.104491  0.795588  0.308903  1
  Al  Al14  1  0.908421  0.079859  0.828562  1
  Al  Al15  1  0.748703  0.920141  0.828562  1
  Al  Al16  1  0.511108  0.390979  0.120129  1
  Al  Al17  1  0.087366  0.587366  0.500000  1
  Pt  Pt18  1  0.748332  0.500000  0.248332  1
  Pt  Pt19  1  0.021692  0.339014  0.682678  1
  Pt  Pt20  1  0.627292  0.127292  0.500000  1
  Pt  Pt21  1  0.251668  0.500000  0.751668  1
  Pt  Pt22  1  0.372708  0.872708  0.500000  1
  Pt  Pt23  1  0.000000  0.000000  0.000000  1
  Pt  Pt24  1  0.656336  0.339014  0.317322  1
  Pt  Pt25  1  0.343664  0.660986  0.682678  1
  Pt  Pt26  1  0.978308  0.660986  0.317322  1
