# generated using pymatgen
data_CeYZn2FeCo14
_symmetry_space_group_name_H-M   'P 1'
_cell_length_a   6.34662028
_cell_length_b   6.33415087
_cell_length_c   6.33415243
_cell_angle_alpha   83.27860737
_cell_angle_beta   82.94360283
_cell_angle_gamma   82.94359619
_symmetry_Int_Tables_number   1
_chemical_formula_structural   CeYZn2FeCo14
_chemical_formula_sum   'Ce1 Y1 Zn2 Fe1 Co14'
_cell_volume   249.44579557
_cell_formula_units_Z   1
loop_
 _symmetry_equiv_pos_site_id
 _symmetry_equiv_pos_as_xyz
  1  'x, y, z'
loop_
 _atom_site_type_symbol
 _atom_site_label
 _atom_site_symmetry_multiplicity
 _atom_site_fract_x
 _atom_site_fract_y
 _atom_site_fract_z
 _atom_site_occupancy
  Ce  Ce0  1  0.669995  0.656256  0.656256  1
  Y  Y1  1  0.342726  0.342664  0.342664  1
  Zn  Zn2  1  0.348265  0.847152  0.347922  1
  Zn  Zn3  1  0.348265  0.347922  0.847152  1
  Fe  Fe4  1  0.086665  0.097120  0.097120  1
  Co  Co5  1  0.846329  0.348442  0.348442  1
  Co  Co6  1  0.658590  0.138544  0.653479  1
  Co  Co7  1  0.658590  0.653479  0.138544  1
  Co  Co8  1  0.137247  0.657345  0.657345  1
  Co  Co9  1  0.716492  0.288555  0.999895  1
  Co  Co10  1  0.994343  0.709570  0.291185  1
  Co  Co11  1  0.286673  0.997106  0.715868  1
  Co  Co12  1  0.994343  0.291185  0.709570  1
  Co  Co13  1  0.716492  0.999895  0.288555  1
  Co  Co14  1  0.286673  0.715868  0.997106  1
  Co  Co15  1  0.999017  0.003181  0.503335  1
  Co  Co16  1  0.506293  0.998687  0.998687  1
  Co  Co17  1  0.999017  0.503335  0.003181  1
  Co  Co18  1  0.903989  0.903694  0.903694  1
