# generated using pymatgen
data_Tm6Al17Si7Os8
_symmetry_space_group_name_H-M   'P 1'
_cell_length_a   8.66454997
_cell_length_b   8.65492685
_cell_length_c   9.44734000
_cell_angle_alpha   90.00000000
_cell_angle_beta   90.00000000
_cell_angle_gamma   120.09108577
_symmetry_Int_Tables_number   1
_chemical_formula_structural   Tm6Al17Si7Os8
_chemical_formula_sum   'Tm6 Al17 Si7 Os8'
_cell_volume   612.98556010
_cell_formula_units_Z   1
loop_
 _symmetry_equiv_pos_site_id
 _symmetry_equiv_pos_as_xyz
  1  'x, y, z'
loop_
 _atom_site_type_symbol
 _atom_site_label
 _atom_site_symmetry_multiplicity
 _atom_site_fract_x
 _atom_site_fract_y
 _atom_site_fract_z
 _atom_site_occupancy
  Tm  Tm0  1  0.193705  0.390119  0.250000  1
  Tm  Tm1  1  0.806067  0.612207  0.750000  1
  Tm  Tm2  1  0.609062  0.806378  0.250000  1
  Tm  Tm3  1  0.389718  0.191994  0.750000  1
  Tm  Tm4  1  0.196607  0.804505  0.250000  1
  Tm  Tm5  1  0.801792  0.192557  0.750000  1
  Al  Al6  1  0.164119  0.329031  0.579052  1
  Al  Al7  1  0.834325  0.671483  0.420494  1
  Al  Al8  1  0.671783  0.835193  0.578618  1
  Al  Al9  1  0.834325  0.671483  0.079506  1
  Al  Al10  1  0.329467  0.165966  0.421596  1
  Al  Al11  1  0.164119  0.329031  0.920948  1
  Al  Al12  1  0.163509  0.834442  0.577700  1
  Al  Al13  1  0.329467  0.165966  0.078404  1
  Al  Al14  1  0.835628  0.164147  0.420701  1
  Al  Al15  1  0.671783  0.835193  0.921382  1
  Al  Al16  1  0.835628  0.164147  0.079299  1
  Al  Al17  1  0.163509  0.834442  0.922300  1
  Al  Al18  1  0.125251  0.565011  0.750000  1
  Al  Al19  1  0.564336  0.435419  0.250000  1
  Al  Al20  1  0.438809  0.565863  0.750000  1
  Al  Al21  1  0.999453  0.999388  0.250000  1
  Al  Al22  1  0.000016  0.000826  0.750000  1
  Si  Si23  1  0.333536  0.664839  0.039620  1
  Si  Si24  1  0.666637  0.335566  0.959315  1
  Si  Si25  1  0.666637  0.335566  0.540685  1
  Si  Si26  1  0.333536  0.664839  0.460380  1
  Si  Si27  1  0.564170  0.123952  0.250000  1
  Si  Si28  1  0.436819  0.873637  0.750000  1
  Si  Si29  1  0.875213  0.435426  0.250000  1
  Os  Os30  1  0.501004  0.001030  0.001087  1
  Os  Os31  1  0.998273  0.499292  0.006615  1
  Os  Os32  1  0.501004  0.001030  0.498913  1
  Os  Os33  1  0.500643  0.500135  0.000400  1
  Os  Os34  1  0.998273  0.499292  0.493385  1
  Os  Os35  1  0.500643  0.500135  0.499600  1
  Os  Os36  1  0.000567  0.000234  0.000057  1
  Os  Os37  1  0.000567  0.000234  0.499943  1
