# generated using pymatgen
data_Tb4HoTcMoO12
_symmetry_space_group_name_H-M   'P 1'
_cell_length_a   6.84093734
_cell_length_b   6.84093577
_cell_length_c   7.53566920
_cell_angle_alpha   73.85052501
_cell_angle_beta   73.85052939
_cell_angle_gamma   50.12365025
_symmetry_Int_Tables_number   1
_chemical_formula_structural   Tb4HoTcMoO12
_chemical_formula_sum   'Tb4 Ho1 Tc1 Mo1 O12'
_cell_volume   257.56585210
_cell_formula_units_Z   1
loop_
 _symmetry_equiv_pos_site_id
 _symmetry_equiv_pos_as_xyz
  1  'x, y, z'
loop_
 _atom_site_type_symbol
 _atom_site_label
 _atom_site_symmetry_multiplicity
 _atom_site_fract_x
 _atom_site_fract_y
 _atom_site_fract_z
 _atom_site_occupancy
  Tb  Tb0  1  0.314111  0.294292  0.359770  1
  Tb  Tb1  1  0.705708  0.685889  0.640230  1
  Tb  Tb2  1  0.317563  0.309335  0.824169  1
  Tb  Tb3  1  0.690665  0.682437  0.175831  1
  Ho  Ho4  1  0.006662  0.993338  0.500000  1
  Tc  Tc5  1  0.766391  0.233609  0.000000  1
  Mo  Mo6  1  0.209635  0.790365  0.000000  1
  O  O7  1  0.910472  0.428217  0.914814  1
  O  O8  1  0.416138  0.904800  0.916347  1
  O  O9  1  0.095200  0.583862  0.083653  1
  O  O10  1  0.571783  0.089528  0.085186  1
  O  O11  1  0.104990  0.593305  0.570898  1
  O  O12  1  0.600251  0.090208  0.575729  1
  O  O13  1  0.909792  0.399749  0.424271  1
  O  O14  1  0.406695  0.895010  0.429102  1
  O  O15  1  0.991634  0.005470  0.797665  1
  O  O16  1  0.994530  0.008366  0.202335  1
  O  O17  1  0.494090  0.506309  0.820943  1
  O  O18  1  0.493691  0.505910  0.179057  1
