# generated using pymatgen
data_Tb3Ho(Si2Os)2
_symmetry_space_group_name_H-M   'P 1'
_cell_length_a   5.75723681
_cell_length_b   5.75723753
_cell_length_c   10.06819458
_cell_angle_alpha   116.91381838
_cell_angle_beta   116.91382342
_cell_angle_gamma   43.10809015
_symmetry_Int_Tables_number   1
_chemical_formula_structural   Tb3Ho(Si2Os)2
_chemical_formula_sum   'Tb3 Ho1 Si4 Os2'
_cell_volume   199.22423546
_cell_formula_units_Z   1
loop_
 _symmetry_equiv_pos_site_id
 _symmetry_equiv_pos_as_xyz
  1  'x, y, z'
loop_
 _atom_site_type_symbol
 _atom_site_label
 _atom_site_symmetry_multiplicity
 _atom_site_fract_x
 _atom_site_fract_y
 _atom_site_fract_z
 _atom_site_occupancy
  Tb  Tb0  1  0.814286  0.814286  0.388891  1
  Tb  Tb1  1  0.185503  0.185503  0.610754  1
  Tb  Tb2  1  0.991341  0.991341  0.821086  1
  Ho  Ho3  1  0.007876  0.007876  0.178247  1
  Si  Si4  1  0.645042  0.645042  0.061105  1
  Si  Si5  1  0.502514  0.502514  0.374359  1
  Si  Si6  1  0.498123  0.498123  0.624870  1
  Si  Si7  1  0.355002  0.355002  0.939568  1
  Os  Os8  1  0.271490  0.271490  0.127007  1
  Os  Os9  1  0.728823  0.728823  0.874114  1
