# generated using pymatgen
data_SmEr3(Si5Pt3)2
_symmetry_space_group_name_H-M   'P 1'
_cell_length_a   8.14050297
_cell_length_b   8.14614709
_cell_length_c   8.14614666
_cell_angle_alpha   136.24134587
_cell_angle_beta   104.51327659
_cell_angle_gamma   91.56601850
_symmetry_Int_Tables_number   1
_chemical_formula_structural   SmEr3(Si5Pt3)2
_chemical_formula_sum   'Sm1 Er3 Si10 Pt6'
_cell_volume   343.73908252
_cell_formula_units_Z   1
loop_
 _symmetry_equiv_pos_site_id
 _symmetry_equiv_pos_as_xyz
  1  'x, y, z'
loop_
 _atom_site_type_symbol
 _atom_site_label
 _atom_site_symmetry_multiplicity
 _atom_site_fract_x
 _atom_site_fract_y
 _atom_site_fract_z
 _atom_site_occupancy
  Sm  Sm0  1  0.899169  0.129199  0.769970  1
  Er  Er1  1  0.642058  0.370282  0.271776  1
  Er  Er2  1  0.358416  0.629885  0.728531  1
  Er  Er3  1  0.098888  0.870182  0.228706  1
  Si  Si4  1  0.272719  0.522098  0.250558  1
  Si  Si5  1  0.728310  0.478164  0.749721  1
  Si  Si6  1  0.728310  0.978589  0.250147  1
  Si  Si7  1  0.272719  0.022161  0.750621  1
  Si  Si8  1  0.460312  0.111565  0.348747  1
  Si  Si9  1  0.537442  0.886475  0.650967  1
  Si  Si10  1  0.763497  0.611723  0.151774  1
  Si  Si11  1  0.237543  0.389465  0.848078  1
  Si  Si12  1  0.000123  0.249188  0.249567  1
  Si  Si13  1  0.000123  0.750556  0.750934  1
  Pt  Pt14  1  0.251439  0.137767  0.113672  1
  Pt  Pt15  1  0.748222  0.861140  0.887083  1
  Pt  Pt16  1  0.025538  0.637540  0.387998  1
  Pt  Pt17  1  0.976411  0.364298  0.612113  1
  Pt  Pt18  1  0.499380  0.250420  0.750076  1
  Pt  Pt19  1  0.499380  0.749304  0.248960  1
