# generated using pymatgen
data_TiVRh3Se8
_symmetry_space_group_name_H-M   'P 1'
_cell_length_a   6.87548460
_cell_length_b   6.95703919
_cell_length_c   8.51982494
_cell_angle_alpha   52.95239096
_cell_angle_beta   54.11819822
_cell_angle_gamma   61.45286672
_symmetry_Int_Tables_number   1
_chemical_formula_structural   TiVRh3Se8
_chemical_formula_sum   'Ti1 V1 Rh3 Se8'
_cell_volume   258.58626515
_cell_formula_units_Z   1
loop_
 _symmetry_equiv_pos_site_id
 _symmetry_equiv_pos_as_xyz
  1  'x, y, z'
loop_
 _atom_site_type_symbol
 _atom_site_label
 _atom_site_symmetry_multiplicity
 _atom_site_fract_x
 _atom_site_fract_y
 _atom_site_fract_z
 _atom_site_occupancy
  Ti  Ti0  1  0.755514  0.696731  0.041060  1
  V  V1  1  0.289251  0.684202  0.517404  1
  Rh  Rh2  1  0.987627  0.998397  0.990513  1
  Rh  Rh3  1  0.253807  0.299221  0.972863  1
  Rh  Rh4  1  0.723141  0.296267  0.484944  1
  Se  Se5  1  0.528609  0.031426  0.174000  1
  Se  Se6  1  0.451300  0.985798  0.834238  1
  Se  Se7  1  0.950640  0.453513  0.824830  1
  Se  Se8  1  0.062616  0.541332  0.179331  1
  Se  Se9  1  0.984658  0.994188  0.317302  1
  Se  Se10  1  0.018725  0.012207  0.670725  1
  Se  Se11  1  0.432049  0.443190  0.336840  1
  Se  Se12  1  0.562064  0.563528  0.655950  1
