# generated using pymatgen
data_LiNdLuSi3Ag
_symmetry_space_group_name_H-M   'P 1'
_cell_length_a   9.27375791
_cell_length_b   9.27375792
_cell_length_c   6.98410800
_cell_angle_alpha   90.00000000
_cell_angle_beta   90.00000000
_cell_angle_gamma   153.52694718
_symmetry_Int_Tables_number   1
_chemical_formula_structural   LiNdLuSi3Ag
_chemical_formula_sum   'Li2 Nd2 Lu2 Si6 Ag2'
_cell_volume   267.75647248
_cell_formula_units_Z   2
loop_
 _symmetry_equiv_pos_site_id
 _symmetry_equiv_pos_as_xyz
  1  'x, y, z'
loop_
 _atom_site_type_symbol
 _atom_site_label
 _atom_site_symmetry_multiplicity
 _atom_site_fract_x
 _atom_site_fract_y
 _atom_site_fract_z
 _atom_site_occupancy
  Li  Li0  1  0.808017  0.191983  0.939401  1
  Li  Li1  1  0.808017  0.191983  0.560599  1
  Nd  Nd2  1  0.555070  0.444930  0.250000  1
  Nd  Nd3  1  0.446333  0.553667  0.750000  1
  Lu  Lu4  1  0.347415  0.652585  0.250000  1
  Lu  Lu5  1  0.651829  0.348171  0.750000  1
  Si  Si6  1  0.727650  0.272350  0.250000  1
  Si  Si7  1  0.277354  0.722646  0.750000  1
  Si  Si8  1  0.057975  0.942025  0.921912  1
  Si  Si9  1  0.939459  0.060541  0.077595  1
  Si  Si10  1  0.939459  0.060541  0.422405  1
  Si  Si11  1  0.057975  0.942025  0.578088  1
  Ag  Ag12  1  0.191723  0.808277  0.048105  1
  Ag  Ag13  1  0.191723  0.808277  0.451895  1
