# generated using pymatgen
data_Yb3Lu(Pt2O7)2
_symmetry_space_group_name_H-M   'P 1'
_cell_length_a   7.23438235
_cell_length_b   7.23438209
_cell_length_c   7.21993823
_cell_angle_alpha   59.93379613
_cell_angle_beta   59.93379657
_cell_angle_gamma   59.99999461
_symmetry_Int_Tables_number   1
_chemical_formula_structural   Yb3Lu(Pt2O7)2
_chemical_formula_sum   'Yb3 Lu1 Pt4 O14'
_cell_volume   266.92303725
_cell_formula_units_Z   1
loop_
 _symmetry_equiv_pos_site_id
 _symmetry_equiv_pos_as_xyz
  1  'x, y, z'
loop_
 _atom_site_type_symbol
 _atom_site_label
 _atom_site_symmetry_multiplicity
 _atom_site_fract_x
 _atom_site_fract_y
 _atom_site_fract_z
 _atom_site_occupancy
  Yb  Yb0  1  0.625000  0.625000  0.625000  1
  Yb  Yb1  1  0.625000  0.125000  0.625000  1
  Yb  Yb2  1  0.125000  0.625000  0.625000  1
  Lu  Lu3  1  0.625000  0.625000  0.125000  1
  Pt  Pt4  1  0.125000  0.125000  0.125000  1
  Pt  Pt5  1  0.625000  0.125000  0.125000  1
  Pt  Pt6  1  0.125000  0.125000  0.625000  1
  Pt  Pt7  1  0.125000  0.625000  0.125000  1
  O  O8  1  0.041602  0.459082  0.457714  1
  O  O9  1  0.789301  0.789301  0.201950  1
  O  O10  1  0.789301  0.219449  0.201950  1
  O  O11  1  0.459082  0.041602  0.457714  1
  O  O12  1  0.745338  0.745338  0.763987  1
  O  O13  1  0.030551  0.460699  0.048050  1
  O  O14  1  0.041602  0.041602  0.457714  1
  O  O15  1  0.219449  0.789301  0.201950  1
  O  O16  1  0.208398  0.208398  0.792286  1
  O  O17  1  0.790918  0.208398  0.792286  1
  O  O18  1  0.504662  0.504662  0.486013  1
  O  O19  1  0.460699  0.030551  0.048050  1
  O  O20  1  0.460699  0.460699  0.048050  1
  O  O21  1  0.208398  0.790918  0.792286  1
