# generated using pymatgen
data_LiNd4Y(P2Ru3)6
_symmetry_space_group_name_H-M   'P 1'
_cell_length_a   12.71824752
_cell_length_b   12.52839070
_cell_length_c   4.00442200
_cell_angle_alpha   90.00000000
_cell_angle_beta   90.00000000
_cell_angle_gamma   119.50998848
_symmetry_Int_Tables_number   1
_chemical_formula_structural   LiNd4Y(P2Ru3)6
_chemical_formula_sum   'Li1 Nd4 Y1 P12 Ru18'
_cell_volume   555.28549840
_cell_formula_units_Z   1
loop_
 _symmetry_equiv_pos_site_id
 _symmetry_equiv_pos_as_xyz
  1  'x, y, z'
loop_
 _atom_site_type_symbol
 _atom_site_label
 _atom_site_symmetry_multiplicity
 _atom_site_fract_x
 _atom_site_fract_y
 _atom_site_fract_z
 _atom_site_occupancy
  Li  Li0  1  0.999917  0.562086  0.000000  1
  Nd  Nd1  1  0.999854  0.182548  0.500000  1
  Nd  Nd2  1  0.816821  0.813793  0.500000  1
  Nd  Nd3  1  0.183469  0.997329  0.500000  1
  Nd  Nd4  1  0.659064  0.329604  0.000000  1
  Y  Y5  1  0.341327  0.670182  0.000000  1
  P  P6  1  0.001171  0.804676  0.000000  1
  P  P7  1  0.184252  0.186796  0.000000  1
  P  P8  1  0.814924  0.000594  0.000000  1
  P  P9  1  0.692169  0.171316  0.500000  1
  P  P10  1  0.819690  0.520836  0.500000  1
  P  P11  1  0.471102  0.305269  0.500000  1
  P  P12  1  0.182799  0.700800  0.500000  1
  P  P13  1  0.526655  0.831483  0.500000  1
  P  P14  1  0.307155  0.481757  0.500000  1
  P  P15  1  0.999571  0.369711  0.000000  1
  P  P16  1  0.624224  0.623870  0.000000  1
  P  P17  1  0.375972  0.999950  0.000000  1
  Ru  Ru18  1  0.443516  0.445219  0.000000  1
  Ru  Ru19  1  0.556504  0.001611  0.000000  1
  Ru  Ru20  1  0.001202  0.708477  0.500000  1
  Ru  Ru21  1  0.281598  0.286181  0.500000  1
  Ru  Ru22  1  0.717372  0.002003  0.500000  1
  Ru  Ru23  1  0.804789  0.186567  0.000000  1
  Ru  Ru24  1  0.813443  0.617736  0.000000  1
  Ru  Ru25  1  0.373194  0.191099  0.000000  1
  Ru  Ru26  1  0.188737  0.803635  0.000000  1
  Ru  Ru27  1  0.624446  0.815965  0.000000  1
  Ru  Ru28  1  0.195622  0.384320  0.000000  1
  Ru  Ru29  1  0.878212  0.368630  0.500000  1
  Ru  Ru30  1  0.629604  0.509452  0.500000  1
  Ru  Ru31  1  0.490549  0.125898  0.500000  1
  Ru  Ru32  1  0.371310  0.877425  0.500000  1
  Ru  Ru33  1  0.506196  0.634702  0.500000  1
  Ru  Ru34  1  0.123611  0.492927  0.500000  1
  Ru  Ru35  1  0.999958  0.995553  0.000000  1
