# generated using pymatgen
data_Tb5Y5(AlSb2)2
_symmetry_space_group_name_H-M   'P 1'
_cell_length_a   8.93539488
_cell_length_b   8.93539531
_cell_length_c   6.45072500
_cell_angle_alpha   90.00009403
_cell_angle_beta   90.00009030
_cell_angle_gamma   120.02620280
_symmetry_Int_Tables_number   1
_chemical_formula_structural   Tb5Y5(AlSb2)2
_chemical_formula_sum   'Tb5 Y5 Al2 Sb4'
_cell_volume   445.91486495
_cell_formula_units_Z   1
loop_
 _symmetry_equiv_pos_site_id
 _symmetry_equiv_pos_as_xyz
  1  'x, y, z'
loop_
 _atom_site_type_symbol
 _atom_site_label
 _atom_site_symmetry_multiplicity
 _atom_site_fract_x
 _atom_site_fract_y
 _atom_site_fract_z
 _atom_site_occupancy
  Tb  Tb0  1  0.668583  0.329269  0.503934  1
  Tb  Tb1  1  0.329269  0.668583  0.503934  1
  Tb  Tb2  1  0.329265  0.668577  0.996064  1
  Tb  Tb3  1  0.668577  0.329265  0.996064  1
  Tb  Tb4  1  0.757952  0.757952  0.249999  1
  Y  Y5  1  0.240001  0.998813  0.250002  1
  Y  Y6  1  0.998813  0.240001  0.250002  1
  Y  Y7  1  0.237531  0.237531  0.749999  1
  Y  Y8  1  0.761460  0.007909  0.750001  1
  Y  Y9  1  0.007909  0.761460  0.750001  1
  Al  Al10  1  0.396466  0.000751  0.749999  1
  Al  Al11  1  0.000751  0.396466  0.749999  1
  Sb  Sb12  1  0.392677  0.392677  0.250003  1
  Sb  Sb13  1  0.603739  0.998176  0.249995  1
  Sb  Sb14  1  0.998176  0.603739  0.249995  1
  Sb  Sb15  1  0.608833  0.608833  0.750008  1
