# generated using pymatgen
data_Tb3Er9Co5Bi
_symmetry_space_group_name_H-M   'P 1'
_cell_length_a   8.25881181
_cell_length_b   8.26229871
_cell_length_c   8.26228033
_cell_angle_alpha   111.12610070
_cell_angle_beta   110.65967437
_cell_angle_gamma   106.68017037
_symmetry_Int_Tables_number   1
_chemical_formula_structural   Tb3Er9Co5Bi
_chemical_formula_sum   'Tb3 Er9 Co5 Bi1'
_cell_volume   433.14158882
_cell_formula_units_Z   1
loop_
 _symmetry_equiv_pos_site_id
 _symmetry_equiv_pos_as_xyz
  1  'x, y, z'
loop_
 _atom_site_type_symbol
 _atom_site_label
 _atom_site_symmetry_multiplicity
 _atom_site_fract_x
 _atom_site_fract_y
 _atom_site_fract_z
 _atom_site_occupancy
  Tb  Tb0  1  0.402075  0.207207  0.194858  1
  Tb  Tb1  1  0.987274  0.793058  0.194215  1
  Tb  Tb2  1  0.011411  0.206639  0.804773  1
  Er  Er3  1  0.816606  0.710344  0.527791  1
  Er  Er4  1  0.183835  0.290900  0.474166  1
  Er  Er5  1  0.183815  0.709658  0.892929  1
  Er  Er6  1  0.816614  0.288818  0.106268  1
  Er  Er7  1  0.687577  0.378938  0.690447  1
  Er  Er8  1  0.313051  0.622183  0.310555  1
  Er  Er9  1  0.687573  0.997124  0.308644  1
  Er  Er10  1  0.313041  0.002490  0.690860  1
  Er  Er11  1  0.597634  0.792976  0.804668  1
  Co  Co12  1  0.623618  0.999325  0.624288  1
  Co  Co13  1  0.377226  0.000482  0.376742  1
  Co  Co14  1  0.112760  0.611798  0.500963  1
  Co  Co15  1  0.888456  0.388662  0.499794  1
  Co  Co16  1  0.997446  0.998885  0.998564  1
  Bi  Bi17  1  0.499986  0.500511  0.999475  1
