# generated using pymatgen
data_Y4GaCo9B4
_symmetry_space_group_name_H-M   'P 1'
_cell_length_a   5.12899600
_cell_length_b   5.12899615
_cell_length_c   19.68352600
_cell_angle_alpha   90.00000000
_cell_angle_beta   90.00000000
_cell_angle_gamma   119.99999906
_symmetry_Int_Tables_number   1
_chemical_formula_structural   Y4GaCo9B4
_chemical_formula_sum   'Y8 Ga2 Co18 B8'
_cell_volume   448.43372531
_cell_formula_units_Z   2
loop_
 _symmetry_equiv_pos_site_id
 _symmetry_equiv_pos_as_xyz
  1  'x, y, z'
loop_
 _atom_site_type_symbol
 _atom_site_label
 _atom_site_symmetry_multiplicity
 _atom_site_fract_x
 _atom_site_fract_y
 _atom_site_fract_z
 _atom_site_occupancy
  Y  Y0  1  0.666667  0.333333  0.824732  1
  Y  Y1  1  0.666667  0.333333  0.976402  1
  Y  Y2  1  0.333333  0.666667  0.476402  1
  Y  Y3  1  0.333333  0.666667  0.023598  1
  Y  Y4  1  0.333333  0.666667  0.175268  1
  Y  Y5  1  0.666667  0.333333  0.523598  1
  Y  Y6  1  0.666667  0.333333  0.675268  1
  Y  Y7  1  0.333333  0.666667  0.324732  1
  Ga  Ga8  1  0.000000  0.000000  0.000000  1
  Ga  Ga9  1  0.000000  0.000000  0.500000  1
  Co  Co10  1  0.165814  0.331627  0.894004  1
  Co  Co11  1  0.165814  0.834186  0.605996  1
  Co  Co12  1  0.834186  0.165814  0.394004  1
  Co  Co13  1  0.334162  0.167081  0.250000  1
  Co  Co14  1  0.331627  0.165814  0.394004  1
  Co  Co15  1  0.834186  0.668373  0.105996  1
  Co  Co16  1  0.834186  0.668373  0.394004  1
  Co  Co17  1  0.832919  0.665838  0.250000  1
  Co  Co18  1  0.668373  0.834186  0.605996  1
  Co  Co19  1  0.665838  0.832919  0.750000  1
  Co  Co20  1  0.834186  0.165814  0.105996  1
  Co  Co21  1  0.668373  0.834186  0.894004  1
  Co  Co22  1  0.167081  0.334162  0.750000  1
  Co  Co23  1  0.167081  0.832919  0.750000  1
  Co  Co24  1  0.832919  0.167081  0.250000  1
  Co  Co25  1  0.331627  0.165814  0.105996  1
  Co  Co26  1  0.165814  0.834186  0.894004  1
  Co  Co27  1  0.165814  0.331627  0.605996  1
  B  B28  1  0.333333  0.666667  0.824827  1
  B  B29  1  0.333333  0.666667  0.675173  1
  B  B30  1  0.666667  0.333333  0.324827  1
  B  B31  1  0.000000  0.000000  0.823852  1
  B  B32  1  0.666667  0.333333  0.175173  1
  B  B33  1  0.000000  0.000000  0.676148  1
  B  B34  1  0.000000  0.000000  0.323852  1
  B  B35  1  0.000000  0.000000  0.176148  1
