# generated using pymatgen
data_Rb2In(TeO4)3
_symmetry_space_group_name_H-M   'P 1'
_cell_length_a   7.37111155
_cell_length_b   7.37495089
_cell_length_c   7.36626540
_cell_angle_alpha   60.36241757
_cell_angle_beta   60.37919616
_cell_angle_gamma   60.42922139
_symmetry_Int_Tables_number   1
_chemical_formula_structural   Rb2In(TeO4)3
_chemical_formula_sum   'Rb2 In1 Te3 O12'
_cell_volume   285.65423460
_cell_formula_units_Z   1
loop_
 _symmetry_equiv_pos_site_id
 _symmetry_equiv_pos_as_xyz
  1  'x, y, z'
loop_
 _atom_site_type_symbol
 _atom_site_label
 _atom_site_symmetry_multiplicity
 _atom_site_fract_x
 _atom_site_fract_y
 _atom_site_fract_z
 _atom_site_occupancy
  Rb  Rb0  1  0.117433  0.132067  0.622744  1
  Rb  Rb1  1  0.868149  0.882373  0.377270  1
  In  In2  1  0.497299  0.502689  0.999992  1
  Te  Te3  1  0.497707  0.002152  0.999723  1
  Te  Te4  1  0.997847  0.502294  0.000270  1
  Te  Te5  1  0.497975  0.502045  0.499987  1
  O  O6  1  0.814418  0.818756  0.920149  1
  O  O7  1  0.416543  0.419695  0.351973  1
  O  O8  1  0.416137  0.854805  0.916844  1
  O  O9  1  0.814408  0.421437  0.316791  1
  O  O10  1  0.849139  0.421129  0.918554  1
  O  O11  1  0.418425  0.817905  0.315940  1
  O  O12  1  0.181206  0.185610  0.079853  1
  O  O13  1  0.580564  0.583218  0.648014  1
  O  O14  1  0.578973  0.150794  0.081351  1
  O  O15  1  0.181944  0.581565  0.683911  1
  O  O16  1  0.145288  0.583689  0.083292  1
  O  O17  1  0.578545  0.185776  0.683343  1
