# generated using pymatgen
data_Zr4Sc7Os4
_symmetry_space_group_name_H-M   'P 1'
_cell_length_a   9.50641261
_cell_length_b   9.50641297
_cell_length_c   9.50641300
_cell_angle_alpha   60.00000338
_cell_angle_beta   60.00000214
_cell_angle_gamma   60.00000266
_symmetry_Int_Tables_number   1
_chemical_formula_structural   Zr4Sc7Os4
_chemical_formula_sum   'Zr8 Sc14 Os8'
_cell_volume   607.48427999
_cell_formula_units_Z   2
loop_
 _symmetry_equiv_pos_site_id
 _symmetry_equiv_pos_as_xyz
  1  'x, y, z'
loop_
 _atom_site_type_symbol
 _atom_site_label
 _atom_site_symmetry_multiplicity
 _atom_site_fract_x
 _atom_site_fract_y
 _atom_site_fract_z
 _atom_site_occupancy
  Zr  Zr0  1  0.842471  0.842471  0.842471  1
  Zr  Zr1  1  0.527412  0.157529  0.157529  1
  Zr  Zr2  1  0.157529  0.157529  0.527412  1
  Zr  Zr3  1  0.157529  0.527412  0.157529  1
  Zr  Zr4  1  0.842471  0.842471  0.472588  1
  Zr  Zr5  1  0.842471  0.472588  0.842471  1
  Zr  Zr6  1  0.472588  0.842471  0.842471  1
  Zr  Zr7  1  0.157529  0.157529  0.157529  1
  Sc  Sc8  1  0.199018  0.800982  0.199018  1
  Sc  Sc9  1  0.199018  0.800982  0.800982  1
  Sc  Sc10  1  0.800982  0.199018  0.199018  1
  Sc  Sc11  1  0.800982  0.800982  0.199018  1
  Sc  Sc12  1  0.199018  0.199018  0.800982  1
  Sc  Sc13  1  0.800982  0.199018  0.800982  1
  Sc  Sc14  1  0.383475  0.383475  0.383475  1
  Sc  Sc15  1  0.150427  0.616525  0.616525  1
  Sc  Sc16  1  0.616525  0.150427  0.616525  1
  Sc  Sc17  1  0.616525  0.616525  0.150427  1
  Sc  Sc18  1  0.383475  0.849573  0.383475  1
  Sc  Sc19  1  0.383475  0.383475  0.849573  1
  Sc  Sc20  1  0.849573  0.383475  0.383475  1
  Sc  Sc21  1  0.616525  0.616525  0.616525  1
  Os  Os22  1  0.500000  0.500000  0.000000  1
  Os  Os23  1  0.000000  0.000000  0.500000  1
  Os  Os24  1  0.500000  0.000000  0.500000  1
  Os  Os25  1  0.000000  0.500000  0.500000  1
  Os  Os26  1  0.500000  0.000000  0.000000  1
  Os  Os27  1  0.000000  0.500000  0.000000  1
  Os  Os28  1  0.500000  0.500000  0.500000  1
  Os  Os29  1  0.000000  0.000000  0.000000  1
