# generated using pymatgen
data_Zr10AlSn(BiSb)2
_symmetry_space_group_name_H-M   'P 1'
_cell_length_a   5.65771219
_cell_length_b   8.46829450
_cell_length_c   8.48521806
_cell_angle_alpha   96.39651794
_cell_angle_beta   109.47233255
_cell_angle_gamma   70.47063236
_symmetry_Int_Tables_number   1
_chemical_formula_structural   Zr10AlSn(BiSb)2
_chemical_formula_sum   'Zr10 Al1 Sn1 Bi2 Sb2'
_cell_volume   361.23367584
_cell_formula_units_Z   1
loop_
 _symmetry_equiv_pos_site_id
 _symmetry_equiv_pos_as_xyz
  1  'x, y, z'
loop_
 _atom_site_type_symbol
 _atom_site_label
 _atom_site_symmetry_multiplicity
 _atom_site_fract_x
 _atom_site_fract_y
 _atom_site_fract_z
 _atom_site_occupancy
  Zr  Zr0  1  0.428955  0.863218  0.704689  1
  Zr  Zr1  1  0.587013  0.136789  0.295299  1
  Zr  Zr2  1  0.921003  0.290042  0.146504  1
  Zr  Zr3  1  0.064564  0.709968  0.853518  1
  Zr  Zr4  1  0.725896  0.709955  0.146545  1
  Zr  Zr5  1  0.288574  0.290044  0.853491  1
  Zr  Zr6  1  0.775955  0.136822  0.704706  1
  Zr  Zr7  1  0.208042  0.863217  0.295269  1
  Zr  Zr8  1  0.247974  0.499964  0.499863  1
  Zr  Zr9  1  0.751997  0.500038  0.500113  1
  Al  Al10  1  0.749995  0.999995  0.000000  1
  Sn  Sn11  1  0.250039  0.999932  0.999981  1
  Bi  Bi12  1  0.334586  0.499967  0.168996  1
  Bi  Bi13  1  0.665393  0.500050  0.831006  1
  Sb  Sb14  1  0.836834  0.826162  0.500031  1
  Sb  Sb15  1  0.163179  0.173838  0.499988  1
