# generated using pymatgen
data_Tm4PaAl2Ru3
_symmetry_space_group_name_H-M   'P 1'
_cell_length_a   8.38421371
_cell_length_b   8.30122331
_cell_length_c   8.27251700
_cell_angle_alpha   109.93452084
_cell_angle_beta   109.41273805
_cell_angle_gamma   110.13938272
_symmetry_Int_Tables_number   1
_chemical_formula_structural   Tm4PaAl2Ru3
_chemical_formula_sum   'Tm8 Pa2 Al4 Ru6'
_cell_volume   437.23936946
_cell_formula_units_Z   2
loop_
 _symmetry_equiv_pos_site_id
 _symmetry_equiv_pos_as_xyz
  1  'x, y, z'
loop_
 _atom_site_type_symbol
 _atom_site_label
 _atom_site_symmetry_multiplicity
 _atom_site_fract_x
 _atom_site_fract_y
 _atom_site_fract_z
 _atom_site_occupancy
  Tm  Tm0  1  0.778255  0.782729  0.775108  1
  Tm  Tm1  1  0.315608  0.564740  0.751267  1
  Tm  Tm2  1  0.748813  0.313811  0.566615  1
  Tm  Tm3  1  0.567308  0.747693  0.312447  1
  Tm  Tm4  1  0.721565  0.501872  0.998211  1
  Tm  Tm5  1  0.998006  0.721607  0.505007  1
  Tm  Tm6  1  0.501130  0.992924  0.718512  1
  Tm  Tm7  1  0.253460  0.188105  0.936275  1
  Pa  Pa8  1  0.944928  0.251411  0.195003  1
  Pa  Pa9  1  0.196755  0.946102  0.250564  1
  Al  Al10  1  0.411447  0.406798  0.401742  1
  Al  Al11  1  0.095059  0.491692  0.995310  1
  Al  Al12  1  0.997611  0.097095  0.507450  1
  Al  Al13  1  0.503938  0.008940  0.097160  1
  Ru  Ru14  1  0.866116  0.116594  0.747611  1
  Ru  Ru15  1  0.762163  0.905686  0.122792  1
  Ru  Ru16  1  0.126912  0.764322  0.910983  1
  Ru  Ru17  1  0.220411  0.595243  0.364433  1
  Ru  Ru18  1  0.357336  0.217454  0.593652  1
  Ru  Ru19  1  0.633179  0.385184  0.249858  1
