# generated using pymatgen
data_Tb4Al15(ZnPd2)3
_symmetry_space_group_name_H-M   'P 1'
_cell_length_a   7.60022262
_cell_length_b   7.61260477
_cell_length_c   9.52092200
_cell_angle_alpha   90.00000000
_cell_angle_beta   90.00000000
_cell_angle_gamma   119.15046578
_symmetry_Int_Tables_number   1
_chemical_formula_structural   Tb4Al15(ZnPd2)3
_chemical_formula_sum   'Tb4 Al15 Zn3 Pd6'
_cell_volume   481.08709507
_cell_formula_units_Z   1
loop_
 _symmetry_equiv_pos_site_id
 _symmetry_equiv_pos_as_xyz
  1  'x, y, z'
loop_
 _atom_site_type_symbol
 _atom_site_label
 _atom_site_symmetry_multiplicity
 _atom_site_fract_x
 _atom_site_fract_y
 _atom_site_fract_z
 _atom_site_occupancy
  Tb  Tb0  1  0.995778  0.672641  0.250000  1
  Tb  Tb1  1  0.005429  0.328025  0.750000  1
  Tb  Tb2  1  0.671258  0.993951  0.250000  1
  Tb  Tb3  1  0.328213  0.005639  0.750000  1
  Al  Al4  1  0.006729  0.335586  0.080784  1
  Al  Al5  1  0.996131  0.666862  0.921542  1
  Al  Al6  1  0.996131  0.666862  0.578458  1
  Al  Al7  1  0.332973  0.002271  0.421248  1
  Al  Al8  1  0.006729  0.335586  0.419216  1
  Al  Al9  1  0.667470  0.997381  0.578690  1
  Al  Al10  1  0.667470  0.997381  0.921310  1
  Al  Al11  1  0.332973  0.002271  0.078752  1
  Al  Al12  1  0.333120  0.333407  0.553947  1
  Al  Al13  1  0.663083  0.665226  0.444139  1
  Al  Al14  1  0.663083  0.665226  0.055861  1
  Al  Al15  1  0.333120  0.333407  0.946053  1
  Al  Al16  1  0.660701  0.453521  0.750000  1
  Al  Al17  1  0.544404  0.341650  0.250000  1
  Al  Al18  1  0.454896  0.659992  0.750000  1
  Zn  Zn19  1  0.140997  0.139917  0.250000  1
  Zn  Zn20  1  0.861380  0.860538  0.750000  1
  Zn  Zn21  1  0.341032  0.542193  0.250000  1
  Pd  Pd22  1  0.673220  0.326696  0.000124  1
  Pd  Pd23  1  0.326138  0.674235  0.994934  1
  Pd  Pd24  1  0.326138  0.674235  0.505066  1
  Pd  Pd25  1  0.673220  0.326696  0.499876  1
  Pd  Pd26  1  0.999092  0.999304  0.000569  1
  Pd  Pd27  1  0.999092  0.999304  0.499431  1
