# generated using pymatgen
data_Yb3Ti(Pt2O7)2
_symmetry_space_group_name_H-M   'P 1'
_cell_length_a   7.16859046
_cell_length_b   7.13268048
_cell_length_c   7.16859100
_cell_angle_alpha   59.83331039
_cell_angle_beta   59.99999288
_cell_angle_gamma   59.83331010
_symmetry_Int_Tables_number   1
_chemical_formula_structural   Yb3Ti(Pt2O7)2
_chemical_formula_sum   'Yb3 Ti1 Pt4 O14'
_cell_volume   258.52735463
_cell_formula_units_Z   1
loop_
 _symmetry_equiv_pos_site_id
 _symmetry_equiv_pos_as_xyz
  1  'x, y, z'
loop_
 _atom_site_type_symbol
 _atom_site_label
 _atom_site_symmetry_multiplicity
 _atom_site_fract_x
 _atom_site_fract_y
 _atom_site_fract_z
 _atom_site_occupancy
  Yb  Yb0  1  0.125000  0.125000  0.125000  1
  Yb  Yb1  1  0.625000  0.125000  0.125000  1
  Yb  Yb2  1  0.125000  0.125000  0.625000  1
  Ti  Ti3  1  0.125000  0.625000  0.125000  1
  Pt  Pt4  1  0.625000  0.625000  0.625000  1
  Pt  Pt5  1  0.125000  0.625000  0.625000  1
  Pt  Pt6  1  0.625000  0.625000  0.125000  1
  Pt  Pt7  1  0.625000  0.125000  0.625000  1
  O  O8  1  0.017544  0.947366  0.017544  1
  O  O9  1  0.232456  0.302634  0.232456  1
  O  O10  1  0.517345  0.552960  0.964848  1
  O  O11  1  0.285019  0.287159  0.713911  1
  O  O12  1  0.964848  0.552960  0.964848  1
  O  O13  1  0.964848  0.552960  0.517345  1
  O  O14  1  0.536089  0.962841  0.964981  1
  O  O15  1  0.536089  0.962841  0.536089  1
  O  O16  1  0.964981  0.962841  0.536089  1
  O  O17  1  0.713911  0.287159  0.285019  1
  O  O18  1  0.285152  0.697040  0.732655  1
  O  O19  1  0.732655  0.697040  0.285152  1
  O  O20  1  0.713911  0.287159  0.713911  1
  O  O21  1  0.285152  0.697040  0.285152  1
