# generated using pymatgen
data_La4PrP12Pd3Ru16
_symmetry_space_group_name_H-M   'P 1'
_cell_length_a   12.75893600
_cell_length_b   12.75893626
_cell_length_c   4.04220300
_cell_angle_alpha   90.00000000
_cell_angle_beta   90.00000000
_cell_angle_gamma   119.99999933
_symmetry_Int_Tables_number   1
_chemical_formula_structural   La4PrP12Pd3Ru16
_chemical_formula_sum   'La4 Pr1 P12 Pd3 Ru16'
_cell_volume   569.87247568
_cell_formula_units_Z   1
loop_
 _symmetry_equiv_pos_site_id
 _symmetry_equiv_pos_as_xyz
  1  'x, y, z'
loop_
 _atom_site_type_symbol
 _atom_site_label
 _atom_site_symmetry_multiplicity
 _atom_site_fract_x
 _atom_site_fract_y
 _atom_site_fract_z
 _atom_site_occupancy
  La  La0  1  0.819131  0.999784  0.500000  1
  La  La1  1  0.000216  0.819347  0.500000  1
  La  La2  1  0.180653  0.180869  0.500000  1
  La  La3  1  0.333333  0.666667  0.000000  1
  Pr  Pr4  1  0.666667  0.333333  0.000000  1
  P  P5  1  0.190989  0.000643  0.000000  1
  P  P6  1  0.999357  0.190346  0.000000  1
  P  P7  1  0.809654  0.809011  0.000000  1
  P  P8  1  0.523007  0.701659  0.500000  1
  P  P9  1  0.298341  0.821348  0.500000  1
  P  P10  1  0.178652  0.476993  0.500000  1
  P  P11  1  0.478196  0.179872  0.500000  1
  P  P12  1  0.701676  0.521804  0.500000  1
  P  P13  1  0.820128  0.298324  0.500000  1
  P  P14  1  0.629655  0.999682  0.000000  1
  P  P15  1  0.000318  0.629974  0.000000  1
  P  P16  1  0.370026  0.370345  0.000000  1
  Pd  Pd17  1  0.446582  0.000756  0.000000  1
  Pd  Pd18  1  0.999244  0.445826  0.000000  1
  Pd  Pd19  1  0.554174  0.553418  0.000000  1
  Ru  Ru20  1  0.291317  0.000548  0.500000  1
  Ru  Ru21  1  0.999452  0.290769  0.500000  1
  Ru  Ru22  1  0.709231  0.708683  0.500000  1
  Ru  Ru23  1  0.619748  0.805082  0.000000  1
  Ru  Ru24  1  0.194918  0.814666  0.000000  1
  Ru  Ru25  1  0.185334  0.380252  0.000000  1
  Ru  Ru26  1  0.380840  0.186406  0.000000  1
  Ru  Ru27  1  0.805566  0.619160  0.000000  1
  Ru  Ru28  1  0.813594  0.194434  0.000000  1
  Ru  Ru29  1  0.508528  0.878470  0.500000  1
  Ru  Ru30  1  0.121530  0.630059  0.500000  1
  Ru  Ru31  1  0.369941  0.491472  0.500000  1
  Ru  Ru32  1  0.492758  0.370351  0.500000  1
  Ru  Ru33  1  0.877594  0.507242  0.500000  1
  Ru  Ru34  1  0.629649  0.122406  0.500000  1
  Ru  Ru35  1  0.000000  0.000000  0.000000  1
