# generated using pymatgen
data_Gd2BeSiCl2
_symmetry_space_group_name_H-M   'P 1'
_cell_length_a   3.84840900
_cell_length_b   3.84840692
_cell_length_c   11.18461000
_cell_angle_alpha   90.00000000
_cell_angle_beta   90.00000000
_cell_angle_gamma   119.99997490
_symmetry_Int_Tables_number   1
_chemical_formula_structural   Gd2BeSiCl2
_chemical_formula_sum   'Gd2 Be1 Si1 Cl2'
_cell_volume   143.45437419
_cell_formula_units_Z   1
loop_
 _symmetry_equiv_pos_site_id
 _symmetry_equiv_pos_as_xyz
  1  'x, y, z'
loop_
 _atom_site_type_symbol
 _atom_site_label
 _atom_site_symmetry_multiplicity
 _atom_site_fract_x
 _atom_site_fract_y
 _atom_site_fract_z
 _atom_site_occupancy
  Gd  Gd0  1  0.000000  0.000000  0.179581  1
  Gd  Gd1  1  0.000000  0.000000  0.819219  1
  Be  Be2  1  0.333333  0.666667  0.008340  1
  Si  Si3  1  0.666667  0.333333  0.993428  1
  Cl  Cl4  1  0.333333  0.666667  0.665782  1
  Cl  Cl5  1  0.666667  0.333333  0.333650  1
