# generated using pymatgen
data_TbYAgPd2
_symmetry_space_group_name_H-M   'P 1'
_cell_length_a   7.73522300
_cell_length_b   7.73470000
_cell_length_c   3.74398700
_cell_angle_alpha   90.00000000
_cell_angle_beta   90.00000000
_cell_angle_gamma   90.00000000
_symmetry_Int_Tables_number   1
_chemical_formula_structural   TbYAgPd2
_chemical_formula_sum   'Tb2 Y2 Ag2 Pd4'
_cell_volume   224.00135446
_cell_formula_units_Z   2
loop_
 _symmetry_equiv_pos_site_id
 _symmetry_equiv_pos_as_xyz
  1  'x, y, z'
loop_
 _atom_site_type_symbol
 _atom_site_label
 _atom_site_symmetry_multiplicity
 _atom_site_fract_x
 _atom_site_fract_y
 _atom_site_fract_z
 _atom_site_occupancy
  Tb  Tb0  1  0.170352  0.670500  0.500001  1
  Tb  Tb1  1  0.670352  0.829500  0.500001  1
  Y  Y2  1  0.328543  0.171288  0.500001  1
  Y  Y3  1  0.828543  0.328712  0.500001  1
  Ag  Ag4  1  0.999959  0.000865  0.000000  1
  Ag  Ag5  1  0.499959  0.499135  0.000000  1
  Pd  Pd6  1  0.630764  0.128985  0.000000  1
  Pd  Pd7  1  0.130764  0.371015  0.000000  1
  Pd  Pd8  1  0.870382  0.631530  0.000000  1
  Pd  Pd9  1  0.370382  0.868470  0.000000  1
