# generated using pymatgen
data_Tm3Th5(Ni4As3)4
_symmetry_space_group_name_H-M   'P 1'
_cell_length_a   12.93118200
_cell_length_b   12.93118104
_cell_length_c   4.06366700
_cell_angle_alpha   90.00000000
_cell_angle_beta   90.00000000
_cell_angle_gamma   120.00000247
_symmetry_Int_Tables_number   1
_chemical_formula_structural   Tm3Th5(Ni4As3)4
_chemical_formula_sum   'Tm3 Th5 Ni16 As12'
_cell_volume   588.47111329
_cell_formula_units_Z   1
loop_
 _symmetry_equiv_pos_site_id
 _symmetry_equiv_pos_as_xyz
  1  'x, y, z'
loop_
 _atom_site_type_symbol
 _atom_site_label
 _atom_site_symmetry_multiplicity
 _atom_site_fract_x
 _atom_site_fract_y
 _atom_site_fract_z
 _atom_site_occupancy
  Tm  Tm0  1  0.573461  0.573461  0.000000  1
  Tm  Tm1  1  0.426539  0.000000  0.000000  1
  Tm  Tm2  1  0.000000  0.426539  0.000000  1
  Th  Th3  1  0.188210  0.188210  0.500000  1
  Th  Th4  1  0.811790  0.000000  0.500000  1
  Th  Th5  1  0.000000  0.811790  0.500000  1
  Th  Th6  1  0.333333  0.666667  0.000000  1
  Th  Th7  1  0.666667  0.333333  0.000000  1
  Ni  Ni8  1  0.728416  0.728416  0.500000  1
  Ni  Ni9  1  0.271584  0.000000  0.500000  1
  Ni  Ni10  1  0.000000  0.271584  0.500000  1
  Ni  Ni11  1  0.188700  0.377024  0.000000  1
  Ni  Ni12  1  0.622976  0.811675  0.000000  1
  Ni  Ni13  1  0.188325  0.811300  0.000000  1
  Ni  Ni14  1  0.811675  0.622976  0.000000  1
  Ni  Ni15  1  0.811300  0.188325  0.000000  1
  Ni  Ni16  1  0.377024  0.188700  0.000000  1
  Ni  Ni17  1  0.366918  0.485467  0.500000  1
  Ni  Ni18  1  0.514533  0.881452  0.500000  1
  Ni  Ni19  1  0.118548  0.633082  0.500000  1
  Ni  Ni20  1  0.881452  0.514533  0.500000  1
  Ni  Ni21  1  0.633082  0.118548  0.500000  1
  Ni  Ni22  1  0.485467  0.366918  0.500000  1
  Ni  Ni23  1  0.000000  0.000000  0.000000  1
  As  As24  1  0.819437  0.819437  0.000000  1
  As  As25  1  0.180563  0.000000  0.000000  1
  As  As26  1  0.000000  0.180563  0.000000  1
  As  As27  1  0.174112  0.473269  0.500000  1
  As  As28  1  0.526731  0.700843  0.500000  1
  As  As29  1  0.299157  0.825888  0.500000  1
  As  As30  1  0.700843  0.526731  0.500000  1
  As  As31  1  0.825888  0.299157  0.500000  1
  As  As32  1  0.473269  0.174112  0.500000  1
  As  As33  1  0.363360  0.363360  0.000000  1
  As  As34  1  0.636640  0.000000  0.000000  1
  As  As35  1  0.000000  0.636640  0.000000  1
