# generated using pymatgen
data_Sc12Zn2OsI16
_symmetry_space_group_name_H-M   'P 1'
_cell_length_a   9.09068971
_cell_length_b   11.97524827
_cell_length_c   12.64406400
_cell_angle_alpha   117.47044344
_cell_angle_beta   100.98049874
_cell_angle_gamma   100.63294833
_symmetry_Int_Tables_number   1
_chemical_formula_structural   Sc12Zn2OsI16
_chemical_formula_sum   'Sc12 Zn2 Os1 I16'
_cell_volume   1138.78485276
_cell_formula_units_Z   1
loop_
 _symmetry_equiv_pos_site_id
 _symmetry_equiv_pos_as_xyz
  1  'x, y, z'
loop_
 _atom_site_type_symbol
 _atom_site_label
 _atom_site_symmetry_multiplicity
 _atom_site_fract_x
 _atom_site_fract_y
 _atom_site_fract_z
 _atom_site_occupancy
  Sc  Sc0  1  0.095055  0.270491  0.358989  1
  Sc  Sc1  1  0.912758  0.737518  0.645968  1
  Sc  Sc2  1  0.777534  0.536516  0.324508  1
  Sc  Sc3  1  0.226385  0.464727  0.669438  1
  Sc  Sc4  1  0.282681  0.730286  0.641322  1
  Sc  Sc5  1  0.718915  0.261922  0.353936  1
  Sc  Sc6  1  0.152083  0.535611  0.331231  1
  Sc  Sc7  1  0.854433  0.463164  0.675014  1
  Sc  Sc8  1  0.400659  0.361233  0.278733  1
  Sc  Sc9  1  0.585445  0.638732  0.721150  1
  Sc  Sc10  1  0.452218  0.311120  0.519597  1
  Sc  Sc11  1  0.534147  0.688809  0.480353  1
  Zn  Zn12  1  0.005157  0.500153  0.500277  1
  Zn  Zn13  1  0.655042  0.499743  0.500036  1
  Os  Os14  1  0.340090  0.500107  0.499741  1
  I  I15  1  0.392076  0.742296  0.886674  1
  I  I16  1  0.607764  0.261283  0.119097  1
  I  I17  1  0.189130  0.966288  0.784463  1
  I  I18  1  0.811654  0.033701  0.215561  1
  I  I19  1  0.341007  0.093974  0.250540  1
  I  I20  1  0.667078  0.906116  0.749565  1
  I  I21  1  0.563077  0.437180  0.798837  1
  I  I22  1  0.445345  0.562599  0.201177  1
  I  I23  1  0.303629  0.829465  0.463170  1
  I  I24  1  0.695109  0.175522  0.536068  1
  I  I25  1  0.160710  0.169919  0.534248  1
  I  I26  1  0.835274  0.825132  0.466170  1
  I  I27  1  0.926983  0.575233  0.159535  1
  I  I28  1  0.073853  0.424832  0.840516  1
  I  I29  1  0.924397  0.737272  0.880554  1
  I  I30  1  0.070315  0.259056  0.113532  1
