# generated using pymatgen
data_Rb8Hf2Zr4BeI20
_symmetry_space_group_name_H-M   'P 1'
_cell_length_a   12.88153154
_cell_length_b   12.88782966
_cell_length_c   12.88782954
_cell_angle_alpha   59.96767323
_cell_angle_beta   60.01616681
_cell_angle_gamma   60.01616887
_symmetry_Int_Tables_number   1
_chemical_formula_structural   Rb8Hf2Zr4BeI20
_chemical_formula_sum   'Rb8 Hf2 Zr4 Be1 I20'
_cell_volume   1512.90582851
_cell_formula_units_Z   1
loop_
 _symmetry_equiv_pos_site_id
 _symmetry_equiv_pos_as_xyz
  1  'x, y, z'
loop_
 _atom_site_type_symbol
 _atom_site_label
 _atom_site_symmetry_multiplicity
 _atom_site_fract_x
 _atom_site_fract_y
 _atom_site_fract_z
 _atom_site_occupancy
  Rb  Rb0  1  0.361246  0.361654  0.361654  1
  Rb  Rb1  1  0.638754  0.638346  0.638346  1
  Rb  Rb2  1  0.361654  0.361246  0.915446  1
  Rb  Rb3  1  0.361654  0.915446  0.361246  1
  Rb  Rb4  1  0.638346  0.638754  0.084554  1
  Rb  Rb5  1  0.638346  0.084554  0.638754  1
  Rb  Rb6  1  0.915446  0.361654  0.361654  1
  Rb  Rb7  1  0.084554  0.638346  0.638346  1
  Hf  Hf8  1  0.867245  0.132755  0.132755  1
  Hf  Hf9  1  0.132755  0.867245  0.867245  1
  Zr  Zr10  1  0.134016  0.865984  0.134016  1
  Zr  Zr11  1  0.865984  0.134016  0.865984  1
  Zr  Zr12  1  0.134016  0.134016  0.865984  1
  Zr  Zr13  1  0.865984  0.865984  0.134016  1
  Be  Be14  1  0.000000  0.000000  0.000000  1
  I  I15  1  0.319627  0.000000  0.000000  1
  I  I16  1  0.680373  0.000000  0.000000  1
  I  I17  1  0.000000  0.319627  0.680373  1
  I  I18  1  0.000000  0.680373  0.319627  1
  I  I19  1  0.997907  0.318031  0.002093  1
  I  I20  1  0.681969  0.002093  0.318031  1
  I  I21  1  0.002093  0.681969  0.997907  1
  I  I22  1  0.318031  0.997907  0.681969  1
  I  I23  1  0.997907  0.002093  0.318031  1
  I  I24  1  0.002093  0.997907  0.681969  1
  I  I25  1  0.681969  0.318031  0.002093  1
  I  I26  1  0.318031  0.681969  0.997907  1
  I  I27  1  0.690826  0.309174  0.309174  1
  I  I28  1  0.309174  0.690826  0.690826  1
  I  I29  1  0.310569  0.689431  0.310569  1
  I  I30  1  0.689431  0.310569  0.689431  1
  I  I31  1  0.310569  0.310569  0.689431  1
  I  I32  1  0.689431  0.689431  0.310569  1
  I  I33  1  0.250000  0.250000  0.250000  1
  I  I34  1  0.750000  0.750000  0.750000  1
