# generated using pymatgen
data_TbDy3Al18PtRh5
_symmetry_space_group_name_H-M   'P 1'
_cell_length_a   7.56685003
_cell_length_b   7.56684972
_cell_length_c   9.46353800
_cell_angle_alpha   89.99483593
_cell_angle_beta   89.99483593
_cell_angle_gamma   119.52912117
_symmetry_Int_Tables_number   1
_chemical_formula_structural   TbDy3Al18PtRh5
_chemical_formula_sum   'Tb1 Dy3 Al18 Pt1 Rh5'
_cell_volume   471.47164104
_cell_formula_units_Z   1
loop_
 _symmetry_equiv_pos_site_id
 _symmetry_equiv_pos_as_xyz
  1  'x, y, z'
loop_
 _atom_site_type_symbol
 _atom_site_label
 _atom_site_symmetry_multiplicity
 _atom_site_fract_x
 _atom_site_fract_y
 _atom_site_fract_z
 _atom_site_occupancy
  Tb  Tb0  1  0.994453  0.669378  0.750024  1
  Dy  Dy1  1  0.004260  0.329352  0.250242  1
  Dy  Dy2  1  0.670648  0.995740  0.749758  1
  Dy  Dy3  1  0.330622  0.005547  0.249976  1
  Al  Al4  1  0.126710  0.126027  0.750267  1
  Al  Al5  1  0.873973  0.873290  0.249733  1
  Al  Al6  1  0.004490  0.335008  0.576277  1
  Al  Al7  1  0.002666  0.668726  0.423817  1
  Al  Al8  1  0.000268  0.665168  0.074495  1
  Al  Al9  1  0.334832  0.999732  0.925505  1
  Al  Al10  1  0.000977  0.334640  0.925141  1
  Al  Al11  1  0.665360  0.999023  0.074859  1
  Al  Al12  1  0.664992  0.995510  0.423723  1
  Al  Al13  1  0.331274  0.997334  0.576183  1
  Al  Al14  1  0.332609  0.332616  0.051376  1
  Al  Al15  1  0.667384  0.667391  0.948624  1
  Al  Al16  1  0.666467  0.669750  0.553579  1
  Al  Al17  1  0.330250  0.333533  0.446421  1
  Al  Al18  1  0.339820  0.550059  0.750272  1
  Al  Al19  1  0.660571  0.453899  0.246810  1
  Al  Al20  1  0.546101  0.339429  0.753190  1
  Al  Al21  1  0.449941  0.660180  0.249728  1
  Pt  Pt22  1  0.672264  0.327736  0.500000  1
  Rh  Rh23  1  0.328182  0.671818  0.500000  1
  Rh  Rh24  1  0.328406  0.671594  0.000000  1
  Rh  Rh25  1  0.672225  0.327775  0.000000  1
  Rh  Rh26  1  0.000079  0.999921  0.500000  1
  Rh  Rh27  1  0.000176  0.999824  0.000000  1
