# generated using pymatgen
data_Nb2FeSeCl7
_symmetry_space_group_name_H-M   'P 1'
_cell_length_a   6.83754200
_cell_length_b   6.92068219
_cell_length_c   6.60150100
_cell_angle_alpha   89.57007989
_cell_angle_beta   90.00000000
_cell_angle_gamma   119.60340228
_symmetry_Int_Tables_number   1
_chemical_formula_structural   Nb2FeSeCl7
_chemical_formula_sum   'Nb2 Fe1 Se1 Cl7'
_cell_volume   271.59879359
_cell_formula_units_Z   1
loop_
 _symmetry_equiv_pos_site_id
 _symmetry_equiv_pos_as_xyz
  1  'x, y, z'
loop_
 _atom_site_type_symbol
 _atom_site_label
 _atom_site_symmetry_multiplicity
 _atom_site_fract_x
 _atom_site_fract_y
 _atom_site_fract_z
 _atom_site_occupancy
  Nb  Nb0  1  0.140819  0.854246  0.221320  1
  Nb  Nb1  1  0.713429  0.854246  0.221320  1
  Fe  Fe2  1  0.129024  0.258050  0.221800  1
  Se  Se3  1  0.999928  0.999856  0.502249  1
  Cl  Cl4  1  0.338480  0.676959  0.011535  1
  Cl  Cl5  1  0.503202  0.006403  0.421254  1
  Cl  Cl6  1  0.009591  0.508658  0.413239  1
  Cl  Cl7  1  0.499067  0.508658  0.413239  1
  Cl  Cl8  1  0.329574  0.164468  0.989848  1
  Cl  Cl9  1  0.834893  0.164468  0.989848  1
  Cl  Cl10  1  0.835328  0.670656  0.979253  1
