# generated using pymatgen
data_La2Ni9Mo3P7
_symmetry_space_group_name_H-M   'P 1'
_cell_length_a   3.79803100
_cell_length_b   9.29005507
_cell_length_c   9.29005500
_cell_angle_alpha   119.99999620
_cell_angle_beta   90.00000000
_cell_angle_gamma   90.00000000
_symmetry_Int_Tables_number   1
_chemical_formula_structural   La2Ni9Mo3P7
_chemical_formula_sum   'La2 Ni9 Mo3 P7'
_cell_volume   283.87407169
_cell_formula_units_Z   1
loop_
 _symmetry_equiv_pos_site_id
 _symmetry_equiv_pos_as_xyz
  1  'x, y, z'
loop_
 _atom_site_type_symbol
 _atom_site_label
 _atom_site_symmetry_multiplicity
 _atom_site_fract_x
 _atom_site_fract_y
 _atom_site_fract_z
 _atom_site_occupancy
  La  La0  1  0.000000  0.666667  0.333333  1
  La  La1  1  0.500000  0.333333  0.666667  1
  Ni  Ni2  1  0.000000  0.571561  0.938980  1
  Ni  Ni3  1  0.000000  0.367420  0.428439  1
  Ni  Ni4  1  0.000000  0.061020  0.632580  1
  Ni  Ni5  1  0.500000  0.944822  0.384396  1
  Ni  Ni6  1  0.500000  0.439574  0.055178  1
  Ni  Ni7  1  0.500000  0.615604  0.560426  1
  Ni  Ni8  1  0.000000  0.872578  0.151427  1
  Ni  Ni9  1  0.000000  0.278849  0.127422  1
  Ni  Ni10  1  0.000000  0.848573  0.721151  1
  Mo  Mo11  1  0.500000  0.785572  0.897514  1
  Mo  Mo12  1  0.500000  0.111943  0.214428  1
  Mo  Mo13  1  0.500000  0.102486  0.888057  1
  P  P14  1  0.500000  0.709807  0.109467  1
  P  P15  1  0.500000  0.399660  0.290193  1
  P  P16  1  0.500000  0.890533  0.600340  1
  P  P17  1  0.000000  0.000000  0.000000  1
  P  P18  1  0.000000  0.595286  0.699074  1
  P  P19  1  0.000000  0.103789  0.404714  1
  P  P20  1  0.000000  0.300926  0.896211  1
