# generated using pymatgen
data_Tm5Lu15(Bi2As)4
_symmetry_space_group_name_H-M   'P 1'
_cell_length_a   7.91471680
_cell_length_b   9.02508294
_cell_length_c   11.88037200
_cell_angle_alpha   89.97428221
_cell_angle_beta   89.97425760
_cell_angle_gamma   89.99513184
_symmetry_Int_Tables_number   1
_chemical_formula_structural   Tm5Lu15(Bi2As)4
_chemical_formula_sum   'Tm5 Lu15 Bi8 As4'
_cell_volume   848.62638789
_cell_formula_units_Z   1
loop_
 _symmetry_equiv_pos_site_id
 _symmetry_equiv_pos_as_xyz
  1  'x, y, z'
loop_
 _atom_site_type_symbol
 _atom_site_label
 _atom_site_symmetry_multiplicity
 _atom_site_fract_x
 _atom_site_fract_y
 _atom_site_fract_z
 _atom_site_occupancy
  Tm  Tm0  1  0.683155  0.556688  0.562729  1
  Tm  Tm1  1  0.633836  0.750076  0.292548  1
  Tm  Tm2  1  0.866254  0.750384  0.793016  1
  Tm  Tm3  1  0.366172  0.250280  0.707335  1
  Tm  Tm4  1  0.133871  0.250197  0.207163  1
  Lu  Lu5  1  0.817481  0.558238  0.062775  1
  Lu  Lu6  1  0.682902  0.941526  0.562905  1
  Lu  Lu7  1  0.182607  0.058465  0.937284  1
  Lu  Lu8  1  0.317491  0.441634  0.437204  1
  Lu  Lu9  1  0.182623  0.441656  0.937335  1
  Lu  Lu10  1  0.316819  0.058123  0.437013  1
  Lu  Lu11  1  0.817409  0.941866  0.062811  1
  Lu  Lu12  1  0.156032  0.750153  0.211241  1
  Lu  Lu13  1  0.344142  0.750245  0.711293  1
  Lu  Lu14  1  0.844109  0.250010  0.788862  1
  Lu  Lu15  1  0.656109  0.250136  0.288726  1
  Lu  Lu16  1  0.464753  0.750119  0.001015  1
  Lu  Lu17  1  0.035593  0.750224  0.500910  1
  Lu  Lu18  1  0.535069  0.250049  0.999123  1
  Lu  Lu19  1  0.964899  0.249996  0.499071  1
  Bi  Bi20  1  0.925818  0.510498  0.326925  1
  Bi  Bi21  1  0.574041  0.989858  0.827223  1
  Bi  Bi22  1  0.074262  0.010561  0.672991  1
  Bi  Bi23  1  0.425932  0.489690  0.172798  1
  Bi  Bi24  1  0.074265  0.489897  0.673057  1
  Bi  Bi25  1  0.425931  0.010472  0.172851  1
  Bi  Bi26  1  0.926053  0.989809  0.326998  1
  Bi  Bi27  1  0.573846  0.510540  0.827430  1
  As  As28  1  0.409615  0.750864  0.479233  1
  As  As29  1  0.090027  0.750031  0.979501  1
  As  As30  1  0.588868  0.247665  0.520032  1
  As  As31  1  0.910018  0.250049  0.020600  1
