# generated using pymatgen
data_Pr3Pd2RhAu
_symmetry_space_group_name_H-M   'P 1'
_cell_length_a   8.16198947
_cell_length_b   8.20378158
_cell_length_c   8.19134348
_cell_angle_alpha   114.45395299
_cell_angle_beta   114.22118982
_cell_angle_gamma   114.03700704
_symmetry_Int_Tables_number   1
_chemical_formula_structural   Pr3Pd2RhAu
_chemical_formula_sum   'Pr6 Pd4 Rh2 Au2'
_cell_volume   327.28227503
_cell_formula_units_Z   2
loop_
 _symmetry_equiv_pos_site_id
 _symmetry_equiv_pos_as_xyz
  1  'x, y, z'
loop_
 _atom_site_type_symbol
 _atom_site_label
 _atom_site_symmetry_multiplicity
 _atom_site_fract_x
 _atom_site_fract_y
 _atom_site_fract_z
 _atom_site_occupancy
  Pr  Pr0  1  0.407077  0.040586  0.281202  1
  Pr  Pr1  1  0.032635  0.280340  0.402064  1
  Pr  Pr2  1  0.286173  0.400886  0.036874  1
  Pr  Pr3  1  0.603838  0.961288  0.722089  1
  Pr  Pr4  1  0.955069  0.713884  0.600371  1
  Pr  Pr5  1  0.720689  0.609119  0.959828  1
  Pd  Pd6  1  0.555706  0.220918  0.056895  1
  Pd  Pd7  1  0.775902  0.943356  0.444628  1
  Pd  Pd8  1  0.944717  0.443869  0.777237  1
  Pd  Pd9  1  0.441825  0.774657  0.940812  1
  Rh  Rh10  1  0.006842  0.007045  0.006338  1
  Rh  Rh11  1  0.495608  0.496238  0.495632  1
  Au  Au12  1  0.222892  0.057992  0.558895  1
  Au  Au13  1  0.051026  0.549822  0.217138  1
