# generated using pymatgen
data_Sc12Si12RhAu3
_symmetry_space_group_name_H-M   'P 1'
_cell_length_a   4.05293100
_cell_length_b   10.40204464
_cell_length_c   11.78644822
_cell_angle_alpha   90.00910841
_cell_angle_beta   90.00000000
_cell_angle_gamma   90.00000000
_symmetry_Int_Tables_number   1
_chemical_formula_structural   Sc12Si12RhAu3
_chemical_formula_sum   'Sc12 Si12 Rh1 Au3'
_cell_volume   496.90214342
_cell_formula_units_Z   1
loop_
 _symmetry_equiv_pos_site_id
 _symmetry_equiv_pos_as_xyz
  1  'x, y, z'
loop_
 _atom_site_type_symbol
 _atom_site_label
 _atom_site_symmetry_multiplicity
 _atom_site_fract_x
 _atom_site_fract_y
 _atom_site_fract_z
 _atom_site_occupancy
  Sc  Sc0  1  0.250000  0.873584  0.020002  1
  Sc  Sc1  1  0.250000  0.627493  0.523043  1
  Sc  Sc2  1  0.750000  0.123393  0.976510  1
  Sc  Sc3  1  0.750000  0.372930  0.478701  1
  Sc  Sc4  1  0.250000  0.920480  0.600450  1
  Sc  Sc5  1  0.250000  0.579684  0.097018  1
  Sc  Sc6  1  0.750000  0.078774  0.401486  1
  Sc  Sc7  1  0.750000  0.420478  0.901005  1
  Sc  Sc8  1  0.250000  0.663722  0.800458  1
  Sc  Sc9  1  0.250000  0.839713  0.301654  1
  Sc  Sc10  1  0.750000  0.340103  0.197920  1
  Sc  Sc11  1  0.750000  0.152670  0.700445  1
  Si  Si12  1  0.250000  0.012064  0.825649  1
  Si  Si13  1  0.250000  0.475881  0.327075  1
  Si  Si14  1  0.750000  0.975739  0.174895  1
  Si  Si15  1  0.750000  0.526413  0.671677  1
  Si  Si16  1  0.250000  0.241605  0.848003  1
  Si  Si17  1  0.250000  0.252349  0.348992  1
  Si  Si18  1  0.750000  0.752475  0.150332  1
  Si  Si19  1  0.750000  0.753973  0.658914  1
  Si  Si20  1  0.250000  0.180953  0.541542  1
  Si  Si21  1  0.250000  0.320274  0.038721  1
  Si  Si22  1  0.750000  0.819234  0.461935  1
  Si  Si23  1  0.750000  0.692901  0.953537  1
  Rh  Rh24  1  0.750000  0.888517  0.821826  1
  Au  Au25  1  0.250000  0.385295  0.678968  1
  Au  Au26  1  0.250000  0.114351  0.177230  1
  Au  Au27  1  0.750000  0.614948  0.322012  1
