# generated using pymatgen
data_RbSc3S5
_symmetry_space_group_name_H-M   'P 1'
_cell_length_a   3.78428150
_cell_length_b   10.53479680
_cell_length_c   11.52829290
_cell_angle_alpha   71.98806101
_cell_angle_beta   80.55329885
_cell_angle_gamma   79.65303341
_symmetry_Int_Tables_number   1
_chemical_formula_structural   RbSc3S5
_chemical_formula_sum   'Rb2 Sc6 S10'
_cell_volume   427.05652740
_cell_formula_units_Z   2
loop_
 _symmetry_equiv_pos_site_id
 _symmetry_equiv_pos_as_xyz
  1  'x, y, z'
loop_
 _atom_site_type_symbol
 _atom_site_label
 _atom_site_symmetry_multiplicity
 _atom_site_fract_x
 _atom_site_fract_y
 _atom_site_fract_z
 _atom_site_occupancy
  Rb  Rb0  1  0.746826  0.330869  0.175479  1
  Rb  Rb1  1  0.253174  0.669131  0.824521  1
  Sc  Sc2  1  0.500000  0.000000  0.000000  1
  Sc  Sc3  1  0.500000  0.500000  0.500000  1
  Sc  Sc4  1  0.833672  0.939338  0.393317  1
  Sc  Sc5  1  0.166328  0.060662  0.606683  1
  Sc  Sc6  1  0.028616  0.723159  0.219608  1
  Sc  Sc7  1  0.971384  0.276841  0.780392  1
  S  S8  1  0.928441  0.988458  0.154661  1
  S  S9  1  0.071559  0.011542  0.845339  1
  S  S10  1  0.601007  0.729617  0.068368  1
  S  S11  1  0.398993  0.270383  0.931632  1
  S  S12  1  0.429568  0.757741  0.383122  1
  S  S13  1  0.570432  0.242259  0.616878  1
  S  S14  1  0.258208  0.105984  0.377600  1
  S  S15  1  0.741792  0.894016  0.622400  1
  S  S16  1  0.084797  0.481883  0.348522  1
  S  S17  1  0.915203  0.518117  0.651478  1
