# generated using pymatgen
data_YEr15In4(IrRu)2
_symmetry_space_group_name_H-M   'P 1'
_cell_length_a   9.59253217
_cell_length_b   9.61141125
_cell_length_c   9.60980590
_cell_angle_alpha   59.81403404
_cell_angle_beta   59.73886759
_cell_angle_gamma   59.73793962
_symmetry_Int_Tables_number   1
_chemical_formula_structural   YEr15In4(IrRu)2
_chemical_formula_sum   'Y1 Er15 In4 Ir2 Ru2'
_cell_volume   623.13512389
_cell_formula_units_Z   1
loop_
 _symmetry_equiv_pos_site_id
 _symmetry_equiv_pos_as_xyz
  1  'x, y, z'
loop_
 _atom_site_type_symbol
 _atom_site_label
 _atom_site_symmetry_multiplicity
 _atom_site_fract_x
 _atom_site_fract_y
 _atom_site_fract_z
 _atom_site_occupancy
  Y  Y0  1  0.058953  0.059703  0.441359  1
  Er  Er1  1  0.651032  0.043559  0.651840  1
  Er  Er2  1  0.193823  0.808621  0.190867  1
  Er  Er3  1  0.439901  0.059946  0.441908  1
  Er  Er4  1  0.193627  0.190998  0.809041  1
  Er  Er5  1  0.649632  0.651770  0.651786  1
  Er  Er6  1  0.045858  0.651325  0.651694  1
  Er  Er7  1  0.442703  0.057713  0.057429  1
  Er  Er8  1  0.651198  0.651769  0.043636  1
  Er  Er9  1  0.192491  0.808575  0.809409  1
  Er  Er10  1  0.807586  0.191673  0.808501  1
  Er  Er11  1  0.807588  0.192834  0.192611  1
  Er  Er12  1  0.807985  0.807988  0.191595  1
  Er  Er13  1  0.060109  0.441031  0.440119  1
  Er  Er14  1  0.438946  0.441895  0.060253  1
  Er  Er15  1  0.058253  0.442656  0.058457  1
  In  In16  1  0.747529  0.417737  0.417232  1
  In  In17  1  0.416078  0.416618  0.750511  1
  In  In18  1  0.417306  0.749568  0.416495  1
  In  In19  1  0.418508  0.416666  0.416805  1
  Ir  Ir20  1  0.859302  0.857904  0.420687  1
  Ir  Ir21  1  0.859571  0.420849  0.858221  1
  Ru  Ru22  1  0.861897  0.860018  0.860963  1
  Ru  Ru23  1  0.420125  0.858586  0.858580  1
