# generated using pymatgen
data_Ho3Hf3Al2(Ga2Pt3)2
_symmetry_space_group_name_H-M   'P 1'
_cell_length_a   7.21826800
_cell_length_b   7.27752520
_cell_length_c   7.37315700
_cell_angle_alpha   90.00000000
_cell_angle_beta   90.00000000
_cell_angle_gamma   119.72937169
_symmetry_Int_Tables_number   1
_chemical_formula_structural   Ho3Hf3Al2(Ga2Pt3)2
_chemical_formula_sum   'Ho3 Hf3 Al2 Ga4 Pt6'
_cell_volume   336.34015521
_cell_formula_units_Z   1
loop_
 _symmetry_equiv_pos_site_id
 _symmetry_equiv_pos_as_xyz
  1  'x, y, z'
loop_
 _atom_site_type_symbol
 _atom_site_label
 _atom_site_symmetry_multiplicity
 _atom_site_fract_x
 _atom_site_fract_y
 _atom_site_fract_z
 _atom_site_occupancy
  Ho  Ho0  1  0.595364  0.999717  0.750000  1
  Ho  Ho1  1  0.409427  0.411138  0.750000  1
  Ho  Ho2  1  0.998826  0.589109  0.750000  1
  Hf  Hf3  1  0.392760  0.393792  0.250000  1
  Hf  Hf4  1  0.998429  0.605946  0.250000  1
  Hf  Hf5  1  0.610738  0.000264  0.250000  1
  Al  Al6  1  0.258130  0.999895  0.008299  1
  Al  Al7  1  0.258130  0.999895  0.491701  1
  Ga  Ga8  1  0.002178  0.264151  0.492203  1
  Ga  Ga9  1  0.002178  0.264151  0.007797  1
  Ga  Ga10  1  0.737911  0.735967  0.007793  1
  Ga  Ga11  1  0.737911  0.735967  0.492207  1
  Pt  Pt12  1  0.660189  0.327847  0.472338  1
  Pt  Pt13  1  0.008032  0.000000  0.750000  1
  Pt  Pt14  1  0.660189  0.327847  0.027662  1
  Pt  Pt15  1  0.332345  0.672151  0.028402  1
  Pt  Pt16  1  0.332345  0.672151  0.471598  1
  Pt  Pt17  1  0.004921  0.000011  0.250000  1
