# generated using pymatgen
data_Y6AlCoPd
_symmetry_space_group_name_H-M   'P 1'
_cell_length_a   8.44676062
_cell_length_b   8.44675036
_cell_length_c   8.44675909
_cell_angle_alpha   112.15646141
_cell_angle_beta   109.62078696
_cell_angle_gamma   106.68264030
_symmetry_Int_Tables_number   1
_chemical_formula_structural   Y6AlCoPd
_chemical_formula_sum   'Y12 Al2 Co2 Pd2'
_cell_volume   462.86692392
_cell_formula_units_Z   2
loop_
 _symmetry_equiv_pos_site_id
 _symmetry_equiv_pos_as_xyz
  1  'x, y, z'
loop_
 _atom_site_type_symbol
 _atom_site_label
 _atom_site_symmetry_multiplicity
 _atom_site_fract_x
 _atom_site_fract_y
 _atom_site_fract_z
 _atom_site_occupancy
  Y  Y0  1  0.053297  0.745670  0.307628  1
  Y  Y1  1  0.946703  0.254330  0.692372  1
  Y  Y2  1  0.561958  0.254330  0.307627  1
  Y  Y3  1  0.438042  0.745670  0.692373  1
  Y  Y4  1  0.685161  0.876959  0.191798  1
  Y  Y5  1  0.314841  0.506638  0.191798  1
  Y  Y6  1  0.314839  0.123041  0.808202  1
  Y  Y7  1  0.685159  0.493362  0.808202  1
  Y  Y8  1  0.178424  0.215453  0.393877  1
  Y  Y9  1  0.821576  0.215453  0.037029  1
  Y  Y10  1  0.178424  0.784547  0.962971  1
  Y  Y11  1  0.821576  0.784547  0.606123  1
  Al  Al12  1  0.000000  0.500000  0.500000  1
  Al  Al13  1  0.500000  0.000000  0.500000  1
  Co  Co14  1  0.888721  0.888721  0.000000  1
  Co  Co15  1  0.111279  0.111279  0.000000  1
  Pd  Pd16  1  0.661490  0.500000  0.161490  1
  Pd  Pd17  1  0.338510  0.500000  0.838510  1
