# generated using pymatgen
data_Nb12Al7PdN4
_symmetry_space_group_name_H-M   'P 1'
_cell_length_a   7.07239268
_cell_length_b   7.07239268
_cell_length_c   7.07239268
_cell_angle_alpha   89.79917081
_cell_angle_beta   90.20082919
_cell_angle_gamma   90.20082919
_symmetry_Int_Tables_number   1
_chemical_formula_structural   Nb12Al7PdN4
_chemical_formula_sum   'Nb12 Al7 Pd1 N4'
_cell_volume   353.74565471
_cell_formula_units_Z   1
loop_
 _symmetry_equiv_pos_site_id
 _symmetry_equiv_pos_as_xyz
  1  'x, y, z'
loop_
 _atom_site_type_symbol
 _atom_site_label
 _atom_site_symmetry_multiplicity
 _atom_site_fract_x
 _atom_site_fract_y
 _atom_site_fract_z
 _atom_site_occupancy
  Nb  Nb0  1  0.790666  0.957048  0.374472  1
  Nb  Nb1  1  0.708491  0.044309  0.877426  1
  Nb  Nb2  1  0.206102  0.453688  0.120155  1
  Nb  Nb3  1  0.295530  0.542615  0.631295  1
  Nb  Nb4  1  0.955691  0.377426  0.791509  1
  Nb  Nb5  1  0.042952  0.874472  0.709334  1
  Nb  Nb6  1  0.457385  0.131295  0.204470  1
  Nb  Nb7  1  0.546312  0.620155  0.293898  1
  Nb  Nb8  1  0.379845  0.793898  0.953688  1
  Nb  Nb9  1  0.868705  0.704470  0.042615  1
  Nb  Nb10  1  0.125528  0.209334  0.457048  1
  Nb  Nb11  1  0.622574  0.291509  0.544309  1
  Al  Al12  1  0.321428  0.174986  0.821507  1
  Al  Al13  1  0.825014  0.321507  0.178572  1
  Al  Al14  1  0.678493  0.678572  0.674986  1
  Al  Al15  1  0.571211  0.428789  0.928789  1
  Al  Al16  1  0.419874  0.925223  0.562356  1
  Al  Al17  1  0.937644  0.580126  0.425223  1
  Al  Al18  1  0.074777  0.062356  0.080126  1
  Pd  Pd19  1  0.182272  0.817728  0.317728  1
  N  N20  1  0.875083  0.124917  0.624917  1
  N  N21  1  0.620932  0.876902  0.129606  1
  N  N22  1  0.123098  0.629606  0.879068  1
  N  N23  1  0.370394  0.379068  0.376902  1
