# generated using pymatgen
data_Tm2Lu18Ir7Pt5
_symmetry_space_group_name_H-M   'P 1'
_cell_length_a   10.78321464
_cell_length_b   10.78559785
_cell_length_c   6.24702034
_cell_angle_alpha   90.02866048
_cell_angle_beta   90.00310552
_cell_angle_gamma   89.78772250
_symmetry_Int_Tables_number   1
_chemical_formula_structural   Tm2Lu18Ir7Pt5
_chemical_formula_sum   'Tm2 Lu18 Ir7 Pt5'
_cell_volume   726.54473008
_cell_formula_units_Z   1
loop_
 _symmetry_equiv_pos_site_id
 _symmetry_equiv_pos_as_xyz
  1  'x, y, z'
loop_
 _atom_site_type_symbol
 _atom_site_label
 _atom_site_symmetry_multiplicity
 _atom_site_fract_x
 _atom_site_fract_y
 _atom_site_fract_z
 _atom_site_occupancy
  Tm  Tm0  1  0.089705  0.705088  0.627199  1
  Tm  Tm1  1  0.089832  0.295002  0.126957  1
  Lu  Lu2  1  0.296176  0.088431  0.374508  1
  Lu  Lu3  1  0.296200  0.911251  0.874159  1
  Lu  Lu4  1  0.704367  0.085585  0.873489  1
  Lu  Lu5  1  0.704191  0.910326  0.373383  1
  Lu  Lu6  1  0.584531  0.790559  0.877906  1
  Lu  Lu7  1  0.582963  0.206620  0.374546  1
  Lu  Lu8  1  0.415410  0.791621  0.376941  1
  Lu  Lu9  1  0.412524  0.207271  0.879384  1
  Lu  Lu10  1  0.209440  0.415360  0.622251  1
  Lu  Lu11  1  0.208284  0.584698  0.122802  1
  Lu  Lu12  1  0.793032  0.417068  0.125904  1
  Lu  Lu13  1  0.792480  0.587542  0.620668  1
  Lu  Lu14  1  0.910548  0.704061  0.126015  1
  Lu  Lu15  1  0.914076  0.295855  0.626186  1
  Lu  Lu16  1  0.999624  0.000334  0.499120  1
  Lu  Lu17  1  0.999694  0.999586  0.999783  1
  Lu  Lu18  1  0.498215  0.501346  0.000795  1
  Lu  Lu19  1  0.498678  0.501844  0.498935  1
  Ir  Ir20  1  0.654600  0.653293  0.249668  1
  Ir  Ir21  1  0.347584  0.345190  0.251100  1
  Ir  Ir22  1  0.345864  0.655412  0.750801  1
  Ir  Ir23  1  0.500705  0.000360  0.120069  1
  Ir  Ir24  1  0.500489  0.000415  0.621786  1
  Ir  Ir25  1  0.999124  0.499721  0.878434  1
  Ir  Ir26  1  0.999224  0.499693  0.380164  1
  Pt  Pt27  1  0.844486  0.154206  0.250087  1
  Pt  Pt28  1  0.846053  0.848029  0.750546  1
  Pt  Pt29  1  0.152647  0.152414  0.747954  1
  Pt  Pt30  1  0.153431  0.847614  0.248493  1
  Pt  Pt31  1  0.655819  0.344201  0.749962  1
