# generated using pymatgen
data_Er8Sc12Ga15Si
_symmetry_space_group_name_H-M   'P 1'
_cell_length_a   7.24646416
_cell_length_b   7.50077487
_cell_length_c   14.41871900
_cell_angle_alpha   90.00000000
_cell_angle_beta   90.00000000
_cell_angle_gamma   90.19220163
_symmetry_Int_Tables_number   1
_chemical_formula_structural   Er8Sc12Ga15Si
_chemical_formula_sum   'Er8 Sc12 Ga15 Si1'
_cell_volume   783.71203060
_cell_formula_units_Z   1
loop_
 _symmetry_equiv_pos_site_id
 _symmetry_equiv_pos_as_xyz
  1  'x, y, z'
loop_
 _atom_site_type_symbol
 _atom_site_label
 _atom_site_symmetry_multiplicity
 _atom_site_fract_x
 _atom_site_fract_y
 _atom_site_fract_z
 _atom_site_occupancy
  Er  Er0  1  0.011550  0.179124  0.095163  1
  Er  Er1  1  0.986947  0.818369  0.903496  1
  Er  Er2  1  0.488622  0.679502  0.904032  1
  Er  Er3  1  0.986947  0.818369  0.596504  1
  Er  Er4  1  0.511841  0.320005  0.094617  1
  Er  Er5  1  0.011550  0.179124  0.404837  1
  Er  Er6  1  0.511841  0.320005  0.405383  1
  Er  Er7  1  0.488622  0.679502  0.595968  1
  Sc  Sc8  1  0.159480  0.502335  0.750000  1
  Sc  Sc9  1  0.836077  0.497419  0.250000  1
  Sc  Sc10  1  0.337366  0.002080  0.250000  1
  Sc  Sc11  1  0.664810  0.995189  0.750000  1
  Sc  Sc12  1  0.332674  0.173292  0.623705  1
  Sc  Sc13  1  0.669994  0.827452  0.376066  1
  Sc  Sc14  1  0.169946  0.672020  0.375364  1
  Sc  Sc15  1  0.669994  0.827452  0.123934  1
  Sc  Sc16  1  0.828252  0.330247  0.624061  1
  Sc  Sc17  1  0.332674  0.173292  0.876295  1
  Sc  Sc18  1  0.828252  0.330247  0.875939  1
  Sc  Sc19  1  0.169946  0.672020  0.124636  1
  Ga  Ga20  1  0.032334  0.119267  0.750000  1
  Ga  Ga21  1  0.968283  0.882756  0.250000  1
  Ga  Ga22  1  0.468261  0.616984  0.250000  1
  Ga  Ga23  1  0.531259  0.388998  0.750000  1
  Ga  Ga24  1  0.285383  0.871901  0.750000  1
  Ga  Ga25  1  0.715303  0.128643  0.250000  1
  Ga  Ga26  1  0.215571  0.370052  0.250000  1
  Ga  Ga27  1  0.161216  0.464951  0.540985  1
  Ga  Ga28  1  0.838693  0.535066  0.459570  1
  Ga  Ga29  1  0.338168  0.963670  0.460093  1
  Ga  Ga30  1  0.838693  0.535066  0.040430  1
  Ga  Ga31  1  0.662937  0.035373  0.541315  1
  Ga  Ga32  1  0.161216  0.464951  0.959015  1
  Ga  Ga33  1  0.662937  0.035373  0.958685  1
  Ga  Ga34  1  0.338168  0.963670  0.039907  1
  Si  Si35  1  0.784198  0.626235  0.750000  1
