# generated using pymatgen
data_Tb2Ga8SiIr3
_symmetry_space_group_name_H-M   'P 1'
_cell_length_a   7.59179856
_cell_length_b   7.54540865
_cell_length_c   9.50141348
_cell_angle_alpha   89.99867713
_cell_angle_beta   89.79444612
_cell_angle_gamma   119.72875915
_symmetry_Int_Tables_number   1
_chemical_formula_structural   Tb2Ga8SiIr3
_chemical_formula_sum   'Tb4 Ga16 Si2 Ir6'
_cell_volume   472.63197434
_cell_formula_units_Z   2
loop_
 _symmetry_equiv_pos_site_id
 _symmetry_equiv_pos_as_xyz
  1  'x, y, z'
loop_
 _atom_site_type_symbol
 _atom_site_label
 _atom_site_symmetry_multiplicity
 _atom_site_fract_x
 _atom_site_fract_y
 _atom_site_fract_z
 _atom_site_occupancy
  Tb  Tb0  1  0.996384  0.666380  0.247210  1
  Tb  Tb1  1  0.003616  0.333620  0.752790  1
  Tb  Tb2  1  0.673811  0.002180  0.247874  1
  Tb  Tb3  1  0.326189  0.997820  0.752126  1
  Ga  Ga4  1  0.129651  0.129011  0.250188  1
  Ga  Ga5  1  0.870349  0.870989  0.749812  1
  Ga  Ga6  1  0.000130  0.665117  0.577475  1
  Ga  Ga7  1  0.334651  0.999052  0.420489  1
  Ga  Ga8  1  0.999870  0.334883  0.422525  1
  Ga  Ga9  1  0.665349  0.000948  0.579511  1
  Ga  Ga10  1  0.661124  0.997586  0.917758  1
  Ga  Ga11  1  0.338876  0.002414  0.082242  1
  Ga  Ga12  1  0.332228  0.331027  0.566059  1
  Ga  Ga13  1  0.667772  0.668973  0.433941  1
  Ga  Ga14  1  0.662289  0.667500  0.068887  1
  Ga  Ga15  1  0.337711  0.332500  0.931113  1
  Ga  Ga16  1  0.338802  0.546400  0.250171  1
  Ga  Ga17  1  0.661198  0.453600  0.749829  1
  Ga  Ga18  1  0.548498  0.339910  0.249824  1
  Ga  Ga19  1  0.451502  0.660090  0.750176  1
  Si  Si20  1  0.001146  0.329644  0.072894  1
  Si  Si21  1  0.998854  0.670356  0.927106  1
  Ir  Ir22  1  0.696432  0.343025  0.001220  1
  Ir  Ir23  1  0.303568  0.656975  0.998780  1
  Ir  Ir24  1  0.328342  0.670924  0.500117  1
  Ir  Ir25  1  0.671658  0.329076  0.499883  1
  Ir  Ir26  1  0.000000  0.000000  0.000000  1
  Ir  Ir27  1  0.000000  0.000000  0.500000  1
