# generated using pymatgen
data_La8Nd11YSi16
_symmetry_space_group_name_H-M   'P 1'
_cell_length_a   7.92418868
_cell_length_b   7.92418868
_cell_length_c   15.33150550
_cell_angle_alpha   89.93795956
_cell_angle_beta   90.06204044
_cell_angle_gamma   89.95857163
_symmetry_Int_Tables_number   1
_chemical_formula_structural   La8Nd11YSi16
_chemical_formula_sum   'La8 Nd11 Y1 Si16'
_cell_volume   962.70625942
_cell_formula_units_Z   1
loop_
 _symmetry_equiv_pos_site_id
 _symmetry_equiv_pos_as_xyz
  1  'x, y, z'
loop_
 _atom_site_type_symbol
 _atom_site_label
 _atom_site_symmetry_multiplicity
 _atom_site_fract_x
 _atom_site_fract_y
 _atom_site_fract_z
 _atom_site_occupancy
  La  La0  1  0.986962  0.622751  0.052298  1
  La  La1  1  0.013740  0.376777  0.552330  1
  La  La2  1  0.622751  0.986962  0.947702  1
  La  La3  1  0.122752  0.513105  0.802256  1
  La  La4  1  0.877139  0.487443  0.302557  1
  La  La5  1  0.513105  0.122752  0.197744  1
  La  La6  1  0.487443  0.877139  0.697443  1
  La  La7  1  0.376777  0.013740  0.447670  1
  Nd  Nd8  1  0.372565  0.481450  0.373487  1
  Nd  Nd9  1  0.873268  0.019233  0.376949  1
  Nd  Nd10  1  0.981236  0.126695  0.123266  1
  Nd  Nd11  1  0.019233  0.873268  0.623051  1
  Nd  Nd12  1  0.626512  0.519107  0.872894  1
  Nd  Nd13  1  0.481450  0.372565  0.626513  1
  Nd  Nd14  1  0.519107  0.626512  0.127106  1
  Nd  Nd15  1  0.126695  0.981236  0.876734  1
  Nd  Nd16  1  0.808369  0.191028  0.750076  1
  Nd  Nd17  1  0.191028  0.808369  0.249924  1
  Nd  Nd18  1  0.308208  0.308208  0.000000  1
  Y  Y19  1  0.689776  0.689776  0.500000  1
  Si  Si20  1  0.076893  0.713436  0.439931  1
  Si  Si21  1  0.920487  0.286302  0.939361  1
  Si  Si22  1  0.713436  0.076893  0.560069  1
  Si  Si23  1  0.214094  0.420752  0.189554  1
  Si  Si24  1  0.785250  0.581119  0.687056  1
  Si  Si25  1  0.420752  0.214094  0.810446  1
  Si  Si26  1  0.581119  0.785250  0.312944  1
  Si  Si27  1  0.286302  0.920487  0.060639  1
  Si  Si28  1  0.830737  0.805910  0.795666  1
  Si  Si29  1  0.169401  0.194173  0.296245  1
  Si  Si30  1  0.805910  0.830737  0.204334  1
  Si  Si31  1  0.308200  0.669907  0.545704  1
  Si  Si32  1  0.694101  0.331123  0.046352  1
  Si  Si33  1  0.669907  0.308200  0.454296  1
  Si  Si34  1  0.331123  0.694101  0.953648  1
  Si  Si35  1  0.194173  0.169401  0.703755  1
