# generated using pymatgen
data_Tb3Th(NiB10)2
_symmetry_space_group_name_H-M   'P 1'
_cell_length_a   4.15474600
_cell_length_b   5.57808242
_cell_length_c   11.13438670
_cell_angle_alpha   90.12631432
_cell_angle_beta   90.00000000
_cell_angle_gamma   90.00000000
_symmetry_Int_Tables_number   1
_chemical_formula_structural   Tb3Th(NiB10)2
_chemical_formula_sum   'Tb3 Th1 Ni2 B20'
_cell_volume   258.04452589
_cell_formula_units_Z   1
loop_
 _symmetry_equiv_pos_site_id
 _symmetry_equiv_pos_as_xyz
  1  'x, y, z'
loop_
 _atom_site_type_symbol
 _atom_site_label
 _atom_site_symmetry_multiplicity
 _atom_site_fract_x
 _atom_site_fract_y
 _atom_site_fract_z
 _atom_site_occupancy
  Tb  Tb0  1  0.500000  0.313252  0.863283  1
  Tb  Tb1  1  0.500000  0.689176  0.134690  1
  Tb  Tb2  1  0.500000  0.812265  0.639429  1
  Th  Th3  1  0.500000  0.188136  0.362571  1
  Ni  Ni4  1  0.000000  0.499920  0.501005  1
  Ni  Ni5  1  0.000000  0.999855  0.999843  1
  B  B6  1  0.000000  0.124771  0.542098  1
  B  B7  1  0.000000  0.873448  0.459681  1
  B  B8  1  0.000000  0.625511  0.958682  1
  B  B9  1  0.000000  0.374547  0.039870  1
  B  B10  1  0.000000  0.158077  0.699419  1
  B  B11  1  0.000000  0.844354  0.302296  1
  B  B12  1  0.301045  0.202128  0.112874  1
  B  B13  1  0.301281  0.798344  0.885450  1
  B  B14  1  0.698764  0.698947  0.385151  1
  B  B15  1  0.698466  0.297091  0.615357  1
  B  B16  1  0.698719  0.798344  0.885450  1
  B  B17  1  0.698955  0.202128  0.112874  1
  B  B18  1  0.301534  0.297091  0.615357  1
  B  B19  1  0.301236  0.698947  0.385151  1
  B  B20  1  0.000000  0.031919  0.186877  1
  B  B21  1  0.000000  0.969331  0.813632  1
  B  B22  1  0.000000  0.531790  0.312588  1
  B  B23  1  0.000000  0.468987  0.687565  1
  B  B24  1  0.000000  0.343989  0.196695  1
  B  B25  1  0.000000  0.657651  0.802112  1
