# generated using pymatgen
data_SmGdEr4Ta2O14
_symmetry_space_group_name_H-M   'P 1'
_cell_length_a   6.44049502
_cell_length_b   6.44049431
_cell_length_c   7.51647617
_cell_angle_alpha   90.05207918
_cell_angle_beta   89.94792236
_cell_angle_gamma   109.27332182
_symmetry_Int_Tables_number   1
_chemical_formula_structural   SmGdEr4Ta2O14
_chemical_formula_sum   'Sm1 Gd1 Er4 Ta2 O14'
_cell_volume   294.30906465
_cell_formula_units_Z   1
loop_
 _symmetry_equiv_pos_site_id
 _symmetry_equiv_pos_as_xyz
  1  'x, y, z'
loop_
 _atom_site_type_symbol
 _atom_site_label
 _atom_site_symmetry_multiplicity
 _atom_site_fract_x
 _atom_site_fract_y
 _atom_site_fract_z
 _atom_site_occupancy
  Sm  Sm0  1  0.500000  0.500000  0.000000  1
  Gd  Gd1  1  0.500000  0.500000  0.500000  1
  Er  Er2  1  0.533757  0.001193  0.749002  1
  Er  Er3  1  0.001193  0.533757  0.250998  1
  Er  Er4  1  0.466243  0.998807  0.250998  1
  Er  Er5  1  0.998807  0.466243  0.749002  1
  Ta  Ta6  1  0.000000  0.000000  0.500000  1
  Ta  Ta7  1  0.000000  0.000000  0.000000  1
  O  O8  1  0.678099  0.930275  0.466650  1
  O  O9  1  0.930275  0.678099  0.533350  1
  O  O10  1  0.677532  0.929468  0.033404  1
  O  O11  1  0.929468  0.677532  0.966596  1
  O  O12  1  0.321901  0.069725  0.533350  1
  O  O13  1  0.069725  0.321901  0.466650  1
  O  O14  1  0.322468  0.070532  0.966596  1
  O  O15  1  0.070532  0.322468  0.033404  1
  O  O16  1  0.932573  0.067427  0.749998  1
  O  O17  1  0.067427  0.932573  0.250002  1
  O  O18  1  0.365880  0.634119  0.747729  1
  O  O19  1  0.634119  0.365880  0.252271  1
  O  O20  1  0.641576  0.358424  0.747875  1
  O  O21  1  0.358424  0.641576  0.252125  1
