# generated using pymatgen
data_ZrNbFe3Co9P7
_symmetry_space_group_name_H-M   'P 1'
_cell_length_a   8.87748000
_cell_length_b   8.87748106
_cell_length_c   3.57347300
_cell_angle_alpha   90.00000000
_cell_angle_beta   90.00000000
_cell_angle_gamma   119.99998861
_symmetry_Int_Tables_number   1
_chemical_formula_structural   ZrNbFe3Co9P7
_chemical_formula_sum   'Zr1 Nb1 Fe3 Co9 P7'
_cell_volume   243.89373439
_cell_formula_units_Z   1
loop_
 _symmetry_equiv_pos_site_id
 _symmetry_equiv_pos_as_xyz
  1  'x, y, z'
loop_
 _atom_site_type_symbol
 _atom_site_label
 _atom_site_symmetry_multiplicity
 _atom_site_fract_x
 _atom_site_fract_y
 _atom_site_fract_z
 _atom_site_occupancy
  Zr  Zr0  1  0.333333  0.666667  0.500000  1
  Nb  Nb1  1  0.000000  0.000000  0.000000  1
  Fe  Fe2  1  0.887976  0.427163  0.500000  1
  Fe  Fe3  1  0.539186  0.112024  0.500000  1
  Fe  Fe4  1  0.572837  0.460814  0.500000  1
  Co  Co5  1  0.103036  0.396650  0.000000  1
  Co  Co6  1  0.293614  0.896964  0.000000  1
  Co  Co7  1  0.603350  0.706386  0.000000  1
  Co  Co8  1  0.825452  0.612112  0.000000  1
  Co  Co9  1  0.786659  0.174548  0.000000  1
  Co  Co10  1  0.387888  0.213341  0.000000  1
  Co  Co11  1  0.052753  0.773630  0.500000  1
  Co  Co12  1  0.720878  0.947247  0.500000  1
  Co  Co13  1  0.226370  0.279122  0.500000  1
  P  P14  1  0.077303  0.628323  0.000000  1
  P  P15  1  0.551020  0.922697  0.000000  1
  P  P16  1  0.371677  0.448980  0.000000  1
  P  P17  1  0.785949  0.742047  0.500000  1
  P  P18  1  0.956098  0.214051  0.500000  1
  P  P19  1  0.257953  0.043902  0.500000  1
  P  P20  1  0.666667  0.333333  0.000000  1
