# generated using pymatgen
data_Pu3ScGe6Ru7
_symmetry_space_group_name_H-M   'P 1'
_cell_length_a   7.28043075
_cell_length_b   7.36876509
_cell_length_c   7.36876500
_cell_angle_alpha   109.71277889
_cell_angle_beta   109.22857052
_cell_angle_gamma   109.22857150
_symmetry_Int_Tables_number   1
_chemical_formula_structural   Pu3ScGe6Ru7
_chemical_formula_sum   'Pu3 Sc1 Ge6 Ru7'
_cell_volume   305.22238633
_cell_formula_units_Z   1
loop_
 _symmetry_equiv_pos_site_id
 _symmetry_equiv_pos_as_xyz
  1  'x, y, z'
loop_
 _atom_site_type_symbol
 _atom_site_label
 _atom_site_symmetry_multiplicity
 _atom_site_fract_x
 _atom_site_fract_y
 _atom_site_fract_z
 _atom_site_occupancy
  Pu  Pu0  1  0.000000  0.000000  0.500000  1
  Pu  Pu1  1  0.000000  0.500000  0.000000  1
  Pu  Pu2  1  0.500000  0.500000  0.500000  1
  Sc  Sc3  1  0.500000  0.000000  0.000000  1
  Ge  Ge4  1  0.683290  0.689559  0.000000  1
  Ge  Ge5  1  0.316710  0.000000  0.310441  1
  Ge  Ge6  1  0.993730  0.310441  0.310441  1
  Ge  Ge7  1  0.316710  0.310441  0.000000  1
  Ge  Ge8  1  0.683289  0.000000  0.689559  1
  Ge  Ge9  1  0.006270  0.689559  0.689559  1
  Ru  Ru10  1  0.748120  0.248120  0.496242  1
  Ru  Ru11  1  0.748120  0.496242  0.248120  1
  Ru  Ru12  1  0.500000  0.248120  0.751880  1
  Ru  Ru13  1  0.251880  0.503758  0.751880  1
  Ru  Ru14  1  0.251880  0.751880  0.503758  1
  Ru  Ru15  1  0.500000  0.751880  0.248120  1
  Ru  Ru16  1  0.000000  0.000000  0.000000  1
