# generated using pymatgen
data_Ca11Pr8HoSn16
_symmetry_space_group_name_H-M   'P 1'
_cell_length_a   7.99132932
_cell_length_b   8.54879406
_cell_length_c   16.12899193
_cell_angle_alpha   90.03129527
_cell_angle_beta   90.07350322
_cell_angle_gamma   89.95244380
_symmetry_Int_Tables_number   1
_chemical_formula_structural   Ca11Pr8HoSn16
_chemical_formula_sum   'Ca11 Pr8 Ho1 Sn16'
_cell_volume   1101.87045023
_cell_formula_units_Z   1
loop_
 _symmetry_equiv_pos_site_id
 _symmetry_equiv_pos_as_xyz
  1  'x, y, z'
loop_
 _atom_site_type_symbol
 _atom_site_label
 _atom_site_symmetry_multiplicity
 _atom_site_fract_x
 _atom_site_fract_y
 _atom_site_fract_z
 _atom_site_occupancy
  Ca  Ca0  1  0.833135  0.673500  0.623418  1
  Ca  Ca1  1  0.666196  0.173736  0.376425  1
  Ca  Ca2  1  0.165763  0.326823  0.123036  1
  Ca  Ca3  1  0.666867  0.173393  0.123257  1
  Ca  Ca4  1  0.166141  0.326404  0.376437  1
  Ca  Ca5  1  0.334222  0.826493  0.623381  1
  Ca  Ca6  1  0.833916  0.673968  0.877414  1
  Ca  Ca7  1  0.162070  0.501209  0.749522  1
  Ca  Ca8  1  0.663915  0.998729  0.749600  1
  Ca  Ca9  1  0.837241  0.497697  0.250193  1
  Ca  Ca10  1  0.337307  0.001825  0.249902  1
  Pr  Pr11  1  0.494622  0.316514  0.904082  1
  Pr  Pr12  1  0.993670  0.185528  0.595302  1
  Pr  Pr13  1  0.505878  0.685640  0.403577  1
  Pr  Pr14  1  0.005403  0.814103  0.096731  1
  Pr  Pr15  1  0.506755  0.684914  0.096382  1
  Pr  Pr16  1  0.005837  0.814312  0.403846  1
  Pr  Pr17  1  0.494239  0.315172  0.595969  1
  Pr  Pr18  1  0.993890  0.185862  0.905172  1
  Ho  Ho19  1  0.334741  0.825032  0.875576  1
  Sn  Sn20  1  0.326639  0.032164  0.035829  1
  Sn  Sn21  1  0.828819  0.466172  0.461892  1
  Sn  Sn22  1  0.670678  0.966612  0.538359  1
  Sn  Sn23  1  0.175063  0.537955  0.960481  1
  Sn  Sn24  1  0.666181  0.964881  0.959977  1
  Sn  Sn25  1  0.171024  0.533680  0.538495  1
  Sn  Sn26  1  0.329464  0.033721  0.461820  1
  Sn  Sn27  1  0.828800  0.465858  0.038082  1
  Sn  Sn28  1  0.533081  0.604385  0.751691  1
  Sn  Sn29  1  0.038275  0.896101  0.752932  1
  Sn  Sn30  1  0.464759  0.398335  0.249710  1
  Sn  Sn31  1  0.964835  0.100946  0.250020  1
  Sn  Sn32  1  0.290302  0.140193  0.751845  1
  Sn  Sn33  1  0.789216  0.358218  0.750428  1
  Sn  Sn34  1  0.710770  0.857383  0.249628  1
  Sn  Sn35  1  0.210286  0.642542  0.249589  1
