# generated using pymatgen
data_Tm20Si13Pt3
_symmetry_space_group_name_H-M   'P 1'
_cell_length_a   7.26268500
_cell_length_b   7.64500533
_cell_length_c   14.45518846
_cell_angle_alpha   89.65620262
_cell_angle_beta   89.48682975
_cell_angle_gamma   90.46263986
_symmetry_Int_Tables_number   1
_chemical_formula_structural   Tm20Si13Pt3
_chemical_formula_sum   'Tm20 Si13 Pt3'
_cell_volume   802.52611246
_cell_formula_units_Z   1
loop_
 _symmetry_equiv_pos_site_id
 _symmetry_equiv_pos_as_xyz
  1  'x, y, z'
loop_
 _atom_site_type_symbol
 _atom_site_label
 _atom_site_symmetry_multiplicity
 _atom_site_fract_x
 _atom_site_fract_y
 _atom_site_fract_z
 _atom_site_occupancy
  Tm  Tm0  1  0.014815  0.180106  0.093547  1
  Tm  Tm1  1  0.985238  0.819098  0.906170  1
  Tm  Tm2  1  0.482542  0.684365  0.906708  1
  Tm  Tm3  1  0.986388  0.816320  0.594018  1
  Tm  Tm4  1  0.517159  0.318256  0.094590  1
  Tm  Tm5  1  0.015762  0.179749  0.407577  1
  Tm  Tm6  1  0.512502  0.317542  0.403946  1
  Tm  Tm7  1  0.482068  0.674395  0.594858  1
  Tm  Tm8  1  0.157777  0.513714  0.747058  1
  Tm  Tm9  1  0.844310  0.487951  0.251706  1
  Tm  Tm10  1  0.331296  0.008962  0.250753  1
  Tm  Tm11  1  0.667547  0.987980  0.748506  1
  Tm  Tm12  1  0.326656  0.184107  0.621102  1
  Tm  Tm13  1  0.677249  0.824493  0.374660  1
  Tm  Tm14  1  0.172167  0.669915  0.379563  1
  Tm  Tm15  1  0.680163  0.825910  0.123919  1
  Tm  Tm16  1  0.828623  0.325245  0.624175  1
  Tm  Tm17  1  0.322614  0.175697  0.875174  1
  Tm  Tm18  1  0.830073  0.318532  0.876006  1
  Tm  Tm19  1  0.171844  0.680936  0.123464  1
  Si  Si20  1  0.469668  0.601709  0.248153  1
  Si  Si21  1  0.532484  0.400603  0.753999  1
  Si  Si22  1  0.284696  0.867302  0.751810  1
  Si  Si23  1  0.716233  0.135671  0.248337  1
  Si  Si24  1  0.229126  0.372715  0.247698  1
  Si  Si25  1  0.772859  0.626916  0.754300  1
  Si  Si26  1  0.829636  0.526424  0.459872  1
  Si  Si27  1  0.345967  0.967130  0.460865  1
  Si  Si28  1  0.844737  0.527721  0.038626  1
  Si  Si29  1  0.656815  0.028256  0.538342  1
  Si  Si30  1  0.153762  0.473675  0.961082  1
  Si  Si31  1  0.653828  0.028853  0.960720  1
  Si  Si32  1  0.346223  0.972979  0.039501  1
  Pt  Pt33  1  0.033739  0.103906  0.747751  1
  Pt  Pt34  1  0.968937  0.902167  0.250403  1
  Pt  Pt35  1  0.154495  0.470699  0.541042  1
