# generated using pymatgen
data_Tb11Th5(CdOs)4
_symmetry_space_group_name_H-M   'P 1'
_cell_length_a   9.73992010
_cell_length_b   9.80862071
_cell_length_c   9.80856331
_cell_angle_alpha   59.88148426
_cell_angle_beta   60.24593089
_cell_angle_gamma   60.24571045
_symmetry_Int_Tables_number   1
_chemical_formula_structural   Tb11Th5(CdOs)4
_chemical_formula_sum   'Tb11 Th5 Cd4 Os4'
_cell_volume   664.45271912
_cell_formula_units_Z   1
loop_
 _symmetry_equiv_pos_site_id
 _symmetry_equiv_pos_as_xyz
  1  'x, y, z'
loop_
 _atom_site_type_symbol
 _atom_site_label
 _atom_site_symmetry_multiplicity
 _atom_site_fract_x
 _atom_site_fract_y
 _atom_site_fract_z
 _atom_site_occupancy
  Tb  Tb0  1  0.186176  0.812126  0.812129  1
  Tb  Tb1  1  0.192384  0.807631  0.188516  1
  Tb  Tb2  1  0.810971  0.186276  0.808079  1
  Tb  Tb3  1  0.192365  0.188525  0.807640  1
  Tb  Tb4  1  0.810978  0.808087  0.186239  1
  Tb  Tb5  1  0.936957  0.564855  0.564813  1
  Tb  Tb6  1  0.561838  0.937637  0.937616  1
  Tb  Tb7  1  0.561180  0.940106  0.561590  1
  Tb  Tb8  1  0.939397  0.561487  0.938379  1
  Tb  Tb9  1  0.561178  0.561602  0.940095  1
  Tb  Tb10  1  0.939409  0.938404  0.561464  1
  Th  Th11  1  0.342146  0.349113  0.349117  1
  Th  Th12  1  0.348285  0.347539  0.956747  1
  Th  Th13  1  0.348295  0.956725  0.347558  1
  Th  Th14  1  0.956251  0.350579  0.350584  1
  Th  Th15  1  0.815459  0.185138  0.185138  1
  Cd  Cd16  1  0.581099  0.581666  0.581680  1
  Cd  Cd17  1  0.580517  0.583755  0.253773  1
  Cd  Cd18  1  0.580511  0.253782  0.583755  1
  Cd  Cd19  1  0.255093  0.580859  0.580873  1
  Os  Os20  1  0.132928  0.145744  0.145780  1
  Os  Os21  1  0.144750  0.140875  0.571422  1
  Os  Os22  1  0.144745  0.571402  0.140904  1
  Os  Os23  1  0.577091  0.146084  0.146108  1
