# generated using pymatgen
data_PrBe11Cu2
_symmetry_space_group_name_H-M   'P 1'
_cell_length_a   7.43796296
_cell_length_b   7.43960499
_cell_length_c   7.40127018
_cell_angle_alpha   60.15564456
_cell_angle_beta   60.17770863
_cell_angle_gamma   59.66663745
_symmetry_Int_Tables_number   1
_chemical_formula_structural   PrBe11Cu2
_chemical_formula_sum   'Pr2 Be22 Cu4'
_cell_volume   289.58302881
_cell_formula_units_Z   2
loop_
 _symmetry_equiv_pos_site_id
 _symmetry_equiv_pos_as_xyz
  1  'x, y, z'
loop_
 _atom_site_type_symbol
 _atom_site_label
 _atom_site_symmetry_multiplicity
 _atom_site_fract_x
 _atom_site_fract_y
 _atom_site_fract_z
 _atom_site_occupancy
  Pr  Pr0  1  0.250000  0.250000  0.250000  1
  Pr  Pr1  1  0.750000  0.750000  0.750000  1
  Be  Be2  1  0.500000  0.500000  0.500000  1
  Be  Be3  1  0.000000  0.000000  0.000000  1
  Be  Be4  1  0.279258  0.931175  0.720742  1
  Be  Be5  1  0.720742  0.068825  0.279258  1
  Be  Be6  1  0.931175  0.279258  0.068825  1
  Be  Be7  1  0.068825  0.720742  0.931175  1
  Be  Be8  1  0.203907  0.796093  0.561042  1
  Be  Be9  1  0.796093  0.203907  0.438958  1
  Be  Be10  1  0.438958  0.561042  0.796093  1
  Be  Be11  1  0.561042  0.438958  0.203907  1
  Be  Be12  1  0.716255  0.283745  0.933842  1
  Be  Be13  1  0.283745  0.716255  0.066158  1
  Be  Be14  1  0.066158  0.933842  0.283745  1
  Be  Be15  1  0.933842  0.066158  0.716255  1
  Be  Be16  1  0.569012  0.208105  0.791895  1
  Be  Be17  1  0.430988  0.791895  0.208105  1
  Be  Be18  1  0.791895  0.430988  0.569012  1
  Be  Be19  1  0.208105  0.569012  0.430988  1
  Be  Be20  1  0.940018  0.715887  0.284113  1
  Be  Be21  1  0.059982  0.284113  0.715887  1
  Be  Be22  1  0.284113  0.059982  0.940018  1
  Be  Be23  1  0.715887  0.940018  0.059982  1
  Cu  Cu24  1  0.801910  0.558656  0.198090  1
  Cu  Cu25  1  0.198090  0.441344  0.801910  1
  Cu  Cu26  1  0.558656  0.801910  0.441344  1
  Cu  Cu27  1  0.441344  0.198090  0.558656  1
