# generated using pymatgen
data_K4Li2AlCrH12
_symmetry_space_group_name_H-M   'P 1'
_cell_length_a   5.65063082
_cell_length_b   5.65062963
_cell_length_c   9.66563424
_cell_angle_alpha   106.99602726
_cell_angle_beta   106.99602420
_cell_angle_gamma   59.99999631
_symmetry_Int_Tables_number   1
_chemical_formula_structural   K4Li2AlCrH12
_chemical_formula_sum   'K4 Li2 Al1 Cr1 H12'
_cell_volume   251.58828979
_cell_formula_units_Z   1
loop_
 _symmetry_equiv_pos_site_id
 _symmetry_equiv_pos_as_xyz
  1  'x, y, z'
loop_
 _atom_site_type_symbol
 _atom_site_label
 _atom_site_symmetry_multiplicity
 _atom_site_fract_x
 _atom_site_fract_y
 _atom_site_fract_z
 _atom_site_occupancy
  K  K0  1  0.714712  0.714712  0.144137  1
  K  K1  1  0.127935  0.127935  0.383806  1
  K  K2  1  0.872065  0.872065  0.616194  1
  K  K3  1  0.285288  0.285288  0.855863  1
  Li  Li4  1  0.407580  0.407580  0.222736  1
  Li  Li5  1  0.592421  0.592421  0.777264  1
  Al  Al6  1  0.500000  0.500000  0.500000  1
  Cr  Cr7  1  0.000000  0.000000  0.000000  1
  H  H8  1  0.739674  0.184965  0.109605  1
  H  H9  1  0.184966  0.184966  0.109605  1
  H  H10  1  0.184965  0.739674  0.109605  1
  H  H11  1  0.603518  0.175229  0.382266  1
  H  H12  1  0.603518  0.603518  0.382266  1
  H  H13  1  0.175229  0.603518  0.382266  1
  H  H14  1  0.824771  0.396482  0.617733  1
  H  H15  1  0.396482  0.396482  0.617733  1
  H  H16  1  0.396482  0.824771  0.617733  1
  H  H17  1  0.815035  0.260326  0.890394  1
  H  H18  1  0.815033  0.815033  0.890394  1
  H  H19  1  0.260326  0.815035  0.890394  1
