# generated using pymatgen
data_ErNb3(Co4P3)2
_symmetry_space_group_name_H-M   'P 1'
_cell_length_a   11.95288000
_cell_length_b   11.95288024
_cell_length_c   3.63565000
_cell_angle_alpha   90.00000000
_cell_angle_beta   90.00000000
_cell_angle_gamma   119.99999935
_symmetry_Int_Tables_number   1
_chemical_formula_structural   ErNb3(Co4P3)2
_chemical_formula_sum   'Er2 Nb6 Co16 P12'
_cell_volume   449.83975040
_cell_formula_units_Z   2
loop_
 _symmetry_equiv_pos_site_id
 _symmetry_equiv_pos_as_xyz
  1  'x, y, z'
loop_
 _atom_site_type_symbol
 _atom_site_label
 _atom_site_symmetry_multiplicity
 _atom_site_fract_x
 _atom_site_fract_y
 _atom_site_fract_z
 _atom_site_occupancy
  Er  Er0  1  0.333333  0.666667  0.000000  1
  Er  Er1  1  0.666667  0.333333  0.000000  1
  Nb  Nb2  1  0.820899  0.000000  0.500000  1
  Nb  Nb3  1  0.000000  0.820899  0.500000  1
  Nb  Nb4  1  0.179101  0.179101  0.500000  1
  Nb  Nb5  1  0.445488  0.000000  0.000000  1
  Nb  Nb6  1  0.000000  0.445488  0.000000  1
  Nb  Nb7  1  0.554512  0.554512  0.000000  1
  Co  Co8  1  0.272386  0.000000  0.500000  1
  Co  Co9  1  0.000000  0.272386  0.500000  1
  Co  Co10  1  0.727614  0.727614  0.500000  1
  Co  Co11  1  0.633769  0.810262  0.000000  1
  Co  Co12  1  0.189738  0.823507  0.000000  1
  Co  Co13  1  0.176493  0.366231  0.000000  1
  Co  Co14  1  0.366231  0.176493  0.000000  1
  Co  Co15  1  0.810262  0.633769  0.000000  1
  Co  Co16  1  0.823507  0.189738  0.000000  1
  Co  Co17  1  0.520732  0.874300  0.500000  1
  Co  Co18  1  0.125700  0.646432  0.500000  1
  Co  Co19  1  0.353568  0.479268  0.500000  1
  Co  Co20  1  0.479268  0.353568  0.500000  1
  Co  Co21  1  0.874300  0.520732  0.500000  1
  Co  Co22  1  0.646432  0.125700  0.500000  1
  Co  Co23  1  0.000000  0.000000  0.000000  1
  P  P24  1  0.172913  0.000000  0.000000  1
  P  P25  1  0.000000  0.172913  0.000000  1
  P  P26  1  0.827087  0.827087  0.000000  1
  P  P27  1  0.522651  0.690412  0.500000  1
  P  P28  1  0.309588  0.832238  0.500000  1
  P  P29  1  0.167762  0.477349  0.500000  1
  P  P30  1  0.477349  0.167762  0.500000  1
  P  P31  1  0.690412  0.522651  0.500000  1
  P  P32  1  0.832238  0.309588  0.500000  1
  P  P33  1  0.648464  0.000000  0.000000  1
  P  P34  1  0.000000  0.648464  0.000000  1
  P  P35  1  0.351536  0.351536  0.000000  1
