# generated using pymatgen
data_MgCo6As3P
_symmetry_space_group_name_H-M   'P 1'
_cell_length_a   6.79806200
_cell_length_b   6.79806216
_cell_length_c   3.46165900
_cell_angle_alpha   90.00000000
_cell_angle_beta   90.00000000
_cell_angle_gamma   120.00000894
_symmetry_Int_Tables_number   1
_chemical_formula_structural   MgCo6As3P
_chemical_formula_sum   'Mg1 Co6 As3 P1'
_cell_volume   138.54317291
_cell_formula_units_Z   1
loop_
 _symmetry_equiv_pos_site_id
 _symmetry_equiv_pos_as_xyz
  1  'x, y, z'
loop_
 _atom_site_type_symbol
 _atom_site_label
 _atom_site_symmetry_multiplicity
 _atom_site_fract_x
 _atom_site_fract_y
 _atom_site_fract_z
 _atom_site_occupancy
  Mg  Mg0  1  0.000000  0.000000  0.000000  1
  Co  Co1  1  0.205760  0.794240  0.500000  1
  Co  Co2  1  0.205760  0.411520  0.500000  1
  Co  Co3  1  0.530681  0.061362  0.000000  1
  Co  Co4  1  0.938638  0.469319  0.000000  1
  Co  Co5  1  0.530681  0.469319  0.000000  1
  Co  Co6  1  0.588480  0.794240  0.500000  1
  As  As7  1  0.814517  0.185483  0.500000  1
  As  As8  1  0.370965  0.185483  0.500000  1
  As  As9  1  0.814517  0.629035  0.500000  1
  P  P10  1  0.333333  0.666667  0.000000  1
