# generated using pymatgen
data_DyHo5Co13P12Ru5
_symmetry_space_group_name_H-M   'P 1'
_cell_length_a   3.75497200
_cell_length_b   10.56624194
_cell_length_c   12.33251927
_cell_angle_alpha   90.35297972
_cell_angle_beta   90.00000000
_cell_angle_gamma   90.00000000
_symmetry_Int_Tables_number   1
_chemical_formula_structural   DyHo5Co13P12Ru5
_chemical_formula_sum   'Dy1 Ho5 Co13 P12 Ru5'
_cell_volume   489.29504181
_cell_formula_units_Z   1
loop_
 _symmetry_equiv_pos_site_id
 _symmetry_equiv_pos_as_xyz
  1  'x, y, z'
loop_
 _atom_site_type_symbol
 _atom_site_label
 _atom_site_symmetry_multiplicity
 _atom_site_fract_x
 _atom_site_fract_y
 _atom_site_fract_z
 _atom_site_occupancy
  Dy  Dy0  1  0.000000  0.502657  0.527000  1
  Ho  Ho1  1  0.500000  0.995181  0.477100  1
  Ho  Ho2  1  0.500000  0.818571  0.202898  1
  Ho  Ho3  1  0.500000  0.183162  0.201439  1
  Ho  Ho4  1  0.000000  0.682510  0.795837  1
  Ho  Ho5  1  0.000000  0.317043  0.798583  1
  Co  Co6  1  0.000000  0.500416  0.985239  1
  Co  Co7  1  0.500000  0.999563  0.014107  1
  Co  Co8  1  0.000000  0.798508  0.574117  1
  Co  Co9  1  0.500000  0.877276  0.711920  1
  Co  Co10  1  0.500000  0.117570  0.715454  1
  Co  Co11  1  0.000000  0.622267  0.285892  1
  Co  Co12  1  0.000000  0.381337  0.284128  1
  Co  Co13  1  0.500000  0.332830  0.989821  1
  Co  Co14  1  0.500000  0.668026  0.989942  1
  Co  Co15  1  0.000000  0.166868  0.009284  1
  Co  Co16  1  0.000000  0.832297  0.009457  1
  Co  Co17  1  0.500000  0.500143  0.705231  1
  Co  Co18  1  0.000000  0.000959  0.294787  1
  P  P19  1  0.500000  0.312485  0.622609  1
  P  P20  1  0.500000  0.689471  0.621243  1
  P  P21  1  0.000000  0.186777  0.378095  1
  P  P22  1  0.000000  0.816438  0.381291  1
  P  P23  1  0.500000  0.500193  0.882206  1
  P  P24  1  0.000000  0.000222  0.117340  1
  P  P25  1  0.500000  0.845695  0.894533  1
  P  P26  1  0.500000  0.152745  0.895131  1
  P  P27  1  0.000000  0.654153  0.104876  1
  P  P28  1  0.000000  0.346904  0.103954  1
  P  P29  1  0.500000  0.500484  0.343371  1
  P  P30  1  0.000000  0.996035  0.654366  1
  Ru  Ru31  1  0.500000  0.298451  0.426694  1
  Ru  Ru32  1  0.500000  0.704179  0.429941  1
  Ru  Ru33  1  0.000000  0.199928  0.573687  1
  Ru  Ru34  1  0.500000  0.501362  0.155402  1
  Ru  Ru35  1  0.000000  0.997293  0.843023  1
