# generated using pymatgen
data_Sr4LiCd3Pb4
_symmetry_space_group_name_H-M   'P 1'
_cell_length_a   8.46953935
_cell_length_b   5.09665100
_cell_length_c   8.75254300
_cell_angle_alpha   90.00000000
_cell_angle_beta   89.26264366
_cell_angle_gamma   90.00000000
_symmetry_Int_Tables_number   1
_chemical_formula_structural   Sr4LiCd3Pb4
_chemical_formula_sum   'Sr4 Li1 Cd3 Pb4'
_cell_volume   377.78348981
_cell_formula_units_Z   1
loop_
 _symmetry_equiv_pos_site_id
 _symmetry_equiv_pos_as_xyz
  1  'x, y, z'
loop_
 _atom_site_type_symbol
 _atom_site_label
 _atom_site_symmetry_multiplicity
 _atom_site_fract_x
 _atom_site_fract_y
 _atom_site_fract_z
 _atom_site_occupancy
  Sr  Sr0  1  0.999152  0.250000  0.199666  1
  Sr  Sr1  1  0.503244  0.250000  0.296602  1
  Sr  Sr2  1  0.510088  0.750000  0.701075  1
  Sr  Sr3  1  0.994912  0.750000  0.801476  1
  Li  Li4  1  0.660995  0.750000  0.067542  1
  Cd  Cd5  1  0.161595  0.750000  0.425356  1
  Cd  Cd6  1  0.827908  0.250000  0.579123  1
  Cd  Cd7  1  0.342640  0.250000  0.927295  1
  Pb  Pb8  1  0.290343  0.750000  0.098789  1
  Pb  Pb9  1  0.784643  0.750000  0.391057  1
  Pb  Pb10  1  0.211656  0.250000  0.599654  1
  Pb  Pb11  1  0.712821  0.250000  0.912362  1
