# generated using pymatgen
data_HoTm(Si2Pd)2
_symmetry_space_group_name_H-M   'P 1'
_cell_length_a   3.91659600
_cell_length_b   7.22504061
_cell_length_c   10.05029100
_cell_angle_alpha   90.07138738
_cell_angle_beta   90.00000000
_cell_angle_gamma   90.00000000
_symmetry_Int_Tables_number   1
_chemical_formula_structural   HoTm(Si2Pd)2
_chemical_formula_sum   'Ho2 Tm2 Si8 Pd4'
_cell_volume   284.39854355
_cell_formula_units_Z   2
loop_
 _symmetry_equiv_pos_site_id
 _symmetry_equiv_pos_as_xyz
  1  'x, y, z'
loop_
 _atom_site_type_symbol
 _atom_site_label
 _atom_site_symmetry_multiplicity
 _atom_site_fract_x
 _atom_site_fract_y
 _atom_site_fract_z
 _atom_site_occupancy
  Ho  Ho0  1  0.250000  0.138830  0.868090  1
  Ho  Ho1  1  0.750000  0.861170  0.131910  1
  Tm  Tm2  1  0.250000  0.638756  0.631529  1
  Tm  Tm3  1  0.750000  0.361244  0.368471  1
  Si  Si4  1  0.750000  0.277830  0.068113  1
  Si  Si5  1  0.250000  0.722170  0.931887  1
  Si  Si6  1  0.750000  0.775978  0.432995  1
  Si  Si7  1  0.250000  0.224022  0.567005  1
  Si  Si8  1  0.750000  0.838709  0.823197  1
  Si  Si9  1  0.250000  0.161291  0.176803  1
  Si  Si10  1  0.750000  0.340275  0.675149  1
  Si  Si11  1  0.250000  0.659725  0.324851  1
  Pd  Pd12  1  0.250000  0.001090  0.383259  1
  Pd  Pd13  1  0.750000  0.998910  0.616741  1
  Pd  Pd14  1  0.250000  0.500128  0.117152  1
  Pd  Pd15  1  0.750000  0.499872  0.882848  1
