# generated using pymatgen
data_Pr7Y(Si3Ir)4
_symmetry_space_group_name_H-M   'P 1'
_cell_length_a   8.26103281
_cell_length_b   8.26103377
_cell_length_c   8.51108100
_cell_angle_alpha   90.00000000
_cell_angle_beta   90.00000000
_cell_angle_gamma   119.94929206
_symmetry_Int_Tables_number   1
_chemical_formula_structural   Pr7Y(Si3Ir)4
_chemical_formula_sum   'Pr7 Y1 Si12 Ir4'
_cell_volume   503.27549353
_cell_formula_units_Z   1
loop_
 _symmetry_equiv_pos_site_id
 _symmetry_equiv_pos_as_xyz
  1  'x, y, z'
loop_
 _atom_site_type_symbol
 _atom_site_label
 _atom_site_symmetry_multiplicity
 _atom_site_fract_x
 _atom_site_fract_y
 _atom_site_fract_z
 _atom_site_occupancy
  Pr  Pr0  1  0.500301  0.499699  0.250000  1
  Pr  Pr1  1  0.001107  0.500562  0.750000  1
  Pr  Pr2  1  0.999058  0.499579  0.250000  1
  Pr  Pr3  1  0.499438  0.998893  0.750000  1
  Pr  Pr4  1  0.500421  0.000942  0.250000  1
  Pr  Pr5  1  0.999900  0.000100  0.750000  1
  Pr  Pr6  1  0.000062  0.999938  0.250000  1
  Y  Y7  1  0.499770  0.500230  0.750000  1
  Si  Si8  1  0.832917  0.167083  0.000606  1
  Si  Si9  1  0.167057  0.832943  0.999993  1
  Si  Si10  1  0.334239  0.167791  0.997789  1
  Si  Si11  1  0.167057  0.832943  0.500007  1
  Si  Si12  1  0.665785  0.832205  0.996733  1
  Si  Si13  1  0.832917  0.167083  0.499394  1
  Si  Si14  1  0.832209  0.665761  0.997789  1
  Si  Si15  1  0.665785  0.832205  0.503267  1
  Si  Si16  1  0.167795  0.334215  0.996733  1
  Si  Si17  1  0.334239  0.167791  0.502211  1
  Si  Si18  1  0.167795  0.334215  0.503267  1
  Si  Si19  1  0.832209  0.665761  0.502211  1
  Ir  Ir20  1  0.665817  0.334183  0.994402  1
  Ir  Ir21  1  0.334153  0.665847  0.998111  1
  Ir  Ir22  1  0.334153  0.665847  0.501889  1
  Ir  Ir23  1  0.665817  0.334183  0.505598  1
