# generated using pymatgen
data_Pu5UF24
_symmetry_space_group_name_H-M   'P 1'
_cell_length_a   8.33261376
_cell_length_b   8.37002482
_cell_length_c   8.37968387
_cell_angle_alpha   62.77245040
_cell_angle_beta   63.25249876
_cell_angle_gamma   80.11254524
_symmetry_Int_Tables_number   1
_chemical_formula_structural   Pu5UF24
_chemical_formula_sum   'Pu5 U1 F24'
_cell_volume   463.64003835
_cell_formula_units_Z   1
loop_
 _symmetry_equiv_pos_site_id
 _symmetry_equiv_pos_as_xyz
  1  'x, y, z'
loop_
 _atom_site_type_symbol
 _atom_site_label
 _atom_site_symmetry_multiplicity
 _atom_site_fract_x
 _atom_site_fract_y
 _atom_site_fract_z
 _atom_site_occupancy
  Pu  Pu0  1  0.221051  0.377266  0.328181  1
  Pu  Pu1  1  0.635495  0.778199  0.174096  1
  Pu  Pu2  1  0.776405  0.640073  0.671945  1
  Pu  Pu3  1  0.211823  0.793846  0.745111  1
  Pu  Pu4  1  0.780962  0.217777  0.251926  1
  U  U5  1  0.363465  0.225010  0.837046  1
  F  F6  1  0.727178  0.029257  0.147047  1
  F  F7  1  0.979134  0.269585  0.340981  1
  F  F8  1  0.283499  0.977234  0.846882  1
  F  F9  1  0.033123  0.720443  0.647914  1
  F  F10  1  0.498286  0.253742  0.290358  1
  F  F11  1  0.741636  0.498161  0.212789  1
  F  F12  1  0.489100  0.004734  0.999869  1
  F  F13  1  0.995503  0.495071  0.504356  1
  F  F14  1  0.400192  0.598595  0.252768  1
  F  F15  1  0.592523  0.391116  0.749829  1
  F  F16  1  0.811087  0.397607  0.927335  1
  F  F17  1  0.590940  0.189927  0.584175  1
  F  F18  1  0.189959  0.599150  0.064974  1
  F  F19  1  0.398888  0.810979  0.427617  1
  F  F20  1  0.077263  0.169259  0.035828  1
  F  F21  1  0.821174  0.935947  0.454438  1
  F  F22  1  0.935775  0.824849  0.954547  1
  F  F23  1  0.176860  0.069640  0.543142  1
  F  F24  1  0.681429  0.744375  0.896426  1
  F  F25  1  0.265832  0.317957  0.610719  1
  F  F26  1  0.322369  0.259081  0.100514  1
  F  F27  1  0.743108  0.676058  0.398011  1
  F  F28  1  0.258936  0.495626  0.788438  1
  F  F29  1  0.497005  0.739434  0.712738  1
