# generated using pymatgen
data_NaTm(Si7Rh3)2
_symmetry_space_group_name_H-M   'P 1'
_cell_length_a   7.96884463
_cell_length_b   7.96884423
_cell_length_c   7.96884526
_cell_angle_alpha   57.13601792
_cell_angle_beta   57.13601504
_cell_angle_gamma   57.13601458
_symmetry_Int_Tables_number   1
_chemical_formula_structural   NaTm(Si7Rh3)2
_chemical_formula_sum   'Na1 Tm1 Si14 Rh6'
_cell_volume   334.21165798
_cell_formula_units_Z   1
loop_
 _symmetry_equiv_pos_site_id
 _symmetry_equiv_pos_as_xyz
  1  'x, y, z'
loop_
 _atom_site_type_symbol
 _atom_site_label
 _atom_site_symmetry_multiplicity
 _atom_site_fract_x
 _atom_site_fract_y
 _atom_site_fract_z
 _atom_site_occupancy
  Na  Na0  1  0.000000  0.000000  0.000000  1
  Tm  Tm1  1  0.500000  0.500000  0.500000  1
  Si  Si2  1  0.749741  0.749741  0.749741  1
  Si  Si3  1  0.250259  0.250259  0.250259  1
  Si  Si4  1  0.851642  0.066573  0.673979  1
  Si  Si5  1  0.673979  0.851642  0.066573  1
  Si  Si6  1  0.066573  0.673979  0.851642  1
  Si  Si7  1  0.649941  0.828983  0.432168  1
  Si  Si8  1  0.432168  0.649941  0.828983  1
  Si  Si9  1  0.828983  0.432168  0.649941  1
  Si  Si10  1  0.171017  0.567832  0.350059  1
  Si  Si11  1  0.567832  0.350059  0.171017  1
  Si  Si12  1  0.350059  0.171017  0.567832  1
  Si  Si13  1  0.933427  0.326021  0.148358  1
  Si  Si14  1  0.326021  0.148358  0.933427  1
  Si  Si15  1  0.148358  0.933427  0.326021  1
  Rh  Rh16  1  0.073440  0.432281  0.746939  1
  Rh  Rh17  1  0.253061  0.926560  0.567719  1
  Rh  Rh18  1  0.567719  0.253061  0.926560  1
  Rh  Rh19  1  0.926560  0.567719  0.253061  1
  Rh  Rh20  1  0.432281  0.746939  0.073440  1
  Rh  Rh21  1  0.746939  0.073440  0.432281  1
