# generated using pymatgen
data_Ho20Ir11Ru
_symmetry_space_group_name_H-M   'P 1'
_cell_length_a   10.82091700
_cell_length_b   10.82091700
_cell_length_c   6.37572800
_cell_angle_alpha   90.00000000
_cell_angle_beta   90.00000000
_cell_angle_gamma   90.00000000
_symmetry_Int_Tables_number   1
_chemical_formula_structural   Ho20Ir11Ru
_chemical_formula_sum   'Ho20 Ir11 Ru1'
_cell_volume   746.54830325
_cell_formula_units_Z   1
loop_
 _symmetry_equiv_pos_site_id
 _symmetry_equiv_pos_as_xyz
  1  'x, y, z'
loop_
 _atom_site_type_symbol
 _atom_site_label
 _atom_site_symmetry_multiplicity
 _atom_site_fract_x
 _atom_site_fract_y
 _atom_site_fract_z
 _atom_site_occupancy
  Ho  Ho0  1  0.292449  0.087162  0.376689  1
  Ho  Ho1  1  0.292719  0.912850  0.879254  1
  Ho  Ho2  1  0.707281  0.087150  0.879254  1
  Ho  Ho3  1  0.707551  0.912838  0.376689  1
  Ho  Ho4  1  0.587150  0.792719  0.879254  1
  Ho  Ho5  1  0.587162  0.207551  0.376689  1
  Ho  Ho6  1  0.412838  0.792449  0.376689  1
  Ho  Ho7  1  0.412850  0.207281  0.879254  1
  Ho  Ho8  1  0.209000  0.411931  0.621997  1
  Ho  Ho9  1  0.208994  0.587990  0.121771  1
  Ho  Ho10  1  0.791006  0.412010  0.121771  1
  Ho  Ho11  1  0.791000  0.588069  0.621997  1
  Ho  Ho12  1  0.912010  0.708994  0.121771  1
  Ho  Ho13  1  0.911931  0.291000  0.621997  1
  Ho  Ho14  1  0.088069  0.709000  0.621997  1
  Ho  Ho15  1  0.087990  0.291006  0.121771  1
  Ho  Ho16  1  0.000000  0.000000  0.499631  1
  Ho  Ho17  1  0.000000  0.000000  0.999591  1
  Ho  Ho18  1  0.500000  0.500000  0.999591  1
  Ho  Ho19  1  0.500000  0.500000  0.499631  1
  Ir  Ir20  1  0.846984  0.153694  0.250154  1
  Ir  Ir21  1  0.847109  0.846559  0.749912  1
  Ir  Ir22  1  0.152891  0.153441  0.749912  1
  Ir  Ir23  1  0.153016  0.846306  0.250154  1
  Ir  Ir24  1  0.653441  0.347109  0.749912  1
  Ir  Ir25  1  0.653694  0.653016  0.250154  1
  Ir  Ir26  1  0.346306  0.346984  0.250154  1
  Ir  Ir27  1  0.346559  0.652891  0.749912  1
  Ir  Ir28  1  0.500000  0.000000  0.622057  1
  Ir  Ir29  1  0.000000  0.500000  0.879011  1
  Ir  Ir30  1  0.000000  0.500000  0.379092  1
  Ru  Ru31  1  0.500000  0.000000  0.122296  1
