# generated using pymatgen
data_GdEr2Al3Si2Ir
_symmetry_space_group_name_H-M   'P 1'
_cell_length_a   6.89475900
_cell_length_b   6.89475876
_cell_length_c   4.20587400
_cell_angle_alpha   90.00000000
_cell_angle_beta   90.00000000
_cell_angle_gamma   120.01706842
_symmetry_Int_Tables_number   1
_chemical_formula_structural   GdEr2Al3Si2Ir
_chemical_formula_sum   'Gd1 Er2 Al3 Si2 Ir1'
_cell_volume   173.12123204
_cell_formula_units_Z   1
loop_
 _symmetry_equiv_pos_site_id
 _symmetry_equiv_pos_as_xyz
  1  'x, y, z'
loop_
 _atom_site_type_symbol
 _atom_site_label
 _atom_site_symmetry_multiplicity
 _atom_site_fract_x
 _atom_site_fract_y
 _atom_site_fract_z
 _atom_site_occupancy
  Gd  Gd0  1  0.581070  0.581070  0.000000  1
  Er  Er1  1  0.415643  0.999294  0.000000  1
  Er  Er2  1  0.999294  0.415643  0.000000  1
  Al  Al3  1  0.767436  0.001117  0.500001  1
  Al  Al4  1  0.232277  0.232277  0.500001  1
  Al  Al5  1  0.001117  0.767436  0.500001  1
  Si  Si6  1  0.667488  0.331097  0.500001  1
  Si  Si7  1  0.331097  0.667488  0.500001  1
  Ir  Ir8  1  0.004578  0.004578  0.000000  1
