# generated using pymatgen
data_La3ZnCu(AgSn2)2
_symmetry_space_group_name_H-M   'P 1'
_cell_length_a   8.97617529
_cell_length_b   8.82441639
_cell_length_c   8.82441851
_cell_angle_alpha   148.69494076
_cell_angle_beta   130.97754438
_cell_angle_gamma   59.16031887
_symmetry_Int_Tables_number   1
_chemical_formula_structural   La3ZnCu(AgSn2)2
_chemical_formula_sum   'La3 Zn1 Cu1 Ag2 Sn4'
_cell_volume   272.16182455
_cell_formula_units_Z   1
loop_
 _symmetry_equiv_pos_site_id
 _symmetry_equiv_pos_as_xyz
  1  'x, y, z'
loop_
 _atom_site_type_symbol
 _atom_site_label
 _atom_site_symmetry_multiplicity
 _atom_site_fract_x
 _atom_site_fract_y
 _atom_site_fract_z
 _atom_site_occupancy
  La  La0  1  0.501906  0.000389  0.501516  1
  La  La1  1  0.114036  0.130374  0.983662  1
  La  La2  1  0.895922  0.871800  0.024121  1
  Zn  Zn3  1  0.836197  0.655946  0.180251  1
  Cu  Cu4  1  0.154229  0.340307  0.813921  1
  Ag  Ag5  1  0.485733  0.681675  0.804056  1
  Ag  Ag6  1  0.507652  0.319157  0.188495  1
  Sn  Sn7  1  0.800117  0.491285  0.308831  1
  Sn  Sn8  1  0.204604  0.505064  0.699539  1
  Sn  Sn9  1  0.754729  0.220764  0.533964  1
  Sn  Sn10  1  0.244877  0.783237  0.461640  1
