# generated using pymatgen
data_Sm2Y3Mn2O12
_symmetry_space_group_name_H-M   'P 1'
_cell_length_a   6.89613861
_cell_length_b   6.89613732
_cell_length_c   7.33910489
_cell_angle_alpha   74.41156452
_cell_angle_beta   74.41156588
_cell_angle_gamma   49.74157769
_symmetry_Int_Tables_number   1
_chemical_formula_structural   Sm2Y3Mn2O12
_chemical_formula_sum   'Sm2 Y3 Mn2 O12'
_cell_volume   254.40117664
_cell_formula_units_Z   1
loop_
 _symmetry_equiv_pos_site_id
 _symmetry_equiv_pos_as_xyz
  1  'x, y, z'
loop_
 _atom_site_type_symbol
 _atom_site_label
 _atom_site_symmetry_multiplicity
 _atom_site_fract_x
 _atom_site_fract_y
 _atom_site_fract_z
 _atom_site_occupancy
  Sm  Sm0  1  0.306352  0.306352  0.835715  1
  Sm  Sm1  1  0.000493  0.000493  0.499186  1
  Y  Y2  1  0.305723  0.305723  0.355262  1
  Y  Y3  1  0.694039  0.694039  0.641460  1
  Y  Y4  1  0.692914  0.692914  0.165699  1
  Mn  Mn5  1  0.753750  0.246251  0.000950  1
  Mn  Mn6  1  0.246251  0.753750  0.000950  1
  O  O7  1  0.093751  0.595599  0.572615  1
  O  O8  1  0.001141  0.001141  0.174461  1
  O  O9  1  0.406455  0.903391  0.422551  1
  O  O10  1  0.499708  0.499708  0.180090  1
  O  O11  1  0.097822  0.582186  0.083042  1
  O  O12  1  0.903391  0.406455  0.422551  1
  O  O13  1  0.000859  0.000859  0.824964  1
  O  O14  1  0.595599  0.093750  0.572615  1
  O  O15  1  0.500522  0.500522  0.822056  1
  O  O16  1  0.582186  0.097822  0.083042  1
  O  O17  1  0.424074  0.894971  0.921395  1
  O  O18  1  0.894971  0.424074  0.921395  1
