# generated using pymatgen
data_AgBi2Rh4PbO14
_symmetry_space_group_name_H-M   'P 1'
_cell_length_a   7.36394178
_cell_length_b   7.21147448
_cell_length_c   7.40329200
_cell_angle_alpha   59.11614349
_cell_angle_beta   59.82307599
_cell_angle_gamma   58.98439053
_symmetry_Int_Tables_number   1
_chemical_formula_structural   AgBi2Rh4PbO14
_chemical_formula_sum   'Ag1 Bi2 Rh4 Pb1 O14'
_cell_volume   273.58385254
_cell_formula_units_Z   1
loop_
 _symmetry_equiv_pos_site_id
 _symmetry_equiv_pos_as_xyz
  1  'x, y, z'
loop_
 _atom_site_type_symbol
 _atom_site_label
 _atom_site_symmetry_multiplicity
 _atom_site_fract_x
 _atom_site_fract_y
 _atom_site_fract_z
 _atom_site_occupancy
  Ag  Ag0  1  0.125000  0.625000  0.125000  1
  Bi  Bi1  1  0.125000  0.125000  0.125000  1
  Bi  Bi2  1  0.125000  0.125000  0.625000  1
  Rh  Rh3  1  0.625000  0.625000  0.625000  1
  Rh  Rh4  1  0.625000  0.625000  0.125000  1
  Rh  Rh5  1  0.125000  0.625000  0.625000  1
  Rh  Rh6  1  0.625000  0.125000  0.625000  1
  Pb  Pb7  1  0.625000  0.125000  0.125000  1
  O  O8  1  0.241097  0.266485  0.246209  1
  O  O9  1  0.297848  0.708269  0.298190  1
  O  O10  1  0.956753  0.961589  0.540829  1
  O  O11  1  0.540382  0.961961  0.541338  1
  O  O12  1  0.695923  0.709274  0.297402  1
  O  O13  1  0.952152  0.541731  0.554306  1
  O  O14  1  0.709618  0.288039  0.708662  1
  O  O15  1  0.293247  0.288411  0.709171  1
  O  O16  1  0.709618  0.288039  0.293680  1
  O  O17  1  0.297848  0.708269  0.695694  1
  O  O18  1  0.952152  0.541731  0.951810  1
  O  O19  1  0.554077  0.540726  0.952598  1
  O  O20  1  0.008903  0.983515  0.003791  1
  O  O21  1  0.540382  0.961961  0.956320  1
