# generated using pymatgen
data_Tb12Y8Co3Bi8Os
_symmetry_space_group_name_H-M   'P 1'
_cell_length_a   8.05874149
_cell_length_b   8.91538100
_cell_length_c   12.52111164
_cell_angle_alpha   90.00000000
_cell_angle_beta   90.26495105
_cell_angle_gamma   90.00000000
_symmetry_Int_Tables_number   1
_chemical_formula_structural   Tb12Y8Co3Bi8Os
_chemical_formula_sum   'Tb12 Y8 Co3 Bi8 Os1'
_cell_volume   899.59156871
_cell_formula_units_Z   1
loop_
 _symmetry_equiv_pos_site_id
 _symmetry_equiv_pos_as_xyz
  1  'x, y, z'
loop_
 _atom_site_type_symbol
 _atom_site_label
 _atom_site_symmetry_multiplicity
 _atom_site_fract_x
 _atom_site_fract_y
 _atom_site_fract_z
 _atom_site_occupancy
  Tb  Tb0  1  0.378604  0.750000  0.695389  1
  Tb  Tb1  1  0.118557  0.750000  0.188076  1
  Tb  Tb2  1  0.945035  0.750000  0.503854  1
  Tb  Tb3  1  0.546481  0.750000  0.002214  1
  Tb  Tb4  1  0.677658  0.041675  0.564515  1
  Tb  Tb5  1  0.324112  0.964819  0.437141  1
  Tb  Tb6  1  0.175888  0.966710  0.937096  1
  Tb  Tb7  1  0.324112  0.535181  0.437141  1
  Tb  Tb8  1  0.823018  0.035405  0.062642  1
  Tb  Tb9  1  0.677658  0.458325  0.564515  1
  Tb  Tb10  1  0.823018  0.464595  0.062642  1
  Tb  Tb11  1  0.175888  0.533290  0.937096  1
  Y  Y12  1  0.846732  0.750000  0.799342  1
  Y  Y13  1  0.152180  0.250000  0.199183  1
  Y  Y14  1  0.347879  0.250000  0.700072  1
  Y  Y15  1  0.654051  0.750000  0.293949  1
  Y  Y16  1  0.618991  0.250000  0.308363  1
  Y  Y17  1  0.880838  0.250000  0.809550  1
  Y  Y18  1  0.049608  0.250000  0.496472  1
  Y  Y19  1  0.453933  0.250000  0.997674  1
  Co  Co20  1  0.433861  0.250000  0.490099  1
  Co  Co21  1  0.059089  0.250000  0.991681  1
  Co  Co22  1  0.938660  0.750000  0.008259  1
  Bi  Bi23  1  0.572673  0.490647  0.827297  1
  Bi  Bi24  1  0.427293  0.507265  0.173327  1
  Bi  Bi25  1  0.071916  0.507264  0.674391  1
  Bi  Bi26  1  0.427293  0.992735  0.173327  1
  Bi  Bi27  1  0.929539  0.491538  0.325808  1
  Bi  Bi28  1  0.572673  0.009353  0.827297  1
  Bi  Bi29  1  0.929539  0.008462  0.325808  1
  Bi  Bi30  1  0.071916  0.992736  0.674391  1
  Os  Os31  1  0.571306  0.750000  0.511386  1
