# generated using pymatgen
data_Th6SiI14
_symmetry_space_group_name_H-M   'P 1'
_cell_length_a   11.84436900
_cell_length_b   11.84436836
_cell_length_c   14.25122900
_cell_angle_alpha   90.00000000
_cell_angle_beta   90.00000000
_cell_angle_gamma   95.12736858
_symmetry_Int_Tables_number   1
_chemical_formula_structural   Th6SiI14
_chemical_formula_sum   'Th12 Si2 I28'
_cell_volume   1991.29146880
_cell_formula_units_Z   2
loop_
 _symmetry_equiv_pos_site_id
 _symmetry_equiv_pos_as_xyz
  1  'x, y, z'
loop_
 _atom_site_type_symbol
 _atom_site_label
 _atom_site_symmetry_multiplicity
 _atom_site_fract_x
 _atom_site_fract_y
 _atom_site_fract_z
 _atom_site_occupancy
  Th  Th0  1  0.952468  0.183385  0.118215  1
  Th  Th1  1  0.047532  0.816615  0.881785  1
  Th  Th2  1  0.547532  0.316615  0.618215  1
  Th  Th3  1  0.683385  0.452468  0.381785  1
  Th  Th4  1  0.452468  0.683385  0.381785  1
  Th  Th5  1  0.316615  0.547532  0.618215  1
  Th  Th6  1  0.816615  0.047532  0.881785  1
  Th  Th7  1  0.183385  0.952468  0.118215  1
  Th  Th8  1  0.353028  0.353028  0.393731  1
  Th  Th9  1  0.646972  0.646972  0.606269  1
  Th  Th10  1  0.146972  0.146972  0.893731  1
  Th  Th11  1  0.853028  0.853028  0.106269  1
  Si  Si12  1  0.000000  0.000000  0.000000  1
  Si  Si13  1  0.500000  0.500000  0.500000  1
  I  I14  1  0.285448  0.535285  0.249515  1
  I  I15  1  0.714552  0.464715  0.750485  1
  I  I16  1  0.214552  0.964715  0.749515  1
  I  I17  1  0.035285  0.785448  0.250485  1
  I  I18  1  0.785448  0.035285  0.250485  1
  I  I19  1  0.964715  0.214552  0.749515  1
  I  I20  1  0.464715  0.714552  0.750485  1
  I  I21  1  0.535285  0.285448  0.249515  1
  I  I22  1  0.114334  0.365888  0.010958  1
  I  I23  1  0.885666  0.634113  0.989042  1
  I  I24  1  0.385666  0.134113  0.510958  1
  I  I25  1  0.865888  0.614334  0.489042  1
  I  I26  1  0.614334  0.865887  0.489042  1
  I  I27  1  0.134112  0.385666  0.510958  1
  I  I28  1  0.634113  0.885666  0.989042  1
  I  I29  1  0.365888  0.114334  0.010958  1
  I  I30  1  0.896667  0.396667  0.250000  1
  I  I31  1  0.103333  0.603333  0.750000  1
  I  I32  1  0.603333  0.103333  0.750000  1
  I  I33  1  0.396667  0.896667  0.250000  1
  I  I34  1  0.747214  0.252786  0.000000  1
  I  I35  1  0.252786  0.747214  0.000000  1
  I  I36  1  0.752786  0.247214  0.500000  1
  I  I37  1  0.247214  0.752786  0.500000  1
  I  I38  1  0.155184  0.155184  0.265876  1
  I  I39  1  0.844816  0.844816  0.734124  1
  I  I40  1  0.344816  0.344816  0.765876  1
  I  I41  1  0.655184  0.655184  0.234124  1
