# generated using pymatgen
data_Y3B7Ru
_symmetry_space_group_name_H-M   'P 1'
_cell_length_a   8.07767153
_cell_length_b   8.07767208
_cell_length_c   9.35141800
_cell_angle_alpha   90.00000000
_cell_angle_beta   90.00000000
_cell_angle_gamma   154.84204886
_symmetry_Int_Tables_number   1
_chemical_formula_structural   Y3B7Ru
_chemical_formula_sum   'Y6 B14 Ru2'
_cell_volume   259.39191900
_cell_formula_units_Z   2
loop_
 _symmetry_equiv_pos_site_id
 _symmetry_equiv_pos_as_xyz
  1  'x, y, z'
loop_
 _atom_site_type_symbol
 _atom_site_label
 _atom_site_symmetry_multiplicity
 _atom_site_fract_x
 _atom_site_fract_y
 _atom_site_fract_z
 _atom_site_occupancy
  Y  Y0  1  0.894051  0.105949  0.439415  1
  Y  Y1  1  0.105949  0.894051  0.560585  1
  Y  Y2  1  0.894051  0.105949  0.060585  1
  Y  Y3  1  0.105949  0.894051  0.939415  1
  Y  Y4  1  0.243956  0.756044  0.250000  1
  Y  Y5  1  0.756044  0.243956  0.750000  1
  B  B6  1  0.727100  0.272900  0.465913  1
  B  B7  1  0.272900  0.727100  0.534087  1
  B  B8  1  0.727100  0.272900  0.034087  1
  B  B9  1  0.272900  0.727100  0.965913  1
  B  B10  1  0.631568  0.368432  0.150980  1
  B  B11  1  0.368432  0.631568  0.849020  1
  B  B12  1  0.631568  0.368432  0.349020  1
  B  B13  1  0.368432  0.631568  0.650980  1
  B  B14  1  0.520883  0.479117  0.096280  1
  B  B15  1  0.479117  0.520883  0.903720  1
  B  B16  1  0.520883  0.479117  0.403720  1
  B  B17  1  0.479117  0.520883  0.596280  1
  B  B18  1  0.457912  0.542088  0.250000  1
  B  B19  1  0.542088  0.457912  0.750000  1
  Ru  Ru20  1  0.054124  0.945876  0.250000  1
  Ru  Ru21  1  0.945876  0.054124  0.750000  1
