# generated using pymatgen
data_NbV2(Ni10B3)2
_symmetry_space_group_name_H-M   'P 1'
_cell_length_a   7.41935260
_cell_length_b   7.41935172
_cell_length_c   7.41935200
_cell_angle_alpha   59.99999876
_cell_angle_beta   60.00000266
_cell_angle_gamma   59.99999530
_symmetry_Int_Tables_number   1
_chemical_formula_structural   NbV2(Ni10B3)2
_chemical_formula_sum   'Nb1 V2 Ni20 B6'
_cell_volume   288.79052349
_cell_formula_units_Z   1
loop_
 _symmetry_equiv_pos_site_id
 _symmetry_equiv_pos_as_xyz
  1  'x, y, z'
loop_
 _atom_site_type_symbol
 _atom_site_label
 _atom_site_symmetry_multiplicity
 _atom_site_fract_x
 _atom_site_fract_y
 _atom_site_fract_z
 _atom_site_occupancy
  Nb  Nb0  1  0.750000  0.750000  0.750000  1
  V  V1  1  0.000000  0.000000  0.000000  1
  V  V2  1  0.250000  0.250000  0.250000  1
  Ni  Ni3  1  0.613158  0.613158  0.160525  1
  Ni  Ni4  1  0.613158  0.160525  0.613158  1
  Ni  Ni5  1  0.160525  0.613158  0.613158  1
  Ni  Ni6  1  0.613158  0.613158  0.613158  1
  Ni  Ni7  1  0.379535  0.379535  0.861393  1
  Ni  Ni8  1  0.379535  0.861393  0.379535  1
  Ni  Ni9  1  0.861393  0.379535  0.379535  1
  Ni  Ni10  1  0.379535  0.379535  0.379535  1
  Ni  Ni11  1  0.999830  0.999830  0.340289  1
  Ni  Ni12  1  0.660050  0.999830  0.340289  1
  Ni  Ni13  1  0.999830  0.660050  0.340289  1
  Ni  Ni14  1  0.660050  0.340289  0.999830  1
  Ni  Ni15  1  0.999830  0.340289  0.999830  1
  Ni  Ni16  1  0.999830  0.340289  0.660050  1
  Ni  Ni17  1  0.340289  0.660050  0.999830  1
  Ni  Ni18  1  0.340289  0.999830  0.660050  1
  Ni  Ni19  1  0.340289  0.999830  0.999830  1
  Ni  Ni20  1  0.999830  0.999830  0.660050  1
  Ni  Ni21  1  0.999830  0.660050  0.999830  1
  Ni  Ni22  1  0.660050  0.999830  0.999830  1
  B  B23  1  0.732263  0.732263  0.267737  1
  B  B24  1  0.267737  0.732263  0.267737  1
  B  B25  1  0.732263  0.267737  0.267737  1
  B  B26  1  0.267737  0.267737  0.732263  1
  B  B27  1  0.732263  0.267737  0.732263  1
  B  B28  1  0.267737  0.732263  0.732263  1
