# generated using pymatgen
data_LuMg3(AlPt)4
_symmetry_space_group_name_H-M   'P 1'
_cell_length_a   4.11732300
_cell_length_b   6.68695191
_cell_length_c   7.73452780
_cell_angle_alpha   92.15201680
_cell_angle_beta   90.00000000
_cell_angle_gamma   90.00000000
_symmetry_Int_Tables_number   1
_chemical_formula_structural   LuMg3(AlPt)4
_chemical_formula_sum   'Lu1 Mg3 Al4 Pt4'
_cell_volume   212.79946565
_cell_formula_units_Z   1
loop_
 _symmetry_equiv_pos_site_id
 _symmetry_equiv_pos_as_xyz
  1  'x, y, z'
loop_
 _atom_site_type_symbol
 _atom_site_label
 _atom_site_symmetry_multiplicity
 _atom_site_fract_x
 _atom_site_fract_y
 _atom_site_fract_z
 _atom_site_occupancy
  Lu  Lu0  1  0.750000  0.474549  0.171881  1
  Mg  Mg1  1  0.250000  0.026925  0.667456  1
  Mg  Mg2  1  0.250000  0.532722  0.824214  1
  Mg  Mg3  1  0.750000  0.967775  0.335361  1
  Al  Al4  1  0.250000  0.142106  0.052062  1
  Al  Al5  1  0.250000  0.645830  0.446363  1
  Al  Al6  1  0.750000  0.859221  0.942487  1
  Al  Al7  1  0.750000  0.353730  0.559289  1
  Pt  Pt8  1  0.250000  0.264230  0.371618  1
  Pt  Pt9  1  0.250000  0.779753  0.134410  1
  Pt  Pt10  1  0.750000  0.727973  0.628672  1
  Pt  Pt11  1  0.750000  0.225185  0.866187  1
