# generated using pymatgen
data_Sc6Ta4Ga12Os7
_symmetry_space_group_name_H-M   'P 1'
_cell_length_a   8.87677951
_cell_length_b   8.87677917
_cell_length_c   8.87678000
_cell_angle_alpha   60.00000437
_cell_angle_beta   60.00000564
_cell_angle_gamma   60.00000034
_symmetry_Int_Tables_number   1
_chemical_formula_structural   Sc6Ta4Ga12Os7
_chemical_formula_sum   'Sc6 Ta4 Ga12 Os7'
_cell_volume   494.59684493
_cell_formula_units_Z   1
loop_
 _symmetry_equiv_pos_site_id
 _symmetry_equiv_pos_as_xyz
  1  'x, y, z'
loop_
 _atom_site_type_symbol
 _atom_site_label
 _atom_site_symmetry_multiplicity
 _atom_site_fract_x
 _atom_site_fract_y
 _atom_site_fract_z
 _atom_site_occupancy
  Sc  Sc0  1  0.713820  0.713820  0.286180  1
  Sc  Sc1  1  0.286180  0.713820  0.286180  1
  Sc  Sc2  1  0.713820  0.286180  0.286180  1
  Sc  Sc3  1  0.286180  0.286180  0.713820  1
  Sc  Sc4  1  0.713820  0.286180  0.713820  1
  Sc  Sc5  1  0.286180  0.713820  0.713820  1
  Ta  Ta6  1  0.877937  0.877937  0.366188  1
  Ta  Ta7  1  0.877937  0.366188  0.877937  1
  Ta  Ta8  1  0.366188  0.877937  0.877937  1
  Ta  Ta9  1  0.877937  0.877937  0.877937  1
  Ga  Ga10  1  0.120878  0.120878  0.637366  1
  Ga  Ga11  1  0.120878  0.637366  0.120878  1
  Ga  Ga12  1  0.637366  0.120878  0.120878  1
  Ga  Ga13  1  0.120878  0.120878  0.120878  1
  Ga  Ga14  1  0.657705  0.657705  0.026886  1
  Ga  Ga15  1  0.657705  0.026886  0.657705  1
  Ga  Ga16  1  0.026886  0.657705  0.657705  1
  Ga  Ga17  1  0.657705  0.657705  0.657705  1
  Ga  Ga18  1  0.340627  0.340627  0.978118  1
  Ga  Ga19  1  0.340627  0.978118  0.340627  1
  Ga  Ga20  1  0.978118  0.340627  0.340627  1
  Ga  Ga21  1  0.340627  0.340627  0.340627  1
  Os  Os22  1  0.000000  0.000000  0.000000  1
  Os  Os23  1  0.997103  0.997103  0.502897  1
  Os  Os24  1  0.502897  0.997103  0.502897  1
  Os  Os25  1  0.997103  0.502897  0.502897  1
  Os  Os26  1  0.502897  0.502897  0.997103  1
  Os  Os27  1  0.997103  0.502897  0.997103  1
  Os  Os28  1  0.502897  0.997103  0.997103  1
