# generated using pymatgen
data_Dy3YLu12(CdPt)4
_symmetry_space_group_name_H-M   'P 1'
_cell_length_a   9.54626882
_cell_length_b   9.53381892
_cell_length_c   9.53374108
_cell_angle_alpha   60.08668569
_cell_angle_beta   59.96228596
_cell_angle_gamma   59.95626454
_symmetry_Int_Tables_number   1
_chemical_formula_structural   Dy3YLu12(CdPt)4
_chemical_formula_sum   'Dy3 Y1 Lu12 Cd4 Pt4'
_cell_volume   613.57077302
_cell_formula_units_Z   1
loop_
 _symmetry_equiv_pos_site_id
 _symmetry_equiv_pos_as_xyz
  1  'x, y, z'
loop_
 _atom_site_type_symbol
 _atom_site_label
 _atom_site_symmetry_multiplicity
 _atom_site_fract_x
 _atom_site_fract_y
 _atom_site_fract_z
 _atom_site_occupancy
  Dy  Dy0  1  0.935147  0.564852  0.935147  1
  Dy  Dy1  1  0.564848  0.564852  0.935121  1
  Dy  Dy2  1  0.935121  0.935179  0.564847  1
  Y  Y3  1  0.564864  0.935136  0.564864  1
  Lu  Lu4  1  0.353067  0.352091  0.352178  1
  Lu  Lu5  1  0.352193  0.353014  0.942659  1
  Lu  Lu6  1  0.352178  0.942665  0.353067  1
  Lu  Lu7  1  0.942659  0.352136  0.352193  1
  Lu  Lu8  1  0.810994  0.188959  0.188989  1
  Lu  Lu9  1  0.188989  0.811059  0.810994  1
  Lu  Lu10  1  0.188679  0.811321  0.188679  1
  Lu  Lu11  1  0.811311  0.188689  0.811311  1
  Lu  Lu12  1  0.188704  0.188665  0.811292  1
  Lu  Lu13  1  0.811292  0.811340  0.188704  1
  Lu  Lu14  1  0.938931  0.561051  0.561034  1
  Lu  Lu15  1  0.561034  0.938983  0.938931  1
  Cd  Cd16  1  0.583246  0.580926  0.580898  1
  Cd  Cd17  1  0.580903  0.583256  0.254936  1
  Cd  Cd18  1  0.580898  0.254930  0.583246  1
  Cd  Cd19  1  0.254936  0.580905  0.580903  1
  Pt  Pt20  1  0.144575  0.142550  0.142551  1
  Pt  Pt21  1  0.142549  0.144559  0.570333  1
  Pt  Pt22  1  0.142551  0.570324  0.144575  1
  Pt  Pt23  1  0.570333  0.142559  0.142549  1
