# generated using pymatgen
data_TiSn4Pd15
_symmetry_space_group_name_H-M   'P 1'
_cell_length_a   4.02123100
_cell_length_b   4.02123100
_cell_length_c   20.15286800
_cell_angle_alpha   90.00000000
_cell_angle_beta   90.00000000
_cell_angle_gamma   90.00000000
_symmetry_Int_Tables_number   1
_chemical_formula_structural   TiSn4Pd15
_chemical_formula_sum   'Ti1 Sn4 Pd15'
_cell_volume   325.87789634
_cell_formula_units_Z   1
loop_
 _symmetry_equiv_pos_site_id
 _symmetry_equiv_pos_as_xyz
  1  'x, y, z'
loop_
 _atom_site_type_symbol
 _atom_site_label
 _atom_site_symmetry_multiplicity
 _atom_site_fract_x
 _atom_site_fract_y
 _atom_site_fract_z
 _atom_site_occupancy
  Ti  Ti0  1  0.000000  0.000000  0.000000  1
  Sn  Sn1  1  0.000000  0.000000  0.196473  1
  Sn  Sn2  1  0.000000  0.000000  0.398683  1
  Sn  Sn3  1  0.000000  0.000000  0.601317  1
  Sn  Sn4  1  0.000000  0.000000  0.803527  1
  Pd  Pd5  1  0.500000  0.500000  0.000000  1
  Pd  Pd6  1  0.500000  0.500000  0.195065  1
  Pd  Pd7  1  0.500000  0.500000  0.397678  1
  Pd  Pd8  1  0.500000  0.500000  0.602322  1
  Pd  Pd9  1  0.500000  0.500000  0.804935  1
  Pd  Pd10  1  0.500000  0.000000  0.093480  1
  Pd  Pd11  1  0.500000  0.000000  0.296392  1
  Pd  Pd12  1  0.500000  0.000000  0.500000  1
  Pd  Pd13  1  0.500000  0.000000  0.703608  1
  Pd  Pd14  1  0.500000  0.000000  0.906520  1
  Pd  Pd15  1  0.000000  0.500000  0.093480  1
  Pd  Pd16  1  0.000000  0.500000  0.296392  1
  Pd  Pd17  1  0.000000  0.500000  0.500000  1
  Pd  Pd18  1  0.000000  0.500000  0.703608  1
  Pd  Pd19  1  0.000000  0.500000  0.906520  1
