# generated using pymatgen
data_Cs5Rb7(ScSe3)4
_symmetry_space_group_name_H-M   'P 1'
_cell_length_a   14.56377723
_cell_length_b   8.61605158
_cell_length_c   11.28532048
_cell_angle_alpha   52.84809757
_cell_angle_beta   89.57057319
_cell_angle_gamma   89.93684086
_symmetry_Int_Tables_number   1
_chemical_formula_structural   Cs5Rb7(ScSe3)4
_chemical_formula_sum   'Cs5 Rb7 Sc4 Se12'
_cell_volume   1128.64818148
_cell_formula_units_Z   1
loop_
 _symmetry_equiv_pos_site_id
 _symmetry_equiv_pos_as_xyz
  1  'x, y, z'
loop_
 _atom_site_type_symbol
 _atom_site_label
 _atom_site_symmetry_multiplicity
 _atom_site_fract_x
 _atom_site_fract_y
 _atom_site_fract_z
 _atom_site_occupancy
  Cs  Cs0  1  0.863651  0.605670  0.023810  1
  Cs  Cs1  1  0.812491  0.129557  0.573298  1
  Cs  Cs2  1  0.312910  0.871323  0.927102  1
  Cs  Cs3  1  0.187683  0.871323  0.426951  1
  Cs  Cs4  1  0.685979  0.127005  0.072465  1
  Rb  Rb5  1  0.926701  0.646164  0.608832  1
  Rb  Rb6  1  0.426089  0.356057  0.891474  1
  Rb  Rb7  1  0.076709  0.354308  0.392554  1
  Rb  Rb8  1  0.572384  0.646300  0.106143  1
  Rb  Rb9  1  0.631612  0.611514  0.523397  1
  Rb  Rb10  1  0.133664  0.389527  0.975178  1
  Rb  Rb11  1  0.367240  0.388503  0.475846  1
  Sc  Sc12  1  0.556737  0.943678  0.657004  1
  Sc  Sc13  1  0.059018  0.058845  0.840604  1
  Sc  Sc14  1  0.441843  0.058523  0.340365  1
  Sc  Sc15  1  0.942606  0.941168  0.161235  1
  Se  Se16  1  0.104765  0.848267  0.121675  1
  Se  Se17  1  0.604800  0.152786  0.375696  1
  Se  Se18  1  0.896130  0.151270  0.879983  1
  Se  Se19  1  0.393985  0.851383  0.621295  1
  Se  Se20  1  0.046495  0.869867  0.735593  1
  Se  Se21  1  0.543132  0.134456  0.760625  1
  Se  Se22  1  0.960425  0.128366  0.266504  1
  Se  Se23  1  0.457201  0.864759  0.239499  1
  Se  Se24  1  0.661879  0.650018  0.812542  1
  Se  Se25  1  0.168194  0.348452  0.685492  1
  Se  Se26  1  0.333160  0.347205  0.185264  1
  Se  Se27  1  0.832516  0.653707  0.319576  1
