# generated using pymatgen
data_Gd4YNi2
_symmetry_space_group_name_H-M   'P 1'
_cell_length_a   8.88853180
_cell_length_b   8.88853256
_cell_length_c   6.84459000
_cell_angle_alpha   86.01409746
_cell_angle_beta   86.01409065
_cell_angle_gamma   42.44908788
_symmetry_Int_Tables_number   1
_chemical_formula_structural   Gd4YNi2
_chemical_formula_sum   'Gd8 Y2 Ni4'
_cell_volume   363.96408600
_cell_formula_units_Z   2
loop_
 _symmetry_equiv_pos_site_id
 _symmetry_equiv_pos_as_xyz
  1  'x, y, z'
loop_
 _atom_site_type_symbol
 _atom_site_label
 _atom_site_symmetry_multiplicity
 _atom_site_fract_x
 _atom_site_fract_y
 _atom_site_fract_z
 _atom_site_occupancy
  Gd  Gd0  1  0.009315  0.801352  0.920153  1
  Gd  Gd1  1  0.198648  0.990685  0.579847  1
  Gd  Gd2  1  0.990685  0.198648  0.079847  1
  Gd  Gd3  1  0.801352  0.009315  0.420153  1
  Gd  Gd4  1  0.351285  0.218415  0.812162  1
  Gd  Gd5  1  0.781585  0.648715  0.687838  1
  Gd  Gd6  1  0.648715  0.781585  0.187838  1
  Gd  Gd7  1  0.218415  0.351285  0.312162  1
  Y  Y8  1  0.567638  0.432362  0.750000  1
  Y  Y9  1  0.432362  0.567638  0.250000  1
  Ni  Ni10  1  0.189715  0.590577  0.570789  1
  Ni  Ni11  1  0.409423  0.810285  0.929211  1
  Ni  Ni12  1  0.810285  0.409423  0.429211  1
  Ni  Ni13  1  0.590577  0.189715  0.070789  1
