# generated using pymatgen
data_Ca2FeSi4Ir
_symmetry_space_group_name_H-M   'P 1'
_cell_length_a   3.96740800
_cell_length_b   4.47186952
_cell_length_c   8.15712853
_cell_angle_alpha   77.59672045
_cell_angle_beta   90.00000000
_cell_angle_gamma   90.00000000
_symmetry_Int_Tables_number   1
_chemical_formula_structural   Ca2FeSi4Ir
_chemical_formula_sum   'Ca2 Fe1 Si4 Ir1'
_cell_volume   141.34377560
_cell_formula_units_Z   1
loop_
 _symmetry_equiv_pos_site_id
 _symmetry_equiv_pos_as_xyz
  1  'x, y, z'
loop_
 _atom_site_type_symbol
 _atom_site_label
 _atom_site_symmetry_multiplicity
 _atom_site_fract_x
 _atom_site_fract_y
 _atom_site_fract_z
 _atom_site_occupancy
  Ca  Ca0  1  0.250000  0.593939  0.801188  1
  Ca  Ca1  1  0.750000  0.420813  0.200521  1
  Fe  Fe2  1  0.750000  0.118235  0.609250  1
  Si  Si3  1  0.250000  0.973323  0.083539  1
  Si  Si4  1  0.750000  0.043357  0.899070  1
  Si  Si5  1  0.250000  0.318961  0.501028  1
  Si  Si6  1  0.750000  0.653947  0.521192  1
  Ir  Ir7  1  0.250000  0.877425  0.384211  1
