# generated using pymatgen
data_Ho3Er5Os2(RuC4)2
_symmetry_space_group_name_H-M   'P 1'
_cell_length_a   5.07798500
_cell_length_b   6.42294023
_cell_length_c   9.72345288
_cell_angle_alpha   89.73106993
_cell_angle_beta   90.00000000
_cell_angle_gamma   90.00000000
_symmetry_Int_Tables_number   1
_chemical_formula_structural   Ho3Er5Os2(RuC4)2
_chemical_formula_sum   'Ho3 Er5 Os2 Ru2 C8'
_cell_volume   317.13269949
_cell_formula_units_Z   1
loop_
 _symmetry_equiv_pos_site_id
 _symmetry_equiv_pos_as_xyz
  1  'x, y, z'
loop_
 _atom_site_type_symbol
 _atom_site_label
 _atom_site_symmetry_multiplicity
 _atom_site_fract_x
 _atom_site_fract_y
 _atom_site_fract_z
 _atom_site_occupancy
  Ho  Ho0  1  0.750000  0.472946  0.783016  1
  Ho  Ho1  1  0.750000  0.973917  0.718959  1
  Ho  Ho2  1  0.250000  0.026189  0.281053  1
  Er  Er3  1  0.250000  0.681931  0.553801  1
  Er  Er4  1  0.750000  0.318203  0.446015  1
  Er  Er5  1  0.750000  0.822614  0.054347  1
  Er  Er6  1  0.250000  0.177299  0.945854  1
  Er  Er7  1  0.250000  0.527211  0.217268  1
  Os  Os8  1  0.750000  0.777227  0.366468  1
  Os  Os9  1  0.250000  0.222741  0.633344  1
  Ru  Ru10  1  0.250000  0.721088  0.866830  1
  Ru  Ru11  1  0.750000  0.279018  0.133243  1
  C  C12  1  0.250000  0.457479  0.755971  1
  C  C13  1  0.750000  0.542538  0.243845  1
  C  C14  1  0.750000  0.041557  0.259415  1
  C  C15  1  0.250000  0.958499  0.740577  1
  C  C16  1  0.250000  0.827909  0.055706  1
  C  C17  1  0.750000  0.171367  0.944603  1
  C  C18  1  0.750000  0.673527  0.555193  1
  C  C19  1  0.250000  0.326740  0.444491  1
