# generated using pymatgen
data_TbDy5Ho4(CoSb2)2
_symmetry_space_group_name_H-M   'P 1'
_cell_length_a   7.88662900
_cell_length_b   8.76160300
_cell_length_c   12.19439900
_cell_angle_alpha   90.00000000
_cell_angle_beta   90.00000000
_cell_angle_gamma   90.00000000
_symmetry_Int_Tables_number   1
_chemical_formula_structural   TbDy5Ho4(CoSb2)2
_chemical_formula_sum   'Tb2 Dy10 Ho8 Co4 Sb8'
_cell_volume   842.62702377
_cell_formula_units_Z   2
loop_
 _symmetry_equiv_pos_site_id
 _symmetry_equiv_pos_as_xyz
  1  'x, y, z'
loop_
 _atom_site_type_symbol
 _atom_site_label
 _atom_site_symmetry_multiplicity
 _atom_site_fract_x
 _atom_site_fract_y
 _atom_site_fract_z
 _atom_site_occupancy
  Tb  Tb0  1  0.377529  0.250000  0.693166  1
  Tb  Tb1  1  0.877529  0.750000  0.806834  1
  Dy  Dy2  1  0.153916  0.750000  0.202831  1
  Dy  Dy3  1  0.653916  0.250000  0.297169  1
  Dy  Dy4  1  0.846134  0.250000  0.797134  1
  Dy  Dy5  1  0.346134  0.750000  0.702866  1
  Dy  Dy6  1  0.454168  0.750000  0.997964  1
  Dy  Dy7  1  0.954168  0.250000  0.502036  1
  Dy  Dy8  1  0.545776  0.250000  0.002213  1
  Dy  Dy9  1  0.045776  0.750000  0.497787  1
  Dy  Dy10  1  0.622179  0.750000  0.307047  1
  Dy  Dy11  1  0.122179  0.250000  0.192953  1
  Ho  Ho12  1  0.822281  0.965021  0.065220  1
  Ho  Ho13  1  0.322281  0.034979  0.434780  1
  Ho  Ho14  1  0.177834  0.464566  0.935083  1
  Ho  Ho15  1  0.677834  0.535434  0.564917  1
  Ho  Ho16  1  0.177834  0.035434  0.935083  1
  Ho  Ho17  1  0.677834  0.964566  0.564917  1
  Ho  Ho18  1  0.822281  0.534979  0.065220  1
  Ho  Ho19  1  0.322281  0.465021  0.434780  1
  Co  Co20  1  0.435522  0.750000  0.490859  1
  Co  Co21  1  0.935522  0.250000  0.009141  1
  Co  Co22  1  0.564658  0.250000  0.508906  1
  Co  Co23  1  0.064658  0.750000  0.991094  1
  Sb  Sb24  1  0.928701  0.992031  0.326942  1
  Sb  Sb25  1  0.428701  0.007969  0.173058  1
  Sb  Sb26  1  0.071243  0.492010  0.672904  1
  Sb  Sb27  1  0.571243  0.507990  0.827096  1
  Sb  Sb28  1  0.071243  0.007990  0.672904  1
  Sb  Sb29  1  0.571243  0.992010  0.827096  1
  Sb  Sb30  1  0.928701  0.507969  0.326942  1
  Sb  Sb31  1  0.428701  0.492031  0.173058  1
