# generated using pymatgen
data_CaTb2(GaNi2)3
_symmetry_space_group_name_H-M   'P 1'
_cell_length_a   5.23378800
_cell_length_b   5.23378718
_cell_length_c   15.90121700
_cell_angle_alpha   90.00000000
_cell_angle_beta   90.00000000
_cell_angle_gamma   119.99999252
_symmetry_Int_Tables_number   1
_chemical_formula_structural   CaTb2(GaNi2)3
_chemical_formula_sum   'Ca2 Tb4 Ga6 Ni12'
_cell_volume   377.21870099
_cell_formula_units_Z   2
loop_
 _symmetry_equiv_pos_site_id
 _symmetry_equiv_pos_as_xyz
  1  'x, y, z'
loop_
 _atom_site_type_symbol
 _atom_site_label
 _atom_site_symmetry_multiplicity
 _atom_site_fract_x
 _atom_site_fract_y
 _atom_site_fract_z
 _atom_site_occupancy
  Ca  Ca0  1  0.333333  0.666667  0.750000  1
  Ca  Ca1  1  0.666667  0.333333  0.250000  1
  Tb  Tb2  1  0.333333  0.666667  0.544539  1
  Tb  Tb3  1  0.666667  0.333333  0.455461  1
  Tb  Tb4  1  0.666667  0.333333  0.044539  1
  Tb  Tb5  1  0.333333  0.666667  0.955461  1
  Ga  Ga6  1  0.000000  0.000000  0.250000  1
  Ga  Ga7  1  0.000000  0.000000  0.750000  1
  Ga  Ga8  1  0.333333  0.666667  0.250000  1
  Ga  Ga9  1  0.666667  0.333333  0.750000  1
  Ga  Ga10  1  0.000000  0.000000  0.000000  1
  Ga  Ga11  1  0.000000  0.000000  0.500000  1
  Ni  Ni12  1  0.168783  0.337564  0.124964  1
  Ni  Ni13  1  0.831217  0.662436  0.875036  1
  Ni  Ni14  1  0.662436  0.831217  0.124964  1
  Ni  Ni15  1  0.831217  0.662436  0.624964  1
  Ni  Ni16  1  0.337564  0.168783  0.875036  1
  Ni  Ni17  1  0.168783  0.337564  0.375036  1
  Ni  Ni18  1  0.168783  0.831217  0.124964  1
  Ni  Ni19  1  0.337564  0.168783  0.624964  1
  Ni  Ni20  1  0.831217  0.168783  0.875036  1
  Ni  Ni21  1  0.662436  0.831217  0.375036  1
  Ni  Ni22  1  0.831217  0.168783  0.624964  1
  Ni  Ni23  1  0.168783  0.831217  0.375036  1
