# generated using pymatgen
data_Dy2Y2Zn4Si3Ge
_symmetry_space_group_name_H-M   'P 1'
_cell_length_a   4.18374900
_cell_length_b   4.18375019
_cell_length_c   15.64078100
_cell_angle_alpha   90.00000000
_cell_angle_beta   90.00000000
_cell_angle_gamma   119.99999851
_symmetry_Int_Tables_number   1
_chemical_formula_structural   Dy2Y2Zn4Si3Ge
_chemical_formula_sum   'Dy2 Y2 Zn4 Si3 Ge1'
_cell_volume   237.09393235
_cell_formula_units_Z   1
loop_
 _symmetry_equiv_pos_site_id
 _symmetry_equiv_pos_as_xyz
  1  'x, y, z'
loop_
 _atom_site_type_symbol
 _atom_site_label
 _atom_site_symmetry_multiplicity
 _atom_site_fract_x
 _atom_site_fract_y
 _atom_site_fract_z
 _atom_site_occupancy
  Dy  Dy0  1  0.000000  0.000000  0.752105  1
  Dy  Dy1  1  0.000000  0.000000  0.249449  1
  Y  Y2  1  0.000000  0.000000  0.498087  1
  Y  Y3  1  0.000000  0.000000  0.000417  1
  Zn  Zn4  1  0.666667  0.333333  0.861228  1
  Zn  Zn5  1  0.666667  0.333333  0.645036  1
  Zn  Zn6  1  0.333333  0.666667  0.139873  1
  Zn  Zn7  1  0.333333  0.666667  0.358810  1
  Si  Si8  1  0.666667  0.333333  0.118228  1
  Si  Si9  1  0.666667  0.333333  0.380433  1
  Si  Si10  1  0.333333  0.666667  0.881751  1
  Ge  Ge11  1  0.333333  0.666667  0.614584  1
