# generated using pymatgen
data_NaPaSe6
_symmetry_space_group_name_H-M   'P 1'
_cell_length_a   8.12393334
_cell_length_b   8.12393340
_cell_length_c   8.28265623
_cell_angle_alpha   85.42855578
_cell_angle_beta   85.42856528
_cell_angle_gamma   120.77950314
_symmetry_Int_Tables_number   1
_chemical_formula_structural   NaPaSe6
_chemical_formula_sum   'Na2 Pa2 Se12'
_cell_volume   463.49253087
_cell_formula_units_Z   2
loop_
 _symmetry_equiv_pos_site_id
 _symmetry_equiv_pos_as_xyz
  1  'x, y, z'
loop_
 _atom_site_type_symbol
 _atom_site_label
 _atom_site_symmetry_multiplicity
 _atom_site_fract_x
 _atom_site_fract_y
 _atom_site_fract_z
 _atom_site_occupancy
  Na  Na0  1  0.657881  0.319513  0.992668  1
  Na  Na1  1  0.319513  0.657881  0.492668  1
  Pa  Pa2  1  0.991745  0.014935  0.742341  1
  Pa  Pa3  1  0.014935  0.991745  0.242341  1
  Se  Se4  1  0.955679  0.238638  0.474281  1
  Se  Se5  1  0.238638  0.955679  0.974281  1
  Se  Se6  1  0.338474  0.369091  0.777721  1
  Se  Se7  1  0.369091  0.338474  0.277721  1
  Se  Se8  1  0.067613  0.288326  0.974346  1
  Se  Se9  1  0.288326  0.067613  0.474346  1
  Se  Se10  1  0.677655  0.058443  0.681717  1
  Se  Se11  1  0.058443  0.677655  0.181717  1
  Se  Se12  1  0.973696  0.658102  0.719223  1
  Se  Se13  1  0.658102  0.973696  0.219223  1
  Se  Se14  1  0.784099  0.703591  0.535084  1
  Se  Se15  1  0.703591  0.784099  0.035084  1
