# generated using pymatgen
data_PrTi2(Nb2Sn3)2
_symmetry_space_group_name_H-M   'P 1'
_cell_length_a   5.78983400
_cell_length_b   5.79038402
_cell_length_c   9.73496500
_cell_angle_alpha   90.00000000
_cell_angle_beta   90.00000000
_cell_angle_gamma   119.99684645
_symmetry_Int_Tables_number   1
_chemical_formula_structural   PrTi2(Nb2Sn3)2
_chemical_formula_sum   'Pr1 Ti2 Nb4 Sn6'
_cell_volume   282.65215779
_cell_formula_units_Z   1
loop_
 _symmetry_equiv_pos_site_id
 _symmetry_equiv_pos_as_xyz
  1  'x, y, z'
loop_
 _atom_site_type_symbol
 _atom_site_label
 _atom_site_symmetry_multiplicity
 _atom_site_fract_x
 _atom_site_fract_y
 _atom_site_fract_z
 _atom_site_occupancy
  Pr  Pr0  1  0.000000  0.000000  0.000000  1
  Ti  Ti1  1  0.500000  0.000000  0.750615  1
  Ti  Ti2  1  0.500000  0.000000  0.249385  1
  Nb  Nb3  1  0.000000  0.500000  0.751165  1
  Nb  Nb4  1  0.500000  0.500000  0.751165  1
  Nb  Nb5  1  0.000000  0.500000  0.248835  1
  Nb  Nb6  1  0.500000  0.500000  0.248835  1
  Sn  Sn7  1  0.665453  0.330906  0.500000  1
  Sn  Sn8  1  0.334547  0.669094  0.500000  1
  Sn  Sn9  1  0.664240  0.328478  0.000000  1
  Sn  Sn10  1  0.335760  0.671522  0.000000  1
  Sn  Sn11  1  0.000000  0.000000  0.677658  1
  Sn  Sn12  1  0.000000  0.000000  0.322342  1
