# generated using pymatgen
data_HfSc2SiP2Os3
_symmetry_space_group_name_H-M   'P 1'
_cell_length_a   6.53543904
_cell_length_b   6.53672087
_cell_length_c   3.74238100
_cell_angle_alpha   90.00000000
_cell_angle_beta   90.00000000
_cell_angle_gamma   120.00649327
_symmetry_Int_Tables_number   1
_chemical_formula_structural   HfSc2SiP2Os3
_chemical_formula_sum   'Hf1 Sc2 Si1 P2 Os3'
_cell_volume   138.44743676
_cell_formula_units_Z   1
loop_
 _symmetry_equiv_pos_site_id
 _symmetry_equiv_pos_as_xyz
  1  'x, y, z'
loop_
 _atom_site_type_symbol
 _atom_site_label
 _atom_site_symmetry_multiplicity
 _atom_site_fract_x
 _atom_site_fract_y
 _atom_site_fract_z
 _atom_site_occupancy
  Hf  Hf0  1  0.000000  0.584938  0.500000  1
  Sc  Sc1  1  0.414655  0.415545  0.500000  1
  Sc  Sc2  1  0.585345  0.000889  0.500000  1
  Si  Si3  1  0.000000  0.001956  0.500000  1
  P  P4  1  0.663575  0.331217  0.000000  1
  P  P5  1  0.336425  0.667643  0.000000  1
  Os  Os6  1  0.752950  0.750208  0.000000  1
  Os  Os7  1  0.247050  0.997258  0.000000  1
  Os  Os8  1  0.000000  0.250345  0.000000  1
