# generated using pymatgen
data_Ta2Ge2OsPt
_symmetry_space_group_name_H-M   'P 1'
_cell_length_a   6.05458378
_cell_length_b   6.05458500
_cell_length_c   7.39745105
_cell_angle_alpha   65.84323607
_cell_angle_beta   65.84324095
_cell_angle_gamma   89.99999615
_symmetry_Int_Tables_number   1
_chemical_formula_structural   Ta2Ge2OsPt
_chemical_formula_sum   'Ta4 Ge4 Os2 Pt2'
_cell_volume   221.14609374
_cell_formula_units_Z   2
loop_
 _symmetry_equiv_pos_site_id
 _symmetry_equiv_pos_as_xyz
  1  'x, y, z'
loop_
 _atom_site_type_symbol
 _atom_site_label
 _atom_site_symmetry_multiplicity
 _atom_site_fract_x
 _atom_site_fract_y
 _atom_site_fract_z
 _atom_site_occupancy
  Ta  Ta0  1  0.124999  0.120941  0.250001  1
  Ta  Ta1  1  0.625000  0.629059  0.250001  1
  Ta  Ta2  1  0.370941  0.875001  0.749999  1
  Ta  Ta3  1  0.879058  0.375000  0.750001  1
  Ge  Ge4  1  0.624999  0.117641  0.250001  1
  Ge  Ge5  1  0.124999  0.632359  0.250001  1
  Ge  Ge6  1  0.367641  0.374999  0.749999  1
  Ge  Ge7  1  0.882358  0.875000  0.750001  1
  Os  Os8  1  0.000000  0.000000  0.000000  1
  Os  Os9  1  0.249999  0.750000  0.500000  1
  Pt  Pt10  1  0.499999  0.499999  0.000000  1
  Pt  Pt11  1  0.750000  0.250001  0.500000  1
