# generated using pymatgen
data_La4Pr4TiPd24
_symmetry_space_group_name_H-M   'P 1'
_cell_length_a   8.56455042
_cell_length_b   8.56467621
_cell_length_c   8.56467621
_cell_angle_alpha   89.99888670
_cell_angle_beta   90.02531443
_cell_angle_gamma   90.02531443
_symmetry_Int_Tables_number   1
_chemical_formula_structural   La4Pr4TiPd24
_chemical_formula_sum   'La4 Pr4 Ti1 Pd24'
_cell_volume   628.24115572
_cell_formula_units_Z   1
loop_
 _symmetry_equiv_pos_site_id
 _symmetry_equiv_pos_as_xyz
  1  'x, y, z'
loop_
 _atom_site_type_symbol
 _atom_site_label
 _atom_site_symmetry_multiplicity
 _atom_site_fract_x
 _atom_site_fract_y
 _atom_site_fract_z
 _atom_site_occupancy
  La  La0  1  0.253151  0.253061  0.746883  1
  La  La1  1  0.253151  0.746883  0.253061  1
  La  La2  1  0.253096  0.747023  0.747023  1
  La  La3  1  0.746842  0.253136  0.253136  1
  Pr  Pr4  1  0.252379  0.252377  0.252377  1
  Pr  Pr5  1  0.747529  0.747444  0.747444  1
  Pr  Pr6  1  0.747597  0.747599  0.252464  1
  Pr  Pr7  1  0.747597  0.252464  0.747599  1
  Ti  Ti8  1  0.999336  0.000003  0.000003  1
  Pd  Pd9  1  0.263305  0.500067  0.999949  1
  Pd  Pd10  1  0.736636  0.499947  0.000059  1
  Pd  Pd11  1  0.999917  0.263330  0.499999  1
  Pd  Pd12  1  0.500079  0.263328  0.000009  1
  Pd  Pd13  1  0.000036  0.736665  0.500005  1
  Pd  Pd14  1  0.499970  0.736664  0.999990  1
  Pd  Pd15  1  0.500079  0.000009  0.263328  1
  Pd  Pd16  1  0.263305  0.999949  0.500067  1
  Pd  Pd17  1  0.499970  0.999990  0.736664  1
  Pd  Pd18  1  0.736636  0.000059  0.499947  1
  Pd  Pd19  1  0.999917  0.499999  0.263330  1
  Pd  Pd20  1  0.000036  0.500005  0.736665  1
  Pd  Pd21  1  0.254678  0.500080  0.500080  1
  Pd  Pd22  1  0.745350  0.499910  0.499910  1
  Pd  Pd23  1  0.500066  0.254659  0.499994  1
  Pd  Pd24  1  0.499900  0.745335  0.500002  1
  Pd  Pd25  1  0.500066  0.499994  0.254659  1
  Pd  Pd26  1  0.499900  0.500002  0.745335  1
  Pd  Pd27  1  0.298067  0.000137  0.000137  1
  Pd  Pd28  1  0.701933  0.999853  0.999853  1
  Pd  Pd29  1  0.000012  0.298076  0.999994  1
  Pd  Pd30  1  0.999725  0.701947  0.000008  1
  Pd  Pd31  1  0.000012  0.999994  0.298076  1
  Pd  Pd32  1  0.999725  0.000008  0.701947  1
