# generated using pymatgen
data_Ca3PrPt4
_symmetry_space_group_name_H-M   'P 1'
_cell_length_a   4.41997300
_cell_length_b   5.78462907
_cell_length_c   7.44291366
_cell_angle_alpha   90.25120173
_cell_angle_beta   90.00000000
_cell_angle_gamma   90.00000000
_symmetry_Int_Tables_number   1
_chemical_formula_structural   Ca3PrPt4
_chemical_formula_sum   'Ca3 Pr1 Pt4'
_cell_volume   190.29787536
_cell_formula_units_Z   1
loop_
 _symmetry_equiv_pos_site_id
 _symmetry_equiv_pos_as_xyz
  1  'x, y, z'
loop_
 _atom_site_type_symbol
 _atom_site_label
 _atom_site_symmetry_multiplicity
 _atom_site_fract_x
 _atom_site_fract_y
 _atom_site_fract_z
 _atom_site_occupancy
  Ca  Ca0  1  0.250000  0.366167  0.677576  1
  Ca  Ca1  1  0.250000  0.136735  0.185800  1
  Ca  Ca2  1  0.750000  0.635123  0.319367  1
  Pr  Pr3  1  0.750000  0.867597  0.818031  1
  Pt  Pt4  1  0.250000  0.857365  0.541389  1
  Pt  Pt5  1  0.250000  0.643339  0.033012  1
  Pt  Pt6  1  0.750000  0.143305  0.462698  1
  Pt  Pt7  1  0.750000  0.350369  0.962128  1
