# generated using pymatgen
data_Ac9Nd(US10)2
_symmetry_space_group_name_H-M   'P 1'
_cell_length_a   7.76480501
_cell_length_b   8.28017600
_cell_length_c   12.32897300
_cell_angle_alpha   90.00000000
_cell_angle_beta   90.00260475
_cell_angle_gamma   90.00000000
_symmetry_Int_Tables_number   1
_chemical_formula_structural   Ac9Nd(US10)2
_chemical_formula_sum   'Ac9 Nd1 U2 S20'
_cell_volume   792.67839834
_cell_formula_units_Z   1
loop_
 _symmetry_equiv_pos_site_id
 _symmetry_equiv_pos_as_xyz
  1  'x, y, z'
loop_
 _atom_site_type_symbol
 _atom_site_label
 _atom_site_symmetry_multiplicity
 _atom_site_fract_x
 _atom_site_fract_y
 _atom_site_fract_z
 _atom_site_occupancy
  Ac  Ac0  1  0.532139  0.501953  0.323782  1
  Ac  Ac1  1  0.967340  0.998354  0.826581  1
  Ac  Ac2  1  0.473287  0.001645  0.676841  1
  Ac  Ac3  1  0.026938  0.498295  0.173184  1
  Ac  Ac4  1  0.473287  0.498355  0.676841  1
  Ac  Ac5  1  0.026938  0.001705  0.173184  1
  Ac  Ac6  1  0.532139  0.998047  0.323782  1
  Ac  Ac7  1  0.967340  0.501646  0.826581  1
  Ac  Ac8  1  0.071983  0.750000  0.491358  1
  Nd  Nd9  1  0.427100  0.750000  0.992122  1
  U  U10  1  0.948322  0.250000  0.503496  1
  U  U11  1  0.549928  0.250000  0.004896  1
  S  S12  1  0.838389  0.983304  0.595319  1
  S  S13  1  0.660040  0.522992  0.089710  1
  S  S14  1  0.164576  0.441544  0.404534  1
  S  S15  1  0.335176  0.051828  0.909795  1
  S  S16  1  0.164576  0.058456  0.404534  1
  S  S17  1  0.335176  0.448172  0.909795  1
  S  S18  1  0.838389  0.516696  0.595319  1
  S  S19  1  0.660040  0.977008  0.089710  1
  S  S20  1  0.826718  0.750000  0.302035  1
  S  S21  1  0.668809  0.750000  0.809972  1
  S  S22  1  0.160469  0.250000  0.680264  1
  S  S23  1  0.339597  0.250000  0.179894  1
  S  S24  1  0.466004  0.750000  0.499149  1
  S  S25  1  0.045946  0.750000  0.998034  1
  S  S26  1  0.555918  0.250000  0.502441  1
  S  S27  1  0.943672  0.250000  0.002728  1
  S  S28  1  0.197672  0.750000  0.722257  1
  S  S29  1  0.304936  0.750000  0.217657  1
  S  S30  1  0.815554  0.250000  0.295455  1
  S  S31  1  0.681605  0.250000  0.798752  1
