# generated using pymatgen
data_HoEr(ZrSn)3
_symmetry_space_group_name_H-M   'P 1'
_cell_length_a   8.68963826
_cell_length_b   8.76964904
_cell_length_c   5.99961900
_cell_angle_alpha   90.00000000
_cell_angle_beta   90.00000000
_cell_angle_gamma   120.30506032
_symmetry_Int_Tables_number   1
_chemical_formula_structural   HoEr(ZrSn)3
_chemical_formula_sum   'Ho2 Er2 Zr6 Sn6'
_cell_volume   394.72530847
_cell_formula_units_Z   2
loop_
 _symmetry_equiv_pos_site_id
 _symmetry_equiv_pos_as_xyz
  1  'x, y, z'
loop_
 _atom_site_type_symbol
 _atom_site_label
 _atom_site_symmetry_multiplicity
 _atom_site_fract_x
 _atom_site_fract_y
 _atom_site_fract_z
 _atom_site_occupancy
  Ho  Ho0  1  0.761201  0.761318  0.250000  1
  Ho  Ho1  1  0.761201  0.999884  0.750000  1
  Er  Er2  1  0.238906  0.238712  0.750000  1
  Er  Er3  1  0.238906  0.000193  0.250000  1
  Zr  Zr4  1  0.000156  0.746842  0.750000  1
  Zr  Zr5  1  0.000156  0.253314  0.250000  1
  Zr  Zr6  1  0.332709  0.666355  0.500000  1
  Zr  Zr7  1  0.667347  0.333673  0.000000  1
  Zr  Zr8  1  0.667347  0.333673  0.500000  1
  Zr  Zr9  1  0.332709  0.666355  0.000000  1
  Sn  Sn10  1  0.392886  0.996622  0.750000  1
  Sn  Sn11  1  0.392886  0.396263  0.250000  1
  Sn  Sn12  1  0.000088  0.601851  0.250000  1
  Sn  Sn13  1  0.000088  0.398237  0.750000  1
  Sn  Sn14  1  0.606707  0.602860  0.750000  1
  Sn  Sn15  1  0.606707  0.003847  0.250000  1
