# generated using pymatgen
data_Er7TmSe12
_symmetry_space_group_name_H-M   'P 1'
_cell_length_a   7.04404692
_cell_length_b   7.04016315
_cell_length_c   12.84474115
_cell_angle_alpha   100.66907016
_cell_angle_beta   100.67902373
_cell_angle_gamma   108.91407198
_symmetry_Int_Tables_number   1
_chemical_formula_structural   Er7TmSe12
_chemical_formula_sum   'Er7 Tm1 Se12'
_cell_volume   571.18620005
_cell_formula_units_Z   1
loop_
 _symmetry_equiv_pos_site_id
 _symmetry_equiv_pos_as_xyz
  1  'x, y, z'
loop_
 _atom_site_type_symbol
 _atom_site_label
 _atom_site_symmetry_multiplicity
 _atom_site_fract_x
 _atom_site_fract_y
 _atom_site_fract_z
 _atom_site_occupancy
  Er  Er0  1  0.622409  0.872412  0.244825  1
  Er  Er1  1  0.127495  0.377511  0.254997  1
  Er  Er2  1  0.208772  0.958753  0.417537  1
  Er  Er3  1  0.791209  0.041237  0.582433  1
  Er  Er4  1  0.872579  0.622550  0.745103  1
  Er  Er5  1  0.377603  0.127572  0.755201  1
  Er  Er6  1  0.958815  0.208855  0.917676  1
  Tm  Tm7  1  0.041343  0.791321  0.082645  1
  Se  Se8  1  0.805041  0.047742  0.087664  1
  Se  Se9  1  0.282796  0.539963  0.087699  1
  Se  Se10  1  0.366725  0.116830  0.249492  1
  Se  Se11  1  0.882608  0.632726  0.249403  1
  Se  Se12  1  0.951317  0.195688  0.412246  1
  Se  Se13  1  0.460859  0.716381  0.412178  1
  Se  Se14  1  0.539092  0.283541  0.587828  1
  Se  Se15  1  0.048731  0.804401  0.587757  1
  Se  Se16  1  0.117685  0.367465  0.750058  1
  Se  Se17  1  0.632483  0.882405  0.749971  1
  Se  Se18  1  0.717050  0.461633  0.912628  1
  Se  Se19  1  0.195389  0.951012  0.912659  1
