# generated using pymatgen
data_Nd3Sn2Pt3Pb
_symmetry_space_group_name_H-M   'P 1'
_cell_length_a   7.68946005
_cell_length_b   7.73934169
_cell_length_c   4.16736600
_cell_angle_alpha   90.00000000
_cell_angle_beta   90.00000000
_cell_angle_gamma   120.21481911
_symmetry_Int_Tables_number   1
_chemical_formula_structural   Nd3Sn2Pt3Pb
_chemical_formula_sum   'Nd3 Sn2 Pt3 Pb1'
_cell_volume   214.31272883
_cell_formula_units_Z   1
loop_
 _symmetry_equiv_pos_site_id
 _symmetry_equiv_pos_as_xyz
  1  'x, y, z'
loop_
 _atom_site_type_symbol
 _atom_site_label
 _atom_site_symmetry_multiplicity
 _atom_site_fract_x
 _atom_site_fract_y
 _atom_site_fract_z
 _atom_site_occupancy
  Nd  Nd0  1  0.588832  0.591092  0.000000  1
  Nd  Nd1  1  0.411168  0.002260  0.000000  1
  Nd  Nd2  1  0.000000  0.408725  0.000000  1
  Sn  Sn3  1  0.253305  0.254080  0.500000  1
  Sn  Sn4  1  0.746695  0.000775  0.500000  1
  Pt  Pt5  1  0.000000  0.012036  0.000000  1
  Pt  Pt6  1  0.340937  0.663483  0.500000  1
  Pt  Pt7  1  0.659063  0.322546  0.500000  1
  Pb  Pb8  1  0.000000  0.745003  0.500000  1
