# generated using pymatgen
data_Lu10CoBi4Ir
_symmetry_space_group_name_H-M   'P 1'
_cell_length_a   7.79193098
_cell_length_b   8.87481400
_cell_length_c   12.27130400
_cell_angle_alpha   90.00000000
_cell_angle_beta   89.50059977
_cell_angle_gamma   90.00000000
_symmetry_Int_Tables_number   1
_chemical_formula_structural   Lu10CoBi4Ir
_chemical_formula_sum   'Lu20 Co2 Bi8 Ir2'
_cell_volume   848.55222135
_cell_formula_units_Z   2
loop_
 _symmetry_equiv_pos_site_id
 _symmetry_equiv_pos_as_xyz
  1  'x, y, z'
loop_
 _atom_site_type_symbol
 _atom_site_label
 _atom_site_symmetry_multiplicity
 _atom_site_fract_x
 _atom_site_fract_y
 _atom_site_fract_z
 _atom_site_occupancy
  Lu  Lu0  1  0.342735  0.750000  0.701786  1
  Lu  Lu1  1  0.657265  0.250000  0.298214  1
  Lu  Lu2  1  0.840276  0.250000  0.792472  1
  Lu  Lu3  1  0.159724  0.750000  0.207528  1
  Lu  Lu4  1  0.878276  0.750000  0.809021  1
  Lu  Lu5  1  0.121724  0.250000  0.190979  1
  Lu  Lu6  1  0.383919  0.250000  0.682374  1
  Lu  Lu7  1  0.616081  0.750000  0.317626  1
  Lu  Lu8  1  0.670609  0.539248  0.564085  1
  Lu  Lu9  1  0.329391  0.460752  0.435915  1
  Lu  Lu10  1  0.173429  0.456902  0.932556  1
  Lu  Lu11  1  0.329391  0.039248  0.435915  1
  Lu  Lu12  1  0.826571  0.543098  0.067444  1
  Lu  Lu13  1  0.670609  0.960752  0.564085  1
  Lu  Lu14  1  0.826571  0.956902  0.067444  1
  Lu  Lu15  1  0.173429  0.043098  0.932556  1
  Lu  Lu16  1  0.062113  0.750000  0.498420  1
  Lu  Lu17  1  0.937887  0.250000  0.501580  1
  Lu  Lu18  1  0.558535  0.250000  0.003115  1
  Lu  Lu19  1  0.441465  0.750000  0.996885  1
  Co  Co20  1  0.568810  0.250000  0.505723  1
  Co  Co21  1  0.431190  0.750000  0.494277  1
  Bi  Bi22  1  0.564769  0.508063  0.826421  1
  Bi  Bi23  1  0.435231  0.491937  0.173579  1
  Bi  Bi24  1  0.066672  0.490303  0.670715  1
  Bi  Bi25  1  0.435231  0.008063  0.173579  1
  Bi  Bi26  1  0.933328  0.509697  0.329285  1
  Bi  Bi27  1  0.564769  0.991937  0.826421  1
  Bi  Bi28  1  0.933328  0.990303  0.329285  1
  Bi  Bi29  1  0.066672  0.009697  0.670715  1
  Ir  Ir30  1  0.073012  0.750000  0.991426  1
  Ir  Ir31  1  0.926988  0.250000  0.008574  1
