# generated using pymatgen
data_Er7Ti3(Si5Ir2)4
_symmetry_space_group_name_H-M   'P 1'
_cell_length_a   12.46841400
_cell_length_b   12.46841400
_cell_length_c   4.16314700
_cell_angle_alpha   90.00000000
_cell_angle_beta   90.00000000
_cell_angle_gamma   90.00003676
_symmetry_Int_Tables_number   1
_chemical_formula_structural   Er7Ti3(Si5Ir2)4
_chemical_formula_sum   'Er7 Ti3 Si20 Ir8'
_cell_volume   647.20844319
_cell_formula_units_Z   1
loop_
 _symmetry_equiv_pos_site_id
 _symmetry_equiv_pos_as_xyz
  1  'x, y, z'
loop_
 _atom_site_type_symbol
 _atom_site_label
 _atom_site_symmetry_multiplicity
 _atom_site_fract_x
 _atom_site_fract_y
 _atom_site_fract_z
 _atom_site_occupancy
  Er  Er0  1  0.498674  0.502833  0.000000  1
  Er  Er1  1  0.997167  0.001326  0.000000  1
  Er  Er2  1  0.826095  0.673905  0.500000  1
  Er  Er3  1  0.884958  0.379110  0.500000  1
  Er  Er4  1  0.120890  0.615042  0.500000  1
  Er  Er5  1  0.381265  0.118735  0.500000  1
  Er  Er6  1  0.611132  0.888868  0.500000  1
  Ti  Ti7  1  0.670236  0.174263  0.500000  1
  Ti  Ti8  1  0.325737  0.829764  0.500000  1
  Ti  Ti9  1  0.173846  0.326154  0.500000  1
  Si  Si10  1  0.565259  0.069603  0.000000  1
  Si  Si11  1  0.430397  0.934741  0.000000  1
  Si  Si12  1  0.069523  0.430477  0.000000  1
  Si  Si13  1  0.935979  0.564021  0.000000  1
  Si  Si14  1  0.662901  0.700735  0.000000  1
  Si  Si15  1  0.330336  0.303386  0.000000  1
  Si  Si16  1  0.169789  0.804317  0.000000  1
  Si  Si17  1  0.831336  0.198548  0.000000  1
  Si  Si18  1  0.301452  0.668664  0.000000  1
  Si  Si19  1  0.695683  0.330211  0.000000  1
  Si  Si20  1  0.196614  0.169664  0.000000  1
  Si  Si21  1  0.799265  0.837099  0.000000  1
  Si  Si22  1  0.657925  0.491150  0.500000  1
  Si  Si23  1  0.340752  0.469998  0.500000  1
  Si  Si24  1  0.156399  0.986519  0.500000  1
  Si  Si25  1  0.837462  0.011125  0.500000  1
  Si  Si26  1  0.488875  0.662538  0.500000  1
  Si  Si27  1  0.513481  0.343601  0.500000  1
  Si  Si28  1  0.030002  0.159248  0.500000  1
  Si  Si29  1  0.008850  0.842075  0.500000  1
  Ir  Ir30  1  0.744888  0.516592  0.000000  1
  Ir  Ir31  1  0.252758  0.482842  0.000000  1
  Ir  Ir32  1  0.246187  0.983676  0.000000  1
  Ir  Ir33  1  0.749841  0.022847  0.000000  1
  Ir  Ir34  1  0.477153  0.750159  0.000000  1
  Ir  Ir35  1  0.516324  0.253813  0.000000  1
  Ir  Ir36  1  0.017158  0.247242  0.000000  1
  Ir  Ir37  1  0.983408  0.755112  0.000000  1
