# generated using pymatgen
data_SrTb6Co4Sn23Ir2
_symmetry_space_group_name_H-M   'P 1'
_cell_length_a   9.81521959
_cell_length_b   9.81521913
_cell_length_c   10.02999049
_cell_angle_alpha   90.27186359
_cell_angle_beta   89.72813478
_cell_angle_gamma   120.01452625
_symmetry_Int_Tables_number   1
_chemical_formula_structural   SrTb6Co4Sn23Ir2
_chemical_formula_sum   'Sr1 Tb6 Co4 Sn23 Ir2'
_cell_volume   836.68323363
_cell_formula_units_Z   1
loop_
 _symmetry_equiv_pos_site_id
 _symmetry_equiv_pos_as_xyz
  1  'x, y, z'
loop_
 _atom_site_type_symbol
 _atom_site_label
 _atom_site_symmetry_multiplicity
 _atom_site_fract_x
 _atom_site_fract_y
 _atom_site_fract_z
 _atom_site_occupancy
  Sr  Sr0  1  0.000000  0.000000  0.000000  1
  Tb  Tb1  1  0.479682  0.520318  0.306440  1
  Tb  Tb2  1  0.520318  0.479682  0.693560  1
  Tb  Tb3  1  0.480769  0.959146  0.305899  1
  Tb  Tb4  1  0.519231  0.040854  0.694101  1
  Tb  Tb5  1  0.040854  0.519231  0.305899  1
  Tb  Tb6  1  0.959146  0.480769  0.694101  1
  Co  Co7  1  0.829027  0.660567  0.200251  1
  Co  Co8  1  0.170973  0.339433  0.799749  1
  Co  Co9  1  0.339433  0.170973  0.200251  1
  Co  Co10  1  0.660567  0.829027  0.799749  1
  Sn  Sn11  1  0.352592  0.004929  0.005129  1
  Sn  Sn12  1  0.647408  0.995071  0.994871  1
  Sn  Sn13  1  0.004929  0.352592  0.994871  1
  Sn  Sn14  1  0.995071  0.647408  0.005129  1
  Sn  Sn15  1  0.651801  0.651801  0.000000  1
  Sn  Sn16  1  0.348199  0.348199  0.000000  1
  Sn  Sn17  1  0.335857  0.664143  0.818081  1
  Sn  Sn18  1  0.664143  0.335857  0.181919  1
  Sn  Sn19  1  0.000000  0.000000  0.500000  1
  Sn  Sn20  1  0.778939  0.221061  0.458056  1
  Sn  Sn21  1  0.221061  0.778939  0.541944  1
  Sn  Sn22  1  0.781049  0.561477  0.451080  1
  Sn  Sn23  1  0.218951  0.438523  0.548920  1
  Sn  Sn24  1  0.438523  0.218951  0.451080  1
  Sn  Sn25  1  0.561477  0.781049  0.548920  1
  Sn  Sn26  1  0.333767  0.666233  0.118507  1
  Sn  Sn27  1  0.666233  0.333767  0.881493  1
  Sn  Sn28  1  0.117322  0.882678  0.275362  1
  Sn  Sn29  1  0.882678  0.117322  0.724638  1
  Sn  Sn30  1  0.123037  0.236138  0.280254  1
  Sn  Sn31  1  0.876963  0.763862  0.719746  1
  Sn  Sn32  1  0.763862  0.876963  0.280254  1
  Sn  Sn33  1  0.236138  0.123037  0.719746  1
  Ir  Ir34  1  0.830170  0.169830  0.199020  1
  Ir  Ir35  1  0.169830  0.830170  0.800980  1
