# generated using pymatgen
data_Zr6GaSi2P
_symmetry_space_group_name_H-M   'P 1'
_cell_length_a   7.15183861
_cell_length_b   7.15183810
_cell_length_c   3.67786800
_cell_angle_alpha   90.00000000
_cell_angle_beta   90.00000000
_cell_angle_gamma   89.69368629
_symmetry_Int_Tables_number   1
_chemical_formula_structural   Zr6GaSi2P
_chemical_formula_sum   'Zr6 Ga1 Si2 P1'
_cell_volume   188.11581656
_cell_formula_units_Z   1
loop_
 _symmetry_equiv_pos_site_id
 _symmetry_equiv_pos_as_xyz
  1  'x, y, z'
loop_
 _atom_site_type_symbol
 _atom_site_label
 _atom_site_symmetry_multiplicity
 _atom_site_fract_x
 _atom_site_fract_y
 _atom_site_fract_z
 _atom_site_occupancy
  Zr  Zr0  1  0.998386  0.004841  0.000000  1
  Zr  Zr1  1  0.504841  0.498386  0.000000  1
  Zr  Zr2  1  0.675769  0.175769  0.500000  1
  Zr  Zr3  1  0.167902  0.319572  0.500000  1
  Zr  Zr4  1  0.819572  0.667902  0.500000  1
  Zr  Zr5  1  0.331320  0.831320  0.500000  1
  Ga  Ga6  1  0.126424  0.626424  0.000000  1
  Si  Si7  1  0.377448  0.123156  0.000000  1
  Si  Si8  1  0.623156  0.877448  0.000000  1
  P  P9  1  0.875181  0.375181  0.000000  1
