# generated using pymatgen
data_Yb2MnSi2IrC
_symmetry_space_group_name_H-M   'P 1'
_cell_length_a   5.81608741
_cell_length_b   5.81608711
_cell_length_c   7.04425015
_cell_angle_alpha   128.11576875
_cell_angle_beta   128.11577536
_cell_angle_gamma   40.26725278
_symmetry_Int_Tables_number   1
_chemical_formula_structural   Yb2MnSi2IrC
_chemical_formula_sum   'Yb2 Mn1 Si2 Ir1 C1'
_cell_volume   116.05425069
_cell_formula_units_Z   1
loop_
 _symmetry_equiv_pos_site_id
 _symmetry_equiv_pos_as_xyz
  1  'x, y, z'
loop_
 _atom_site_type_symbol
 _atom_site_label
 _atom_site_symmetry_multiplicity
 _atom_site_fract_x
 _atom_site_fract_y
 _atom_site_fract_z
 _atom_site_occupancy
  Yb  Yb0  1  0.567521  0.567521  0.291698  1
  Yb  Yb1  1  0.432782  0.432782  0.704636  1
  Mn  Mn2  1  0.799426  0.799426  0.911724  1
  Si  Si3  1  0.853700  0.853700  0.293937  1
  Si  Si4  1  0.155205  0.155205  0.708496  1
  Ir  Ir5  1  0.202581  0.202581  0.093775  1
  C  C6  1  0.988784  0.988784  0.995733  1
