# generated using pymatgen
data_Tm6VFe12Co5P12
_symmetry_space_group_name_H-M   'P 1'
_cell_length_a   3.69135200
_cell_length_b   10.46321729
_cell_length_c   12.12507401
_cell_angle_alpha   89.79470761
_cell_angle_beta   90.00000000
_cell_angle_gamma   90.00000000
_symmetry_Int_Tables_number   1
_chemical_formula_structural   Tm6VFe12Co5P12
_chemical_formula_sum   'Tm6 V1 Fe12 Co5 P12'
_cell_volume   468.30879669
_cell_formula_units_Z   1
loop_
 _symmetry_equiv_pos_site_id
 _symmetry_equiv_pos_as_xyz
  1  'x, y, z'
loop_
 _atom_site_type_symbol
 _atom_site_label
 _atom_site_symmetry_multiplicity
 _atom_site_fract_x
 _atom_site_fract_y
 _atom_site_fract_z
 _atom_site_occupancy
  Tm  Tm0  1  0.000000  0.499671  0.524855  1
  Tm  Tm1  1  0.500000  0.000321  0.474881  1
  Tm  Tm2  1  0.500000  0.821462  0.208480  1
  Tm  Tm3  1  0.500000  0.178762  0.207208  1
  Tm  Tm4  1  0.000000  0.679370  0.792741  1
  Tm  Tm5  1  0.000000  0.321302  0.794371  1
  V  V6  1  0.500000  0.500303  0.150357  1
  Fe  Fe7  1  0.000000  0.000183  0.844608  1
  Fe  Fe8  1  0.000000  0.502155  0.987710  1
  Fe  Fe9  1  0.500000  0.997793  0.009932  1
  Fe  Fe10  1  0.500000  0.328146  0.996081  1
  Fe  Fe11  1  0.500000  0.676217  0.995735  1
  Fe  Fe12  1  0.000000  0.168756  0.002729  1
  Fe  Fe13  1  0.000000  0.828917  0.002370  1
  Fe  Fe14  1  0.500000  0.296802  0.431451  1
  Fe  Fe15  1  0.500000  0.701968  0.430580  1
  Fe  Fe16  1  0.000000  0.200287  0.572193  1
  Fe  Fe17  1  0.000000  0.798586  0.569927  1
  Fe  Fe18  1  0.500000  0.882534  0.706209  1
  Co  Co19  1  0.500000  0.500098  0.700656  1
  Co  Co20  1  0.000000  0.999696  0.299339  1
  Co  Co21  1  0.500000  0.119042  0.710077  1
  Co  Co22  1  0.000000  0.620109  0.292859  1
  Co  Co23  1  0.000000  0.378364  0.291640  1
  P  P24  1  0.500000  0.500996  0.884403  1
  P  P25  1  0.000000  0.999682  0.116047  1
  P  P26  1  0.500000  0.498993  0.347838  1
  P  P27  1  0.000000  0.997935  0.656245  1
  P  P28  1  0.500000  0.308432  0.615580  1
  P  P29  1  0.500000  0.692181  0.614851  1
  P  P30  1  0.000000  0.191132  0.387067  1
  P  P31  1  0.000000  0.808101  0.386798  1
  P  P32  1  0.500000  0.851401  0.884462  1
  P  P33  1  0.500000  0.151054  0.889875  1
  P  P34  1  0.000000  0.653604  0.111515  1
  P  P35  1  0.000000  0.345645  0.108326  1
