# generated using pymatgen
data_NdSm2Mg3Ag2Ru
_symmetry_space_group_name_H-M   'P 1'
_cell_length_a   7.84375799
_cell_length_b   7.84486627
_cell_length_c   4.03739800
_cell_angle_alpha   90.00000000
_cell_angle_beta   90.00000000
_cell_angle_gamma   119.87980301
_symmetry_Int_Tables_number   1
_chemical_formula_structural   NdSm2Mg3Ag2Ru
_chemical_formula_sum   'Nd1 Sm2 Mg3 Ag2 Ru1'
_cell_volume   215.41039798
_cell_formula_units_Z   1
loop_
 _symmetry_equiv_pos_site_id
 _symmetry_equiv_pos_as_xyz
  1  'x, y, z'
loop_
 _atom_site_type_symbol
 _atom_site_label
 _atom_site_symmetry_multiplicity
 _atom_site_fract_x
 _atom_site_fract_y
 _atom_site_fract_z
 _atom_site_occupancy
  Nd  Nd0  1  0.032140  0.431207  0.500000  1
  Sm  Sm1  1  0.569497  0.602761  0.500000  1
  Sm  Sm2  1  0.397279  0.966432  0.500000  1
  Mg  Mg3  1  0.998453  0.747323  0.000000  1
  Mg  Mg4  1  0.255116  0.252193  0.000000  1
  Mg  Mg5  1  0.745853  0.999552  0.000000  1
  Ag  Ag6  1  0.664315  0.332424  0.000000  1
  Ag  Ag7  1  0.000171  0.998894  0.500000  1
  Ru  Ru8  1  0.337175  0.669216  0.000000  1
