# generated using pymatgen
data_Li8DyY7Sn7Sb
_symmetry_space_group_name_H-M   'P 1'
_cell_length_a   9.38152700
_cell_length_b   9.38173999
_cell_length_c   7.29871400
_cell_angle_alpha   90.07265964
_cell_angle_beta   90.00000000
_cell_angle_gamma   119.99925252
_symmetry_Int_Tables_number   1
_chemical_formula_structural   Li8DyY7Sn7Sb
_chemical_formula_sum   'Li8 Dy1 Y7 Sn7 Sb1'
_cell_volume   556.33541762
_cell_formula_units_Z   1
loop_
 _symmetry_equiv_pos_site_id
 _symmetry_equiv_pos_as_xyz
  1  'x, y, z'
loop_
 _atom_site_type_symbol
 _atom_site_label
 _atom_site_symmetry_multiplicity
 _atom_site_fract_x
 _atom_site_fract_y
 _atom_site_fract_z
 _atom_site_occupancy
  Li  Li0  1  0.166726  0.333453  0.288496  1
  Li  Li1  1  0.166862  0.833233  0.288968  1
  Li  Li2  1  0.666370  0.833233  0.288968  1
  Li  Li3  1  0.833348  0.666696  0.788620  1
  Li  Li4  1  0.832505  0.166291  0.789577  1
  Li  Li5  1  0.333785  0.166291  0.789577  1
  Li  Li6  1  0.333664  0.667329  0.668645  1
  Li  Li7  1  0.666682  0.333364  0.169700  1
  Dy  Dy8  1  0.998993  0.997986  0.001678  1
  Y  Y9  1  0.512568  0.025134  0.493877  1
  Y  Y10  1  0.515124  0.489347  0.492015  1
  Y  Y11  1  0.974224  0.489347  0.492015  1
  Y  Y12  1  0.487516  0.975034  0.994398  1
  Y  Y13  1  0.489535  0.512896  0.995033  1
  Y  Y14  1  0.023360  0.512896  0.995033  1
  Y  Y15  1  0.998943  0.997886  0.498647  1
  Sn  Sn16  1  0.166560  0.832824  0.729960  1
  Sn  Sn17  1  0.666265  0.832824  0.729960  1
  Sn  Sn18  1  0.833324  0.666649  0.230330  1
  Sn  Sn19  1  0.833802  0.167179  0.229925  1
  Sn  Sn20  1  0.333376  0.167179  0.229925  1
  Sn  Sn21  1  0.332884  0.665771  0.261983  1
  Sn  Sn22  1  0.666869  0.333739  0.762418  1
  Sb  Sb23  1  0.166711  0.333422  0.732248  1
