# generated using pymatgen
data_Hf5Nb3Sb4
_symmetry_space_group_name_H-M   'P 1'
_cell_length_a   3.80572800
_cell_length_b   7.42787002
_cell_length_c   9.05995200
_cell_angle_alpha   89.73073962
_cell_angle_beta   90.00000000
_cell_angle_gamma   90.00000000
_symmetry_Int_Tables_number   1
_chemical_formula_structural   Hf5Nb3Sb4
_chemical_formula_sum   'Hf5 Nb3 Sb4'
_cell_volume   256.10799850
_cell_formula_units_Z   1
loop_
 _symmetry_equiv_pos_site_id
 _symmetry_equiv_pos_as_xyz
  1  'x, y, z'
loop_
 _atom_site_type_symbol
 _atom_site_label
 _atom_site_symmetry_multiplicity
 _atom_site_fract_x
 _atom_site_fract_y
 _atom_site_fract_z
 _atom_site_occupancy
  Hf  Hf0  1  0.250000  0.057700  0.661473  1
  Hf  Hf1  1  0.250000  0.551290  0.833892  1
  Hf  Hf2  1  0.750000  0.440874  0.162129  1
  Hf  Hf3  1  0.750000  0.942664  0.339033  1
  Hf  Hf4  1  0.750000  0.873100  0.938632  1
  Nb  Nb5  1  0.250000  0.627335  0.440025  1
  Nb  Nb6  1  0.750000  0.369803  0.560083  1
  Nb  Nb7  1  0.250000  0.137579  0.062949  1
  Sb  Sb8  1  0.250000  0.245470  0.358964  1
  Sb  Sb9  1  0.250000  0.746118  0.145379  1
  Sb  Sb10  1  0.750000  0.752982  0.640003  1
  Sb  Sb11  1  0.750000  0.255085  0.857439  1
