# generated using pymatgen
data_Tb6Y2Zn3Si12Pd
_symmetry_space_group_name_H-M   'P 1'
_cell_length_a   8.14169600
_cell_length_b   8.13792426
_cell_length_c   8.13099501
_cell_angle_alpha   89.99641078
_cell_angle_beta   90.00000000
_cell_angle_gamma   120.01533286
_symmetry_Int_Tables_number   1
_chemical_formula_structural   Tb6Y2Zn3Si12Pd
_chemical_formula_sum   'Tb6 Y2 Zn3 Si12 Pd1'
_cell_volume   466.48290183
_cell_formula_units_Z   1
loop_
 _symmetry_equiv_pos_site_id
 _symmetry_equiv_pos_as_xyz
  1  'x, y, z'
loop_
 _atom_site_type_symbol
 _atom_site_label
 _atom_site_symmetry_multiplicity
 _atom_site_fract_x
 _atom_site_fract_y
 _atom_site_fract_z
 _atom_site_occupancy
  Tb  Tb0  1  0.997854  0.498909  0.249084  1
  Tb  Tb1  1  0.000542  0.500243  0.750740  1
  Tb  Tb2  1  0.501056  0.498909  0.249084  1
  Tb  Tb3  1  0.499700  0.500243  0.750740  1
  Tb  Tb4  1  0.000019  0.000038  0.250337  1
  Tb  Tb5  1  0.000017  0.000034  0.750141  1
  Y  Y6  1  0.501075  0.002149  0.249064  1
  Y  Y7  1  0.499725  0.999451  0.750741  1
  Zn  Zn8  1  0.333345  0.666691  0.005872  1
  Zn  Zn9  1  0.666567  0.333132  0.994601  1
  Zn  Zn10  1  0.666601  0.333202  0.500246  1
  Si  Si11  1  0.166436  0.332873  0.997430  1
  Si  Si12  1  0.833138  0.666277  0.002556  1
  Si  Si13  1  0.667160  0.833610  0.997420  1
  Si  Si14  1  0.835359  0.670717  0.502241  1
  Si  Si15  1  0.333802  0.166880  0.002554  1
  Si  Si16  1  0.167663  0.335324  0.497786  1
  Si  Si17  1  0.166449  0.833610  0.997420  1
  Si  Si18  1  0.329327  0.164662  0.502256  1
  Si  Si19  1  0.833078  0.166880  0.002554  1
  Si  Si20  1  0.664532  0.832309  0.497780  1
  Si  Si21  1  0.835336  0.164662  0.502256  1
  Si  Si22  1  0.167778  0.832309  0.497780  1
  Pd  Pd23  1  0.333442  0.666884  0.499315  1
