# generated using pymatgen
data_Cs6TbBiBr12
_symmetry_space_group_name_H-M   'P 1'
_cell_length_a   10.08124954
_cell_length_b   10.07058254
_cell_length_c   8.36295200
_cell_angle_alpha   90.00000000
_cell_angle_beta   90.00000000
_cell_angle_gamma   90.03757011
_symmetry_Int_Tables_number   1
_chemical_formula_structural   Cs6TbBiBr12
_chemical_formula_sum   'Cs6 Tb1 Bi1 Br12'
_cell_volume   849.04062155
_cell_formula_units_Z   1
loop_
 _symmetry_equiv_pos_site_id
 _symmetry_equiv_pos_as_xyz
  1  'x, y, z'
loop_
 _atom_site_type_symbol
 _atom_site_label
 _atom_site_symmetry_multiplicity
 _atom_site_fract_x
 _atom_site_fract_y
 _atom_site_fract_z
 _atom_site_occupancy
  Cs  Cs0  1  0.000000  0.000000  0.500000  1
  Cs  Cs1  1  0.000000  0.000000  0.000000  1
  Cs  Cs2  1  0.234617  0.584655  0.500000  1
  Cs  Cs3  1  0.765383  0.415345  0.500000  1
  Cs  Cs4  1  0.415730  0.235747  0.000000  1
  Cs  Cs5  1  0.584270  0.764253  0.000000  1
  Tb  Tb6  1  0.000000  0.500000  0.000000  1
  Bi  Bi7  1  0.500000  0.000000  0.500000  1
  Br  Br8  1  0.695919  0.059628  0.745275  1
  Br  Br9  1  0.304081  0.940372  0.745275  1
  Br  Br10  1  0.942831  0.691659  0.239798  1
  Br  Br11  1  0.057169  0.308341  0.239798  1
  Br  Br12  1  0.304081  0.940372  0.254725  1
  Br  Br13  1  0.695919  0.059628  0.254725  1
  Br  Br14  1  0.057169  0.308341  0.760202  1
  Br  Br15  1  0.942831  0.691659  0.760202  1
  Br  Br16  1  0.571629  0.722365  0.500000  1
  Br  Br17  1  0.428371  0.277635  0.500000  1
  Br  Br18  1  0.271131  0.570247  0.000000  1
  Br  Br19  1  0.728869  0.429753  0.000000  1
