# generated using pymatgen
data_Nd5SmNiBr10
_symmetry_space_group_name_H-M   'P 1'
_cell_length_a   7.58572761
_cell_length_b   9.46474512
_cell_length_c   9.54079471
_cell_angle_alpha   108.07990026
_cell_angle_beta   97.08634997
_cell_angle_gamma   105.60821892
_symmetry_Int_Tables_number   1
_chemical_formula_structural   Nd5SmNiBr10
_chemical_formula_sum   'Nd5 Sm1 Ni1 Br10'
_cell_volume   610.94727992
_cell_formula_units_Z   1
loop_
 _symmetry_equiv_pos_site_id
 _symmetry_equiv_pos_as_xyz
  1  'x, y, z'
loop_
 _atom_site_type_symbol
 _atom_site_label
 _atom_site_symmetry_multiplicity
 _atom_site_fract_x
 _atom_site_fract_y
 _atom_site_fract_z
 _atom_site_occupancy
  Nd  Nd0  1  0.968023  0.296570  0.592884  1
  Nd  Nd1  1  0.873088  0.951521  0.743957  1
  Nd  Nd2  1  0.126816  0.047786  0.255821  1
  Nd  Nd3  1  0.358430  0.133542  0.679299  1
  Nd  Nd4  1  0.641842  0.865403  0.320671  1
  Sm  Sm5  1  0.031222  0.704989  0.407052  1
  Ni  Ni6  1  0.999825  0.999401  0.499763  1
  Br  Br7  1  0.450303  0.821283  0.581683  1
  Br  Br8  1  0.547133  0.177872  0.417063  1
  Br  Br9  1  0.915459  0.632375  0.669432  1
  Br  Br10  1  0.085001  0.370009  0.327548  1
  Br  Br11  1  0.251044  0.083866  0.955729  1
  Br  Br12  1  0.749403  0.916993  0.044905  1
  Br  Br13  1  0.351745  0.453262  0.771076  1
  Br  Br14  1  0.652305  0.546836  0.230454  1
  Br  Br15  1  0.787656  0.254437  0.846195  1
  Br  Br16  1  0.210704  0.743854  0.156469  1
