# generated using pymatgen
data_CePr(BiSe)2
_symmetry_space_group_name_H-M   'P 1'
_cell_length_a   4.36072700
_cell_length_b   4.36072700
_cell_length_c   9.12489900
_cell_angle_alpha   90.00000000
_cell_angle_beta   90.00000000
_cell_angle_gamma   90.00000000
_symmetry_Int_Tables_number   1
_chemical_formula_structural   CePr(BiSe)2
_chemical_formula_sum   'Ce1 Pr1 Bi2 Se2'
_cell_volume   173.51853160
_cell_formula_units_Z   1
loop_
 _symmetry_equiv_pos_site_id
 _symmetry_equiv_pos_as_xyz
  1  'x, y, z'
loop_
 _atom_site_type_symbol
 _atom_site_label
 _atom_site_symmetry_multiplicity
 _atom_site_fract_x
 _atom_site_fract_y
 _atom_site_fract_z
 _atom_site_occupancy
  Ce  Ce0  1  0.000000  0.500000  0.695971  1
  Pr  Pr1  1  0.500000  0.000000  0.301919  1
  Bi  Bi2  1  0.000000  0.000000  0.997561  1
  Bi  Bi3  1  0.500000  0.500000  0.997561  1
  Se  Se4  1  0.000000  0.500000  0.371672  1
  Se  Se5  1  0.500000  0.000000  0.635318  1
