# generated using pymatgen
data_Tb4IrAu3
_symmetry_space_group_name_H-M   'P 1'
_cell_length_a   4.66809600
_cell_length_b   5.67231151
_cell_length_c   7.18395310
_cell_angle_alpha   89.02501309
_cell_angle_beta   90.00000000
_cell_angle_gamma   90.00000000
_symmetry_Int_Tables_number   1
_chemical_formula_structural   Tb4IrAu3
_chemical_formula_sum   'Tb4 Ir1 Au3'
_cell_volume   190.19559665
_cell_formula_units_Z   1
loop_
 _symmetry_equiv_pos_site_id
 _symmetry_equiv_pos_as_xyz
  1  'x, y, z'
loop_
 _atom_site_type_symbol
 _atom_site_label
 _atom_site_symmetry_multiplicity
 _atom_site_fract_x
 _atom_site_fract_y
 _atom_site_fract_z
 _atom_site_occupancy
  Tb  Tb0  1  0.250000  0.365079  0.677984  1
  Tb  Tb1  1  0.250000  0.135866  0.191554  1
  Tb  Tb2  1  0.750000  0.653176  0.329140  1
  Tb  Tb3  1  0.750000  0.853712  0.801064  1
  Ir  Ir4  1  0.250000  0.838638  0.538165  1
  Au  Au5  1  0.250000  0.651168  0.040923  1
  Au  Au6  1  0.750000  0.156510  0.457521  1
  Au  Au7  1  0.750000  0.345850  0.963648  1
