# generated using pymatgen
data_Er8Hf3Si16Mo9
_symmetry_space_group_name_H-M   'P 1'
_cell_length_a   6.96543920
_cell_length_b   6.96543848
_cell_length_c   12.87923769
_cell_angle_alpha   90.05748825
_cell_angle_beta   89.94250883
_cell_angle_gamma   89.79401159
_symmetry_Int_Tables_number   1
_chemical_formula_structural   Er8Hf3Si16Mo9
_chemical_formula_sum   'Er8 Hf3 Si16 Mo9'
_cell_volume   624.86166148
_cell_formula_units_Z   1
loop_
 _symmetry_equiv_pos_site_id
 _symmetry_equiv_pos_as_xyz
  1  'x, y, z'
loop_
 _atom_site_type_symbol
 _atom_site_label
 _atom_site_symmetry_multiplicity
 _atom_site_fract_x
 _atom_site_fract_y
 _atom_site_fract_z
 _atom_site_occupancy
  Er  Er0  1  0.338914  0.002750  0.468831  1
  Er  Er1  1  0.495873  0.839080  0.720398  1
  Er  Er2  1  0.499334  0.162713  0.217061  1
  Er  Er3  1  0.839080  0.495873  0.279602  1
  Er  Er4  1  0.162713  0.499334  0.782939  1
  Er  Er5  1  0.658979  0.000252  0.969231  1
  Er  Er6  1  0.002750  0.338914  0.531169  1
  Er  Er7  1  0.000252  0.658979  0.030769  1
  Hf  Hf8  1  0.169394  0.831393  0.247970  1
  Hf  Hf9  1  0.831393  0.169394  0.752030  1
  Hf  Hf10  1  0.668224  0.668224  0.500000  1
  Si  Si11  1  0.205441  0.129699  0.682362  1
  Si  Si12  1  0.373706  0.696146  0.933971  1
  Si  Si13  1  0.628550  0.295239  0.431640  1
  Si  Si14  1  0.696146  0.373706  0.066029  1
  Si  Si15  1  0.295239  0.628550  0.568360  1
  Si  Si16  1  0.793127  0.872096  0.182181  1
  Si  Si17  1  0.129699  0.205441  0.317638  1
  Si  Si18  1  0.872096  0.793127  0.817819  1
  Si  Si19  1  0.289238  0.966992  0.058833  1
  Si  Si20  1  0.541352  0.792919  0.311542  1
  Si  Si21  1  0.453938  0.210835  0.816877  1
  Si  Si22  1  0.792919  0.541352  0.688458  1
  Si  Si23  1  0.210835  0.453938  0.183123  1
  Si  Si24  1  0.708247  0.043122  0.562412  1
  Si  Si25  1  0.966992  0.289238  0.941167  1
  Si  Si26  1  0.043122  0.708247  0.437588  1
  Mo  Mo27  1  0.332097  0.332097  0.000000  1
  Mo  Mo28  1  0.155733  0.000830  0.873316  1
  Mo  Mo29  1  0.497338  0.666848  0.123076  1
  Mo  Mo30  1  0.504571  0.339903  0.624621  1
  Mo  Mo31  1  0.666848  0.497338  0.876924  1
  Mo  Mo32  1  0.339903  0.504571  0.375379  1
  Mo  Mo33  1  0.840489  0.994637  0.373505  1
  Mo  Mo34  1  0.000830  0.155733  0.126684  1
  Mo  Mo35  1  0.994637  0.840489  0.626495  1
