# generated using pymatgen
data_NbTe16
_symmetry_space_group_name_H-M   'P 1'
_cell_length_a   7.82383130
_cell_length_b   7.82383003
_cell_length_c   13.11056242
_cell_angle_alpha   56.89970170
_cell_angle_beta   56.89970405
_cell_angle_gamma   67.73331445
_symmetry_Int_Tables_number   1
_chemical_formula_structural   NbTe16
_chemical_formula_sum   'Nb1 Te16'
_cell_volume   559.45353502
_cell_formula_units_Z   1
loop_
 _symmetry_equiv_pos_site_id
 _symmetry_equiv_pos_as_xyz
  1  'x, y, z'
loop_
 _atom_site_type_symbol
 _atom_site_label
 _atom_site_symmetry_multiplicity
 _atom_site_fract_x
 _atom_site_fract_y
 _atom_site_fract_z
 _atom_site_occupancy
  Nb  Nb0  1  0.747735  0.747735  0.553872  1
  Te  Te1  1  0.811741  0.811741  0.896458  1
  Te  Te2  1  0.347143  0.347143  0.870477  1
  Te  Te3  1  0.667088  0.151129  0.123064  1
  Te  Te4  1  0.151129  0.667088  0.123064  1
  Te  Te5  1  0.023302  0.023302  0.336297  1
  Te  Te6  1  0.457761  0.457761  0.379917  1
  Te  Te7  1  0.516579  0.073911  0.619986  1
  Te  Te8  1  0.073911  0.516579  0.619986  1
  Te  Te9  1  0.237969  0.237969  0.370692  1
  Te  Te10  1  0.736069  0.736069  0.351766  1
  Te  Te11  1  0.310077  0.758561  0.640559  1
  Te  Te12  1  0.758561  0.310077  0.640559  1
  Te  Te13  1  0.050327  0.050327  0.920026  1
  Te  Te14  1  0.600560  0.600560  0.856943  1
  Te  Te15  1  0.419655  0.901690  0.115366  1
  Te  Te16  1  0.901690  0.419655  0.115366  1
