# generated using pymatgen
data_Tb9Y(SiB4)4
_symmetry_space_group_name_H-M   'P 1'
_cell_length_a   7.25409900
_cell_length_b   7.25409900
_cell_length_c   8.14145100
_cell_angle_alpha   90.00000000
_cell_angle_beta   90.00000000
_cell_angle_gamma   90.00000000
_symmetry_Int_Tables_number   1
_chemical_formula_structural   Tb9Y(SiB4)4
_chemical_formula_sum   'Tb9 Y1 Si4 B16'
_cell_volume   428.41904619
_cell_formula_units_Z   1
loop_
 _symmetry_equiv_pos_site_id
 _symmetry_equiv_pos_as_xyz
  1  'x, y, z'
loop_
 _atom_site_type_symbol
 _atom_site_label
 _atom_site_symmetry_multiplicity
 _atom_site_fract_x
 _atom_site_fract_y
 _atom_site_fract_z
 _atom_site_occupancy
  Tb  Tb0  1  0.680309  0.180297  0.224375  1
  Tb  Tb1  1  0.319691  0.819703  0.775625  1
  Tb  Tb2  1  0.319691  0.819703  0.224375  1
  Tb  Tb3  1  0.819703  0.680309  0.224375  1
  Tb  Tb4  1  0.819703  0.680309  0.775625  1
  Tb  Tb5  1  0.680309  0.180297  0.775625  1
  Tb  Tb6  1  0.180297  0.319691  0.775625  1
  Tb  Tb7  1  0.180297  0.319691  0.224375  1
  Tb  Tb8  1  0.500000  0.500000  0.500000  1
  Y  Y9  1  0.000000  0.000000  0.500000  1
  Si  Si10  1  0.114295  0.614831  0.500000  1
  Si  Si11  1  0.885705  0.385169  0.500000  1
  Si  Si12  1  0.385169  0.114295  0.500000  1
  Si  Si13  1  0.614831  0.885705  0.500000  1
  B  B14  1  0.172315  0.039024  0.000000  1
  B  B15  1  0.827685  0.960976  0.000000  1
  B  B16  1  0.960976  0.172315  0.000000  1
  B  B17  1  0.327714  0.539120  0.000000  1
  B  B18  1  0.039024  0.827685  0.000000  1
  B  B19  1  0.672286  0.460880  0.000000  1
  B  B20  1  0.539120  0.672286  0.000000  1
  B  B21  1  0.460880  0.327714  0.000000  1
  B  B22  1  0.090119  0.590071  0.000000  1
  B  B23  1  0.909881  0.409929  0.000000  1
  B  B24  1  0.409929  0.090119  0.000000  1
  B  B25  1  0.590071  0.909881  0.000000  1
  B  B26  1  0.000000  0.000000  0.161086  1
  B  B27  1  0.000000  0.000000  0.838914  1
  B  B28  1  0.500000  0.500000  0.839009  1
  B  B29  1  0.500000  0.500000  0.160991  1
