# generated using pymatgen
data_Lu4Co3Si4Ir
_symmetry_space_group_name_H-M   'P 1'
_cell_length_a   4.13852100
_cell_length_b   6.68656960
_cell_length_c   7.09069099
_cell_angle_alpha   90.30444724
_cell_angle_beta   90.00000000
_cell_angle_gamma   90.00000000
_symmetry_Int_Tables_number   1
_chemical_formula_structural   Lu4Co3Si4Ir
_chemical_formula_sum   'Lu4 Co3 Si4 Ir1'
_cell_volume   196.21443800
_cell_formula_units_Z   1
loop_
 _symmetry_equiv_pos_site_id
 _symmetry_equiv_pos_as_xyz
  1  'x, y, z'
loop_
 _atom_site_type_symbol
 _atom_site_label
 _atom_site_symmetry_multiplicity
 _atom_site_fract_x
 _atom_site_fract_y
 _atom_site_fract_z
 _atom_site_occupancy
  Lu  Lu0  1  0.750000  0.514579  0.811135  1
  Lu  Lu1  1  0.750000  0.005568  0.697069  1
  Lu  Lu2  1  0.250000  0.494300  0.185795  1
  Lu  Lu3  1  0.250000  0.995532  0.306303  1
  Co  Co4  1  0.750000  0.845202  0.061055  1
  Co  Co5  1  0.250000  0.649443  0.563015  1
  Co  Co6  1  0.250000  0.149384  0.934171  1
  Si  Si7  1  0.750000  0.197560  0.097883  1
  Si  Si8  1  0.750000  0.707115  0.394361  1
  Si  Si9  1  0.250000  0.801121  0.894259  1
  Si  Si10  1  0.250000  0.299379  0.619502  1
  Ir  Ir11  1  0.750000  0.340818  0.435452  1
