# generated using pymatgen
data_AcBeCo4P3
_symmetry_space_group_name_H-M   'P 1'
_cell_length_a   6.05113814
_cell_length_b   6.05113912
_cell_length_c   11.42318700
_cell_angle_alpha   90.00000000
_cell_angle_beta   90.00000000
_cell_angle_gamma   144.89704008
_symmetry_Int_Tables_number   1
_chemical_formula_structural   AcBeCo4P3
_chemical_formula_sum   'Ac2 Be2 Co8 P6'
_cell_volume   240.52776970
_cell_formula_units_Z   2
loop_
 _symmetry_equiv_pos_site_id
 _symmetry_equiv_pos_as_xyz
  1  'x, y, z'
loop_
 _atom_site_type_symbol
 _atom_site_label
 _atom_site_symmetry_multiplicity
 _atom_site_fract_x
 _atom_site_fract_y
 _atom_site_fract_z
 _atom_site_occupancy
  Ac  Ac0  1  0.329127  0.670873  0.250000  1
  Ac  Ac1  1  0.670873  0.329127  0.750000  1
  Be  Be2  1  0.500000  0.500000  0.500000  1
  Be  Be3  1  0.500000  0.500000  0.000000  1
  Co  Co4  1  0.046630  0.953370  0.138943  1
  Co  Co5  1  0.046630  0.953370  0.361057  1
  Co  Co6  1  0.687329  0.312671  0.440375  1
  Co  Co7  1  0.312671  0.687329  0.559625  1
  Co  Co8  1  0.312671  0.687329  0.940375  1
  Co  Co9  1  0.687329  0.312671  0.059625  1
  Co  Co10  1  0.953370  0.046630  0.638943  1
  Co  Co11  1  0.953370  0.046630  0.861057  1
  P  P12  1  0.603382  0.396618  0.250000  1
  P  P13  1  0.396618  0.603382  0.750000  1
  P  P14  1  0.122317  0.877683  0.536983  1
  P  P15  1  0.877683  0.122317  0.463017  1
  P  P16  1  0.877683  0.122317  0.036983  1
  P  P17  1  0.122317  0.877683  0.963017  1
