# generated using pymatgen
data_Er6Ti4Al3Pt16
_symmetry_space_group_name_H-M   'P 1'
_cell_length_a   9.08166646
_cell_length_b   8.97526931
_cell_length_c   9.08166600
_cell_angle_alpha   59.60707773
_cell_angle_beta   60.00000169
_cell_angle_gamma   59.60707930
_symmetry_Int_Tables_number   1
_chemical_formula_structural   Er6Ti4Al3Pt16
_chemical_formula_sum   'Er6 Ti4 Al3 Pt16'
_cell_volume   520.30571772
_cell_formula_units_Z   1
loop_
 _symmetry_equiv_pos_site_id
 _symmetry_equiv_pos_as_xyz
  1  'x, y, z'
loop_
 _atom_site_type_symbol
 _atom_site_label
 _atom_site_symmetry_multiplicity
 _atom_site_fract_x
 _atom_site_fract_y
 _atom_site_fract_z
 _atom_site_occupancy
  Er  Er0  1  0.706940  0.720865  0.286097  1
  Er  Er1  1  0.286097  0.720865  0.286097  1
  Er  Er2  1  0.713903  0.279135  0.293060  1
  Er  Er3  1  0.293060  0.279135  0.713903  1
  Er  Er4  1  0.713903  0.279135  0.713903  1
  Er  Er5  1  0.286097  0.720865  0.706940  1
  Ti  Ti6  1  0.000000  0.000000  0.000000  1
  Ti  Ti7  1  0.000000  0.500000  0.500000  1
  Ti  Ti8  1  0.500000  0.500000  0.000000  1
  Ti  Ti9  1  0.000000  0.500000  0.000000  1
  Al  Al10  1  0.000000  0.000000  0.500000  1
  Al  Al11  1  0.500000  0.000000  0.500000  1
  Al  Al12  1  0.500000  0.000000  0.000000  1
  Pt  Pt13  1  0.885667  0.873072  0.355593  1
  Pt  Pt14  1  0.878471  0.364587  0.878471  1
  Pt  Pt15  1  0.355593  0.873072  0.885667  1
  Pt  Pt16  1  0.885667  0.873072  0.885667  1
  Pt  Pt17  1  0.114333  0.126928  0.644407  1
  Pt  Pt18  1  0.121529  0.635413  0.121529  1
  Pt  Pt19  1  0.644407  0.126928  0.114333  1
  Pt  Pt20  1  0.114333  0.126928  0.114333  1
  Pt  Pt21  1  0.659079  0.661388  0.020454  1
  Pt  Pt22  1  0.665545  0.003365  0.665545  1
  Pt  Pt23  1  0.020454  0.661388  0.659079  1
  Pt  Pt24  1  0.659079  0.661388  0.659079  1
  Pt  Pt25  1  0.340921  0.338612  0.979546  1
  Pt  Pt26  1  0.334455  0.996635  0.334455  1
  Pt  Pt27  1  0.979546  0.338612  0.340921  1
  Pt  Pt28  1  0.340921  0.338612  0.340921  1
