# generated using pymatgen
data_Y3CrFeCo7P6
_symmetry_space_group_name_H-M   'P 1'
_cell_length_a   3.69557400
_cell_length_b   10.59355400
_cell_length_c   12.17352700
_cell_angle_alpha   90.00000000
_cell_angle_beta   90.00000000
_cell_angle_gamma   90.00000000
_symmetry_Int_Tables_number   1
_chemical_formula_structural   Y3CrFeCo7P6
_chemical_formula_sum   'Y6 Cr2 Fe2 Co14 P12'
_cell_volume   476.58460687
_cell_formula_units_Z   2
loop_
 _symmetry_equiv_pos_site_id
 _symmetry_equiv_pos_as_xyz
  1  'x, y, z'
loop_
 _atom_site_type_symbol
 _atom_site_label
 _atom_site_symmetry_multiplicity
 _atom_site_fract_x
 _atom_site_fract_y
 _atom_site_fract_z
 _atom_site_occupancy
  Y  Y0  1  0.000000  0.500000  0.523502  1
  Y  Y1  1  0.500000  0.000000  0.476498  1
  Y  Y2  1  0.500000  0.818624  0.203298  1
  Y  Y3  1  0.500000  0.181376  0.203298  1
  Y  Y4  1  0.000000  0.681376  0.796702  1
  Y  Y5  1  0.000000  0.318624  0.796702  1
  Cr  Cr6  1  0.500000  0.500000  0.153879  1
  Cr  Cr7  1  0.000000  0.000000  0.846121  1
  Fe  Fe8  1  0.000000  0.500000  0.988112  1
  Fe  Fe9  1  0.500000  0.000000  0.011888  1
  Co  Co10  1  0.500000  0.500000  0.700766  1
  Co  Co11  1  0.000000  0.000000  0.299234  1
  Co  Co12  1  0.500000  0.331789  0.993670  1
  Co  Co13  1  0.500000  0.668211  0.993670  1
  Co  Co14  1  0.000000  0.168211  0.006330  1
  Co  Co15  1  0.000000  0.831789  0.006330  1
  Co  Co16  1  0.500000  0.296087  0.430553  1
  Co  Co17  1  0.500000  0.703913  0.430553  1
  Co  Co18  1  0.000000  0.203913  0.569447  1
  Co  Co19  1  0.000000  0.796087  0.569447  1
  Co  Co20  1  0.500000  0.879562  0.708669  1
  Co  Co21  1  0.500000  0.120438  0.708669  1
  Co  Co22  1  0.000000  0.620438  0.291331  1
  Co  Co23  1  0.000000  0.379562  0.291331  1
  P  P24  1  0.500000  0.500000  0.883660  1
  P  P25  1  0.000000  0.000000  0.116340  1
  P  P26  1  0.500000  0.500000  0.345349  1
  P  P27  1  0.000000  0.000000  0.654651  1
  P  P28  1  0.500000  0.310745  0.616458  1
  P  P29  1  0.500000  0.689255  0.616458  1
  P  P30  1  0.000000  0.189255  0.383542  1
  P  P31  1  0.000000  0.810745  0.383542  1
  P  P32  1  0.500000  0.847577  0.894052  1
  P  P33  1  0.500000  0.152423  0.894052  1
  P  P34  1  0.000000  0.652423  0.105948  1
  P  P35  1  0.000000  0.347577  0.105948  1
