# generated using pymatgen
data_TcMo(PRu)2
_symmetry_space_group_name_H-M   'P 1'
_cell_length_a   3.91960400
_cell_length_b   6.03360000
_cell_length_c   6.88870600
_cell_angle_alpha   90.00000000
_cell_angle_beta   90.00000000
_cell_angle_gamma   90.00000000
_symmetry_Int_Tables_number   1
_chemical_formula_structural   TcMo(PRu)2
_chemical_formula_sum   'Tc2 Mo2 P4 Ru4'
_cell_volume   162.91323114
_cell_formula_units_Z   2
loop_
 _symmetry_equiv_pos_site_id
 _symmetry_equiv_pos_as_xyz
  1  'x, y, z'
loop_
 _atom_site_type_symbol
 _atom_site_label
 _atom_site_symmetry_multiplicity
 _atom_site_fract_x
 _atom_site_fract_y
 _atom_site_fract_z
 _atom_site_occupancy
  Tc  Tc0  1  0.250000  0.028066  0.162552  1
  Tc  Tc1  1  0.250000  0.528066  0.337448  1
  Mo  Mo2  1  0.750000  0.973946  0.835562  1
  Mo  Mo3  1  0.750000  0.473946  0.664438  1
  P  P4  1  0.250000  0.755438  0.613560  1
  P  P5  1  0.250000  0.255438  0.886440  1
  P  P6  1  0.750000  0.243866  0.386617  1
  P  P7  1  0.750000  0.743866  0.113383  1
  Ru  Ru8  1  0.250000  0.139910  0.569120  1
  Ru  Ru9  1  0.250000  0.639910  0.930880  1
  Ru  Ru10  1  0.750000  0.858774  0.426683  1
  Ru  Ru11  1  0.750000  0.358774  0.073317  1
