# generated using pymatgen
data_Rb8Ac3UI20
_symmetry_space_group_name_H-M   'P 1'
_cell_length_a   9.65133605
_cell_length_b   10.28493400
_cell_length_c   15.30590988
_cell_angle_alpha   90.00000000
_cell_angle_beta   89.73717676
_cell_angle_gamma   90.00000000
_symmetry_Int_Tables_number   1
_chemical_formula_structural   Rb8Ac3UI20
_chemical_formula_sum   'Rb8 Ac3 U1 I20'
_cell_volume   1519.29997077
_cell_formula_units_Z   1
loop_
 _symmetry_equiv_pos_site_id
 _symmetry_equiv_pos_as_xyz
  1  'x, y, z'
loop_
 _atom_site_type_symbol
 _atom_site_label
 _atom_site_symmetry_multiplicity
 _atom_site_fract_x
 _atom_site_fract_y
 _atom_site_fract_z
 _atom_site_occupancy
  Rb  Rb0  1  0.942939  0.002147  0.827511  1
  Rb  Rb1  1  0.056101  0.996347  0.172590  1
  Rb  Rb2  1  0.444067  0.996664  0.674241  1
  Rb  Rb3  1  0.056101  0.503653  0.172590  1
  Rb  Rb4  1  0.556154  0.002439  0.325739  1
  Rb  Rb5  1  0.942939  0.497853  0.827511  1
  Rb  Rb6  1  0.556154  0.497561  0.325739  1
  Rb  Rb7  1  0.444067  0.503336  0.674241  1
  Ac  Ac8  1  0.922711  0.750000  0.505273  1
  Ac  Ac9  1  0.077439  0.250000  0.494475  1
  Ac  Ac10  1  0.424213  0.250000  0.994742  1
  U  U11  1  0.574572  0.750000  0.003941  1
  I  I12  1  0.126317  0.750000  0.680556  1
  I  I13  1  0.873361  0.250000  0.319389  1
  I  I14  1  0.627180  0.250000  0.819009  1
  I  I15  1  0.380757  0.750000  0.174083  1
  I  I16  1  0.831360  0.046671  0.577187  1
  I  I17  1  0.168903  0.953169  0.422679  1
  I  I18  1  0.337459  0.948747  0.926049  1
  I  I19  1  0.168903  0.546831  0.422679  1
  I  I20  1  0.665400  0.038814  0.074472  1
  I  I21  1  0.831360  0.453329  0.577187  1
  I  I22  1  0.665400  0.461186  0.074472  1
  I  I23  1  0.337459  0.551253  0.926049  1
  I  I24  1  0.574065  0.750000  0.509804  1
  I  I25  1  0.425870  0.250000  0.490793  1
  I  I26  1  0.075721  0.250000  0.990271  1
  I  I27  1  0.915278  0.750000  0.009640  1
  I  I28  1  0.658287  0.750000  0.801072  1
  I  I29  1  0.339100  0.250000  0.205490  1
  I  I30  1  0.161075  0.250000  0.705542  1
  I  I31  1  0.839287  0.750000  0.294984  1
