# generated using pymatgen
data_KTm(SbAu)2
_symmetry_space_group_name_H-M   'P 1'
_cell_length_a   4.59828900
_cell_length_b   4.59828967
_cell_length_c   18.90988100
_cell_angle_alpha   90.00000000
_cell_angle_beta   90.00000000
_cell_angle_gamma   120.00001673
_symmetry_Int_Tables_number   1
_chemical_formula_structural   KTm(SbAu)2
_chemical_formula_sum   'K2 Tm2 Sb4 Au4'
_cell_volume   346.26766939
_cell_formula_units_Z   2
loop_
 _symmetry_equiv_pos_site_id
 _symmetry_equiv_pos_as_xyz
  1  'x, y, z'
loop_
 _atom_site_type_symbol
 _atom_site_label
 _atom_site_symmetry_multiplicity
 _atom_site_fract_x
 _atom_site_fract_y
 _atom_site_fract_z
 _atom_site_occupancy
  K  K0  1  0.000000  0.000000  0.500000  1
  K  K1  1  0.000000  0.000000  0.000000  1
  Tm  Tm2  1  0.000000  0.000000  0.250000  1
  Tm  Tm3  1  0.000000  0.000000  0.750000  1
  Sb  Sb4  1  0.333333  0.666667  0.366955  1
  Sb  Sb5  1  0.666667  0.333333  0.633045  1
  Sb  Sb6  1  0.666667  0.333333  0.866955  1
  Sb  Sb7  1  0.333333  0.666667  0.133045  1
  Au  Au8  1  0.666667  0.333333  0.332686  1
  Au  Au9  1  0.333333  0.666667  0.667314  1
  Au  Au10  1  0.333333  0.666667  0.832686  1
  Au  Au11  1  0.666667  0.333333  0.167314  1
