# generated using pymatgen
data_Tm6Ta(Ga3Co8)2
_symmetry_space_group_name_H-M   'P 1'
_cell_length_a   8.43853999
_cell_length_b   8.43854086
_cell_length_c   8.43854100
_cell_angle_alpha   60.00000339
_cell_angle_beta   59.99999996
_cell_angle_gamma   60.00000114
_symmetry_Int_Tables_number   1
_chemical_formula_structural   Tm6Ta(Ga3Co8)2
_chemical_formula_sum   'Tm6 Ta1 Ga6 Co16'
_cell_volume   424.90031439
_cell_formula_units_Z   1
loop_
 _symmetry_equiv_pos_site_id
 _symmetry_equiv_pos_as_xyz
  1  'x, y, z'
loop_
 _atom_site_type_symbol
 _atom_site_label
 _atom_site_symmetry_multiplicity
 _atom_site_fract_x
 _atom_site_fract_y
 _atom_site_fract_z
 _atom_site_occupancy
  Tm  Tm0  1  0.716843  0.283157  0.283157  1
  Tm  Tm1  1  0.283157  0.716843  0.716843  1
  Tm  Tm2  1  0.283157  0.716843  0.283157  1
  Tm  Tm3  1  0.283157  0.283157  0.716843  1
  Tm  Tm4  1  0.716843  0.283157  0.716843  1
  Tm  Tm5  1  0.716843  0.716843  0.283157  1
  Ta  Ta6  1  0.000000  0.000000  0.000000  1
  Ga  Ga7  1  0.500000  0.000000  0.000000  1
  Ga  Ga8  1  0.000000  0.500000  0.500000  1
  Ga  Ga9  1  0.000000  0.500000  0.000000  1
  Ga  Ga10  1  0.000000  0.000000  0.500000  1
  Ga  Ga11  1  0.500000  0.000000  0.500000  1
  Ga  Ga12  1  0.500000  0.500000  0.000000  1
  Co  Co13  1  0.321857  0.321857  0.321857  1
  Co  Co14  1  0.321857  0.321857  0.034430  1
  Co  Co15  1  0.034430  0.321857  0.321857  1
  Co  Co16  1  0.321857  0.034430  0.321857  1
  Co  Co17  1  0.678143  0.678143  0.678143  1
  Co  Co18  1  0.678143  0.678143  0.965570  1
  Co  Co19  1  0.678143  0.965570  0.678143  1
  Co  Co20  1  0.965570  0.678143  0.678143  1
  Co  Co21  1  0.124452  0.124452  0.124452  1
  Co  Co22  1  0.124452  0.124452  0.626644  1
  Co  Co23  1  0.626644  0.124452  0.124452  1
  Co  Co24  1  0.124452  0.626644  0.124452  1
  Co  Co25  1  0.875548  0.875548  0.875548  1
  Co  Co26  1  0.875548  0.875548  0.373356  1
  Co  Co27  1  0.875548  0.373356  0.875548  1
  Co  Co28  1  0.373356  0.875548  0.875548  1
