# generated using pymatgen
data_Zr3Cd3Ir2
_symmetry_space_group_name_H-M   'P 1'
_cell_length_a   7.57896700
_cell_length_b   7.57896679
_cell_length_c   3.26427000
_cell_angle_alpha   90.00000000
_cell_angle_beta   90.00000000
_cell_angle_gamma   119.99999656
_symmetry_Int_Tables_number   1
_chemical_formula_structural   Zr3Cd3Ir2
_chemical_formula_sum   'Zr3 Cd3 Ir2'
_cell_volume   162.38157162
_cell_formula_units_Z   1
loop_
 _symmetry_equiv_pos_site_id
 _symmetry_equiv_pos_as_xyz
  1  'x, y, z'
loop_
 _atom_site_type_symbol
 _atom_site_label
 _atom_site_symmetry_multiplicity
 _atom_site_fract_x
 _atom_site_fract_y
 _atom_site_fract_z
 _atom_site_occupancy
  Zr  Zr0  1  0.573493  0.000000  0.499999  1
  Zr  Zr1  1  0.426507  0.426506  0.499999  1
  Zr  Zr2  1  0.000000  0.573494  0.499999  1
  Cd  Cd3  1  0.224137  0.000000  0.000000  1
  Cd  Cd4  1  0.000000  0.224138  0.000000  1
  Cd  Cd5  1  0.775863  0.775863  0.000000  1
  Ir  Ir6  1  0.666666  0.333333  0.000000  1
  Ir  Ir7  1  0.333333  0.666667  0.000000  1
