# generated using pymatgen
data_DyEr3(CO5)2
_symmetry_space_group_name_H-M   'P 1'
_cell_length_a   3.90117492
_cell_length_b   3.90117540
_cell_length_c   15.07293340
_cell_angle_alpha   90.02328206
_cell_angle_beta   89.97671727
_cell_angle_gamma   122.13888556
_symmetry_Int_Tables_number   1
_chemical_formula_structural   DyEr3(CO5)2
_chemical_formula_sum   'Dy1 Er3 C2 O10'
_cell_volume   194.24485341
_cell_formula_units_Z   1
loop_
 _symmetry_equiv_pos_site_id
 _symmetry_equiv_pos_as_xyz
  1  'x, y, z'
loop_
 _atom_site_type_symbol
 _atom_site_label
 _atom_site_symmetry_multiplicity
 _atom_site_fract_x
 _atom_site_fract_y
 _atom_site_fract_z
 _atom_site_occupancy
  Dy  Dy0  1  0.335359  0.664641  0.592550  1
  Er  Er1  1  0.335925  0.664075  0.907999  1
  Er  Er2  1  0.664097  0.335903  0.092694  1
  Er  Er3  1  0.664438  0.335562  0.406174  1
  C  C4  1  0.075574  0.924426  0.751349  1
  C  C5  1  0.924656  0.075344  0.249419  1
  O  O6  1  0.986173  0.013827  0.827609  1
  O  O7  1  0.013113  0.986887  0.172969  1
  O  O8  1  0.013211  0.986789  0.325797  1
  O  O9  1  0.987769  0.012231  0.674605  1
  O  O10  1  0.335372  0.664628  0.441039  1
  O  O11  1  0.664394  0.335606  0.555989  1
  O  O12  1  0.664581  0.335419  0.943137  1
  O  O13  1  0.335301  0.664699  0.057621  1
  O  O14  1  0.262846  0.737154  0.751625  1
  O  O15  1  0.737192  0.262808  0.249427  1
