# generated using pymatgen
data_Pa6Co2Ni18P13
_symmetry_space_group_name_H-M   'P 1'
_cell_length_a   12.65823100
_cell_length_b   12.65823109
_cell_length_c   3.78317500
_cell_angle_alpha   90.00000000
_cell_angle_beta   90.00000000
_cell_angle_gamma   119.99999716
_symmetry_Int_Tables_number   1
_chemical_formula_structural   Pa6Co2Ni18P13
_chemical_formula_sum   'Pa6 Co2 Ni18 P13'
_cell_volume   524.96833909
_cell_formula_units_Z   1
loop_
 _symmetry_equiv_pos_site_id
 _symmetry_equiv_pos_as_xyz
  1  'x, y, z'
loop_
 _atom_site_type_symbol
 _atom_site_label
 _atom_site_symmetry_multiplicity
 _atom_site_fract_x
 _atom_site_fract_y
 _atom_site_fract_z
 _atom_site_occupancy
  Pa  Pa0  1  0.472783  0.189359  0.000000  1
  Pa  Pa1  1  0.716576  0.527217  0.000000  1
  Pa  Pa2  1  0.810641  0.283424  0.000000  1
  Pa  Pa3  1  0.529737  0.810532  0.500000  1
  Pa  Pa4  1  0.280797  0.470263  0.500000  1
  Pa  Pa5  1  0.189468  0.719203  0.500000  1
  Co  Co6  1  0.333333  0.666667  0.000000  1
  Co  Co7  1  0.666667  0.333333  0.500000  1
  Ni  Ni8  1  0.196122  0.087335  0.000000  1
  Ni  Ni9  1  0.891213  0.803878  0.000000  1
  Ni  Ni10  1  0.912665  0.108787  0.000000  1
  Ni  Ni11  1  0.848540  0.930349  0.500000  1
  Ni  Ni12  1  0.081809  0.151460  0.500000  1
  Ni  Ni13  1  0.069651  0.918191  0.500000  1
  Ni  Ni14  1  0.436535  0.414117  0.000000  1
  Ni  Ni15  1  0.977582  0.563465  0.000000  1
  Ni  Ni16  1  0.585883  0.022418  0.000000  1
  Ni  Ni17  1  0.564698  0.587364  0.500000  1
  Ni  Ni18  1  0.022666  0.435302  0.500000  1
  Ni  Ni19  1  0.412636  0.977334  0.500000  1
  Ni  Ni20  1  0.080130  0.323471  0.000000  1
  Ni  Ni21  1  0.243340  0.919870  0.000000  1
  Ni  Ni22  1  0.676529  0.756660  0.000000  1
  Ni  Ni23  1  0.928303  0.681343  0.500000  1
  Ni  Ni24  1  0.753040  0.071697  0.500000  1
  Ni  Ni25  1  0.318657  0.246960  0.500000  1
  P  P26  1  0.231646  0.276962  0.000000  1
  P  P27  1  0.045317  0.768354  0.000000  1
  P  P28  1  0.723038  0.954683  0.000000  1
  P  P29  1  0.769000  0.725245  0.500000  1
  P  P30  1  0.956244  0.231000  0.500000  1
  P  P31  1  0.274755  0.043756  0.500000  1
  P  P32  1  0.476616  0.611815  0.000000  1
  P  P33  1  0.135199  0.523384  0.000000  1
  P  P34  1  0.388185  0.864801  0.000000  1
  P  P35  1  0.521452  0.386099  0.500000  1
  P  P36  1  0.864648  0.478548  0.500000  1
  P  P37  1  0.613901  0.135352  0.500000  1
  P  P38  1  0.000000  0.000000  0.000000  1
