# generated using pymatgen
data_Ce2GeP3Ir3Rh
_symmetry_space_group_name_H-M   'P 1'
_cell_length_a   4.21993500
_cell_length_b   4.21036800
_cell_length_c   9.64163800
_cell_angle_alpha   90.00000000
_cell_angle_beta   90.00000000
_cell_angle_gamma   90.00000000
_symmetry_Int_Tables_number   1
_chemical_formula_structural   Ce2GeP3Ir3Rh
_chemical_formula_sum   'Ce2 Ge1 P3 Ir3 Rh1'
_cell_volume   171.30760345
_cell_formula_units_Z   1
loop_
 _symmetry_equiv_pos_site_id
 _symmetry_equiv_pos_as_xyz
  1  'x, y, z'
loop_
 _atom_site_type_symbol
 _atom_site_label
 _atom_site_symmetry_multiplicity
 _atom_site_fract_x
 _atom_site_fract_y
 _atom_site_fract_z
 _atom_site_occupancy
  Ce  Ce0  1  0.000000  0.500000  0.241041  1
  Ce  Ce1  1  0.500000  0.000000  0.762891  1
  Ge  Ge2  1  0.000000  0.500000  0.638896  1
  P  P3  1  0.000000  0.000000  0.003743  1
  P  P4  1  0.500000  0.500000  0.003491  1
  P  P5  1  0.500000  0.000000  0.360823  1
  Ir  Ir6  1  0.500000  0.500000  0.488907  1
  Ir  Ir7  1  0.000000  0.500000  0.896795  1
  Ir  Ir8  1  0.500000  0.000000  0.113705  1
  Rh  Rh9  1  0.000000  0.000000  0.489709  1
