# generated using pymatgen
data_NdPd2Pt2Au
_symmetry_space_group_name_H-M   'P 1'
_cell_length_a   5.38332634
_cell_length_b   5.39860448
_cell_length_c   5.39860373
_cell_angle_alpha   60.08857253
_cell_angle_beta   60.09354532
_cell_angle_gamma   60.09355972
_symmetry_Int_Tables_number   1
_chemical_formula_structural   NdPd2Pt2Au
_chemical_formula_sum   'Nd1 Pd2 Pt2 Au1'
_cell_volume   111.17369157
_cell_formula_units_Z   1
loop_
 _symmetry_equiv_pos_site_id
 _symmetry_equiv_pos_as_xyz
  1  'x, y, z'
loop_
 _atom_site_type_symbol
 _atom_site_label
 _atom_site_symmetry_multiplicity
 _atom_site_fract_x
 _atom_site_fract_y
 _atom_site_fract_z
 _atom_site_occupancy
  Nd  Nd0  1  0.000441  0.999559  0.999559  1
  Pd  Pd1  1  0.625248  0.623438  0.126066  1
  Pd  Pd2  1  0.625248  0.126066  0.623438  1
  Pt  Pt3  1  0.126403  0.624694  0.624694  1
  Pt  Pt4  1  0.624209  0.624694  0.624694  1
  Au  Au5  1  0.248452  0.251548  0.251548  1
