# generated using pymatgen
data_Mg4MnSn(B2Rh5)2
_symmetry_space_group_name_H-M   'P 1'
_cell_length_a   9.53651600
_cell_length_b   9.53651600
_cell_length_c   2.97573100
_cell_angle_alpha   90.00000000
_cell_angle_beta   90.00000000
_cell_angle_gamma   90.00000000
_symmetry_Int_Tables_number   1
_chemical_formula_structural   Mg4MnSn(B2Rh5)2
_chemical_formula_sum   'Mg4 Mn1 Sn1 B4 Rh10'
_cell_volume   270.62826471
_cell_formula_units_Z   1
loop_
 _symmetry_equiv_pos_site_id
 _symmetry_equiv_pos_as_xyz
  1  'x, y, z'
loop_
 _atom_site_type_symbol
 _atom_site_label
 _atom_site_symmetry_multiplicity
 _atom_site_fract_x
 _atom_site_fract_y
 _atom_site_fract_z
 _atom_site_occupancy
  Mg  Mg0  1  0.672149  0.181007  0.000000  1
  Mg  Mg1  1  0.181007  0.327852  0.000000  1
  Mg  Mg2  1  0.818993  0.672149  0.000000  1
  Mg  Mg3  1  0.327852  0.818993  0.000000  1
  Mn  Mn4  1  0.500000  0.500000  0.000000  1
  Sn  Sn5  1  0.000000  0.000000  0.000000  1
  B  B6  1  0.381738  0.129234  0.000000  1
  B  B7  1  0.870767  0.381738  0.000000  1
  B  B8  1  0.129234  0.618263  0.000000  1
  B  B9  1  0.618263  0.870767  0.000000  1
  Rh  Rh10  1  0.500000  0.000000  0.500001  1
  Rh  Rh11  1  0.223141  0.074444  0.500001  1
  Rh  Rh12  1  0.925556  0.223141  0.500001  1
  Rh  Rh13  1  0.431037  0.282774  0.500001  1
  Rh  Rh14  1  0.717227  0.431037  0.500001  1
  Rh  Rh15  1  0.000000  0.500000  0.500001  1
  Rh  Rh16  1  0.282774  0.568964  0.500001  1
  Rh  Rh17  1  0.568964  0.717227  0.500001  1
  Rh  Rh18  1  0.074444  0.776860  0.500001  1
  Rh  Rh19  1  0.776860  0.925556  0.500001  1
