# generated using pymatgen
data_PrBeRu2C
_symmetry_space_group_name_H-M   'P 1'
_cell_length_a   5.67075683
_cell_length_b   5.67075616
_cell_length_c   7.16510500
_cell_angle_alpha   90.00000000
_cell_angle_beta   90.00000000
_cell_angle_gamma   139.22105110
_symmetry_Int_Tables_number   1
_chemical_formula_structural   PrBeRu2C
_chemical_formula_sum   'Pr2 Be2 Ru4 C2'
_cell_volume   150.49166810
_cell_formula_units_Z   2
loop_
 _symmetry_equiv_pos_site_id
 _symmetry_equiv_pos_as_xyz
  1  'x, y, z'
loop_
 _atom_site_type_symbol
 _atom_site_label
 _atom_site_symmetry_multiplicity
 _atom_site_fract_x
 _atom_site_fract_y
 _atom_site_fract_z
 _atom_site_occupancy
  Pr  Pr0  1  0.545581  0.454419  0.250000  1
  Pr  Pr1  1  0.454419  0.545581  0.750000  1
  Be  Be2  1  0.271372  0.728628  0.250000  1
  Be  Be3  1  0.728628  0.271372  0.750000  1
  Ru  Ru4  1  0.824977  0.175023  0.057476  1
  Ru  Ru5  1  0.175023  0.824977  0.942524  1
  Ru  Ru6  1  0.175023  0.824977  0.557476  1
  Ru  Ru7  1  0.824977  0.175023  0.442524  1
  C  C8  1  0.000000  0.000000  0.000000  1
  C  C9  1  0.000000  0.000000  0.500000  1
