# generated using pymatgen
data_HfZr9AlSb5
_symmetry_space_group_name_H-M   'P 1'
_cell_length_a   5.57525186
_cell_length_b   8.41616368
_cell_length_c   8.41612855
_cell_angle_alpha   96.30421859
_cell_angle_beta   109.34271286
_cell_angle_gamma   70.65662131
_symmetry_Int_Tables_number   1
_chemical_formula_structural   HfZr9AlSb5
_chemical_formula_sum   'Hf1 Zr9 Al1 Sb5'
_cell_volume   351.57909557
_cell_formula_units_Z   1
loop_
 _symmetry_equiv_pos_site_id
 _symmetry_equiv_pos_as_xyz
  1  'x, y, z'
loop_
 _atom_site_type_symbol
 _atom_site_label
 _atom_site_symmetry_multiplicity
 _atom_site_fract_x
 _atom_site_fract_y
 _atom_site_fract_z
 _atom_site_occupancy
  Hf  Hf0  1  0.750004  0.499996  0.500004  1
  Zr  Zr1  1  0.930037  0.858559  0.705723  1
  Zr  Zr2  1  0.082871  0.141442  0.294278  1
  Zr  Zr3  1  0.417128  0.294277  0.141441  1
  Zr  Zr4  1  0.569964  0.705722  0.858558  1
  Zr  Zr5  1  0.224471  0.705860  0.141520  1
  Zr  Zr6  1  0.788810  0.294135  0.858478  1
  Zr  Zr7  1  0.275531  0.141522  0.705865  1
  Zr  Zr8  1  0.711191  0.858480  0.294140  1
  Zr  Zr9  1  0.250000  0.500000  0.500000  1
  Al  Al10  1  0.249993  0.000007  0.999993  1
  Sb  Sb11  1  0.337791  0.826485  0.500066  1
  Sb  Sb12  1  0.664211  0.173518  0.499941  1
  Sb  Sb13  1  0.835790  0.499934  0.173515  1
  Sb  Sb14  1  0.162210  0.500059  0.826482  1
  Sb  Sb15  1  0.749996  0.000004  0.999996  1
