# generated using pymatgen
data_YbCeTm2(Co3Si5)2
_symmetry_space_group_name_H-M   'P 1'
_cell_length_a   7.89125797
_cell_length_b   7.90637425
_cell_length_c   7.90637562
_cell_angle_alpha   139.41086630
_cell_angle_beta   105.40474352
_cell_angle_gamma   88.59211613
_symmetry_Int_Tables_number   1
_chemical_formula_structural   YbCeTm2(Co3Si5)2
_chemical_formula_sum   'Yb1 Ce1 Tm2 Co6 Si10'
_cell_volume   296.82124014
_cell_formula_units_Z   1
loop_
 _symmetry_equiv_pos_site_id
 _symmetry_equiv_pos_as_xyz
  1  'x, y, z'
loop_
 _atom_site_type_symbol
 _atom_site_label
 _atom_site_symmetry_multiplicity
 _atom_site_fract_x
 _atom_site_fract_y
 _atom_site_fract_z
 _atom_site_occupancy
  Yb  Yb0  1  0.903027  0.134619  0.768408  1
  Ce  Ce1  1  0.366888  0.635232  0.731656  1
  Tm  Tm2  1  0.096357  0.864803  0.231555  1
  Tm  Tm3  1  0.633759  0.366775  0.266984  1
  Co  Co4  1  0.032107  0.636362  0.395744  1
  Co  Co5  1  0.974262  0.361580  0.612682  1
  Co  Co6  1  0.500160  0.748523  0.247219  1
  Co  Co7  1  0.500160  0.252941  0.751638  1
  Co  Co8  1  0.245014  0.138748  0.106266  1
  Co  Co9  1  0.745628  0.859573  0.886052  1
  Si  Si10  1  0.276488  0.529198  0.251366  1
  Si  Si11  1  0.729935  0.979889  0.253205  1
  Si  Si12  1  0.992469  0.745444  0.750461  1
  Si  Si13  1  0.240399  0.398819  0.841579  1
  Si  Si14  1  0.761948  0.601900  0.160049  1
  Si  Si15  1  0.443270  0.100029  0.343240  1
  Si  Si16  1  0.992469  0.242008  0.247024  1
  Si  Si17  1  0.559237  0.901705  0.657534  1
  Si  Si18  1  0.729935  0.476731  0.750046  1
  Si  Si19  1  0.276488  0.025122  0.747290  1
