# generated using pymatgen
data_Dy16Cd3HgIr3Pt
_symmetry_space_group_name_H-M   'P 1'
_cell_length_a   9.62670322
_cell_length_b   9.62670231
_cell_length_c   9.62670302
_cell_angle_alpha   60.19969634
_cell_angle_beta   60.19970111
_cell_angle_gamma   60.19970035
_symmetry_Int_Tables_number   1
_chemical_formula_structural   Dy16Cd3HgIr3Pt
_chemical_formula_sum   'Dy16 Cd3 Hg1 Ir3 Pt1'
_cell_volume   633.69040521
_cell_formula_units_Z   1
loop_
 _symmetry_equiv_pos_site_id
 _symmetry_equiv_pos_as_xyz
  1  'x, y, z'
loop_
 _atom_site_type_symbol
 _atom_site_label
 _atom_site_symmetry_multiplicity
 _atom_site_fract_x
 _atom_site_fract_y
 _atom_site_fract_z
 _atom_site_occupancy
  Dy  Dy0  1  0.597636  0.597636  0.597636  1
  Dy  Dy1  1  0.603160  0.603160  0.197338  1
  Dy  Dy2  1  0.603160  0.197338  0.603160  1
  Dy  Dy3  1  0.197338  0.603160  0.603160  1
  Dy  Dy4  1  0.055992  0.440368  0.440368  1
  Dy  Dy5  1  0.438004  0.059969  0.059969  1
  Dy  Dy6  1  0.440368  0.055992  0.440368  1
  Dy  Dy7  1  0.059969  0.438004  0.059969  1
  Dy  Dy8  1  0.440368  0.440368  0.055992  1
  Dy  Dy9  1  0.059969  0.059969  0.438004  1
  Dy  Dy10  1  0.187617  0.812650  0.812650  1
  Dy  Dy11  1  0.813627  0.187392  0.187392  1
  Dy  Dy12  1  0.812650  0.187617  0.812650  1
  Dy  Dy13  1  0.187392  0.813627  0.187392  1
  Dy  Dy14  1  0.812650  0.812650  0.187617  1
  Dy  Dy15  1  0.187392  0.187392  0.813627  1
  Cd  Cd16  1  0.830672  0.830672  0.506067  1
  Cd  Cd17  1  0.830672  0.506067  0.830672  1
  Cd  Cd18  1  0.506067  0.830672  0.830672  1
  Hg  Hg19  1  0.834286  0.834286  0.834286  1
  Ir  Ir20  1  0.391949  0.391949  0.824139  1
  Ir  Ir21  1  0.391949  0.824139  0.391949  1
  Ir  Ir22  1  0.824139  0.391949  0.391949  1
  Pt  Pt23  1  0.392972  0.392972  0.392972  1
