# generated using pymatgen
data_RbCeF5
_symmetry_space_group_name_H-M   'P 1'
_cell_length_a   8.12470094
_cell_length_b   8.12470812
_cell_length_c   8.61664700
_cell_angle_alpha   90.00000000
_cell_angle_beta   90.00000000
_cell_angle_gamma   116.08361813
_symmetry_Int_Tables_number   1
_chemical_formula_structural   RbCeF5
_chemical_formula_sum   'Rb4 Ce4 F20'
_cell_volume   510.86239591
_cell_formula_units_Z   4
loop_
 _symmetry_equiv_pos_site_id
 _symmetry_equiv_pos_as_xyz
  1  'x, y, z'
loop_
 _atom_site_type_symbol
 _atom_site_label
 _atom_site_symmetry_multiplicity
 _atom_site_fract_x
 _atom_site_fract_y
 _atom_site_fract_z
 _atom_site_occupancy
  Rb  Rb0  1  0.797488  0.202512  0.500000  1
  Rb  Rb1  1  0.702512  0.297488  0.000000  1
  Rb  Rb2  1  0.202512  0.797488  0.500000  1
  Rb  Rb3  1  0.297488  0.702512  0.000000  1
  Ce  Ce4  1  0.662953  0.662953  0.661583  1
  Ce  Ce5  1  0.837047  0.837047  0.161583  1
  Ce  Ce6  1  0.337047  0.337047  0.338417  1
  Ce  Ce7  1  0.162953  0.162953  0.838417  1
  F  F8  1  0.093078  0.906922  0.000000  1
  F  F9  1  0.406922  0.593078  0.500000  1
  F  F10  1  0.906922  0.093078  0.000000  1
  F  F11  1  0.593078  0.406922  0.500000  1
  F  F12  1  0.292501  0.292500  0.064645  1
  F  F13  1  0.207499  0.207500  0.564645  1
  F  F14  1  0.707499  0.707500  0.935355  1
  F  F15  1  0.792501  0.792500  0.435355  1
  F  F16  1  0.562093  0.863076  0.705717  1
  F  F17  1  0.937907  0.636924  0.205717  1
  F  F18  1  0.437907  0.136924  0.294283  1
  F  F19  1  0.062093  0.363076  0.794283  1
  F  F20  1  0.863075  0.562093  0.705716  1
  F  F21  1  0.636925  0.937907  0.205716  1
  F  F22  1  0.136925  0.437907  0.294284  1
  F  F23  1  0.363075  0.062093  0.794284  1
  F  F24  1  0.437191  0.437191  0.792758  1
  F  F25  1  0.062809  0.062809  0.292758  1
  F  F26  1  0.562809  0.562809  0.207242  1
  F  F27  1  0.937191  0.937191  0.707242  1
