# generated using pymatgen
data_Ho4As6Ir5Ru2
_symmetry_space_group_name_H-M   'P 1'
_cell_length_a   7.25771522
_cell_length_b   7.25771477
_cell_length_c   7.25771476
_cell_angle_alpha   109.45047139
_cell_angle_beta   109.51271737
_cell_angle_gamma   109.45047167
_symmetry_Int_Tables_number   1
_chemical_formula_structural   Ho4As6Ir5Ru2
_chemical_formula_sum   'Ho4 As6 Ir5 Ru2'
_cell_volume   294.29149053
_cell_formula_units_Z   1
loop_
 _symmetry_equiv_pos_site_id
 _symmetry_equiv_pos_as_xyz
  1  'x, y, z'
loop_
 _atom_site_type_symbol
 _atom_site_label
 _atom_site_symmetry_multiplicity
 _atom_site_fract_x
 _atom_site_fract_y
 _atom_site_fract_z
 _atom_site_occupancy
  Ho  Ho0  1  0.000156  0.000311  0.500156  1
  Ho  Ho1  1  0.499844  0.999689  0.999844  1
  Ho  Ho2  1  0.000156  0.500000  0.999844  1
  Ho  Ho3  1  0.499844  0.500000  0.500156  1
  As  As4  1  0.679949  0.682872  0.997076  1
  As  As5  1  0.314205  0.317128  0.997076  1
  As  As6  1  0.002924  0.682872  0.685795  1
  As  As7  1  0.002924  0.317128  0.320051  1
  As  As8  1  0.684862  0.000000  0.684862  1
  As  As9  1  0.315138  0.000000  0.315138  1
  Ir  Ir10  1  0.749574  0.249546  0.500027  1
  Ir  Ir11  1  0.499973  0.249546  0.749519  1
  Ir  Ir12  1  0.499973  0.750454  0.250426  1
  Ir  Ir13  1  0.750000  0.500000  0.250000  1
  Ir  Ir14  1  0.250481  0.750454  0.500027  1
  Ru  Ru15  1  0.000000  0.000000  0.000000  1
  Ru  Ru16  1  0.250000  0.500000  0.750000  1
