# generated using pymatgen
data_DyEr3ReOsC4
_symmetry_space_group_name_H-M   'P 1'
_cell_length_a   5.07465400
_cell_length_b   6.51133211
_cell_length_c   9.75927057
_cell_angle_alpha   89.59123549
_cell_angle_beta   90.00000000
_cell_angle_gamma   90.00000000
_symmetry_Int_Tables_number   1
_chemical_formula_structural   DyEr3ReOsC4
_chemical_formula_sum   'Dy2 Er6 Re2 Os2 C8'
_cell_volume   322.46500461
_cell_formula_units_Z   2
loop_
 _symmetry_equiv_pos_site_id
 _symmetry_equiv_pos_as_xyz
  1  'x, y, z'
loop_
 _atom_site_type_symbol
 _atom_site_label
 _atom_site_symmetry_multiplicity
 _atom_site_fract_x
 _atom_site_fract_y
 _atom_site_fract_z
 _atom_site_occupancy
  Dy  Dy0  1  0.750000  0.970334  0.714045  1
  Dy  Dy1  1  0.250000  0.029666  0.285955  1
  Er  Er2  1  0.250000  0.677556  0.555478  1
  Er  Er3  1  0.750000  0.322444  0.444522  1
  Er  Er4  1  0.750000  0.820843  0.056054  1
  Er  Er5  1  0.250000  0.179157  0.943946  1
  Er  Er6  1  0.250000  0.531460  0.216028  1
  Er  Er7  1  0.750000  0.468540  0.783972  1
  Re  Re8  1  0.250000  0.721748  0.866326  1
  Re  Re9  1  0.750000  0.278252  0.133674  1
  Os  Os10  1  0.750000  0.775825  0.365728  1
  Os  Os11  1  0.250000  0.224175  0.634272  1
  C  C12  1  0.250000  0.456465  0.759964  1
  C  C13  1  0.750000  0.543535  0.240036  1
  C  C14  1  0.750000  0.043227  0.258510  1
  C  C15  1  0.250000  0.956773  0.741490  1
  C  C16  1  0.250000  0.823414  0.052725  1
  C  C17  1  0.750000  0.176586  0.947275  1
  C  C18  1  0.750000  0.673167  0.551959  1
  C  C19  1  0.250000  0.326833  0.448041  1
