# generated using pymatgen
data_Ho4Ga6CoCu
_symmetry_space_group_name_H-M   'P 1'
_cell_length_a   6.99676900
_cell_length_b   8.76102457
_cell_length_c   8.76102500
_cell_angle_alpha   119.99999787
_cell_angle_beta   90.00000000
_cell_angle_gamma   90.00000000
_symmetry_Int_Tables_number   1
_chemical_formula_structural   Ho4Ga6CoCu
_chemical_formula_sum   'Ho8 Ga12 Co2 Cu2'
_cell_volume   465.09106318
_cell_formula_units_Z   2
loop_
 _symmetry_equiv_pos_site_id
 _symmetry_equiv_pos_as_xyz
  1  'x, y, z'
loop_
 _atom_site_type_symbol
 _atom_site_label
 _atom_site_symmetry_multiplicity
 _atom_site_fract_x
 _atom_site_fract_y
 _atom_site_fract_z
 _atom_site_occupancy
  Ho  Ho0  1  0.745693  0.000000  0.000000  1
  Ho  Ho1  1  0.254307  0.000000  0.000000  1
  Ho  Ho2  1  0.742294  0.477003  0.522997  1
  Ho  Ho3  1  0.257706  0.522997  0.477003  1
  Ho  Ho4  1  0.742294  0.045994  0.522997  1
  Ho  Ho5  1  0.257706  0.954006  0.477003  1
  Ho  Ho6  1  0.742294  0.477003  0.954006  1
  Ho  Ho7  1  0.257706  0.522997  0.045994  1
  Ga  Ga8  1  0.954588  0.830668  0.169332  1
  Ga  Ga9  1  0.045412  0.169332  0.830668  1
  Ga  Ga10  1  0.954588  0.338664  0.169332  1
  Ga  Ga11  1  0.454982  0.172923  0.827077  1
  Ga  Ga12  1  0.045412  0.661336  0.830668  1
  Ga  Ga13  1  0.545018  0.827077  0.172923  1
  Ga  Ga14  1  0.954588  0.830668  0.661336  1
  Ga  Ga15  1  0.454982  0.654153  0.827077  1
  Ga  Ga16  1  0.045412  0.169332  0.338664  1
  Ga  Ga17  1  0.545018  0.345847  0.172923  1
  Ga  Ga18  1  0.454982  0.172923  0.345847  1
  Ga  Ga19  1  0.545018  0.827077  0.654153  1
  Co  Co20  1  0.486462  0.333333  0.666667  1
  Co  Co21  1  0.513538  0.666667  0.333333  1
  Cu  Cu22  1  0.948775  0.666667  0.333333  1
  Cu  Cu23  1  0.051225  0.333333  0.666667  1
