# generated using pymatgen
data_Lu3Th2(SiSn)2
_symmetry_space_group_name_H-M   'P 1'
_cell_length_a   7.73671200
_cell_length_b   7.87676200
_cell_length_c   15.10172200
_cell_angle_alpha   90.00000000
_cell_angle_beta   90.00000000
_cell_angle_gamma   90.00000000
_symmetry_Int_Tables_number   1
_chemical_formula_structural   Lu3Th2(SiSn)2
_chemical_formula_sum   'Lu12 Th8 Si8 Sn8'
_cell_volume   920.30254930
_cell_formula_units_Z   4
loop_
 _symmetry_equiv_pos_site_id
 _symmetry_equiv_pos_as_xyz
  1  'x, y, z'
loop_
 _atom_site_type_symbol
 _atom_site_label
 _atom_site_symmetry_multiplicity
 _atom_site_fract_x
 _atom_site_fract_y
 _atom_site_fract_z
 _atom_site_occupancy
  Lu  Lu0  1  0.352224  0.836965  0.865856  1
  Lu  Lu1  1  0.852224  0.663035  0.634144  1
  Lu  Lu2  1  0.647776  0.163035  0.365856  1
  Lu  Lu3  1  0.147776  0.336965  0.134144  1
  Lu  Lu4  1  0.647776  0.163035  0.134144  1
  Lu  Lu5  1  0.147776  0.336965  0.365856  1
  Lu  Lu6  1  0.352224  0.836965  0.634144  1
  Lu  Lu7  1  0.852224  0.663035  0.865856  1
  Lu  Lu8  1  0.185628  0.495929  0.750000  1
  Lu  Lu9  1  0.685628  0.004071  0.750000  1
  Lu  Lu10  1  0.814372  0.504071  0.250000  1
  Lu  Lu11  1  0.314372  0.995929  0.250000  1
  Th  Th12  1  0.515889  0.325742  0.892522  1
  Th  Th13  1  0.015889  0.174258  0.607478  1
  Th  Th14  1  0.484111  0.674258  0.392522  1
  Th  Th15  1  0.984111  0.825742  0.107478  1
  Th  Th16  1  0.484111  0.674258  0.107478  1
  Th  Th17  1  0.984111  0.825742  0.392522  1
  Th  Th18  1  0.515889  0.325742  0.607478  1
  Th  Th19  1  0.015889  0.174258  0.892522  1
  Si  Si20  1  0.550271  0.624505  0.750000  1
  Si  Si21  1  0.050271  0.875495  0.750000  1
  Si  Si22  1  0.449729  0.375495  0.250000  1
  Si  Si23  1  0.949729  0.124505  0.250000  1
  Si  Si24  1  0.319893  0.138964  0.750000  1
  Si  Si25  1  0.819893  0.361036  0.750000  1
  Si  Si26  1  0.680107  0.861036  0.250000  1
  Si  Si27  1  0.180107  0.638964  0.250000  1
  Sn  Sn28  1  0.308774  0.043690  0.038166  1
  Sn  Sn29  1  0.808774  0.456310  0.461834  1
  Sn  Sn30  1  0.691226  0.956310  0.538166  1
  Sn  Sn31  1  0.191226  0.543690  0.961834  1
  Sn  Sn32  1  0.691226  0.956310  0.961834  1
  Sn  Sn33  1  0.191226  0.543690  0.538166  1
  Sn  Sn34  1  0.308774  0.043690  0.461834  1
  Sn  Sn35  1  0.808774  0.456310  0.038166  1
