# generated using pymatgen
data_Ce5SmDy2(AlRu)8
_symmetry_space_group_name_H-M   'P 1'
_cell_length_a   4.00775300
_cell_length_b   7.21865343
_cell_length_c   16.06452351
_cell_angle_alpha   90.24296956
_cell_angle_beta   90.00000000
_cell_angle_gamma   90.00000000
_symmetry_Int_Tables_number   1
_chemical_formula_structural   Ce5SmDy2(AlRu)8
_chemical_formula_sum   'Ce5 Sm1 Dy2 Al8 Ru8'
_cell_volume   464.75180301
_cell_formula_units_Z   1
loop_
 _symmetry_equiv_pos_site_id
 _symmetry_equiv_pos_as_xyz
  1  'x, y, z'
loop_
 _atom_site_type_symbol
 _atom_site_label
 _atom_site_symmetry_multiplicity
 _atom_site_fract_x
 _atom_site_fract_y
 _atom_site_fract_z
 _atom_site_occupancy
  Ce  Ce0  1  0.750000  0.824253  0.438079  1
  Ce  Ce1  1  0.750000  0.456895  0.282419  1
  Ce  Ce2  1  0.750000  0.328717  0.062425  1
  Ce  Ce3  1  0.250000  0.042988  0.779976  1
  Ce  Ce4  1  0.250000  0.542046  0.718943  1
  Sm  Sm5  1  0.250000  0.667537  0.939176  1
  Dy  Dy6  1  0.750000  0.961018  0.218876  1
  Dy  Dy7  1  0.250000  0.161652  0.560145  1
  Al  Al8  1  0.750000  0.489730  0.563029  1
  Al  Al9  1  0.750000  0.369062  0.851615  1
  Al  Al10  1  0.750000  0.996849  0.937399  1
  Al  Al11  1  0.750000  0.871687  0.646727  1
  Al  Al12  1  0.250000  0.487253  0.437744  1
  Al  Al13  1  0.250000  0.995263  0.066289  1
  Al  Al14  1  0.250000  0.638279  0.154075  1
  Al  Al15  1  0.250000  0.124719  0.344739  1
  Ru  Ru16  1  0.750000  0.761578  0.805417  1
  Ru  Ru17  1  0.250000  0.235222  0.937869  1
  Ru  Ru18  1  0.750000  0.263677  0.426611  1
  Ru  Ru19  1  0.250000  0.752787  0.324761  1
  Ru  Ru20  1  0.750000  0.767183  0.069225  1
  Ru  Ru21  1  0.750000  0.255837  0.691674  1
  Ru  Ru22  1  0.250000  0.272637  0.180042  1
  Ru  Ru23  1  0.250000  0.733134  0.562747  1
