# generated using pymatgen
data_LiAl6Ir3Rh2
_symmetry_space_group_name_H-M   'P 1'
_cell_length_a   4.28648800
_cell_length_b   5.95228500
_cell_length_c   12.89649500
_cell_angle_alpha   90.00000000
_cell_angle_beta   89.99802903
_cell_angle_gamma   90.00000000
_symmetry_Int_Tables_number   1
_chemical_formula_structural   LiAl6Ir3Rh2
_chemical_formula_sum   'Li2 Al12 Ir6 Rh4'
_cell_volume   329.04630904
_cell_formula_units_Z   2
loop_
 _symmetry_equiv_pos_site_id
 _symmetry_equiv_pos_as_xyz
  1  'x, y, z'
loop_
 _atom_site_type_symbol
 _atom_site_label
 _atom_site_symmetry_multiplicity
 _atom_site_fract_x
 _atom_site_fract_y
 _atom_site_fract_z
 _atom_site_occupancy
  Li  Li0  1  0.000003  0.000000  0.001250  1
  Li  Li1  1  0.500126  0.500000  0.165422  1
  Al  Al2  1  0.500004  0.248060  0.001081  1
  Al  Al3  1  0.500004  0.751940  0.001081  1
  Al  Al4  1  0.000100  0.251943  0.165584  1
  Al  Al5  1  0.000100  0.748057  0.165584  1
  Al  Al6  1  0.500098  0.250638  0.332509  1
  Al  Al7  1  0.500098  0.749361  0.332509  1
  Al  Al8  1  0.000003  0.251219  0.499594  1
  Al  Al9  1  0.000003  0.748782  0.499594  1
  Al  Al10  1  0.499898  0.248776  0.667073  1
  Al  Al11  1  0.499898  0.751223  0.667073  1
  Al  Al12  1  0.999897  0.249364  0.834160  1
  Al  Al13  1  0.999897  0.750636  0.834160  1
  Ir  Ir14  1  0.999978  0.500000  0.998669  1
  Ir  Ir15  1  0.500108  0.000000  0.167998  1
  Ir  Ir16  1  0.000101  0.500000  0.333378  1
  Ir  Ir17  1  0.499999  0.000000  0.500176  1
  Ir  Ir18  1  0.999913  0.500000  0.666493  1
  Ir  Ir19  1  0.499882  0.000000  0.833286  1
  Rh  Rh20  1  0.000088  0.000000  0.335957  1
  Rh  Rh21  1  0.500001  0.500000  0.502246  1
  Rh  Rh22  1  0.999904  0.000000  0.664423  1
  Rh  Rh23  1  0.499903  0.500000  0.830705  1
