# generated using pymatgen
data_Nd2Cr2TeWO12
_symmetry_space_group_name_H-M   'P 1'
_cell_length_a   5.22811301
_cell_length_b   5.22841948
_cell_length_c   10.23437900
_cell_angle_alpha   89.99981841
_cell_angle_beta   89.99987520
_cell_angle_gamma   120.00655532
_symmetry_Int_Tables_number   1
_chemical_formula_structural   Nd2Cr2TeWO12
_chemical_formula_sum   'Nd2 Cr2 Te1 W1 O12'
_cell_volume   242.25839017
_cell_formula_units_Z   1
loop_
 _symmetry_equiv_pos_site_id
 _symmetry_equiv_pos_as_xyz
  1  'x, y, z'
loop_
 _atom_site_type_symbol
 _atom_site_label
 _atom_site_symmetry_multiplicity
 _atom_site_fract_x
 _atom_site_fract_y
 _atom_site_fract_z
 _atom_site_occupancy
  Nd  Nd0  1  0.000015  0.000006  0.000220  1
  Nd  Nd1  1  0.000003  0.000013  0.499819  1
  Cr  Cr2  1  0.333416  0.666674  0.249848  1
  Cr  Cr3  1  0.666624  0.333338  0.750060  1
  Te  Te4  1  0.333312  0.666667  0.750053  1
  W  W5  1  0.666757  0.333304  0.250131  1
  O  O6  1  0.639207  0.628962  0.143391  1
  O  O7  1  0.989897  0.360865  0.143401  1
  O  O8  1  0.371053  0.010128  0.143420  1
  O  O9  1  0.371043  0.360989  0.356476  1
  O  O10  1  0.990098  0.629026  0.356453  1
  O  O11  1  0.639048  0.010000  0.356473  1
  O  O12  1  0.362317  0.990327  0.643098  1
  O  O13  1  0.009553  0.372013  0.643120  1
  O  O14  1  0.627866  0.637624  0.643129  1
  O  O15  1  0.627863  0.990304  0.856952  1
  O  O16  1  0.009616  0.637631  0.856972  1
  O  O17  1  0.362309  0.372128  0.856980  1
