# generated using pymatgen
data_LiHo4Sc3(B6Ir)4
_symmetry_space_group_name_H-M   'P 1'
_cell_length_a   3.54039200
_cell_length_b   8.95580210
_cell_length_c   11.32761965
_cell_angle_alpha   90.07841260
_cell_angle_beta   90.00000000
_cell_angle_gamma   90.00000000
_symmetry_Int_Tables_number   1
_chemical_formula_structural   LiHo4Sc3(B6Ir)4
_chemical_formula_sum   'Li1 Ho4 Sc3 B24 Ir4'
_cell_volume   359.16506743
_cell_formula_units_Z   1
loop_
 _symmetry_equiv_pos_site_id
 _symmetry_equiv_pos_as_xyz
  1  'x, y, z'
loop_
 _atom_site_type_symbol
 _atom_site_label
 _atom_site_symmetry_multiplicity
 _atom_site_fract_x
 _atom_site_fract_y
 _atom_site_fract_z
 _atom_site_occupancy
  Li  Li0  1  0.500000  0.446317  0.122405  1
  Ho  Ho1  1  0.500000  0.320210  0.412442  1
  Ho  Ho2  1  0.500000  0.680369  0.585525  1
  Ho  Ho3  1  0.500000  0.182629  0.915675  1
  Ho  Ho4  1  0.500000  0.817032  0.086476  1
  Sc  Sc5  1  0.500000  0.553255  0.880334  1
  Sc  Sc6  1  0.500000  0.055204  0.623724  1
  Sc  Sc7  1  0.500000  0.945009  0.375295  1
  B  B8  1  0.000000  0.100907  0.472691  1
  B  B9  1  0.000000  0.899188  0.526900  1
  B  B10  1  0.000000  0.400509  0.974299  1
  B  B11  1  0.000000  0.598406  0.027648  1
  B  B12  1  0.000000  0.130126  0.317296  1
  B  B13  1  0.000000  0.870432  0.681360  1
  B  B14  1  0.000000  0.369988  0.821007  1
  B  B15  1  0.000000  0.626367  0.180507  1
  B  B16  1  0.000000  0.055861  0.066819  1
  B  B17  1  0.000000  0.944526  0.934867  1
  B  B18  1  0.000000  0.444509  0.565062  1
  B  B19  1  0.000000  0.555332  0.432709  1
  B  B20  1  0.000000  0.481632  0.283013  1
  B  B21  1  0.000000  0.517967  0.715842  1
  B  B22  1  0.000000  0.019183  0.784973  1
  B  B23  1  0.000000  0.981707  0.214488  1
  B  B24  1  0.000000  0.257663  0.081278  1
  B  B25  1  0.000000  0.744657  0.921874  1
  B  B26  1  0.000000  0.246270  0.579123  1
  B  B27  1  0.000000  0.753928  0.419423  1
  B  B28  1  0.000000  0.296623  0.233681  1
  B  B29  1  0.000000  0.704236  0.765590  1
  B  B30  1  0.000000  0.205464  0.736186  1
  B  B31  1  0.000000  0.793202  0.264625  1
  Ir  Ir32  1  0.500000  0.142277  0.181915  1
  Ir  Ir33  1  0.500000  0.859597  0.817460  1
  Ir  Ir34  1  0.500000  0.359859  0.679197  1
  Ir  Ir35  1  0.500000  0.639556  0.318290  1
