# generated using pymatgen
data_Tb2Yb(AgGe)3
_symmetry_space_group_name_H-M   'P 1'
_cell_length_a   7.20657700
_cell_length_b   7.17818141
_cell_length_c   4.24786500
_cell_angle_alpha   90.00000000
_cell_angle_beta   90.00000000
_cell_angle_gamma   120.13093933
_symmetry_Int_Tables_number   1
_chemical_formula_structural   Tb2Yb(AgGe)3
_chemical_formula_sum   'Tb2 Yb1 Ag3 Ge3'
_cell_volume   190.05104580
_cell_formula_units_Z   1
loop_
 _symmetry_equiv_pos_site_id
 _symmetry_equiv_pos_as_xyz
  1  'x, y, z'
loop_
 _atom_site_type_symbol
 _atom_site_label
 _atom_site_symmetry_multiplicity
 _atom_site_fract_x
 _atom_site_fract_y
 _atom_site_fract_z
 _atom_site_occupancy
  Tb  Tb0  1  0.001171  0.582651  0.000000  1
  Tb  Tb1  1  0.418520  0.417349  0.000000  1
  Yb  Yb2  1  0.580700  0.000000  0.000000  1
  Ag  Ag3  1  0.254468  0.000000  0.500000  1
  Ag  Ag4  1  0.751018  0.755695  0.500000  1
  Ag  Ag5  1  0.995323  0.244305  0.500000  1
  Ge  Ge6  1  0.000905  0.000000  0.000000  1
  Ge  Ge7  1  0.668915  0.339933  0.500000  1
  Ge  Ge8  1  0.328981  0.660067  0.500000  1
