# generated using pymatgen
data_Nd4Al18Rh5Au
_symmetry_space_group_name_H-M   'P 1'
_cell_length_a   7.66446216
_cell_length_b   7.66446202
_cell_length_c   9.61284862
_cell_angle_alpha   89.97977414
_cell_angle_beta   89.97977464
_cell_angle_gamma   119.54325282
_symmetry_Int_Tables_number   1
_chemical_formula_structural   Nd4Al18Rh5Au
_chemical_formula_sum   'Nd4 Al18 Rh5 Au1'
_cell_volume   491.27705431
_cell_formula_units_Z   1
loop_
 _symmetry_equiv_pos_site_id
 _symmetry_equiv_pos_as_xyz
  1  'x, y, z'
loop_
 _atom_site_type_symbol
 _atom_site_label
 _atom_site_symmetry_multiplicity
 _atom_site_fract_x
 _atom_site_fract_y
 _atom_site_fract_z
 _atom_site_occupancy
  Nd  Nd0  1  0.995774  0.673952  0.749681  1
  Nd  Nd1  1  0.004226  0.326048  0.250319  1
  Nd  Nd2  1  0.673952  0.995774  0.749681  1
  Nd  Nd3  1  0.326048  0.004226  0.250319  1
  Al  Al4  1  0.137567  0.137567  0.757562  1
  Al  Al5  1  0.862433  0.862433  0.242438  1
  Al  Al6  1  0.004167  0.344733  0.577043  1
  Al  Al7  1  0.995833  0.655267  0.422957  1
  Al  Al8  1  0.998706  0.663802  0.072224  1
  Al  Al9  1  0.336198  0.001294  0.927776  1
  Al  Al10  1  0.001294  0.336198  0.927776  1
  Al  Al11  1  0.663802  0.998706  0.072224  1
  Al  Al12  1  0.655267  0.995833  0.422957  1
  Al  Al13  1  0.344733  0.004167  0.577043  1
  Al  Al14  1  0.334165  0.334165  0.047411  1
  Al  Al15  1  0.665835  0.665835  0.952589  1
  Al  Al16  1  0.656471  0.656471  0.553653  1
  Al  Al17  1  0.343529  0.343529  0.446347  1
  Al  Al18  1  0.339677  0.549461  0.751207  1
  Al  Al19  1  0.660323  0.450539  0.248793  1
  Al  Al20  1  0.549461  0.339677  0.751207  1
  Al  Al21  1  0.450539  0.660323  0.248793  1
  Rh  Rh22  1  0.671213  0.328787  0.500000  1
  Rh  Rh23  1  0.328787  0.671213  0.500000  1
  Rh  Rh24  1  0.328842  0.671158  0.000000  1
  Rh  Rh25  1  0.671158  0.328842  0.000000  1
  Rh  Rh26  1  0.000000  0.000000  0.000000  1
  Au  Au27  1  0.000000  0.000000  0.500000  1
