# generated using pymatgen
data_PrThTe4
_symmetry_space_group_name_H-M   'P 1'
_cell_length_a   8.23857647
_cell_length_b   8.23857768
_cell_length_c   8.23857706
_cell_angle_alpha   149.07283228
_cell_angle_beta   136.18561774
_cell_angle_gamma   54.59110219
_symmetry_Int_Tables_number   1
_chemical_formula_structural   PrThTe4
_chemical_formula_sum   'Pr1 Th1 Te4'
_cell_volume   197.73392625
_cell_formula_units_Z   1
loop_
 _symmetry_equiv_pos_site_id
 _symmetry_equiv_pos_as_xyz
  1  'x, y, z'
loop_
 _atom_site_type_symbol
 _atom_site_label
 _atom_site_symmetry_multiplicity
 _atom_site_fract_x
 _atom_site_fract_y
 _atom_site_fract_z
 _atom_site_occupancy
  Pr  Pr0  1  0.137923  0.137923  0.000000  1
  Th  Th1  1  0.861494  0.861494  0.000000  1
  Te  Te2  1  0.707623  0.207623  0.500000  1
  Te  Te3  1  0.298152  0.798152  0.500000  1
  Te  Te4  1  0.751033  0.497405  0.253629  1
  Te  Te5  1  0.243776  0.497405  0.746371  1
