# generated using pymatgen
data_MgTi4(Re5Tc3)3
_symmetry_space_group_name_H-M   'P 1'
_cell_length_a   8.36563520
_cell_length_b   8.36563557
_cell_length_c   8.36563500
_cell_angle_alpha   109.52304454
_cell_angle_beta   109.52304544
_cell_angle_gamma   109.52305642
_symmetry_Int_Tables_number   1
_chemical_formula_structural   MgTi4(Re5Tc3)3
_chemical_formula_sum   'Mg1 Ti4 Re15 Tc9'
_cell_volume   449.81995298
_cell_formula_units_Z   1
loop_
 _symmetry_equiv_pos_site_id
 _symmetry_equiv_pos_as_xyz
  1  'x, y, z'
loop_
 _atom_site_type_symbol
 _atom_site_label
 _atom_site_symmetry_multiplicity
 _atom_site_fract_x
 _atom_site_fract_y
 _atom_site_fract_z
 _atom_site_occupancy
  Mg  Mg0  1  0.999170  0.999170  0.999170  1
  Ti  Ti1  1  0.632678  0.999576  0.999576  1
  Ti  Ti2  1  0.999576  0.632678  0.999576  1
  Ti  Ti3  1  0.999576  0.999576  0.632678  1
  Ti  Ti4  1  0.366024  0.366024  0.366024  1
  Re  Re5  1  0.600685  0.600685  0.279278  1
  Re  Re6  1  0.279278  0.600685  0.600685  1
  Re  Re7  1  0.600685  0.279278  0.600685  1
  Re  Re8  1  0.376359  0.194234  0.001173  1
  Re  Re9  1  0.181489  0.807008  0.807008  1
  Re  Re10  1  0.376359  0.001173  0.194234  1
  Re  Re11  1  0.194234  0.376359  0.001173  1
  Re  Re12  1  0.001173  0.376359  0.194234  1
  Re  Re13  1  0.807008  0.181489  0.807008  1
  Re  Re14  1  0.807008  0.807008  0.181489  1
  Re  Re15  1  0.001173  0.194234  0.376359  1
  Re  Re16  1  0.194234  0.001173  0.376359  1
  Re  Re17  1  0.622737  0.622737  0.815728  1
  Re  Re18  1  0.815728  0.622737  0.622737  1
  Re  Re19  1  0.622737  0.815728  0.622737  1
  Tc  Tc20  1  0.399860  0.681162  0.000889  1
  Tc  Tc21  1  0.720345  0.318959  0.318959  1
  Tc  Tc22  1  0.399860  0.000889  0.681162  1
  Tc  Tc23  1  0.681162  0.399860  0.000889  1
  Tc  Tc24  1  0.000889  0.399860  0.681162  1
  Tc  Tc25  1  0.318959  0.720345  0.318959  1
  Tc  Tc26  1  0.318959  0.318959  0.720345  1
  Tc  Tc27  1  0.000889  0.681162  0.399860  1
  Tc  Tc28  1  0.681162  0.000889  0.399860  1
