# generated using pymatgen
data_Hf(ScGa2)5
_symmetry_space_group_name_H-M   'P 1'
_cell_length_a   5.79574700
_cell_length_b   9.26422900
_cell_length_c   10.93651800
_cell_angle_alpha   90.00000000
_cell_angle_beta   90.00000000
_cell_angle_gamma   90.00000000
_symmetry_Int_Tables_number   1
_chemical_formula_structural   Hf(ScGa2)5
_chemical_formula_sum   'Hf2 Sc10 Ga20'
_cell_volume   587.21585466
_cell_formula_units_Z   2
loop_
 _symmetry_equiv_pos_site_id
 _symmetry_equiv_pos_as_xyz
  1  'x, y, z'
loop_
 _atom_site_type_symbol
 _atom_site_label
 _atom_site_symmetry_multiplicity
 _atom_site_fract_x
 _atom_site_fract_y
 _atom_site_fract_z
 _atom_site_occupancy
  Hf  Hf0  1  0.853454  0.750000  0.067830  1
  Hf  Hf1  1  0.646546  0.750000  0.567830  1
  Sc  Sc2  1  0.152071  0.250000  0.932301  1
  Sc  Sc3  1  0.347929  0.250000  0.432301  1
  Sc  Sc4  1  0.889222  0.509323  0.354265  1
  Sc  Sc5  1  0.610778  0.990677  0.854265  1
  Sc  Sc6  1  0.109114  0.008801  0.645527  1
  Sc  Sc7  1  0.390886  0.491199  0.145527  1
  Sc  Sc8  1  0.109114  0.491199  0.645527  1
  Sc  Sc9  1  0.390886  0.008801  0.145527  1
  Sc  Sc10  1  0.889222  0.990677  0.354265  1
  Sc  Sc11  1  0.610778  0.509323  0.854265  1
  Ga  Ga12  1  0.874354  0.047740  0.094599  1
  Ga  Ga13  1  0.625646  0.452260  0.594599  1
  Ga  Ga14  1  0.124972  0.549667  0.905920  1
  Ga  Ga15  1  0.375028  0.950333  0.405920  1
  Ga  Ga16  1  0.124972  0.950333  0.905920  1
  Ga  Ga17  1  0.375028  0.549667  0.405920  1
  Ga  Ga18  1  0.874354  0.452260  0.094599  1
  Ga  Ga19  1  0.625646  0.047740  0.594599  1
  Ga  Ga20  1  0.162788  0.750000  0.249753  1
  Ga  Ga21  1  0.337212  0.750000  0.749753  1
  Ga  Ga22  1  0.838580  0.250000  0.750947  1
  Ga  Ga23  1  0.661420  0.250000  0.250947  1
  Ga  Ga24  1  0.381364  0.750000  0.007884  1
  Ga  Ga25  1  0.118636  0.750000  0.507884  1
  Ga  Ga26  1  0.620418  0.250000  0.992037  1
  Ga  Ga27  1  0.879582  0.250000  0.492037  1
  Ga  Ga28  1  0.620681  0.750000  0.293012  1
  Ga  Ga29  1  0.879319  0.750000  0.793012  1
  Ga  Ga30  1  0.379747  0.250000  0.705613  1
  Ga  Ga31  1  0.120253  0.250000  0.205613  1
