# generated using pymatgen
data_Zr5In2GaPb
_symmetry_space_group_name_H-M   'P 1'
_cell_length_a   8.82876991
_cell_length_b   8.82877121
_cell_length_c   5.91580500
_cell_angle_alpha   90.00000000
_cell_angle_beta   90.00000000
_cell_angle_gamma   120.05211023
_symmetry_Int_Tables_number   1
_chemical_formula_structural   Zr5In2GaPb
_chemical_formula_sum   'Zr10 In4 Ga2 Pb2'
_cell_volume   399.13209971
_cell_formula_units_Z   2
loop_
 _symmetry_equiv_pos_site_id
 _symmetry_equiv_pos_as_xyz
  1  'x, y, z'
loop_
 _atom_site_type_symbol
 _atom_site_label
 _atom_site_symmetry_multiplicity
 _atom_site_fract_x
 _atom_site_fract_y
 _atom_site_fract_z
 _atom_site_occupancy
  Zr  Zr0  1  0.666467  0.334836  0.997478  1
  Zr  Zr1  1  0.334836  0.666467  0.997478  1
  Zr  Zr2  1  0.334836  0.666467  0.502522  1
  Zr  Zr3  1  0.666467  0.334836  0.502522  1
  Zr  Zr4  1  0.735954  0.735954  0.750000  1
  Zr  Zr5  1  0.262614  0.999969  0.750000  1
  Zr  Zr6  1  0.999969  0.262614  0.750000  1
  Zr  Zr7  1  0.261804  0.261804  0.250000  1
  Zr  Zr8  1  0.738253  0.998229  0.250000  1
  Zr  Zr9  1  0.998229  0.738253  0.250000  1
  In  In10  1  0.386707  0.386707  0.750000  1
  In  In11  1  0.615113  0.000524  0.750000  1
  In  In12  1  0.000524  0.615113  0.750000  1
  In  In13  1  0.612645  0.612645  0.250000  1
  Ga  Ga14  1  0.999119  0.999119  0.997590  1
  Ga  Ga15  1  0.999119  0.999119  0.502410  1
  Pb  Pb16  1  0.387497  0.999847  0.250000  1
  Pb  Pb17  1  0.999847  0.387497  0.250000  1
