# generated using pymatgen
data_Tm16Zr3ScIr12
_symmetry_space_group_name_H-M   'P 1'
_cell_length_a   10.71194000
_cell_length_b   10.71194000
_cell_length_c   6.21067700
_cell_angle_alpha   90.00000000
_cell_angle_beta   90.00000000
_cell_angle_gamma   90.00000000
_symmetry_Int_Tables_number   1
_chemical_formula_structural   Tm16Zr3ScIr12
_chemical_formula_sum   'Tm16 Zr3 Sc1 Ir12'
_cell_volume   712.64822249
_cell_formula_units_Z   1
loop_
 _symmetry_equiv_pos_site_id
 _symmetry_equiv_pos_as_xyz
  1  'x, y, z'
loop_
 _atom_site_type_symbol
 _atom_site_label
 _atom_site_symmetry_multiplicity
 _atom_site_fract_x
 _atom_site_fract_y
 _atom_site_fract_z
 _atom_site_occupancy
  Tm  Tm0  1  0.290432  0.086105  0.374315  1
  Tm  Tm1  1  0.290151  0.913411  0.874739  1
  Tm  Tm2  1  0.709849  0.086589  0.874739  1
  Tm  Tm3  1  0.709568  0.913895  0.374315  1
  Tm  Tm4  1  0.586530  0.789954  0.875850  1
  Tm  Tm5  1  0.585717  0.211063  0.375143  1
  Tm  Tm6  1  0.414283  0.788937  0.375143  1
  Tm  Tm7  1  0.413470  0.210046  0.875850  1
  Tm  Tm8  1  0.211063  0.414283  0.624857  1
  Tm  Tm9  1  0.210046  0.586530  0.124150  1
  Tm  Tm10  1  0.789954  0.413470  0.124150  1
  Tm  Tm11  1  0.788937  0.585717  0.624857  1
  Tm  Tm12  1  0.913411  0.709849  0.125261  1
  Tm  Tm13  1  0.913895  0.290432  0.625685  1
  Tm  Tm14  1  0.086105  0.709568  0.625685  1
  Tm  Tm15  1  0.086589  0.290151  0.125261  1
  Zr  Zr16  1  0.000000  0.000000  0.500000  1
  Zr  Zr17  1  0.000000  0.000000  0.000000  1
  Zr  Zr18  1  0.500000  0.500000  0.000000  1
  Sc  Sc19  1  0.500000  0.500000  0.500000  1
  Ir  Ir20  1  0.852706  0.147393  0.250711  1
  Ir  Ir21  1  0.852607  0.852706  0.749289  1
  Ir  Ir22  1  0.147393  0.147294  0.749289  1
  Ir  Ir23  1  0.147294  0.852607  0.250711  1
  Ir  Ir24  1  0.647932  0.351565  0.752752  1
  Ir  Ir25  1  0.648435  0.647932  0.247248  1
  Ir  Ir26  1  0.351565  0.352068  0.247248  1
  Ir  Ir27  1  0.352068  0.648435  0.752752  1
  Ir  Ir28  1  0.500000  0.000000  0.123901  1
  Ir  Ir29  1  0.500000  0.000000  0.623410  1
  Ir  Ir30  1  0.000000  0.500000  0.876099  1
  Ir  Ir31  1  0.000000  0.500000  0.376590  1
