# generated using pymatgen
data_Tm3Lu7In8(CuPt)2
_symmetry_space_group_name_H-M   'P 1'
_cell_length_a   3.57577900
_cell_length_b   7.99251961
_cell_length_c   17.91759203
_cell_angle_alpha   90.11684010
_cell_angle_beta   90.00000000
_cell_angle_gamma   90.00000000
_symmetry_Int_Tables_number   1
_chemical_formula_structural   Tm3Lu7In8(CuPt)2
_chemical_formula_sum   'Tm3 Lu7 In8 Cu2 Pt2'
_cell_volume   512.07446639
_cell_formula_units_Z   1
loop_
 _symmetry_equiv_pos_site_id
 _symmetry_equiv_pos_as_xyz
  1  'x, y, z'
loop_
 _atom_site_type_symbol
 _atom_site_label
 _atom_site_symmetry_multiplicity
 _atom_site_fract_x
 _atom_site_fract_y
 _atom_site_fract_z
 _atom_site_occupancy
  Tm  Tm0  1  0.000000  0.117113  0.415287  1
  Tm  Tm1  1  0.000000  0.000032  0.999966  1
  Tm  Tm2  1  0.000000  0.500097  0.500002  1
  Lu  Lu3  1  0.000000  0.883018  0.585246  1
  Lu  Lu4  1  0.000000  0.383349  0.915674  1
  Lu  Lu5  1  0.000000  0.616645  0.084310  1
  Lu  Lu6  1  0.000000  0.247542  0.220310  1
  Lu  Lu7  1  0.000000  0.752494  0.779590  1
  Lu  Lu8  1  0.000000  0.259254  0.720683  1
  Lu  Lu9  1  0.000000  0.740583  0.279222  1
  In  In10  1  0.500000  0.422237  0.352591  1
  In  In11  1  0.500000  0.578359  0.647228  1
  In  In12  1  0.500000  0.073841  0.849898  1
  In  In13  1  0.500000  0.926065  0.150047  1
  In  In14  1  0.500000  0.292420  0.065871  1
  In  In15  1  0.500000  0.707508  0.934142  1
  In  In16  1  0.500000  0.206456  0.567536  1
  In  In17  1  0.500000  0.792988  0.432747  1
  Cu  Cu18  1  0.500000  0.026203  0.302412  1
  Cu  Cu19  1  0.500000  0.973629  0.697240  1
  Pt  Pt20  1  0.500000  0.472637  0.802953  1
  Pt  Pt21  1  0.500000  0.527532  0.197044  1
