# generated using pymatgen
data_Nd8Cd2TcAu
_symmetry_space_group_name_H-M   'P 1'
_cell_length_a   10.02747953
_cell_length_b   10.02747989
_cell_length_c   10.17066100
_cell_angle_alpha   59.52652713
_cell_angle_beta   59.52652590
_cell_angle_gamma   59.34615257
_symmetry_Int_Tables_number   1
_chemical_formula_structural   Nd8Cd2TcAu
_chemical_formula_sum   'Nd16 Cd4 Tc2 Au2'
_cell_volume   714.35019128
_cell_formula_units_Z   2
loop_
 _symmetry_equiv_pos_site_id
 _symmetry_equiv_pos_as_xyz
  1  'x, y, z'
loop_
 _atom_site_type_symbol
 _atom_site_label
 _atom_site_symmetry_multiplicity
 _atom_site_fract_x
 _atom_site_fract_y
 _atom_site_fract_z
 _atom_site_occupancy
  Nd  Nd0  1  0.349173  0.349173  0.363418  1
  Nd  Nd1  1  0.349173  0.349173  0.938236  1
  Nd  Nd2  1  0.342760  0.955256  0.350993  1
  Nd  Nd3  1  0.955256  0.342760  0.350993  1
  Nd  Nd4  1  0.819551  0.188649  0.192063  1
  Nd  Nd5  1  0.188649  0.819551  0.799737  1
  Nd  Nd6  1  0.188649  0.819551  0.192063  1
  Nd  Nd7  1  0.819551  0.188649  0.799737  1
  Nd  Nd8  1  0.189229  0.189229  0.810771  1
  Nd  Nd9  1  0.801833  0.801833  0.198167  1
  Nd  Nd10  1  0.936867  0.555898  0.567638  1
  Nd  Nd11  1  0.555898  0.936867  0.939597  1
  Nd  Nd12  1  0.555898  0.936867  0.567638  1
  Nd  Nd13  1  0.936867  0.555898  0.939597  1
  Nd  Nd14  1  0.561365  0.561365  0.938635  1
  Nd  Nd15  1  0.937769  0.937769  0.562231  1
  Cd  Cd16  1  0.579865  0.579865  0.580485  1
  Cd  Cd17  1  0.579865  0.579865  0.259786  1
  Cd  Cd18  1  0.583485  0.255690  0.580413  1
  Cd  Cd19  1  0.255690  0.583485  0.580413  1
  Tc  Tc20  1  0.144782  0.144782  0.133637  1
  Tc  Tc21  1  0.144782  0.144782  0.576798  1
  Au  Au22  1  0.152171  0.570872  0.138478  1
  Au  Au23  1  0.570872  0.152171  0.138478  1
