# generated using pymatgen
data_Cs6LuSc2RhBr18
_symmetry_space_group_name_H-M   'P 1'
_cell_length_a   7.89704208
_cell_length_b   7.89647327
_cell_length_c   19.90745616
_cell_angle_alpha   89.99669120
_cell_angle_beta   90.01401700
_cell_angle_gamma   119.99465187
_symmetry_Int_Tables_number   1
_chemical_formula_structural   Cs6LuSc2RhBr18
_chemical_formula_sum   'Cs6 Lu1 Sc2 Rh1 Br18'
_cell_volume   1075.14591509
_cell_formula_units_Z   1
loop_
 _symmetry_equiv_pos_site_id
 _symmetry_equiv_pos_as_xyz
  1  'x, y, z'
loop_
 _atom_site_type_symbol
 _atom_site_label
 _atom_site_symmetry_multiplicity
 _atom_site_fract_x
 _atom_site_fract_y
 _atom_site_fract_z
 _atom_site_occupancy
  Cs  Cs0  1  0.333292  0.666639  0.070489  1
  Cs  Cs1  1  0.666667  0.333363  0.930508  1
  Cs  Cs2  1  0.666651  0.333336  0.574523  1
  Cs  Cs3  1  0.333345  0.666693  0.434787  1
  Cs  Cs4  1  0.999952  0.999982  0.251955  1
  Cs  Cs5  1  0.000032  0.999987  0.744887  1
  Lu  Lu6  1  0.666631  0.333334  0.343615  1
  Sc  Sc7  1  0.666695  0.333336  0.155955  1
  Sc  Sc8  1  0.333267  0.666648  0.838037  1
  Rh  Rh9  1  0.332758  0.666513  0.667906  1
  Br  Br10  1  0.183984  0.367838  0.596158  1
  Br  Br11  1  0.833100  0.666218  0.412373  1
  Br  Br12  1  0.632387  0.816172  0.596133  1
  Br  Br13  1  0.827948  0.655901  0.089595  1
  Br  Br14  1  0.333762  0.166879  0.412369  1
  Br  Br15  1  0.172668  0.345300  0.905700  1
  Br  Br16  1  0.184008  0.816090  0.596164  1
  Br  Br17  1  0.344114  0.172058  0.089596  1
  Br  Br18  1  0.833097  0.166894  0.412370  1
  Br  Br19  1  0.654710  0.827351  0.905704  1
  Br  Br20  1  0.827961  0.172041  0.089597  1
  Br  Br21  1  0.172673  0.827356  0.905704  1
  Br  Br22  1  0.511618  0.023192  0.247544  1
  Br  Br23  1  0.484124  0.968162  0.744416  1
  Br  Br24  1  0.976808  0.488407  0.247549  1
  Br  Br25  1  0.031995  0.515978  0.744404  1
  Br  Br26  1  0.511609  0.488411  0.247548  1
  Br  Br27  1  0.484147  0.515917  0.744416  1
