# generated using pymatgen
data_La3Nd13Cd4Co3Pd
_symmetry_space_group_name_H-M   'P 1'
_cell_length_a   9.91055797
_cell_length_b   9.96946271
_cell_length_c   9.96946300
_cell_angle_alpha   60.00000234
_cell_angle_beta   59.80319298
_cell_angle_gamma   59.80319559
_symmetry_Int_Tables_number   1
_chemical_formula_structural   La3Nd13Cd4Co3Pd
_chemical_formula_sum   'La3 Nd13 Cd4 Co3 Pd1'
_cell_volume   694.42973105
_cell_formula_units_Z   1
loop_
 _symmetry_equiv_pos_site_id
 _symmetry_equiv_pos_as_xyz
  1  'x, y, z'
loop_
 _atom_site_type_symbol
 _atom_site_label
 _atom_site_symmetry_multiplicity
 _atom_site_fract_x
 _atom_site_fract_y
 _atom_site_fract_z
 _atom_site_occupancy
  La  La0  1  0.334020  0.352702  0.352702  1
  La  La1  1  0.334020  0.352702  0.960576  1
  La  La2  1  0.334020  0.960576  0.352702  1
  Nd  Nd3  1  0.959064  0.346978  0.346978  1
  Nd  Nd4  1  0.822839  0.188653  0.188653  1
  Nd  Nd5  1  0.190562  0.811549  0.811549  1
  Nd  Nd6  1  0.190562  0.811549  0.186341  1
  Nd  Nd7  1  0.822839  0.188653  0.799854  1
  Nd  Nd8  1  0.190562  0.186341  0.811549  1
  Nd  Nd9  1  0.822839  0.799854  0.188653  1
  Nd  Nd10  1  0.933786  0.564163  0.564163  1
  Nd  Nd11  1  0.561822  0.937438  0.937438  1
  Nd  Nd12  1  0.561822  0.937438  0.563300  1
  Nd  Nd13  1  0.933786  0.564163  0.937887  1
  Nd  Nd14  1  0.561822  0.563300  0.937438  1
  Nd  Nd15  1  0.933786  0.937887  0.564163  1
  Cd  Cd16  1  0.580346  0.578835  0.578835  1
  Cd  Cd17  1  0.580346  0.578835  0.261986  1
  Cd  Cd18  1  0.580346  0.261986  0.578835  1
  Cd  Cd19  1  0.258914  0.580362  0.580362  1
  Co  Co20  1  0.144779  0.140945  0.140945  1
  Co  Co21  1  0.144779  0.140945  0.573329  1
  Co  Co22  1  0.144779  0.573329  0.140945  1
  Pd  Pd23  1  0.577559  0.140813  0.140813  1
