# generated using pymatgen
data_Cs2NaPSe4
_symmetry_space_group_name_H-M   'P 1'
_cell_length_a   7.35457324
_cell_length_b   7.56863098
_cell_length_c   12.22228168
_cell_angle_alpha   93.81795857
_cell_angle_beta   105.75055088
_cell_angle_gamma   112.63799711
_symmetry_Int_Tables_number   1
_chemical_formula_structural   Cs2NaPSe4
_chemical_formula_sum   'Cs4 Na2 P2 Se8'
_cell_volume   593.03523982
_cell_formula_units_Z   2
loop_
 _symmetry_equiv_pos_site_id
 _symmetry_equiv_pos_as_xyz
  1  'x, y, z'
loop_
 _atom_site_type_symbol
 _atom_site_label
 _atom_site_symmetry_multiplicity
 _atom_site_fract_x
 _atom_site_fract_y
 _atom_site_fract_z
 _atom_site_occupancy
  Cs  Cs0  1  0.856139  0.728835  0.098033  1
  Cs  Cs1  1  0.143861  0.271165  0.901967  1
  Cs  Cs2  1  0.444690  0.978760  0.691459  1
  Cs  Cs3  1  0.555310  0.021240  0.308541  1
  Na  Na4  1  0.774363  0.580297  0.431596  1
  Na  Na5  1  0.225637  0.419703  0.568404  1
  P  P6  1  0.864579  0.648220  0.732922  1
  P  P7  1  0.135421  0.351780  0.267078  1
  Se  Se8  1  0.143118  0.764401  0.889646  1
  Se  Se9  1  0.856882  0.235599  0.110354  1
  Se  Se10  1  0.574434  0.560154  0.782554  1
  Se  Se11  1  0.425566  0.439846  0.217446  1
  Se  Se12  1  0.882474  0.879575  0.625364  1
  Se  Se13  1  0.117526  0.120425  0.374636  1
  Se  Se14  1  0.849466  0.382472  0.629426  1
  Se  Se15  1  0.150534  0.617528  0.370574  1
