# generated using pymatgen
data_YbYPa2(Ga3Ir)6
_symmetry_space_group_name_H-M   'P 1'
_cell_length_a   7.64475703
_cell_length_b   7.64189744
_cell_length_c   9.40795700
_cell_angle_alpha   90.00000000
_cell_angle_beta   90.00000000
_cell_angle_gamma   119.94946396
_symmetry_Int_Tables_number   1
_chemical_formula_structural   YbYPa2(Ga3Ir)6
_chemical_formula_sum   'Yb1 Y1 Pa2 Ga18 Ir6'
_cell_volume   476.22454995
_cell_formula_units_Z   1
loop_
 _symmetry_equiv_pos_site_id
 _symmetry_equiv_pos_as_xyz
  1  'x, y, z'
loop_
 _atom_site_type_symbol
 _atom_site_label
 _atom_site_symmetry_multiplicity
 _atom_site_fract_x
 _atom_site_fract_y
 _atom_site_fract_z
 _atom_site_occupancy
  Yb  Yb0  1  0.668981  0.996078  0.250000  1
  Y  Y1  1  0.331857  0.004682  0.750000  1
  Pa  Pa2  1  0.998938  0.668540  0.250000  1
  Pa  Pa3  1  0.001239  0.331102  0.750000  1
  Ga  Ga4  1  0.129279  0.128127  0.250000  1
  Ga  Ga5  1  0.869190  0.871341  0.750000  1
  Ga  Ga6  1  0.996611  0.328607  0.083854  1
  Ga  Ga7  1  0.001122  0.669414  0.917478  1
  Ga  Ga8  1  0.001122  0.669414  0.582522  1
  Ga  Ga9  1  0.339966  0.001765  0.418682  1
  Ga  Ga10  1  0.996611  0.328607  0.416146  1
  Ga  Ga11  1  0.661857  0.997910  0.578456  1
  Ga  Ga12  1  0.661857  0.997910  0.921544  1
  Ga  Ga13  1  0.339966  0.001765  0.081318  1
  Ga  Ga14  1  0.334541  0.331809  0.566853  1
  Ga  Ga15  1  0.665396  0.670008  0.431572  1
  Ga  Ga16  1  0.665396  0.670008  0.068428  1
  Ga  Ga17  1  0.334541  0.331809  0.933147  1
  Ga  Ga18  1  0.341456  0.546919  0.250000  1
  Ga  Ga19  1  0.659941  0.454686  0.750000  1
  Ga  Ga20  1  0.545768  0.339252  0.250000  1
  Ga  Ga21  1  0.454815  0.660850  0.750000  1
  Ir  Ir22  1  0.676539  0.332727  0.998954  1
  Ir  Ir23  1  0.322128  0.666926  0.999230  1
  Ir  Ir24  1  0.322128  0.666926  0.500770  1
  Ir  Ir25  1  0.676539  0.332727  0.501046  1
  Ir  Ir26  1  0.001109  0.000047  0.999155  1
  Ir  Ir27  1  0.001109  0.000047  0.500845  1
