# generated using pymatgen
data_Ho4NbCo4
_symmetry_space_group_name_H-M   'P 1'
_cell_length_a   5.62918120
_cell_length_b   5.62918144
_cell_length_c   8.96267610
_cell_angle_alpha   107.75755206
_cell_angle_beta   107.75755135
_cell_angle_gamma   40.70119515
_symmetry_Int_Tables_number   1
_chemical_formula_structural   Ho4NbCo4
_chemical_formula_sum   'Ho4 Nb1 Co4'
_cell_volume   175.13189821
_cell_formula_units_Z   1
loop_
 _symmetry_equiv_pos_site_id
 _symmetry_equiv_pos_as_xyz
  1  'x, y, z'
loop_
 _atom_site_type_symbol
 _atom_site_label
 _atom_site_symmetry_multiplicity
 _atom_site_fract_x
 _atom_site_fract_y
 _atom_site_fract_z
 _atom_site_occupancy
  Ho  Ho0  1  0.390151  0.390151  0.109046  1
  Ho  Ho1  1  0.739814  0.739814  0.333833  1
  Ho  Ho2  1  0.260186  0.260186  0.666167  1
  Ho  Ho3  1  0.609849  0.609849  0.890953  1
  Nb  Nb4  1  0.500000  0.500000  0.500000  1
  Co  Co5  1  0.087350  0.087350  0.119222  1
  Co  Co6  1  0.030923  0.030923  0.349598  1
  Co  Co7  1  0.969077  0.969077  0.650402  1
  Co  Co8  1  0.912650  0.912650  0.880777  1
