# generated using pymatgen
data_Lu4ZnCo2Ru5
_symmetry_space_group_name_H-M   'P 1'
_cell_length_a   5.23362500
_cell_length_b   5.18247129
_cell_length_c   8.75250400
_cell_angle_alpha   90.00000000
_cell_angle_beta   90.00000000
_cell_angle_gamma   119.97915985
_symmetry_Int_Tables_number   1
_chemical_formula_structural   Lu4ZnCo2Ru5
_chemical_formula_sum   'Lu4 Zn1 Co2 Ru5'
_cell_volume   205.63338219
_cell_formula_units_Z   1
loop_
 _symmetry_equiv_pos_site_id
 _symmetry_equiv_pos_as_xyz
  1  'x, y, z'
loop_
 _atom_site_type_symbol
 _atom_site_label
 _atom_site_symmetry_multiplicity
 _atom_site_fract_x
 _atom_site_fract_y
 _atom_site_fract_z
 _atom_site_occupancy
  Lu  Lu0  1  0.329913  0.663671  0.432367  1
  Lu  Lu1  1  0.660933  0.327551  0.561458  1
  Lu  Lu2  1  0.660933  0.327551  0.938542  1
  Lu  Lu3  1  0.329913  0.663671  0.067633  1
  Zn  Zn4  1  0.175314  0.345730  0.750000  1
  Co  Co5  1  0.181986  0.841605  0.750000  1
  Co  Co6  1  0.341076  0.173152  0.250000  1
  Ru  Ru7  1  0.834808  0.668664  0.250000  1
  Ru  Ru8  1  0.669555  0.840979  0.750000  1
  Ru  Ru9  1  0.993664  0.985180  0.999751  1
  Ru  Ru10  1  0.828240  0.177066  0.250000  1
  Ru  Ru11  1  0.993664  0.985180  0.500249  1
