# generated using pymatgen
data_VPb2ClO4
_symmetry_space_group_name_H-M   'P 1'
_cell_length_a   6.72357900
_cell_length_b   7.67613000
_cell_length_c   11.73811100
_cell_angle_alpha   90.00000000
_cell_angle_beta   90.00000000
_cell_angle_gamma   90.00000000
_symmetry_Int_Tables_number   1
_chemical_formula_structural   VPb2ClO4
_chemical_formula_sum   'V4 Pb8 Cl4 O16'
_cell_volume   605.81642704
_cell_formula_units_Z   4
loop_
 _symmetry_equiv_pos_site_id
 _symmetry_equiv_pos_as_xyz
  1  'x, y, z'
loop_
 _atom_site_type_symbol
 _atom_site_label
 _atom_site_symmetry_multiplicity
 _atom_site_fract_x
 _atom_site_fract_y
 _atom_site_fract_z
 _atom_site_occupancy
  V  V0  1  0.128080  0.250000  0.000000  1
  V  V1  1  0.128080  0.250000  0.500000  1
  V  V2  1  0.871920  0.750000  0.500000  1
  V  V3  1  0.871920  0.750000  0.000000  1
  Pb  Pb4  1  0.859978  0.528392  0.750000  1
  Pb  Pb5  1  0.376012  0.750000  0.500000  1
  Pb  Pb6  1  0.140022  0.471608  0.250000  1
  Pb  Pb7  1  0.376012  0.750000  0.000000  1
  Pb  Pb8  1  0.140022  0.028392  0.750000  1
  Pb  Pb9  1  0.859978  0.971608  0.250000  1
  Pb  Pb10  1  0.623988  0.250000  0.500000  1
  Pb  Pb11  1  0.623988  0.250000  0.000000  1
  Cl  Cl12  1  0.495325  0.192577  0.250000  1
  Cl  Cl13  1  0.504675  0.692577  0.250000  1
  Cl  Cl14  1  0.504675  0.807423  0.750000  1
  Cl  Cl15  1  0.495325  0.307423  0.750000  1
  O  O16  1  0.283992  0.073849  0.971212  1
  O  O17  1  0.283992  0.426151  0.028788  1
  O  O18  1  0.027138  0.775647  0.618821  1
  O  O19  1  0.972862  0.224353  0.118821  1
  O  O20  1  0.716008  0.926151  0.028788  1
  O  O21  1  0.027138  0.724353  0.118821  1
  O  O22  1  0.716008  0.573849  0.528788  1
  O  O23  1  0.972862  0.275647  0.881179  1
  O  O24  1  0.972862  0.275647  0.618821  1
  O  O25  1  0.716008  0.573849  0.971212  1
  O  O26  1  0.027138  0.775647  0.881179  1
  O  O27  1  0.027138  0.724353  0.381179  1
  O  O28  1  0.972862  0.224353  0.381179  1
  O  O29  1  0.283992  0.073849  0.528788  1
  O  O30  1  0.716008  0.926151  0.471212  1
  O  O31  1  0.283992  0.426151  0.471212  1
