# generated using pymatgen
data_Er7Tm3(InSb)4
_symmetry_space_group_name_H-M   'P 1'
_cell_length_a   8.73108915
_cell_length_b   8.73288373
_cell_length_c   8.03538200
_cell_angle_alpha   89.99913001
_cell_angle_beta   89.99783364
_cell_angle_gamma   125.16557522
_symmetry_Int_Tables_number   1
_chemical_formula_structural   Er7Tm3(InSb)4
_chemical_formula_sum   'Er7 Tm3 In4 Sb4'
_cell_volume   500.85919808
_cell_formula_units_Z   1
loop_
 _symmetry_equiv_pos_site_id
 _symmetry_equiv_pos_as_xyz
  1  'x, y, z'
loop_
 _atom_site_type_symbol
 _atom_site_label
 _atom_site_symmetry_multiplicity
 _atom_site_fract_x
 _atom_site_fract_y
 _atom_site_fract_z
 _atom_site_occupancy
  Er  Er0  1  0.968802  0.694440  0.665318  1
  Er  Er1  1  0.468801  0.194412  0.834746  1
  Er  Er2  1  0.805667  0.531167  0.165290  1
  Er  Er3  1  0.531188  0.805606  0.165272  1
  Er  Er4  1  0.194368  0.468795  0.834716  1
  Er  Er5  1  0.694403  0.968824  0.665278  1
  Er  Er6  1  0.305616  0.031186  0.334680  1
  Tm  Tm7  1  0.031166  0.305455  0.334805  1
  Tm  Tm8  1  0.000024  0.000068  0.000063  1
  Tm  Tm9  1  0.499905  0.499960  0.499963  1
  In  In10  1  0.369238  0.369353  0.130101  1
  In  In11  1  0.630630  0.630637  0.870003  1
  In  In12  1  0.130646  0.130728  0.629913  1
  In  In13  1  0.869379  0.869484  0.369958  1
  Sb  Sb14  1  0.797058  0.203110  0.000166  1
  Sb  Sb15  1  0.203061  0.796974  0.999974  1
  Sb  Sb16  1  0.703283  0.296967  0.499880  1
  Sb  Sb17  1  0.296766  0.702835  0.499874  1
