# generated using pymatgen
data_Tm12Fe4PtPb
_symmetry_space_group_name_H-M   'P 1'
_cell_length_a   8.22120607
_cell_length_b   8.22120654
_cell_length_c   8.22120700
_cell_angle_alpha   111.11669578
_cell_angle_beta   111.26012662
_cell_angle_gamma   106.08890833
_symmetry_Int_Tables_number   1
_chemical_formula_structural   Tm12Fe4PtPb
_chemical_formula_sum   'Tm12 Fe4 Pt1 Pb1'
_cell_volume   426.63461179
_cell_formula_units_Z   1
loop_
 _symmetry_equiv_pos_site_id
 _symmetry_equiv_pos_as_xyz
  1  'x, y, z'
loop_
 _atom_site_type_symbol
 _atom_site_label
 _atom_site_symmetry_multiplicity
 _atom_site_fract_x
 _atom_site_fract_y
 _atom_site_fract_z
 _atom_site_occupancy
  Tm  Tm0  1  0.284737  0.185735  0.470472  1
  Tm  Tm1  1  0.715263  0.814265  0.529528  1
  Tm  Tm2  1  0.284737  0.814265  0.099001  1
  Tm  Tm3  1  0.715263  0.185735  0.900999  1
  Tm  Tm4  1  0.615968  0.311909  0.304059  1
  Tm  Tm5  1  0.384032  0.688091  0.695941  1
  Tm  Tm6  1  0.007850  0.311909  0.695941  1
  Tm  Tm7  1  0.992150  0.688091  0.304059  1
  Tm  Tm8  1  0.217533  0.418482  0.200950  1
  Tm  Tm9  1  0.782467  0.581518  0.799050  1
  Tm  Tm10  1  0.217533  0.016585  0.799050  1
  Tm  Tm11  1  0.782467  0.983415  0.200950  1
  Fe  Fe12  1  0.000000  0.383585  0.383585  1
  Fe  Fe13  1  0.000000  0.616415  0.616415  1
  Fe  Fe14  1  0.391943  0.891943  0.500000  1
  Fe  Fe15  1  0.608057  0.108057  0.500000  1
  Pt  Pt16  1  0.000000  0.000000  0.000000  1
  Pb  Pb17  1  0.500000  0.500000  0.000000  1
