# generated using pymatgen
data_Th2MnRu4RhC5
_symmetry_space_group_name_H-M   'P 1'
_cell_length_a   9.04180900
_cell_length_b   9.04180900
_cell_length_c   4.20590300
_cell_angle_alpha   90.00000000
_cell_angle_beta   90.00000000
_cell_angle_gamma   90.00000000
_symmetry_Int_Tables_number   1
_chemical_formula_structural   Th2MnRu4RhC5
_chemical_formula_sum   'Th4 Mn2 Ru8 Rh2 C10'
_cell_volume   343.85069766
_cell_formula_units_Z   2
loop_
 _symmetry_equiv_pos_site_id
 _symmetry_equiv_pos_as_xyz
  1  'x, y, z'
loop_
 _atom_site_type_symbol
 _atom_site_label
 _atom_site_symmetry_multiplicity
 _atom_site_fract_x
 _atom_site_fract_y
 _atom_site_fract_z
 _atom_site_occupancy
  Th  Th0  1  0.319230  0.819230  0.500000  1
  Th  Th1  1  0.819230  0.680770  0.500000  1
  Th  Th2  1  0.180770  0.319230  0.500000  1
  Th  Th3  1  0.680770  0.180770  0.500000  1
  Mn  Mn4  1  0.500000  0.000000  0.000000  1
  Mn  Mn5  1  0.000000  0.500000  0.000000  1
  Ru  Ru6  1  0.716519  0.436742  0.000000  1
  Ru  Ru7  1  0.436742  0.283481  0.000000  1
  Ru  Ru8  1  0.783481  0.936742  0.000000  1
  Ru  Ru9  1  0.936742  0.216519  0.000000  1
  Ru  Ru10  1  0.063258  0.783481  0.000000  1
  Ru  Ru11  1  0.216519  0.063258  0.000000  1
  Ru  Ru12  1  0.563258  0.716519  0.000000  1
  Ru  Ru13  1  0.283481  0.563258  0.000000  1
  Rh  Rh14  1  0.000000  0.000000  0.500000  1
  Rh  Rh15  1  0.500000  0.500000  0.500000  1
  C  C16  1  0.500000  0.500000  0.000000  1
  C  C17  1  0.000000  0.000000  0.000000  1
  C  C18  1  0.885023  0.385023  0.672546  1
  C  C19  1  0.114977  0.614977  0.672546  1
  C  C20  1  0.885023  0.385023  0.327454  1
  C  C21  1  0.385023  0.114977  0.327454  1
  C  C22  1  0.614977  0.885023  0.327454  1
  C  C23  1  0.114977  0.614977  0.327454  1
  C  C24  1  0.614977  0.885023  0.672546  1
  C  C25  1  0.385023  0.114977  0.672546  1
