# generated using pymatgen
data_ErTmTh2(GaRh)4
_symmetry_space_group_name_H-M   'P 1'
_cell_length_a   4.36510900
_cell_length_b   6.86530697
_cell_length_c   7.87327565
_cell_angle_alpha   90.13757343
_cell_angle_beta   90.00000000
_cell_angle_gamma   90.00000000
_symmetry_Int_Tables_number   1
_chemical_formula_structural   ErTmTh2(GaRh)4
_chemical_formula_sum   'Er1 Tm1 Th2 Ga4 Rh4'
_cell_volume   235.94417409
_cell_formula_units_Z   1
loop_
 _symmetry_equiv_pos_site_id
 _symmetry_equiv_pos_as_xyz
  1  'x, y, z'
loop_
 _atom_site_type_symbol
 _atom_site_label
 _atom_site_symmetry_multiplicity
 _atom_site_fract_x
 _atom_site_fract_y
 _atom_site_fract_z
 _atom_site_occupancy
  Er  Er0  1  0.750000  0.532559  0.805275  1
  Tm  Tm1  1  0.750000  0.032785  0.694533  1
  Th  Th2  1  0.250000  0.969554  0.321352  1
  Th  Th3  1  0.250000  0.468934  0.179152  1
  Ga  Ga4  1  0.250000  0.350453  0.575899  1
  Ga  Ga5  1  0.250000  0.851369  0.924042  1
  Ga  Ga6  1  0.750000  0.648169  0.440766  1
  Ga  Ga7  1  0.750000  0.147541  0.058749  1
  Rh  Rh8  1  0.250000  0.238059  0.889948  1
  Rh  Rh9  1  0.250000  0.740229  0.609288  1
  Rh  Rh10  1  0.750000  0.760483  0.114415  1
  Rh  Rh11  1  0.750000  0.259866  0.386581  1
