# generated using pymatgen
data_Tm11(Lu3Sb4)3
_symmetry_space_group_name_H-M   'P 1'
_cell_length_a   8.03523907
_cell_length_b   9.13542107
_cell_length_c   11.67521714
_cell_angle_alpha   89.98781620
_cell_angle_beta   89.98745375
_cell_angle_gamma   90.00747917
_symmetry_Int_Tables_number   1
_chemical_formula_structural   Tm11(Lu3Sb4)3
_chemical_formula_sum   'Tm11 Lu9 Sb12'
_cell_volume   857.02267893
_cell_formula_units_Z   1
loop_
 _symmetry_equiv_pos_site_id
 _symmetry_equiv_pos_as_xyz
  1  'x, y, z'
loop_
 _atom_site_type_symbol
 _atom_site_label
 _atom_site_symmetry_multiplicity
 _atom_site_fract_x
 _atom_site_fract_y
 _atom_site_fract_z
 _atom_site_occupancy
  Tm  Tm0  1  0.691381  0.940137  0.566198  1
  Tm  Tm1  1  0.808628  0.559893  0.066174  1
  Tm  Tm2  1  0.308593  0.440117  0.433819  1
  Tm  Tm3  1  0.175288  0.750040  0.228816  1
  Tm  Tm4  1  0.675279  0.249947  0.271232  1
  Tm  Tm5  1  0.824664  0.250008  0.771255  1
  Tm  Tm6  1  0.324717  0.749977  0.728802  1
  Tm  Tm7  1  0.657421  0.750013  0.290932  1
  Tm  Tm8  1  0.157397  0.249905  0.209016  1
  Tm  Tm9  1  0.342582  0.249901  0.709189  1
  Tm  Tm10  1  0.842608  0.749944  0.790910  1
  Lu  Lu11  1  0.808785  0.939922  0.066254  1
  Lu  Lu12  1  0.308781  0.060087  0.433736  1
  Lu  Lu13  1  0.191213  0.439829  0.933741  1
  Lu  Lu14  1  0.691214  0.560052  0.566278  1
  Lu  Lu15  1  0.191330  0.060150  0.933778  1
  Lu  Lu16  1  0.524620  0.249951  0.995017  1
  Lu  Lu17  1  0.024820  0.749967  0.504948  1
  Lu  Lu18  1  0.475142  0.750079  0.004949  1
  Lu  Lu19  1  0.975192  0.249921  0.495062  1
  Sb  Sb20  1  0.936279  0.990738  0.325771  1
  Sb  Sb21  1  0.436273  0.009237  0.174187  1
  Sb  Sb22  1  0.063751  0.490697  0.674241  1
  Sb  Sb23  1  0.563699  0.509215  0.825796  1
  Sb  Sb24  1  0.063685  0.009158  0.674260  1
  Sb  Sb25  1  0.563534  0.990809  0.825857  1
  Sb  Sb26  1  0.936392  0.509159  0.325811  1
  Sb  Sb27  1  0.436366  0.490786  0.174150  1
  Sb  Sb28  1  0.903728  0.249489  0.023818  1
  Sb  Sb29  1  0.403528  0.750336  0.476106  1
  Sb  Sb30  1  0.096655  0.750192  0.976006  1
  Sb  Sb31  1  0.596456  0.250341  0.523894  1
