# generated using pymatgen
data_NdYIrRhO7
_symmetry_space_group_name_H-M   'P 1'
_cell_length_a   7.36453903
_cell_length_b   7.31602343
_cell_length_c   7.31628210
_cell_angle_alpha   59.70572638
_cell_angle_beta   59.77859492
_cell_angle_gamma   59.77712835
_symmetry_Int_Tables_number   1
_chemical_formula_structural   NdYIrRhO7
_chemical_formula_sum   'Nd2 Y2 Ir2 Rh2 O14'
_cell_volume   277.17946027
_cell_formula_units_Z   2
loop_
 _symmetry_equiv_pos_site_id
 _symmetry_equiv_pos_as_xyz
  1  'x, y, z'
loop_
 _atom_site_type_symbol
 _atom_site_label
 _atom_site_symmetry_multiplicity
 _atom_site_fract_x
 _atom_site_fract_y
 _atom_site_fract_z
 _atom_site_occupancy
  Nd  Nd0  1  0.625000  0.125000  0.125000  1
  Nd  Nd1  1  0.125000  0.125000  0.125000  1
  Y  Y2  1  0.125000  0.625000  0.125000  1
  Y  Y3  1  0.125000  0.125000  0.625000  1
  Ir  Ir4  1  0.125000  0.625000  0.625000  1
  Ir  Ir5  1  0.625000  0.625000  0.625000  1
  Rh  Rh6  1  0.625000  0.125000  0.625000  1
  Rh  Rh7  1  0.625000  0.625000  0.125000  1
  O  O8  1  0.718976  0.699678  0.293580  1
  O  O9  1  0.287753  0.293930  0.699512  1
  O  O10  1  0.718951  0.293601  0.699603  1
  O  O11  1  0.287672  0.699586  0.293911  1
  O  O12  1  0.294152  0.705696  0.705644  1
  O  O13  1  0.713199  0.286829  0.286839  1
  O  O14  1  0.531024  0.550322  0.956420  1
  O  O15  1  0.962247  0.956070  0.550488  1
  O  O16  1  0.531049  0.956399  0.550397  1
  O  O17  1  0.962328  0.550414  0.956089  1
  O  O18  1  0.955848  0.544304  0.544356  1
  O  O19  1  0.536801  0.963171  0.963161  1
  O  O20  1  0.242288  0.257699  0.257696  1
  O  O21  1  0.007712  0.992301  0.992304  1
