# generated using pymatgen
data_Y8Al(PdPt11)2
_symmetry_space_group_name_H-M   'P 1'
_cell_length_a   8.35759300
_cell_length_b   8.35759300
_cell_length_c   8.40947700
_cell_angle_alpha   90.00000000
_cell_angle_beta   90.00000000
_cell_angle_gamma   90.00000000
_symmetry_Int_Tables_number   1
_chemical_formula_structural   Y8Al(PdPt11)2
_chemical_formula_sum   'Y8 Al1 Pd2 Pt22'
_cell_volume   587.39659272
_cell_formula_units_Z   1
loop_
 _symmetry_equiv_pos_site_id
 _symmetry_equiv_pos_as_xyz
  1  'x, y, z'
loop_
 _atom_site_type_symbol
 _atom_site_label
 _atom_site_symmetry_multiplicity
 _atom_site_fract_x
 _atom_site_fract_y
 _atom_site_fract_z
 _atom_site_occupancy
  Y  Y0  1  0.250952  0.250952  0.250844  1
  Y  Y1  1  0.749048  0.749048  0.749156  1
  Y  Y2  1  0.749048  0.749048  0.250844  1
  Y  Y3  1  0.749048  0.250952  0.749156  1
  Y  Y4  1  0.250952  0.250952  0.749156  1
  Y  Y5  1  0.250952  0.749048  0.250844  1
  Y  Y6  1  0.250952  0.749048  0.749156  1
  Y  Y7  1  0.749048  0.250952  0.250844  1
  Al  Al8  1  0.000000  0.000000  0.000000  1
  Pd  Pd9  1  0.500000  0.500000  0.254025  1
  Pd  Pd10  1  0.500000  0.500000  0.745975  1
  Pt  Pt11  1  0.262581  0.500000  0.000000  1
  Pt  Pt12  1  0.737419  0.500000  0.000000  1
  Pt  Pt13  1  0.000000  0.262780  0.500000  1
  Pt  Pt14  1  0.500000  0.262581  0.000000  1
  Pt  Pt15  1  0.000000  0.737220  0.500000  1
  Pt  Pt16  1  0.500000  0.737419  0.000000  1
  Pt  Pt17  1  0.500000  0.000000  0.262227  1
  Pt  Pt18  1  0.262780  0.000000  0.500000  1
  Pt  Pt19  1  0.500000  0.000000  0.737773  1
  Pt  Pt20  1  0.737220  0.000000  0.500000  1
  Pt  Pt21  1  0.000000  0.500000  0.262227  1
  Pt  Pt22  1  0.000000  0.500000  0.737773  1
  Pt  Pt23  1  0.254248  0.500000  0.500000  1
  Pt  Pt24  1  0.745752  0.500000  0.500000  1
  Pt  Pt25  1  0.500000  0.254248  0.500000  1
  Pt  Pt26  1  0.500000  0.745752  0.500000  1
  Pt  Pt27  1  0.295771  0.000000  0.000000  1
  Pt  Pt28  1  0.704229  0.000000  0.000000  1
  Pt  Pt29  1  0.000000  0.295771  0.000000  1
  Pt  Pt30  1  0.000000  0.704229  0.000000  1
  Pt  Pt31  1  0.000000  0.000000  0.294170  1
  Pt  Pt32  1  0.000000  0.000000  0.705830  1
