# generated using pymatgen
data_Tb10Y2Co5Sn
_symmetry_space_group_name_H-M   'P 1'
_cell_length_a   8.32700021
_cell_length_b   8.32700014
_cell_length_c   8.32699994
_cell_angle_alpha   107.07553490
_cell_angle_beta   110.64253273
_cell_angle_gamma   110.72184034
_symmetry_Int_Tables_number   1
_chemical_formula_structural   Tb10Y2Co5Sn
_chemical_formula_sum   'Tb10 Y2 Co5 Sn1'
_cell_volume   443.89142761
_cell_formula_units_Z   1
loop_
 _symmetry_equiv_pos_site_id
 _symmetry_equiv_pos_as_xyz
  1  'x, y, z'
loop_
 _atom_site_type_symbol
 _atom_site_label
 _atom_site_symmetry_multiplicity
 _atom_site_fract_x
 _atom_site_fract_y
 _atom_site_fract_z
 _atom_site_occupancy
  Tb  Tb0  1  0.892910  0.707014  0.185896  1
  Tb  Tb1  1  0.521119  0.707014  0.814104  1
  Tb  Tb2  1  0.306590  0.620372  0.313782  1
  Tb  Tb3  1  0.306590  0.992809  0.686218  1
  Tb  Tb4  1  0.693439  0.380047  0.686607  1
  Tb  Tb5  1  0.693439  0.006831  0.313393  1
  Tb  Tb6  1  0.192419  0.206936  0.399471  1
  Tb  Tb7  1  0.807465  0.792948  0.600529  1
  Tb  Tb8  1  0.192419  0.792948  0.985482  1
  Tb  Tb9  1  0.807465  0.206936  0.014518  1
  Y  Y10  1  0.479717  0.293054  0.186663  1
  Y  Y11  1  0.106392  0.293054  0.813337  1
  Co  Co12  1  0.500800  0.612586  0.111786  1
  Co  Co13  1  0.500800  0.389014  0.888214  1
  Co  Co14  1  0.378492  0.000118  0.378373  1
  Co  Co15  1  0.621746  0.000118  0.621627  1
  Co  Co16  1  0.998659  0.998659  0.000000  1
  Sn  Sn17  1  0.999541  0.499541  0.500000  1
