# generated using pymatgen
data_Dy3Ho3(Al3Os)8
_symmetry_space_group_name_H-M   'P 1'
_cell_length_a   8.82666907
_cell_length_b   8.82310665
_cell_length_c   9.55447100
_cell_angle_alpha   90.00000000
_cell_angle_beta   90.00000000
_cell_angle_gamma   120.02794003
_symmetry_Int_Tables_number   1
_chemical_formula_structural   Dy3Ho3(Al3Os)8
_chemical_formula_sum   'Dy3 Ho3 Al24 Os8'
_cell_volume   644.21867497
_cell_formula_units_Z   1
loop_
 _symmetry_equiv_pos_site_id
 _symmetry_equiv_pos_as_xyz
  1  'x, y, z'
loop_
 _atom_site_type_symbol
 _atom_site_label
 _atom_site_symmetry_multiplicity
 _atom_site_fract_x
 _atom_site_fract_y
 _atom_site_fract_z
 _atom_site_occupancy
  Dy  Dy0  1  0.193301  0.386664  0.250000  1
  Dy  Dy1  1  0.806741  0.613473  0.750000  1
  Dy  Dy2  1  0.613334  0.806688  0.250000  1
  Ho  Ho3  1  0.386778  0.193370  0.750000  1
  Ho  Ho4  1  0.193452  0.806522  0.250000  1
  Ho  Ho5  1  0.806589  0.193388  0.750000  1
  Al  Al6  1  0.333257  0.666706  0.015655  1
  Al  Al7  1  0.666622  0.333233  0.984348  1
  Al  Al8  1  0.666622  0.333233  0.515652  1
  Al  Al9  1  0.333257  0.666706  0.484345  1
  Al  Al10  1  0.162647  0.325308  0.576202  1
  Al  Al11  1  0.837404  0.674634  0.423843  1
  Al  Al12  1  0.674689  0.837441  0.576200  1
  Al  Al13  1  0.837404  0.674634  0.076157  1
  Al  Al14  1  0.325352  0.162582  0.423933  1
  Al  Al15  1  0.162647  0.325308  0.923798  1
  Al  Al16  1  0.162750  0.837432  0.576102  1
  Al  Al17  1  0.325352  0.162582  0.076067  1
  Al  Al18  1  0.837306  0.162679  0.423943  1
  Al  Al19  1  0.674689  0.837441  0.923800  1
  Al  Al20  1  0.837306  0.162679  0.076057  1
  Al  Al21  1  0.162750  0.837432  0.923898  1
  Al  Al22  1  0.560073  0.120358  0.250000  1
  Al  Al23  1  0.439915  0.879851  0.750000  1
  Al  Al24  1  0.879666  0.439928  0.250000  1
  Al  Al25  1  0.120336  0.560071  0.750000  1
  Al  Al26  1  0.560256  0.439720  0.250000  1
  Al  Al27  1  0.439727  0.560058  0.750000  1
  Al  Al28  1  0.000094  0.999908  0.250000  1
  Al  Al29  1  0.000081  0.000180  0.750000  1
  Os  Os30  1  0.499956  0.000118  0.999857  1
  Os  Os31  1  0.999900  0.499947  0.999927  1
  Os  Os32  1  0.499956  0.000118  0.500143  1
  Os  Os33  1  0.499952  0.499831  0.999856  1
  Os  Os34  1  0.999900  0.499947  0.500073  1
  Os  Os35  1  0.499952  0.499831  0.500144  1
  Os  Os36  1  0.999995  0.000000  0.999926  1
  Os  Os37  1  0.999995  0.000000  0.500074  1
