# generated using pymatgen
data_YbEr4(PtPb2)2
_symmetry_space_group_name_H-M   'P 1'
_cell_length_a   3.72859700
_cell_length_b   8.25139500
_cell_length_c   18.25891200
_cell_angle_alpha   90.00000000
_cell_angle_beta   90.00000000
_cell_angle_gamma   90.00000000
_symmetry_Int_Tables_number   1
_chemical_formula_structural   YbEr4(PtPb2)2
_chemical_formula_sum   'Yb2 Er8 Pt4 Pb8'
_cell_volume   561.75599895
_cell_formula_units_Z   2
loop_
 _symmetry_equiv_pos_site_id
 _symmetry_equiv_pos_as_xyz
  1  'x, y, z'
loop_
 _atom_site_type_symbol
 _atom_site_label
 _atom_site_symmetry_multiplicity
 _atom_site_fract_x
 _atom_site_fract_y
 _atom_site_fract_z
 _atom_site_occupancy
  Yb  Yb0  1  0.000000  0.000000  0.000000  1
  Yb  Yb1  1  0.000000  0.500000  0.500000  1
  Er  Er2  1  0.000000  0.116652  0.412933  1
  Er  Er3  1  0.000000  0.883348  0.587067  1
  Er  Er4  1  0.000000  0.383348  0.912933  1
  Er  Er5  1  0.000000  0.616652  0.087067  1
  Er  Er6  1  0.000000  0.242475  0.220218  1
  Er  Er7  1  0.000000  0.757525  0.779782  1
  Er  Er8  1  0.000000  0.257525  0.720218  1
  Er  Er9  1  0.000000  0.742475  0.279782  1
  Pt  Pt10  1  0.500000  0.028508  0.303375  1
  Pt  Pt11  1  0.500000  0.971492  0.696625  1
  Pt  Pt12  1  0.500000  0.471492  0.803375  1
  Pt  Pt13  1  0.500000  0.528508  0.196625  1
  Pb  Pb14  1  0.500000  0.421341  0.351612  1
  Pb  Pb15  1  0.500000  0.578659  0.648388  1
  Pb  Pb16  1  0.500000  0.078659  0.851612  1
  Pb  Pb17  1  0.500000  0.921341  0.148388  1
  Pb  Pb18  1  0.500000  0.293364  0.064654  1
  Pb  Pb19  1  0.500000  0.706636  0.935346  1
  Pb  Pb20  1  0.500000  0.206636  0.564654  1
  Pb  Pb21  1  0.500000  0.793364  0.435346  1
