# generated using pymatgen
data_Sm8Ho12Si15Sb
_symmetry_space_group_name_H-M   'P 1'
_cell_length_a   7.58568444
_cell_length_b   7.76877675
_cell_length_c   14.79691300
_cell_angle_alpha   90.12681555
_cell_angle_beta   86.71736722
_cell_angle_gamma   90.08252660
_symmetry_Int_Tables_number   1
_chemical_formula_structural   Sm8Ho12Si15Sb
_chemical_formula_sum   'Sm8 Ho12 Si15 Sb1'
_cell_volume   870.57046182
_cell_formula_units_Z   1
loop_
 _symmetry_equiv_pos_site_id
 _symmetry_equiv_pos_as_xyz
  1  'x, y, z'
loop_
 _atom_site_type_symbol
 _atom_site_label
 _atom_site_symmetry_multiplicity
 _atom_site_fract_x
 _atom_site_fract_y
 _atom_site_fract_z
 _atom_site_occupancy
  Sm  Sm0  1  0.027247  0.184614  0.100609  1
  Sm  Sm1  1  0.972553  0.816632  0.899294  1
  Sm  Sm2  1  0.472939  0.683651  0.899319  1
  Sm  Sm3  1  0.996685  0.822759  0.599843  1
  Sm  Sm4  1  0.527745  0.316409  0.101861  1
  Sm  Sm5  1  0.000253  0.177682  0.399974  1
  Sm  Sm6  1  0.509785  0.315609  0.398081  1
  Sm  Sm7  1  0.507034  0.685211  0.601976  1
  Ho  Ho8  1  0.164247  0.504783  0.751327  1
  Ho  Ho9  1  0.834603  0.495262  0.254225  1
  Ho  Ho10  1  0.334725  0.007703  0.253470  1
  Ho  Ho11  1  0.668138  0.992582  0.748257  1
  Ho  Ho12  1  0.353746  0.153863  0.623155  1
  Ho  Ho13  1  0.650730  0.833240  0.379155  1
  Ho  Ho14  1  0.147096  0.678015  0.372648  1
  Ho  Ho15  1  0.676815  0.823382  0.121777  1
  Ho  Ho16  1  0.837229  0.330313  0.622448  1
  Ho  Ho17  1  0.322495  0.176857  0.878171  1
  Ho  Ho18  1  0.822684  0.322224  0.877969  1
  Ho  Ho19  1  0.176701  0.677889  0.122456  1
  Si  Si20  1  0.040053  0.112748  0.752390  1
  Si  Si21  1  0.959212  0.890773  0.245758  1
  Si  Si22  1  0.460654  0.612806  0.246838  1
  Si  Si23  1  0.537293  0.388016  0.752906  1
  Si  Si24  1  0.282164  0.871075  0.752998  1
  Si  Si25  1  0.719679  0.125274  0.247241  1
  Si  Si26  1  0.218764  0.376433  0.247757  1
  Si  Si27  1  0.782740  0.625002  0.752442  1
  Si  Si28  1  0.801899  0.537896  0.456513  1
  Si  Si29  1  0.305343  0.964556  0.455973  1
  Si  Si30  1  0.856976  0.529600  0.041854  1
  Si  Si31  1  0.695743  0.034553  0.543745  1
  Si  Si32  1  0.141243  0.471479  0.958440  1
  Si  Si33  1  0.641438  0.029389  0.958205  1
  Si  Si34  1  0.357128  0.972038  0.042388  1
  Sb  Sb35  1  0.196218  0.459683  0.538541  1
