# generated using pymatgen
data_Nd12FeRhI17
_symmetry_space_group_name_H-M   'P 1'
_cell_length_a   10.07288501
_cell_length_b   12.06129733
_cell_length_c   12.11686124
_cell_angle_alpha   93.54749927
_cell_angle_beta   104.73694330
_cell_angle_gamma   114.35804176
_symmetry_Int_Tables_number   1
_chemical_formula_structural   Nd12FeRhI17
_chemical_formula_sum   'Nd12 Fe1 Rh1 I17'
_cell_volume   1273.49466118
_cell_formula_units_Z   1
loop_
 _symmetry_equiv_pos_site_id
 _symmetry_equiv_pos_as_xyz
  1  'x, y, z'
loop_
 _atom_site_type_symbol
 _atom_site_label
 _atom_site_symmetry_multiplicity
 _atom_site_fract_x
 _atom_site_fract_y
 _atom_site_fract_z
 _atom_site_occupancy
  Nd  Nd0  1  0.051723  0.503847  0.319052  1
  Nd  Nd1  1  0.988075  0.811399  0.580235  1
  Nd  Nd2  1  0.650611  0.241132  0.282617  1
  Nd  Nd3  1  0.010213  0.192920  0.412807  1
  Nd  Nd4  1  0.224745  0.669337  0.990632  1
  Nd  Nd5  1  0.260026  0.988272  0.892468  1
  Nd  Nd6  1  0.357488  0.759723  0.714866  1
  Nd  Nd7  1  0.941685  0.487402  0.676794  1
  Nd  Nd8  1  0.746756  0.021495  0.111908  1
  Nd  Nd9  1  0.145262  0.286145  0.151357  1
  Nd  Nd10  1  0.778930  0.327576  0.016110  1
  Nd  Nd11  1  0.845968  0.712097  0.850412  1
  Fe  Fe12  1  0.896082  0.261820  0.214360  1
  Rh  Rh13  1  0.103822  0.738287  0.785256  1
  I  I14  1  0.786639  0.528420  0.419724  1
  I  I15  1  0.645277  0.419769  0.762101  1
  I  I16  1  0.844280  0.897143  0.327303  1
  I  I17  1  0.324800  0.213394  0.367303  1
  I  I18  1  0.155663  0.103151  0.674385  1
  I  I19  1  0.586182  0.051946  0.845648  1
  I  I20  1  0.758637  0.187293  0.537946  1
  I  I21  1  0.550106  0.710341  0.953256  1
  I  I22  1  0.354783  0.580067  0.238275  1
  I  I23  1  0.213035  0.471881  0.580993  1
  I  I24  1  0.054234  0.368749  0.897995  1
  I  I25  1  0.450210  0.288861  0.046132  1
  I  I26  1  0.999441  0.999155  0.999493  1
  I  I27  1  0.241361  0.812433  0.462303  1
  I  I28  1  0.414019  0.947402  0.154178  1
  I  I29  1  0.673380  0.787053  0.632157  1
  I  I30  1  0.946569  0.631490  0.101935  1
