# generated using pymatgen
data_Ho5Er4Mg(BiAu2)2
_symmetry_space_group_name_H-M   'P 1'
_cell_length_a   8.70327041
_cell_length_b   8.70370104
_cell_length_c   8.70242045
_cell_angle_alpha   125.64890254
_cell_angle_beta   125.64790216
_cell_angle_gamma   80.46798298
_symmetry_Int_Tables_number   1
_chemical_formula_structural   Ho5Er4Mg(BiAu2)2
_chemical_formula_sum   'Ho5 Er4 Mg1 Bi2 Au4'
_cell_volume   419.90426221
_cell_formula_units_Z   1
loop_
 _symmetry_equiv_pos_site_id
 _symmetry_equiv_pos_as_xyz
  1  'x, y, z'
loop_
 _atom_site_type_symbol
 _atom_site_label
 _atom_site_symmetry_multiplicity
 _atom_site_fract_x
 _atom_site_fract_y
 _atom_site_fract_z
 _atom_site_occupancy
  Ho  Ho0  1  0.196425  0.008171  0.485193  1
  Ho  Ho1  1  0.991830  0.477004  0.188029  1
  Ho  Ho2  1  0.289040  0.803753  0.811987  1
  Ho  Ho3  1  0.477123  0.289061  0.485239  1
  Ho  Ho4  1  0.803724  0.991891  0.514790  1
  Er  Er5  1  0.499954  0.499995  0.000149  1
  Er  Er6  1  0.008247  0.523042  0.811617  1
  Er  Er7  1  0.711343  0.196631  0.188312  1
  Er  Er8  1  0.523185  0.711370  0.514815  1
  Mg  Mg9  1  0.999923  0.999945  0.999922  1
  Bi  Bi10  1  0.745873  0.745887  0.999853  1
  Bi  Bi11  1  0.254167  0.254183  0.000062  1
  Au  Au12  1  0.634882  0.141388  0.776703  1
  Au  Au13  1  0.364900  0.858021  0.223303  1
  Au  Au14  1  0.141308  0.365007  0.506719  1
  Au  Au15  1  0.858077  0.634652  0.493308  1
