# generated using pymatgen
data_Nd2ErGaSi
_symmetry_space_group_name_H-M   'P 1'
_cell_length_a   7.71189400
_cell_length_b   7.68164700
_cell_length_c   4.42572400
_cell_angle_alpha   90.00000000
_cell_angle_beta   90.00000000
_cell_angle_gamma   90.00000000
_symmetry_Int_Tables_number   1
_chemical_formula_structural   Nd2ErGaSi
_chemical_formula_sum   'Nd4 Er2 Ga2 Si2'
_cell_volume   262.18009958
_cell_formula_units_Z   2
loop_
 _symmetry_equiv_pos_site_id
 _symmetry_equiv_pos_as_xyz
  1  'x, y, z'
loop_
 _atom_site_type_symbol
 _atom_site_label
 _atom_site_symmetry_multiplicity
 _atom_site_fract_x
 _atom_site_fract_y
 _atom_site_fract_z
 _atom_site_occupancy
  Nd  Nd0  1  0.673843  0.175914  0.500000  1
  Nd  Nd1  1  0.826157  0.675914  0.500000  1
  Nd  Nd2  1  0.178364  0.324746  0.500000  1
  Nd  Nd3  1  0.321636  0.824746  0.500000  1
  Er  Er4  1  0.494750  0.495404  0.000000  1
  Er  Er5  1  0.005250  0.995404  0.000000  1
  Ga  Ga6  1  0.616553  0.884078  0.000000  1
  Ga  Ga7  1  0.883447  0.384078  0.000000  1
  Si  Si8  1  0.119662  0.619857  0.000000  1
  Si  Si9  1  0.380338  0.119857  0.000000  1
