# generated using pymatgen
data_Tb3Tm3Bi2Os
_symmetry_space_group_name_H-M   'P 1'
_cell_length_a   8.27395700
_cell_length_b   8.27395643
_cell_length_c   4.25342900
_cell_angle_alpha   90.00000000
_cell_angle_beta   90.00000000
_cell_angle_gamma   120.00000629
_symmetry_Int_Tables_number   1
_chemical_formula_structural   Tb3Tm3Bi2Os
_chemical_formula_sum   'Tb3 Tm3 Bi2 Os1'
_cell_volume   252.17166203
_cell_formula_units_Z   1
loop_
 _symmetry_equiv_pos_site_id
 _symmetry_equiv_pos_as_xyz
  1  'x, y, z'
loop_
 _atom_site_type_symbol
 _atom_site_label
 _atom_site_symmetry_multiplicity
 _atom_site_fract_x
 _atom_site_fract_y
 _atom_site_fract_z
 _atom_site_occupancy
  Tb  Tb0  1  0.000000  0.612689  0.500000  1
  Tb  Tb1  1  0.387311  0.387311  0.500000  1
  Tb  Tb2  1  0.612689  0.000000  0.500000  1
  Tm  Tm3  1  0.230173  0.000000  0.000000  1
  Tm  Tm4  1  0.769827  0.769827  0.000000  1
  Tm  Tm5  1  0.000000  0.230173  0.000000  1
  Bi  Bi6  1  0.333333  0.666667  0.000000  1
  Bi  Bi7  1  0.666667  0.333333  0.000000  1
  Os  Os8  1  0.000000  0.000000  0.500000  1
