# generated using pymatgen
data_AcAl5Pt2
_symmetry_space_group_name_H-M   'P 1'
_cell_length_a   6.60707228
_cell_length_b   6.60707211
_cell_length_c   6.60707200
_cell_angle_alpha   142.83384013
_cell_angle_beta   113.39458751
_cell_angle_gamma   78.81672223
_symmetry_Int_Tables_number   1
_chemical_formula_structural   AcAl5Pt2
_chemical_formula_sum   'Ac1 Al5 Pt2'
_cell_volume   155.96978586
_cell_formula_units_Z   1
loop_
 _symmetry_equiv_pos_site_id
 _symmetry_equiv_pos_as_xyz
  1  'x, y, z'
loop_
 _atom_site_type_symbol
 _atom_site_label
 _atom_site_symmetry_multiplicity
 _atom_site_fract_x
 _atom_site_fract_y
 _atom_site_fract_z
 _atom_site_occupancy
  Ac  Ac0  1  0.000000  0.000000  0.000000  1
  Al  Al1  1  0.533587  0.345115  0.188472  1
  Al  Al2  1  0.843357  0.654885  0.188472  1
  Al  Al3  1  0.500000  0.000000  0.500000  1
  Al  Al4  1  0.156644  0.345115  0.811528  1
  Al  Al5  1  0.466413  0.654883  0.811528  1
  Pt  Pt6  1  0.734735  0.234734  0.500000  1
  Pt  Pt7  1  0.265265  0.765264  0.499999  1
