# generated using pymatgen
data_CeHo9(Sn2Ru3)2
_symmetry_space_group_name_H-M   'P 1'
_cell_length_a   8.47846362
_cell_length_b   8.47846262
_cell_length_c   8.47846400
_cell_angle_alpha   109.40265993
_cell_angle_beta   109.40266474
_cell_angle_gamma   109.40267596
_symmetry_Int_Tables_number   1
_chemical_formula_structural   CeHo9(Sn2Ru3)2
_chemical_formula_sum   'Ce1 Ho9 Sn4 Ru6'
_cell_volume   470.35631865
_cell_formula_units_Z   1
loop_
 _symmetry_equiv_pos_site_id
 _symmetry_equiv_pos_as_xyz
  1  'x, y, z'
loop_
 _atom_site_type_symbol
 _atom_site_label
 _atom_site_symmetry_multiplicity
 _atom_site_fract_x
 _atom_site_fract_y
 _atom_site_fract_z
 _atom_site_occupancy
  Ce  Ce0  1  0.590519  0.590519  0.590519  1
  Ho  Ho1  1  0.472502  0.147736  0.214192  1
  Ho  Ho2  1  0.147736  0.214192  0.472502  1
  Ho  Ho3  1  0.214192  0.472502  0.147736  1
  Ho  Ho4  1  0.410727  0.694725  0.910918  1
  Ho  Ho5  1  0.694725  0.910918  0.410727  1
  Ho  Ho6  1  0.910918  0.410727  0.694725  1
  Ho  Ho7  1  0.659299  0.093615  0.845137  1
  Ho  Ho8  1  0.093615  0.845137  0.659299  1
  Ho  Ho9  1  0.845137  0.659299  0.093615  1
  Sn  Sn10  1  0.412451  0.310361  0.914279  1
  Sn  Sn11  1  0.310361  0.914279  0.412451  1
  Sn  Sn12  1  0.914279  0.412451  0.310361  1
  Sn  Sn13  1  0.999942  0.999942  0.999942  1
  Ru  Ru14  1  0.022097  0.159942  0.771699  1
  Ru  Ru15  1  0.159942  0.771699  0.022097  1
  Ru  Ru16  1  0.771699  0.022097  0.159942  1
  Ru  Ru17  1  0.658730  0.548221  0.312908  1
  Ru  Ru18  1  0.548221  0.312908  0.658730  1
  Ru  Ru19  1  0.312908  0.658730  0.548221  1
