# generated using pymatgen
data_EuSc2(CO3)4
_symmetry_space_group_name_H-M   'P 1'
_cell_length_a   6.44104050
_cell_length_b   10.07254716
_cell_length_c   8.27462400
_cell_angle_alpha   89.62926744
_cell_angle_beta   108.83216443
_cell_angle_gamma   89.95346709
_symmetry_Int_Tables_number   1
_chemical_formula_structural   EuSc2(CO3)4
_chemical_formula_sum   'Eu2 Sc4 C8 O24'
_cell_volume   508.08749124
_cell_formula_units_Z   2
loop_
 _symmetry_equiv_pos_site_id
 _symmetry_equiv_pos_as_xyz
  1  'x, y, z'
loop_
 _atom_site_type_symbol
 _atom_site_label
 _atom_site_symmetry_multiplicity
 _atom_site_fract_x
 _atom_site_fract_y
 _atom_site_fract_z
 _atom_site_occupancy
  Eu  Eu0  1  0.499924  0.250073  0.500019  1
  Eu  Eu1  1  0.500069  0.749915  0.500013  1
  Sc  Sc2  1  0.499966  0.750018  0.000032  1
  Sc  Sc3  1  0.500041  0.249977  0.999982  1
  Sc  Sc4  1  0.999773  0.999930  0.500207  1
  Sc  Sc5  1  0.000214  0.500065  0.499780  1
  C  C6  1  0.023411  0.249137  0.728435  1
  C  C7  1  0.023546  0.748893  0.728557  1
  C  C8  1  0.976794  0.250864  0.271555  1
  C  C9  1  0.976239  0.751112  0.271431  1
  C  C10  1  0.521094  0.998894  0.236656  1
  C  C11  1  0.521432  0.498940  0.236310  1
  C  C12  1  0.478987  0.501158  0.763418  1
  C  C13  1  0.478508  0.001009  0.763627  1
  O  O14  1  0.348799  0.459001  0.614150  1
  O  O15  1  0.348108  0.958443  0.614667  1
  O  O16  1  0.651211  0.041116  0.385911  1
  O  O17  1  0.651890  0.541446  0.385293  1
  O  O18  1  0.579197  0.417489  0.878018  1
  O  O19  1  0.579198  0.917681  0.878519  1
  O  O20  1  0.420946  0.082511  0.121965  1
  O  O21  1  0.420701  0.582313  0.121511  1
  O  O22  1  0.014763  0.375350  0.305378  1
  O  O23  1  0.013077  0.875666  0.305081  1
  O  O24  1  0.985676  0.124627  0.694730  1
  O  O25  1  0.986417  0.624369  0.694766  1
  O  O26  1  0.494687  0.371124  0.216162  1
  O  O27  1  0.494086  0.871128  0.216120  1
  O  O28  1  0.505254  0.128831  0.783730  1
  O  O29  1  0.505977  0.628915  0.784007  1
  O  O30  1  0.896613  0.335818  0.620216  1
  O  O31  1  0.896403  0.835493  0.620401  1
  O  O32  1  0.103457  0.164101  0.379704  1
  O  O33  1  0.103502  0.664613  0.379684  1
  O  O34  1  0.173896  0.289205  0.860546  1
  O  O35  1  0.173801  0.789118  0.860701  1
  O  O36  1  0.826251  0.210921  0.139411  1
  O  O37  1  0.826084  0.710735  0.139309  1
