# generated using pymatgen
data_K4Zr6SiI18
_symmetry_space_group_name_H-M   'P 1'
_cell_length_a   11.30132548
_cell_length_b   11.47442313
_cell_length_c   11.58634546
_cell_angle_alpha   118.60997342
_cell_angle_beta   100.03066763
_cell_angle_gamma   103.93690454
_symmetry_Int_Tables_number   1
_chemical_formula_structural   K4Zr6SiI18
_chemical_formula_sum   'K4 Zr6 Si1 I18'
_cell_volume   1204.02834211
_cell_formula_units_Z   1
loop_
 _symmetry_equiv_pos_site_id
 _symmetry_equiv_pos_as_xyz
  1  'x, y, z'
loop_
 _atom_site_type_symbol
 _atom_site_label
 _atom_site_symmetry_multiplicity
 _atom_site_fract_x
 _atom_site_fract_y
 _atom_site_fract_z
 _atom_site_occupancy
  K  K0  1  0.185541  0.724190  0.564003  1
  K  K1  1  0.848192  0.961754  0.773177  1
  K  K2  1  0.151808  0.038246  0.226823  1
  K  K3  1  0.814459  0.275810  0.435997  1
  Zr  Zr4  1  0.351422  0.444652  0.771445  1
  Zr  Zr5  1  0.362855  0.625529  0.132118  1
  Zr  Zr6  1  0.644334  0.737541  0.044665  1
  Zr  Zr7  1  0.648578  0.555348  0.228555  1
  Zr  Zr8  1  0.355666  0.262459  0.955335  1
  Zr  Zr9  1  0.637145  0.374471  0.867882  1
  Si  Si10  1  0.500000  0.500000  0.000000  1
  I  I11  1  0.822155  0.423005  0.110207  1
  I  I12  1  0.514303  0.705723  0.410392  1
  I  I13  1  0.176725  0.974994  0.899404  1
  I  I14  1  0.177845  0.576995  0.889793  1
  I  I15  1  0.829654  0.834132  0.311832  1
  I  I16  1  0.503515  0.294497  0.210309  1
  I  I17  1  0.799052  0.223243  0.710332  1
  I  I18  1  0.170346  0.165868  0.688168  1
  I  I19  1  0.507798  0.911783  0.198352  1
  I  I20  1  0.818824  0.628295  0.902967  1
  I  I21  1  0.200948  0.776757  0.289668  1
  I  I22  1  0.166090  0.378338  0.495953  1
  I  I23  1  0.496485  0.705503  0.789691  1
  I  I24  1  0.823275  0.025006  0.100596  1
  I  I25  1  0.485697  0.294277  0.589608  1
  I  I26  1  0.181176  0.371705  0.097033  1
  I  I27  1  0.833910  0.621662  0.504047  1
  I  I28  1  0.492202  0.088217  0.801648  1
