# generated using pymatgen
data_LiPr6AuBr12
_symmetry_space_group_name_H-M   'P 1'
_cell_length_a   9.67256687
_cell_length_b   9.67491456
_cell_length_c   9.67125200
_cell_angle_alpha   108.02726943
_cell_angle_beta   108.04839149
_cell_angle_gamma   108.10161681
_symmetry_Int_Tables_number   1
_chemical_formula_structural   LiPr6AuBr12
_chemical_formula_sum   'Li1 Pr6 Au1 Br12'
_cell_volume   730.86368164
_cell_formula_units_Z   1
loop_
 _symmetry_equiv_pos_site_id
 _symmetry_equiv_pos_as_xyz
  1  'x, y, z'
loop_
 _atom_site_type_symbol
 _atom_site_label
 _atom_site_symmetry_multiplicity
 _atom_site_fract_x
 _atom_site_fract_y
 _atom_site_fract_z
 _atom_site_occupancy
  Li  Li0  1  0.500000  0.500000  0.500000  1
  Pr  Pr1  1  0.123111  0.334095  0.039106  1
  Pr  Pr2  1  0.334039  0.039164  0.122993  1
  Pr  Pr3  1  0.039184  0.122921  0.334108  1
  Pr  Pr4  1  0.960816  0.877080  0.665892  1
  Pr  Pr5  1  0.665961  0.960837  0.877007  1
  Pr  Pr6  1  0.876889  0.665905  0.960894  1
  Au  Au7  1  0.000000  0.000000  0.000000  1
  Br  Br8  1  0.214850  0.688358  0.070646  1
  Br  Br9  1  0.465722  0.386007  0.180291  1
  Br  Br10  1  0.688234  0.070517  0.214798  1
  Br  Br11  1  0.929330  0.785055  0.311661  1
  Br  Br12  1  0.180465  0.465427  0.386005  1
  Br  Br13  1  0.386164  0.180235  0.465557  1
  Br  Br14  1  0.613836  0.819765  0.534444  1
  Br  Br15  1  0.819535  0.534573  0.613995  1
  Br  Br16  1  0.070670  0.214945  0.688340  1
  Br  Br17  1  0.311766  0.929483  0.785202  1
  Br  Br18  1  0.534278  0.613993  0.819710  1
  Br  Br19  1  0.785150  0.311643  0.929354  1
