# generated using pymatgen
data_Dy12Si12IrAu3
_symmetry_space_group_name_H-M   'P 1'
_cell_length_a   4.24884700
_cell_length_b   10.88173153
_cell_length_c   12.42152226
_cell_angle_alpha   89.95793995
_cell_angle_beta   90.00000000
_cell_angle_gamma   90.00000000
_symmetry_Int_Tables_number   1
_chemical_formula_structural   Dy12Si12IrAu3
_chemical_formula_sum   'Dy12 Si12 Ir1 Au3'
_cell_volume   574.30659615
_cell_formula_units_Z   1
loop_
 _symmetry_equiv_pos_site_id
 _symmetry_equiv_pos_as_xyz
  1  'x, y, z'
loop_
 _atom_site_type_symbol
 _atom_site_label
 _atom_site_symmetry_multiplicity
 _atom_site_fract_x
 _atom_site_fract_y
 _atom_site_fract_z
 _atom_site_occupancy
  Dy  Dy0  1  0.250000  0.877428  0.019382  1
  Dy  Dy1  1  0.250000  0.625345  0.521371  1
  Dy  Dy2  1  0.750000  0.120216  0.978590  1
  Dy  Dy3  1  0.750000  0.375679  0.481557  1
  Dy  Dy4  1  0.250000  0.921566  0.602739  1
  Dy  Dy5  1  0.250000  0.579482  0.099338  1
  Dy  Dy6  1  0.750000  0.078074  0.398867  1
  Dy  Dy7  1  0.750000  0.420712  0.896064  1
  Dy  Dy8  1  0.250000  0.667081  0.802319  1
  Dy  Dy9  1  0.250000  0.835999  0.303004  1
  Dy  Dy10  1  0.750000  0.336723  0.196579  1
  Dy  Dy11  1  0.750000  0.155318  0.699726  1
  Si  Si12  1  0.250000  0.008940  0.823880  1
  Si  Si13  1  0.250000  0.475233  0.326291  1
  Si  Si14  1  0.750000  0.974975  0.176917  1
  Si  Si15  1  0.750000  0.528277  0.673161  1
  Si  Si16  1  0.250000  0.240020  0.846418  1
  Si  Si17  1  0.250000  0.252948  0.347702  1
  Si  Si18  1  0.750000  0.754302  0.151500  1
  Si  Si19  1  0.750000  0.753895  0.660887  1
  Si  Si20  1  0.250000  0.185627  0.537563  1
  Si  Si21  1  0.250000  0.314836  0.034229  1
  Si  Si22  1  0.750000  0.815484  0.466102  1
  Si  Si23  1  0.750000  0.702374  0.955433  1
  Ir  Ir24  1  0.750000  0.889580  0.819848  1
  Au  Au25  1  0.250000  0.389545  0.682737  1
  Au  Au26  1  0.250000  0.110300  0.181478  1
  Au  Au27  1  0.750000  0.610042  0.316316  1
