# generated using pymatgen
data_Zr2Ta3Si4
_symmetry_space_group_name_H-M   'P 1'
_cell_length_a   6.87156900
_cell_length_b   6.87156900
_cell_length_c   12.75462700
_cell_angle_alpha   90.00000000
_cell_angle_beta   90.00000000
_cell_angle_gamma   90.00000000
_symmetry_Int_Tables_number   1
_chemical_formula_structural   Zr2Ta3Si4
_chemical_formula_sum   'Zr8 Ta12 Si16'
_cell_volume   602.25385147
_cell_formula_units_Z   4
loop_
 _symmetry_equiv_pos_site_id
 _symmetry_equiv_pos_as_xyz
  1  'x, y, z'
loop_
 _atom_site_type_symbol
 _atom_site_label
 _atom_site_symmetry_multiplicity
 _atom_site_fract_x
 _atom_site_fract_y
 _atom_site_fract_z
 _atom_site_occupancy
  Zr  Zr0  1  0.000169  0.660567  0.030374  1
  Zr  Zr1  1  0.999831  0.339433  0.530374  1
  Zr  Zr2  1  0.660567  0.000169  0.969626  1
  Zr  Zr3  1  0.160567  0.499831  0.780374  1
  Zr  Zr4  1  0.839433  0.500169  0.280374  1
  Zr  Zr5  1  0.499831  0.160567  0.219626  1
  Zr  Zr6  1  0.500169  0.839433  0.719626  1
  Zr  Zr7  1  0.339433  0.999831  0.469626  1
  Ta  Ta8  1  0.347104  0.504703  0.376144  1
  Ta  Ta9  1  0.847104  0.995297  0.373856  1
  Ta  Ta10  1  0.004703  0.152896  0.126144  1
  Ta  Ta11  1  0.995297  0.847104  0.626144  1
  Ta  Ta12  1  0.652896  0.495297  0.876144  1
  Ta  Ta13  1  0.504703  0.347104  0.623856  1
  Ta  Ta14  1  0.495297  0.652896  0.123856  1
  Ta  Ta15  1  0.152896  0.004703  0.873856  1
  Ta  Ta16  1  0.669733  0.669733  0.500000  1
  Ta  Ta17  1  0.830267  0.169733  0.750000  1
  Ta  Ta18  1  0.169733  0.830267  0.250000  1
  Ta  Ta19  1  0.330267  0.330267  0.000000  1
  Si  Si20  1  0.043973  0.700960  0.436300  1
  Si  Si21  1  0.956027  0.299040  0.936300  1
  Si  Si22  1  0.700960  0.043973  0.563700  1
  Si  Si23  1  0.200960  0.456027  0.186300  1
  Si  Si24  1  0.799040  0.543973  0.686300  1
  Si  Si25  1  0.456027  0.200960  0.813700  1
  Si  Si26  1  0.543973  0.799040  0.313700  1
  Si  Si27  1  0.299040  0.956027  0.063700  1
  Si  Si28  1  0.865101  0.791926  0.822799  1
  Si  Si29  1  0.134899  0.208074  0.322799  1
  Si  Si30  1  0.791926  0.865101  0.177201  1
  Si  Si31  1  0.291926  0.634899  0.572799  1
  Si  Si32  1  0.708074  0.365101  0.072799  1
  Si  Si33  1  0.634899  0.291926  0.427201  1
  Si  Si34  1  0.365101  0.708074  0.927201  1
  Si  Si35  1  0.208074  0.134899  0.677201  1
