# generated using pymatgen
data_Er8OsRuI8
_symmetry_space_group_name_H-M   'P 1'
_cell_length_a   10.93861350
_cell_length_b   10.93861541
_cell_length_c   6.15885932
_cell_angle_alpha   89.37060360
_cell_angle_beta   89.37060509
_cell_angle_gamma   88.84860667
_symmetry_Int_Tables_number   1
_chemical_formula_structural   Er8OsRuI8
_chemical_formula_sum   'Er8 Os1 Ru1 I8'
_cell_volume   736.69180516
_cell_formula_units_Z   1
loop_
 _symmetry_equiv_pos_site_id
 _symmetry_equiv_pos_as_xyz
  1  'x, y, z'
loop_
 _atom_site_type_symbol
 _atom_site_label
 _atom_site_symmetry_multiplicity
 _atom_site_fract_x
 _atom_site_fract_y
 _atom_site_fract_z
 _atom_site_occupancy
  Er  Er0  1  0.203464  0.915758  0.997112  1
  Er  Er1  1  0.796532  0.084226  0.002446  1
  Er  Er2  1  0.084242  0.796536  0.502888  1
  Er  Er3  1  0.915774  0.203468  0.497554  1
  Er  Er4  1  0.798149  0.920047  0.506506  1
  Er  Er5  1  0.201776  0.079931  0.493914  1
  Er  Er6  1  0.079953  0.201851  0.993494  1
  Er  Er7  1  0.920069  0.798224  0.006086  1
  Os  Os8  1  0.999966  0.000034  0.750000  1
  Ru  Ru9  1  0.000028  0.999972  0.250000  1
  I  I10  1  0.366751  0.840626  0.502394  1
  I  I11  1  0.633267  0.159370  0.497983  1
  I  I12  1  0.159374  0.633249  0.997606  1
  I  I13  1  0.840630  0.366733  0.002017  1
  I  I14  1  0.363089  0.152187  0.004708  1
  I  I15  1  0.636919  0.847799  0.994885  1
  I  I16  1  0.847813  0.636911  0.495292  1
  I  I17  1  0.152201  0.363081  0.505115  1
