# generated using pymatgen
data_HfZrCSe
_symmetry_space_group_name_H-M   'P 1'
_cell_length_a   3.46091300
_cell_length_b   3.46091398
_cell_length_c   12.57058400
_cell_angle_alpha   90.00000000
_cell_angle_beta   90.00000000
_cell_angle_gamma   119.99998106
_symmetry_Int_Tables_number   1
_chemical_formula_structural   HfZrCSe
_chemical_formula_sum   'Hf2 Zr2 C2 Se2'
_cell_volume   130.39701702
_cell_formula_units_Z   2
loop_
 _symmetry_equiv_pos_site_id
 _symmetry_equiv_pos_as_xyz
  1  'x, y, z'
loop_
 _atom_site_type_symbol
 _atom_site_label
 _atom_site_symmetry_multiplicity
 _atom_site_fract_x
 _atom_site_fract_y
 _atom_site_fract_z
 _atom_site_occupancy
  Hf  Hf0  1  0.666667  0.333333  0.594871  1
  Hf  Hf1  1  0.333333  0.666667  0.094871  1
  Zr  Zr2  1  0.333333  0.666667  0.403885  1
  Zr  Zr3  1  0.666667  0.333333  0.903885  1
  C  C4  1  0.000000  0.000000  0.503878  1
  C  C5  1  0.000000  0.000000  0.003878  1
  Se  Se6  1  0.666667  0.333333  0.247366  1
  Se  Se7  1  0.333333  0.666667  0.747366  1
