# generated using pymatgen
data_Pr14IrPd4Rh
_symmetry_space_group_name_H-M   'P 1'
_cell_length_a   10.26265945
_cell_length_b   10.24937265
_cell_length_c   6.51732835
_cell_angle_alpha   89.76406749
_cell_angle_beta   90.10633870
_cell_angle_gamma   119.78488210
_symmetry_Int_Tables_number   1
_chemical_formula_structural   Pr14IrPd4Rh
_chemical_formula_sum   'Pr14 Ir1 Pd4 Rh1'
_cell_volume   594.96452900
_cell_formula_units_Z   1
loop_
 _symmetry_equiv_pos_site_id
 _symmetry_equiv_pos_as_xyz
  1  'x, y, z'
loop_
 _atom_site_type_symbol
 _atom_site_label
 _atom_site_symmetry_multiplicity
 _atom_site_fract_x
 _atom_site_fract_y
 _atom_site_fract_z
 _atom_site_occupancy
  Pr  Pr0  1  0.330589  0.663055  0.458447  1
  Pr  Pr1  1  0.669538  0.330433  0.957435  1
  Pr  Pr2  1  0.126201  0.872751  0.241230  1
  Pr  Pr3  1  0.750293  0.880056  0.239184  1
  Pr  Pr4  1  0.121468  0.251924  0.248031  1
  Pr  Pr5  1  0.880632  0.131300  0.747445  1
  Pr  Pr6  1  0.249580  0.130601  0.739780  1
  Pr  Pr7  1  0.872622  0.745079  0.738808  1
  Pr  Pr8  1  0.534711  0.461404  0.446632  1
  Pr  Pr9  1  0.921341  0.454370  0.441611  1
  Pr  Pr10  1  0.542988  0.076951  0.447444  1
  Pr  Pr11  1  0.456990  0.534847  0.943845  1
  Pr  Pr12  1  0.078534  0.535157  0.942452  1
  Pr  Pr13  1  0.464250  0.927894  0.948990  1
  Ir  Ir14  1  0.191255  0.379365  0.690032  1
  Pd  Pd15  1  0.377461  0.188566  0.192209  1
  Pd  Pd16  1  0.810088  0.622713  0.192845  1
  Pd  Pd17  1  0.190031  0.812990  0.695205  1
  Pd  Pd18  1  0.623551  0.812287  0.694196  1
  Rh  Rh19  1  0.807876  0.188257  0.196270  1
