# generated using pymatgen
data_Zr4AlAsRh10
_symmetry_space_group_name_H-M   'P 1'
_cell_length_a   5.61816403
_cell_length_b   5.61816354
_cell_length_c   8.11897000
_cell_angle_alpha   89.99996151
_cell_angle_beta   89.99995851
_cell_angle_gamma   98.03881667
_symmetry_Int_Tables_number   1
_chemical_formula_structural   Zr4AlAsRh10
_chemical_formula_sum   'Zr4 Al1 As1 Rh10'
_cell_volume   253.74707876
_cell_formula_units_Z   1
loop_
 _symmetry_equiv_pos_site_id
 _symmetry_equiv_pos_as_xyz
  1  'x, y, z'
loop_
 _atom_site_type_symbol
 _atom_site_label
 _atom_site_symmetry_multiplicity
 _atom_site_fract_x
 _atom_site_fract_y
 _atom_site_fract_z
 _atom_site_occupancy
  Zr  Zr0  1  0.782340  0.217644  0.497974  1
  Zr  Zr1  1  0.217643  0.782338  0.002025  1
  Zr  Zr2  1  0.217644  0.782340  0.497974  1
  Zr  Zr3  1  0.782338  0.217643  0.002025  1
  Al  Al4  1  0.499728  0.499728  0.249999  1
  As  As5  1  0.500331  0.500331  0.750000  1
  Rh  Rh6  1  0.713297  0.713297  0.996590  1
  Rh  Rh7  1  0.713299  0.713299  0.503410  1
  Rh  Rh8  1  0.286718  0.286718  0.996356  1
  Rh  Rh9  1  0.286722  0.286722  0.503645  1
  Rh  Rh10  1  0.499986  0.999949  0.749999  1
  Rh  Rh11  1  0.500018  0.999946  0.250001  1
  Rh  Rh12  1  0.000066  0.000066  0.250000  1
  Rh  Rh13  1  0.999975  0.999975  0.750000  1
  Rh  Rh14  1  0.999949  0.499986  0.749999  1
  Rh  Rh15  1  0.999946  0.500018  0.250001  1
