# generated using pymatgen
data_Mn28MoC2
_symmetry_space_group_name_H-M   'P 1'
_cell_length_a   7.59427496
_cell_length_b   7.59427567
_cell_length_c   7.59418806
_cell_angle_alpha   70.05803066
_cell_angle_beta   70.05803946
_cell_angle_gamma   108.51337310
_symmetry_Int_Tables_number   1
_chemical_formula_structural   Mn28MoC2
_chemical_formula_sum   'Mn28 Mo1 C2'
_cell_volume   337.17280334
_cell_formula_units_Z   1
loop_
 _symmetry_equiv_pos_site_id
 _symmetry_equiv_pos_as_xyz
  1  'x, y, z'
loop_
 _atom_site_type_symbol
 _atom_site_label
 _atom_site_symmetry_multiplicity
 _atom_site_fract_x
 _atom_site_fract_y
 _atom_site_fract_z
 _atom_site_occupancy
  Mn  Mn0  1  0.821104  0.626428  0.380285  1
  Mn  Mn1  1  0.626428  0.821104  0.380285  1
  Mn  Mn2  1  0.628330  0.628330  0.180379  1
  Mn  Mn3  1  0.177288  0.798856  0.196717  1
  Mn  Mn4  1  0.370648  0.993218  0.808277  1
  Mn  Mn5  1  0.369111  0.191114  0.002735  1
  Mn  Mn6  1  0.004643  0.198321  0.624205  1
  Mn  Mn7  1  0.198321  0.004643  0.624205  1
  Mn  Mn8  1  0.806236  0.806236  0.824450  1
  Mn  Mn9  1  0.993218  0.370648  0.808277  1
  Mn  Mn10  1  0.798856  0.177288  0.196717  1
  Mn  Mn11  1  0.191114  0.369111  0.002735  1
  Mn  Mn12  1  0.308350  0.616465  0.382753  1
  Mn  Mn13  1  0.616465  0.308350  0.382753  1
  Mn  Mn14  1  0.605354  0.605354  0.718745  1
  Mn  Mn15  1  0.689668  0.308985  0.694172  1
  Mn  Mn16  1  0.380905  0.000727  0.310958  1
  Mn  Mn17  1  0.392013  0.675754  0.002635  1
  Mn  Mn18  1  0.996835  0.688190  0.622211  1
  Mn  Mn19  1  0.688190  0.996835  0.622211  1
  Mn  Mn20  1  0.321881  0.321881  0.285613  1
  Mn  Mn21  1  0.000727  0.380905  0.310958  1
  Mn  Mn22  1  0.308985  0.689668  0.694172  1
  Mn  Mn23  1  0.675754  0.392013  0.002635  1
  Mn  Mn24  1  0.370169  0.370169  0.634181  1
  Mn  Mn25  1  0.627574  0.995612  0.002561  1
  Mn  Mn26  1  0.001827  0.001827  0.370254  1
  Mn  Mn27  1  0.995612  0.627574  0.002561  1
  Mo  Mo28  1  0.998858  0.998858  0.002238  1
  C  C29  1  0.999062  0.498473  0.502561  1
  C  C30  1  0.498473  0.999062  0.502561  1
