# generated using pymatgen
data_Tb3ErPd3PtF28
_symmetry_space_group_name_H-M   'P 1'
_cell_length_a   5.53653463
_cell_length_b   8.86938152
_cell_length_c   11.96909531
_cell_angle_alpha   62.47484542
_cell_angle_beta   89.97182524
_cell_angle_gamma   89.97117458
_symmetry_Int_Tables_number   1
_chemical_formula_structural   Tb3ErPd3PtF28
_chemical_formula_sum   'Tb3 Er1 Pd3 Pt1 F28'
_cell_volume   521.22138250
_cell_formula_units_Z   1
loop_
 _symmetry_equiv_pos_site_id
 _symmetry_equiv_pos_as_xyz
  1  'x, y, z'
loop_
 _atom_site_type_symbol
 _atom_site_label
 _atom_site_symmetry_multiplicity
 _atom_site_fract_x
 _atom_site_fract_y
 _atom_site_fract_z
 _atom_site_occupancy
  Tb  Tb0  1  0.762243  0.812167  0.764356  1
  Tb  Tb1  1  0.261270  0.187169  0.736189  1
  Tb  Tb2  1  0.238127  0.185630  0.234637  1
  Er  Er3  1  0.737481  0.813781  0.263818  1
  Pd  Pd4  1  0.757841  0.271436  0.957668  1
  Pd  Pd5  1  0.259115  0.727743  0.541589  1
  Pd  Pd6  1  0.240423  0.728151  0.044277  1
  Pt  Pt7  1  0.741690  0.274012  0.456265  1
  F  F8  1  0.434159  0.703327  0.918100  1
  F  F9  1  0.934824  0.297787  0.585084  1
  F  F10  1  0.566371  0.296489  0.084386  1
  F  F11  1  0.065321  0.702851  0.415489  1
  F  F12  1  0.438992  0.279060  0.541187  1
  F  F13  1  0.942193  0.721814  0.959444  1
  F  F14  1  0.559481  0.723087  0.456517  1
  F  F15  1  0.058197  0.277587  0.040913  1
  F  F16  1  0.774596  0.518753  0.859798  1
  F  F17  1  0.278027  0.480805  0.640299  1
  F  F18  1  0.223966  0.480900  0.141302  1
  F  F19  1  0.726934  0.523851  0.358026  1
  F  F20  1  0.752910  0.024661  0.049874  1
  F  F21  1  0.252675  0.974498  0.449989  1
  F  F22  1  0.245765  0.974775  0.951833  1
  F  F23  1  0.746001  0.024758  0.549310  1
  F  F24  1  0.967594  0.723467  0.634090  1
  F  F25  1  0.464685  0.275074  0.866764  1
  F  F26  1  0.037115  0.275127  0.364761  1
  F  F27  1  0.532072  0.725484  0.136697  1
  F  F28  1  0.050380  0.746561  0.175541  1
  F  F29  1  0.554159  0.255178  0.323542  1
  F  F30  1  0.943620  0.254104  0.825459  1
  F  F31  1  0.446156  0.745406  0.673837  1
  F  F32  1  0.416589  0.967431  0.232077  1
  F  F33  1  0.911988  0.027122  0.267495  1
  F  F34  1  0.588446  0.031163  0.767698  1
  F  F35  1  0.088592  0.968790  0.731689  1
