# generated using pymatgen
data_Pr16HoLu3Sn16
_symmetry_space_group_name_H-M   'P 1'
_cell_length_a   8.25386901
_cell_length_b   8.41374101
_cell_length_c   15.99512800
_cell_angle_alpha   90.00000000
_cell_angle_beta   90.00000000
_cell_angle_gamma   89.99452050
_symmetry_Int_Tables_number   1
_chemical_formula_structural   Pr16HoLu3Sn16
_chemical_formula_sum   'Pr16 Ho1 Lu3 Sn16'
_cell_volume   1110.79631318
_cell_formula_units_Z   1
loop_
 _symmetry_equiv_pos_site_id
 _symmetry_equiv_pos_as_xyz
  1  'x, y, z'
loop_
 _atom_site_type_symbol
 _atom_site_label
 _atom_site_symmetry_multiplicity
 _atom_site_fract_x
 _atom_site_fract_y
 _atom_site_fract_z
 _atom_site_occupancy
  Pr  Pr0  1  0.367518  0.838138  0.879339  1
  Pr  Pr1  1  0.866940  0.662317  0.620739  1
  Pr  Pr2  1  0.632689  0.162069  0.379296  1
  Pr  Pr3  1  0.132764  0.337959  0.120820  1
  Pr  Pr4  1  0.632689  0.162069  0.120704  1
  Pr  Pr5  1  0.132764  0.337959  0.379180  1
  Pr  Pr6  1  0.367518  0.838138  0.620661  1
  Pr  Pr7  1  0.866940  0.662317  0.879261  1
  Pr  Pr8  1  0.518860  0.318476  0.901410  1
  Pr  Pr9  1  0.018601  0.181270  0.598656  1
  Pr  Pr10  1  0.481332  0.681386  0.401338  1
  Pr  Pr11  1  0.981359  0.818596  0.098636  1
  Pr  Pr12  1  0.481332  0.681386  0.098662  1
  Pr  Pr13  1  0.981359  0.818596  0.401364  1
  Pr  Pr14  1  0.518860  0.318476  0.598590  1
  Pr  Pr15  1  0.018601  0.181270  0.901344  1
  Ho  Ho16  1  0.198369  0.501787  0.750000  1
  Lu  Lu17  1  0.699009  0.998195  0.750000  1
  Lu  Lu18  1  0.800985  0.498153  0.250000  1
  Lu  Lu19  1  0.301027  0.001764  0.250000  1
  Sn  Sn20  1  0.291798  0.033552  0.045004  1
  Sn  Sn21  1  0.791799  0.466506  0.454991  1
  Sn  Sn22  1  0.708190  0.966415  0.544940  1
  Sn  Sn23  1  0.208201  0.533601  0.955286  1
  Sn  Sn24  1  0.708190  0.966415  0.955060  1
  Sn  Sn25  1  0.208201  0.533601  0.544714  1
  Sn  Sn26  1  0.291798  0.033552  0.454996  1
  Sn  Sn27  1  0.791799  0.466506  0.045009  1
  Sn  Sn28  1  0.563439  0.616356  0.750000  1
  Sn  Sn29  1  0.062782  0.883711  0.750000  1
  Sn  Sn30  1  0.437093  0.383656  0.250000  1
  Sn  Sn31  1  0.937094  0.116401  0.250000  1
  Sn  Sn32  1  0.323588  0.146913  0.750000  1
  Sn  Sn33  1  0.823691  0.352412  0.750000  1
  Sn  Sn34  1  0.676470  0.852539  0.250000  1
  Sn  Sn35  1  0.176351  0.647544  0.250000  1
