# generated using pymatgen
data_Ta12NbOs6W5
_symmetry_space_group_name_H-M   'P 1'
_cell_length_a   4.52470100
_cell_length_b   6.44102000
_cell_length_c   13.72400900
_cell_angle_alpha   90.00000000
_cell_angle_beta   90.00005455
_cell_angle_gamma   90.00000000
_symmetry_Int_Tables_number   1
_chemical_formula_structural   Ta12NbOs6W5
_chemical_formula_sum   'Ta12 Nb1 Os6 W5'
_cell_volume   399.96825884
_cell_formula_units_Z   1
loop_
 _symmetry_equiv_pos_site_id
 _symmetry_equiv_pos_as_xyz
  1  'x, y, z'
loop_
 _atom_site_type_symbol
 _atom_site_label
 _atom_site_symmetry_multiplicity
 _atom_site_fract_x
 _atom_site_fract_y
 _atom_site_fract_z
 _atom_site_occupancy
  Ta  Ta0  1  0.500000  0.248342  0.000000  1
  Ta  Ta1  1  0.500000  0.751658  0.000000  1
  Ta  Ta2  1  0.999995  0.249843  0.167306  1
  Ta  Ta3  1  0.999995  0.750158  0.167306  1
  Ta  Ta4  1  0.499993  0.250265  0.333432  1
  Ta  Ta5  1  0.499993  0.749734  0.333432  1
  Ta  Ta6  1  0.000000  0.250256  0.500000  1
  Ta  Ta7  1  0.000000  0.749745  0.500000  1
  Ta  Ta8  1  0.500008  0.250265  0.666567  1
  Ta  Ta9  1  0.500008  0.749734  0.666567  1
  Ta  Ta10  1  0.000005  0.249843  0.832694  1
  Ta  Ta11  1  0.000005  0.750158  0.832694  1
  Nb  Nb12  1  0.000000  0.500000  0.000000  1
  Os  Os13  1  0.000000  0.000000  0.000000  1
  Os  Os14  1  0.499996  0.500000  0.168002  1
  Os  Os15  1  0.999995  0.000000  0.333445  1
  Os  Os16  1  0.500000  0.500000  0.500000  1
  Os  Os17  1  0.000005  0.000000  0.666556  1
  Os  Os18  1  0.500005  0.500000  0.831998  1
  W  W19  1  0.499993  0.000000  0.167137  1
  W  W20  1  0.999995  0.500000  0.334208  1
  W  W21  1  0.500000  0.000000  0.500000  1
  W  W22  1  0.000005  0.500000  0.665792  1
  W  W23  1  0.500005  0.000000  0.832863  1
