# generated using pymatgen
data_La4Pa2Sn6Ir5Rh
_symmetry_space_group_name_H-M   'P 1'
_cell_length_a   7.59580531
_cell_length_b   7.52719647
_cell_length_c   8.28658300
_cell_angle_alpha   90.00000000
_cell_angle_beta   90.00000000
_cell_angle_gamma   119.70187927
_symmetry_Int_Tables_number   1
_chemical_formula_structural   La4Pa2Sn6Ir5Rh
_chemical_formula_sum   'La4 Pa2 Sn6 Ir5 Rh1'
_cell_volume   411.53807128
_cell_formula_units_Z   1
loop_
 _symmetry_equiv_pos_site_id
 _symmetry_equiv_pos_as_xyz
  1  'x, y, z'
loop_
 _atom_site_type_symbol
 _atom_site_label
 _atom_site_symmetry_multiplicity
 _atom_site_fract_x
 _atom_site_fract_y
 _atom_site_fract_z
 _atom_site_occupancy
  La  La0  1  0.580379  0.995010  0.750000  1
  La  La1  1  0.419492  0.414624  0.750000  1
  La  La2  1  0.999577  0.585981  0.750000  1
  La  La3  1  0.999275  0.587957  0.250000  1
  Pa  Pa4  1  0.589850  0.004929  0.250000  1
  Pa  Pa5  1  0.410857  0.414747  0.250000  1
  Sn  Sn6  1  0.245287  0.996274  0.004541  1
  Sn  Sn7  1  0.754529  0.751438  0.495662  1
  Sn  Sn8  1  0.000491  0.255190  0.503280  1
  Sn  Sn9  1  0.000491  0.255190  0.996720  1
  Sn  Sn10  1  0.754529  0.751438  0.004338  1
  Sn  Sn11  1  0.245287  0.996274  0.495459  1
  Ir  Ir12  1  0.645846  0.315474  0.026676  1
  Ir  Ir13  1  0.645846  0.315474  0.473324  1
  Ir  Ir14  1  0.354280  0.669703  0.027556  1
  Ir  Ir15  1  0.354280  0.669703  0.472444  1
  Ir  Ir16  1  0.000022  0.021464  0.250000  1
  Rh  Rh17  1  0.999681  0.999131  0.750000  1
