# generated using pymatgen
data_Yb4InSnPt4
_symmetry_space_group_name_H-M   'P 1'
_cell_length_a   5.73894896
_cell_length_b   5.73894811
_cell_length_c   8.21718859
_cell_angle_alpha   77.20784082
_cell_angle_beta   77.20784153
_cell_angle_gamma   58.67560056
_symmetry_Int_Tables_number   1
_chemical_formula_structural   Yb4InSnPt4
_chemical_formula_sum   'Yb4 In1 Sn1 Pt4'
_cell_volume   223.60725321
_cell_formula_units_Z   1
loop_
 _symmetry_equiv_pos_site_id
 _symmetry_equiv_pos_as_xyz
  1  'x, y, z'
loop_
 _atom_site_type_symbol
 _atom_site_label
 _atom_site_symmetry_multiplicity
 _atom_site_fract_x
 _atom_site_fract_y
 _atom_site_fract_z
 _atom_site_occupancy
  Yb  Yb0  1  0.499865  0.797847  0.348774  1
  Yb  Yb1  1  0.202153  0.500135  0.151226  1
  Yb  Yb2  1  0.501487  0.198196  0.648125  1
  Yb  Yb3  1  0.801804  0.498513  0.851875  1
  In  In4  1  0.161427  0.838573  0.750000  1
  Sn  Sn5  1  0.838069  0.161931  0.250000  1
  Pt  Pt6  1  0.269832  0.998594  0.999609  1
  Pt  Pt7  1  0.001406  0.730168  0.500391  1
  Pt  Pt8  1  0.726884  0.002929  0.001050  1
  Pt  Pt9  1  0.997071  0.273116  0.498950  1
