# generated using pymatgen
data_Ho5CoIrO12
_symmetry_space_group_name_H-M   'P 1'
_cell_length_a   6.79667496
_cell_length_b   6.79667446
_cell_length_c   7.18419958
_cell_angle_alpha   74.54599946
_cell_angle_beta   74.54599928
_cell_angle_gamma   50.75629016
_symmetry_Int_Tables_number   1
_chemical_formula_structural   Ho5CoIrO12
_chemical_formula_sum   'Ho5 Co1 Ir1 O12'
_cell_volume   245.59043872
_cell_formula_units_Z   1
loop_
 _symmetry_equiv_pos_site_id
 _symmetry_equiv_pos_as_xyz
  1  'x, y, z'
loop_
 _atom_site_type_symbol
 _atom_site_label
 _atom_site_symmetry_multiplicity
 _atom_site_fract_x
 _atom_site_fract_y
 _atom_site_fract_z
 _atom_site_occupancy
  Ho  Ho0  1  0.287727  0.317222  0.358471  1
  Ho  Ho1  1  0.682778  0.712273  0.641529  1
  Ho  Ho2  1  0.306035  0.311257  0.832007  1
  Ho  Ho3  1  0.688743  0.693965  0.167993  1
  Ho  Ho4  1  0.998713  0.001287  0.500000  1
  Co  Co5  1  0.255464  0.744536  0.000000  1
  Ir  Ir6  1  0.763248  0.236752  0.000000  1
  O  O7  1  0.901458  0.423822  0.916327  1
  O  O8  1  0.429687  0.901864  0.917245  1
  O  O9  1  0.098136  0.570313  0.082755  1
  O  O10  1  0.576178  0.098542  0.083673  1
  O  O11  1  0.090063  0.601320  0.576761  1
  O  O12  1  0.597412  0.104137  0.570683  1
  O  O13  1  0.895863  0.402588  0.429317  1
  O  O14  1  0.398680  0.909937  0.423239  1
  O  O15  1  0.013779  0.985990  0.823006  1
  O  O16  1  0.014010  0.986221  0.176994  1
  O  O17  1  0.501039  0.499014  0.817964  1
  O  O18  1  0.500986  0.498961  0.182036  1
