# generated using pymatgen
data_Ba2Bi2S3O2
_symmetry_space_group_name_H-M   'P 1'
_cell_length_a   9.94030113
_cell_length_b   4.11261400
_cell_length_c   13.81853576
_cell_angle_alpha   90.00002662
_cell_angle_beta   125.31171811
_cell_angle_gamma   89.99996911
_symmetry_Int_Tables_number   1
_chemical_formula_structural   Ba2Bi2S3O2
_chemical_formula_sum   'Ba4 Bi4 S6 O4'
_cell_volume   460.97778364
_cell_formula_units_Z   2
loop_
 _symmetry_equiv_pos_site_id
 _symmetry_equiv_pos_as_xyz
  1  'x, y, z'
loop_
 _atom_site_type_symbol
 _atom_site_label
 _atom_site_symmetry_multiplicity
 _atom_site_fract_x
 _atom_site_fract_y
 _atom_site_fract_z
 _atom_site_occupancy
  Ba  Ba0  1  0.387481  0.502518  0.090862  1
  Ba  Ba1  1  0.612520  0.002519  0.409138  1
  Ba  Ba2  1  0.387481  0.997482  0.590861  1
  Ba  Ba3  1  0.612520  0.497481  0.909138  1
  Bi  Bi4  1  0.130944  0.002152  0.185730  1
  Bi  Bi5  1  0.869057  0.502155  0.314270  1
  Bi  Bi6  1  0.130944  0.497847  0.685730  1
  Bi  Bi7  1  0.869056  0.997847  0.814271  1
  S  S8  1  0.000000  0.499999  0.000000  1
  S  S9  1  0.734551  0.000811  0.143309  1
  S  S10  1  0.265450  0.500812  0.356691  1
  S  S11  1  0.000000  0.000001  0.500000  1
  S  S12  1  0.734550  0.499188  0.643308  1
  S  S13  1  0.265449  0.999189  0.856692  1
  O  O14  1  0.343654  0.002306  0.186611  1
  O  O15  1  0.656346  0.502308  0.313388  1
  O  O16  1  0.343655  0.497692  0.686612  1
  O  O17  1  0.656346  0.997692  0.813388  1
