# generated using pymatgen
data_HoEr9Ga3CoBi2
_symmetry_space_group_name_H-M   'P 1'
_cell_length_a   8.57616604
_cell_length_b   8.73393425
_cell_length_c   7.98818607
_cell_angle_alpha   61.50571539
_cell_angle_beta   63.52621622
_cell_angle_gamma   54.95555933
_symmetry_Int_Tables_number   1
_chemical_formula_structural   HoEr9Ga3CoBi2
_chemical_formula_sum   'Ho1 Er9 Ga3 Co1 Bi2'
_cell_volume   418.06908360
_cell_formula_units_Z   1
loop_
 _symmetry_equiv_pos_site_id
 _symmetry_equiv_pos_as_xyz
  1  'x, y, z'
loop_
 _atom_site_type_symbol
 _atom_site_label
 _atom_site_symmetry_multiplicity
 _atom_site_fract_x
 _atom_site_fract_y
 _atom_site_fract_z
 _atom_site_occupancy
  Ho  Ho0  1  0.797316  0.483821  0.516179  1
  Er  Er1  1  0.452553  0.807788  0.192212  1
  Er  Er2  1  0.295733  0.981220  0.723093  1
  Er  Er3  1  0.000046  0.276907  0.018780  1
  Er  Er4  1  0.192555  0.547243  0.452757  1
  Er  Er5  1  0.516294  0.203141  0.796859  1
  Er  Er6  1  0.723049  0.000149  0.295682  1
  Er  Er7  1  0.018880  0.704318  0.999851  1
  Er  Er8  1  0.500646  0.499201  0.999535  1
  Er  Er9  1  0.999383  0.000465  0.500799  1
  Ga  Ga10  1  0.866807  0.133099  0.866901  1
  Ga  Ga11  1  0.641629  0.358091  0.360046  1
  Ga  Ga12  1  0.359767  0.639954  0.641909  1
  Co  Co13  1  0.122171  0.877730  0.122270  1
  Bi  Bi14  1  0.756481  0.743541  0.756666  1
  Bi  Bi15  1  0.256688  0.243334  0.256459  1
