# generated using pymatgen
data_Tb3Dy5(Sc3Ge4)4
_symmetry_space_group_name_H-M   'P 1'
_cell_length_a   7.25024801
_cell_length_b   7.49288701
_cell_length_c   14.11290400
_cell_angle_alpha   89.99769239
_cell_angle_beta   90.00115738
_cell_angle_gamma   89.99420166
_symmetry_Int_Tables_number   1
_chemical_formula_structural   Tb3Dy5(Sc3Ge4)4
_chemical_formula_sum   'Tb3 Dy5 Sc12 Ge16'
_cell_volume   766.68758588
_cell_formula_units_Z   1
loop_
 _symmetry_equiv_pos_site_id
 _symmetry_equiv_pos_as_xyz
  1  'x, y, z'
loop_
 _atom_site_type_symbol
 _atom_site_label
 _atom_site_symmetry_multiplicity
 _atom_site_fract_x
 _atom_site_fract_y
 _atom_site_fract_z
 _atom_site_occupancy
  Tb  Tb0  1  0.500562  0.323792  0.096433  1
  Tb  Tb1  1  0.000546  0.176246  0.403560  1
  Tb  Tb2  1  0.499465  0.676236  0.596459  1
  Dy  Dy3  1  0.999445  0.823685  0.903504  1
  Dy  Dy4  1  0.499408  0.676330  0.903444  1
  Dy  Dy5  1  0.999417  0.823696  0.596527  1
  Dy  Dy6  1  0.500574  0.323720  0.403448  1
  Dy  Dy7  1  0.000552  0.176285  0.096524  1
  Sc  Sc8  1  0.672710  0.999830  0.750011  1
  Sc  Sc9  1  0.172629  0.500176  0.750037  1
  Sc  Sc10  1  0.327346  0.000175  0.249998  1
  Sc  Sc11  1  0.827335  0.499828  0.250005  1
  Sc  Sc12  1  0.839769  0.330778  0.624916  1
  Sc  Sc13  1  0.339757  0.169206  0.875093  1
  Sc  Sc14  1  0.160169  0.669249  0.124875  1
  Sc  Sc15  1  0.660234  0.830737  0.375105  1
  Sc  Sc16  1  0.160184  0.669166  0.375108  1
  Sc  Sc17  1  0.660269  0.830758  0.124885  1
  Sc  Sc18  1  0.839821  0.330782  0.875097  1
  Sc  Sc19  1  0.339784  0.169219  0.624917  1
  Ge  Ge20  1  0.805024  0.638475  0.750059  1
  Ge  Ge21  1  0.304762  0.861635  0.750093  1
  Ge  Ge22  1  0.195067  0.361688  0.249974  1
  Ge  Ge23  1  0.695149  0.138393  0.250030  1
  Ge  Ge24  1  0.538051  0.374455  0.750033  1
  Ge  Ge25  1  0.038079  0.125443  0.750006  1
  Ge  Ge26  1  0.461946  0.625500  0.250023  1
  Ge  Ge27  1  0.961918  0.874451  0.249965  1
  Ge  Ge28  1  0.676896  0.040562  0.541296  1
  Ge  Ge29  1  0.176859  0.459568  0.958674  1
  Ge  Ge30  1  0.322920  0.959409  0.041249  1
  Ge  Ge31  1  0.823078  0.540542  0.458682  1
  Ge  Ge32  1  0.323175  0.959502  0.458729  1
  Ge  Ge33  1  0.823240  0.540572  0.041269  1
  Ge  Ge34  1  0.677031  0.040401  0.958682  1
  Ge  Ge35  1  0.176832  0.459510  0.541290  1
