# generated using pymatgen
data_Hf6TaTi3Ga5Si
_symmetry_space_group_name_H-M   'P 1'
_cell_length_a   7.86672917
_cell_length_b   7.85829054
_cell_length_c   5.43800217
_cell_angle_alpha   90.05750949
_cell_angle_beta   90.01329171
_cell_angle_gamma   120.05499650
_symmetry_Int_Tables_number   1
_chemical_formula_structural   Hf6TaTi3Ga5Si
_chemical_formula_sum   'Hf6 Ta1 Ti3 Ga5 Si1'
_cell_volume   290.97184555
_cell_formula_units_Z   1
loop_
 _symmetry_equiv_pos_site_id
 _symmetry_equiv_pos_as_xyz
  1  'x, y, z'
loop_
 _atom_site_type_symbol
 _atom_site_label
 _atom_site_symmetry_multiplicity
 _atom_site_fract_x
 _atom_site_fract_y
 _atom_site_fract_z
 _atom_site_occupancy
  Hf  Hf0  1  0.248266  0.998868  0.248884  1
  Hf  Hf1  1  0.752372  0.998984  0.751166  1
  Hf  Hf2  1  0.998096  0.241947  0.248368  1
  Hf  Hf3  1  0.999905  0.757762  0.751580  1
  Hf  Hf4  1  0.755250  0.759308  0.248659  1
  Hf  Hf5  1  0.240708  0.243678  0.751574  1
  Ta  Ta6  1  0.336574  0.670596  0.002112  1
  Ti  Ti7  1  0.666319  0.329643  0.002274  1
  Ti  Ti8  1  0.666103  0.329474  0.497691  1
  Ti  Ti9  1  0.336489  0.670375  0.498714  1
  Ga  Ga10  1  0.398305  0.002241  0.747975  1
  Ga  Ga11  1  0.997607  0.600643  0.252052  1
  Ga  Ga12  1  0.999615  0.400411  0.748140  1
  Ga  Ga13  1  0.398869  0.397576  0.251946  1
  Ga  Ga14  1  0.601190  0.597771  0.748172  1
  Si  Si15  1  0.604331  0.000724  0.250694  1
