# generated using pymatgen
data_Yb3In2AgPt3
_symmetry_space_group_name_H-M   'P 1'
_cell_length_a   7.51155500
_cell_length_b   7.47004530
_cell_length_c   4.05605300
_cell_angle_alpha   90.00000000
_cell_angle_beta   90.00000000
_cell_angle_gamma   120.18398456
_symmetry_Int_Tables_number   1
_chemical_formula_structural   Yb3In2AgPt3
_chemical_formula_sum   'Yb3 In2 Ag1 Pt3'
_cell_volume   196.73389508
_cell_formula_units_Z   1
loop_
 _symmetry_equiv_pos_site_id
 _symmetry_equiv_pos_as_xyz
  1  'x, y, z'
loop_
 _atom_site_type_symbol
 _atom_site_label
 _atom_site_symmetry_multiplicity
 _atom_site_fract_x
 _atom_site_fract_y
 _atom_site_fract_z
 _atom_site_occupancy
  Yb  Yb0  1  0.419199  0.000000  0.000000  1
  Yb  Yb1  1  0.988214  0.392678  0.000000  1
  Yb  Yb2  1  0.595536  0.607322  0.000000  1
  In  In3  1  0.996006  0.739765  0.500000  1
  In  In4  1  0.256240  0.260235  0.500000  1
  Ag  Ag5  1  0.742267  0.000000  0.500000  1
  Pt  Pt6  1  0.321652  0.660246  0.500000  1
  Pt  Pt7  1  0.661406  0.339754  0.500000  1
  Pt  Pt8  1  0.019480  0.000000  0.000000  1
