# generated using pymatgen
data_Ce6Mg(ScRu2)3
_symmetry_space_group_name_H-M   'P 1'
_cell_length_a   6.32307700
_cell_length_b   7.85436298
_cell_length_c   7.85436200
_cell_angle_alpha   120.00001272
_cell_angle_beta   90.00000000
_cell_angle_gamma   90.00000000
_symmetry_Int_Tables_number   1
_chemical_formula_structural   Ce6Mg(ScRu2)3
_chemical_formula_sum   'Ce6 Mg1 Sc3 Ru6'
_cell_volume   337.81655442
_cell_formula_units_Z   1
loop_
 _symmetry_equiv_pos_site_id
 _symmetry_equiv_pos_as_xyz
  1  'x, y, z'
loop_
 _atom_site_type_symbol
 _atom_site_label
 _atom_site_symmetry_multiplicity
 _atom_site_fract_x
 _atom_site_fract_y
 _atom_site_fract_z
 _atom_site_occupancy
  Ce  Ce0  1  0.751164  0.751583  0.750382  1
  Ce  Ce1  1  0.248836  0.249618  0.248417  1
  Ce  Ce2  1  0.751164  0.998799  0.248417  1
  Ce  Ce3  1  0.248836  0.998799  0.750382  1
  Ce  Ce4  1  0.751164  0.249618  0.001201  1
  Ce  Ce5  1  0.248836  0.751583  0.001201  1
  Mg  Mg6  1  0.000000  0.666667  0.333333  1
  Sc  Sc7  1  0.000000  0.333333  0.666667  1
  Sc  Sc8  1  0.500000  0.333333  0.666667  1
  Sc  Sc9  1  0.500000  0.666667  0.333333  1
  Ru  Ru10  1  0.749101  0.375031  0.377109  1
  Ru  Ru11  1  0.250899  0.622891  0.624969  1
  Ru  Ru12  1  0.749101  0.002078  0.624969  1
  Ru  Ru13  1  0.250899  0.002078  0.377109  1
  Ru  Ru14  1  0.749101  0.622891  0.997922  1
  Ru  Ru15  1  0.250899  0.375031  0.997922  1
