# generated using pymatgen
data_PrNd3Mn4Al4O20
_symmetry_space_group_name_H-M   'P 1'
_cell_length_a   5.73383900
_cell_length_b   7.48048946
_cell_length_c   8.59250653
_cell_angle_alpha   89.95977919
_cell_angle_beta   90.00000000
_cell_angle_gamma   90.00000000
_symmetry_Int_Tables_number   1
_chemical_formula_structural   PrNd3Mn4Al4O20
_chemical_formula_sum   'Pr1 Nd3 Mn4 Al4 O20'
_cell_volume   368.54903083
_cell_formula_units_Z   1
loop_
 _symmetry_equiv_pos_site_id
 _symmetry_equiv_pos_as_xyz
  1  'x, y, z'
loop_
 _atom_site_type_symbol
 _atom_site_label
 _atom_site_symmetry_multiplicity
 _atom_site_fract_x
 _atom_site_fract_y
 _atom_site_fract_z
 _atom_site_occupancy
  Pr  Pr0  1  0.500000  0.863914  0.170025  1
  Nd  Nd1  1  0.500000  0.363810  0.330053  1
  Nd  Nd2  1  0.500000  0.635826  0.670021  1
  Nd  Nd3  1  0.500000  0.136448  0.829573  1
  Mn  Mn4  1  0.243162  0.000330  0.500410  1
  Mn  Mn5  1  0.756838  0.000330  0.500410  1
  Mn  Mn6  1  0.756786  0.499269  0.999740  1
  Mn  Mn7  1  0.243214  0.499269  0.999740  1
  Al  Al8  1  0.000000  0.108437  0.139782  1
  Al  Al9  1  0.000000  0.892780  0.859773  1
  Al  Al10  1  0.000000  0.392421  0.640028  1
  Al  Al11  1  0.000000  0.607057  0.360298  1
  O  O12  1  0.000000  0.339657  0.066272  1
  O  O13  1  0.000000  0.660343  0.933198  1
  O  O14  1  0.000000  0.160313  0.567378  1
  O  O15  1  0.000000  0.839811  0.432877  1
  O  O16  1  0.213598  0.001393  0.999197  1
  O  O17  1  0.786402  0.001393  0.999197  1
  O  O18  1  0.785723  0.500059  0.500287  1
  O  O19  1  0.214277  0.500059  0.500287  1
  O  O20  1  0.241690  0.099826  0.289974  1
  O  O21  1  0.757438  0.901447  0.710448  1
  O  O22  1  0.242562  0.901447  0.710448  1
  O  O23  1  0.757581  0.401275  0.789431  1
  O  O24  1  0.758310  0.099826  0.289974  1
  O  O25  1  0.241953  0.596597  0.210550  1
  O  O26  1  0.758047  0.596597  0.210550  1
  O  O27  1  0.242419  0.401275  0.789431  1
  O  O28  1  0.500000  0.342192  0.052127  1
  O  O29  1  0.500000  0.655958  0.947107  1
  O  O30  1  0.500000  0.157434  0.552270  1
  O  O31  1  0.500000  0.843208  0.449149  1
