# generated using pymatgen
data_Ho12Co2Ni3Pb
_symmetry_space_group_name_H-M   'P 1'
_cell_length_a   8.28265283
_cell_length_b   8.28266429
_cell_length_c   8.28265310
_cell_angle_alpha   111.17227185
_cell_angle_beta   109.34722170
_cell_angle_gamma   107.91065283
_symmetry_Int_Tables_number   1
_chemical_formula_structural   Ho12Co2Ni3Pb
_chemical_formula_sum   'Ho12 Co2 Ni3 Pb1'
_cell_volume   437.05198067
_cell_formula_units_Z   1
loop_
 _symmetry_equiv_pos_site_id
 _symmetry_equiv_pos_as_xyz
  1  'x, y, z'
loop_
 _atom_site_type_symbol
 _atom_site_label
 _atom_site_symmetry_multiplicity
 _atom_site_fract_x
 _atom_site_fract_y
 _atom_site_fract_z
 _atom_site_occupancy
  Ho  Ho0  1  0.817340  0.708309  0.525652  1
  Ho  Ho1  1  0.182660  0.291691  0.474348  1
  Ho  Ho2  1  0.182658  0.708309  0.890969  1
  Ho  Ho3  1  0.817342  0.291691  0.109031  1
  Ho  Ho4  1  0.683312  0.375304  0.691993  1
  Ho  Ho5  1  0.316688  0.624696  0.308007  1
  Ho  Ho6  1  0.683321  0.991322  0.308001  1
  Ho  Ho7  1  0.316679  0.008678  0.691999  1
  Ho  Ho8  1  0.595896  0.788991  0.806877  1
  Ho  Ho9  1  0.404104  0.211009  0.193123  1
  Ho  Ho10  1  0.982114  0.788991  0.193096  1
  Ho  Ho11  1  0.017886  0.211009  0.806904  1
  Co  Co12  1  0.114612  0.614617  0.500005  1
  Co  Co13  1  0.885388  0.385383  0.499995  1
  Ni  Ni14  1  0.633059  0.000000  0.633059  1
  Ni  Ni15  1  0.366941  0.000000  0.366941  1
  Ni  Ni16  1  0.000000  0.000000  0.000000  1
  Pb  Pb17  1  0.500000  0.500000  0.000000  1
