# generated using pymatgen
data_Er13Th3Mg3CdIr4
_symmetry_space_group_name_H-M   'P 1'
_cell_length_a   9.69079795
_cell_length_b   9.70397864
_cell_length_c   9.70398000
_cell_angle_alpha   60.00000218
_cell_angle_beta   59.95499944
_cell_angle_gamma   59.95500643
_symmetry_Int_Tables_number   1
_chemical_formula_structural   Er13Th3Mg3CdIr4
_chemical_formula_sum   'Er13 Th3 Mg3 Cd1 Ir4'
_cell_volume   644.83493927
_cell_formula_units_Z   1
loop_
 _symmetry_equiv_pos_site_id
 _symmetry_equiv_pos_as_xyz
  1  'x, y, z'
loop_
 _atom_site_type_symbol
 _atom_site_label
 _atom_site_symmetry_multiplicity
 _atom_site_fract_x
 _atom_site_fract_y
 _atom_site_fract_z
 _atom_site_occupancy
  Er  Er0  1  0.202681  0.599106  0.599106  1
  Er  Er1  1  0.063068  0.437633  0.437633  1
  Er  Er2  1  0.436990  0.063458  0.063458  1
  Er  Er3  1  0.436990  0.063458  0.436094  1
  Er  Er4  1  0.063068  0.437633  0.061664  1
  Er  Er5  1  0.436990  0.436094  0.063458  1
  Er  Er6  1  0.063068  0.061664  0.437633  1
  Er  Er7  1  0.187589  0.814274  0.814274  1
  Er  Er8  1  0.816433  0.183559  0.183559  1
  Er  Er9  1  0.816433  0.183559  0.816449  1
  Er  Er10  1  0.187589  0.814274  0.183862  1
  Er  Er11  1  0.816433  0.816449  0.183559  1
  Er  Er12  1  0.187589  0.183862  0.814274  1
  Th  Th13  1  0.597123  0.599686  0.599686  1
  Th  Th14  1  0.597123  0.599686  0.203503  1
  Th  Th15  1  0.597123  0.203503  0.599686  1
  Mg  Mg16  1  0.831620  0.829999  0.829999  1
  Mg  Mg17  1  0.831620  0.829999  0.508381  1
  Mg  Mg18  1  0.831620  0.508381  0.829999  1
  Cd  Cd19  1  0.499186  0.833604  0.833604  1
  Ir  Ir20  1  0.392207  0.392275  0.392275  1
  Ir  Ir21  1  0.392207  0.392275  0.823243  1
  Ir  Ir22  1  0.392207  0.823243  0.392275  1
  Ir  Ir23  1  0.823042  0.392319  0.392319  1
