# generated using pymatgen
data_Sr3MgMnO6
_symmetry_space_group_name_H-M   'P 1'
_cell_length_a   6.68463756
_cell_length_b   6.68463790
_cell_length_c   6.68463797
_cell_angle_alpha   93.18011213
_cell_angle_beta   93.18011347
_cell_angle_gamma   93.18010115
_symmetry_Int_Tables_number   1
_chemical_formula_structural   Sr3MgMnO6
_chemical_formula_sum   'Sr6 Mg2 Mn2 O12'
_cell_volume   297.26562865
_cell_formula_units_Z   2
loop_
 _symmetry_equiv_pos_site_id
 _symmetry_equiv_pos_as_xyz
  1  'x, y, z'
loop_
 _atom_site_type_symbol
 _atom_site_label
 _atom_site_symmetry_multiplicity
 _atom_site_fract_x
 _atom_site_fract_y
 _atom_site_fract_z
 _atom_site_occupancy
  Sr  Sr0  1  0.886214  0.613786  0.250000  1
  Sr  Sr1  1  0.250000  0.886214  0.613786  1
  Sr  Sr2  1  0.613786  0.250000  0.886214  1
  Sr  Sr3  1  0.750000  0.113786  0.386214  1
  Sr  Sr4  1  0.386214  0.750000  0.113786  1
  Sr  Sr5  1  0.113786  0.386214  0.750000  1
  Mg  Mg6  1  0.250000  0.250000  0.250000  1
  Mg  Mg7  1  0.750000  0.750000  0.750000  1
  Mn  Mn8  1  0.500000  0.500000  0.500000  1
  Mn  Mn9  1  0.000000  0.000000  0.000000  1
  O  O10  1  0.220860  0.537317  0.410797  1
  O  O11  1  0.410797  0.220860  0.537317  1
  O  O12  1  0.537317  0.410797  0.220860  1
  O  O13  1  0.910797  0.037317  0.720860  1
  O  O14  1  0.720860  0.910797  0.037317  1
  O  O15  1  0.037317  0.720860  0.910797  1
  O  O16  1  0.779140  0.462683  0.589203  1
  O  O17  1  0.589203  0.779140  0.462683  1
  O  O18  1  0.462683  0.589203  0.779140  1
  O  O19  1  0.089203  0.962683  0.279140  1
  O  O20  1  0.279140  0.089203  0.962683  1
  O  O21  1  0.962683  0.279140  0.089203  1
