# generated using pymatgen
data_Dy3Er5Tc2(B12Rh)2
_symmetry_space_group_name_H-M   'P 1'
_cell_length_a   3.66466900
_cell_length_b   9.11815665
_cell_length_c   11.51042801
_cell_angle_alpha   90.36362990
_cell_angle_beta   90.00000000
_cell_angle_gamma   90.00000000
_symmetry_Int_Tables_number   1
_chemical_formula_structural   Dy3Er5Tc2(B12Rh)2
_chemical_formula_sum   'Dy3 Er5 Tc2 B24 Rh2'
_cell_volume   384.61350547
_cell_formula_units_Z   1
loop_
 _symmetry_equiv_pos_site_id
 _symmetry_equiv_pos_as_xyz
  1  'x, y, z'
loop_
 _atom_site_type_symbol
 _atom_site_label
 _atom_site_symmetry_multiplicity
 _atom_site_fract_x
 _atom_site_fract_y
 _atom_site_fract_z
 _atom_site_occupancy
  Dy  Dy0  1  0.500000  0.318905  0.410976  1
  Dy  Dy1  1  0.500000  0.681092  0.588985  1
  Dy  Dy2  1  0.500000  0.173595  0.917013  1
  Er  Er3  1  0.500000  0.826527  0.082774  1
  Er  Er4  1  0.500000  0.442132  0.126699  1
  Er  Er5  1  0.500000  0.558106  0.873440  1
  Er  Er6  1  0.500000  0.053751  0.628519  1
  Er  Er7  1  0.500000  0.946126  0.371464  1
  Tc  Tc8  1  0.500000  0.139091  0.180076  1
  Tc  Tc9  1  0.500000  0.860499  0.820054  1
  B  B10  1  0.000000  0.107175  0.471207  1
  B  B11  1  0.000000  0.892781  0.528771  1
  B  B12  1  0.000000  0.393797  0.970477  1
  B  B13  1  0.000000  0.606836  0.029700  1
  B  B14  1  0.000000  0.132108  0.314823  1
  B  B15  1  0.000000  0.867746  0.685155  1
  B  B16  1  0.000000  0.367649  0.816546  1
  B  B17  1  0.000000  0.632802  0.183237  1
  B  B18  1  0.000000  0.052922  0.067540  1
  B  B19  1  0.000000  0.946496  0.932760  1
  B  B20  1  0.000000  0.445436  0.566173  1
  B  B21  1  0.000000  0.554624  0.433765  1
  B  B22  1  0.000000  0.483786  0.287351  1
  B  B23  1  0.000000  0.516352  0.712637  1
  B  B24  1  0.000000  0.016416  0.786885  1
  B  B25  1  0.000000  0.983016  0.213014  1
  B  B26  1  0.000000  0.248429  0.081244  1
  B  B27  1  0.000000  0.751534  0.919239  1
  B  B28  1  0.000000  0.250365  0.578972  1
  B  B29  1  0.000000  0.749595  0.420950  1
  B  B30  1  0.000000  0.292996  0.234461  1
  B  B31  1  0.000000  0.706969  0.765641  1
  B  B32  1  0.000000  0.208157  0.734675  1
  B  B33  1  0.000000  0.792028  0.264977  1
  Rh  Rh34  1  0.500000  0.361549  0.678846  1
  Rh  Rh35  1  0.500000  0.638610  0.320952  1
