# generated using pymatgen
data_NbW3F20
_symmetry_space_group_name_H-M   'P 1'
_cell_length_a   9.04288656
_cell_length_b   9.04288726
_cell_length_c   5.40704580
_cell_angle_alpha   87.16001521
_cell_angle_beta   87.16001359
_cell_angle_gamma   112.74641242
_symmetry_Int_Tables_number   1
_chemical_formula_structural   NbW3F20
_chemical_formula_sum   'Nb1 W3 F20'
_cell_volume   406.13086037
_cell_formula_units_Z   1
loop_
 _symmetry_equiv_pos_site_id
 _symmetry_equiv_pos_as_xyz
  1  'x, y, z'
loop_
 _atom_site_type_symbol
 _atom_site_label
 _atom_site_symmetry_multiplicity
 _atom_site_fract_x
 _atom_site_fract_y
 _atom_site_fract_z
 _atom_site_occupancy
  Nb  Nb0  1  0.797061  0.202939  0.000000  1
  W  W1  1  0.746079  0.748823  0.758095  1
  W  W2  1  0.251177  0.253921  0.241905  1
  W  W3  1  0.197990  0.802010  0.000000  1
  F  F4  1  0.400484  0.831767  0.120359  1
  F  F5  1  0.168233  0.599516  0.879641  1
  F  F6  1  0.598674  0.167594  0.876623  1
  F  F7  1  0.832406  0.401326  0.123377  1
  F  F8  1  0.139047  0.137012  0.536309  1
  F  F9  1  0.862988  0.860953  0.463691  1
  F  F10  1  0.330913  0.329614  0.913281  1
  F  F11  1  0.670386  0.669087  0.086719  1
  F  F12  1  0.272077  0.457410  0.346909  1
  F  F13  1  0.542590  0.727923  0.653091  1
  F  F14  1  0.725221  0.544062  0.655120  1
  F  F15  1  0.455938  0.274779  0.344880  1
  F  F16  1  0.025311  0.219908  0.122178  1
  F  F17  1  0.780092  0.974689  0.877822  1
  F  F18  1  0.974017  0.779606  0.877746  1
  F  F19  1  0.220394  0.025983  0.122254  1
  F  F20  1  0.921854  0.278793  0.695356  1
  F  F21  1  0.721207  0.078146  0.304644  1
  F  F22  1  0.082275  0.716415  0.306541  1
  F  F23  1  0.283585  0.917725  0.693459  1
