# generated using pymatgen
data_Tm4LuCoRu
_symmetry_space_group_name_H-M   'P 1'
_cell_length_a   6.19930863
_cell_length_b   7.07625809
_cell_length_c   8.35147480
_cell_angle_alpha   96.69478648
_cell_angle_beta   112.31845732
_cell_angle_gamma   89.59720079
_symmetry_Int_Tables_number   1
_chemical_formula_structural   Tm4LuCoRu
_chemical_formula_sum   'Tm8 Lu2 Co2 Ru2'
_cell_volume   336.32900963
_cell_formula_units_Z   2
loop_
 _symmetry_equiv_pos_site_id
 _symmetry_equiv_pos_as_xyz
  1  'x, y, z'
loop_
 _atom_site_type_symbol
 _atom_site_label
 _atom_site_symmetry_multiplicity
 _atom_site_fract_x
 _atom_site_fract_y
 _atom_site_fract_z
 _atom_site_occupancy
  Tm  Tm0  1  0.526125  0.088548  0.816060  1
  Tm  Tm1  1  0.473875  0.911452  0.183940  1
  Tm  Tm2  1  0.699917  0.417486  0.188223  1
  Tm  Tm3  1  0.300083  0.582514  0.811777  1
  Tm  Tm4  1  0.288608  0.319712  0.432262  1
  Tm  Tm5  1  0.711392  0.680288  0.567738  1
  Tm  Tm6  1  0.856023  0.186544  0.565054  1
  Tm  Tm7  1  0.143977  0.813456  0.434946  1
  Lu  Lu8  1  0.077639  0.258587  0.000228  1
  Lu  Lu9  1  0.922361  0.741413  0.999772  1
  Co  Co10  1  0.325487  0.577150  0.226220  1
  Co  Co11  1  0.674513  0.422850  0.773780  1
  Ru  Ru12  1  0.105063  0.925652  0.785048  1
  Ru  Ru13  1  0.894937  0.074348  0.214952  1
