# generated using pymatgen
data_Hf16Ta2Ni4MoRh
_symmetry_space_group_name_H-M   'P 1'
_cell_length_a   8.71519079
_cell_length_b   8.71519077
_cell_length_c   8.69625316
_cell_angle_alpha   60.28741642
_cell_angle_beta   60.28740824
_cell_angle_gamma   60.53358075
_symmetry_Int_Tables_number   1
_chemical_formula_structural   Hf16Ta2Ni4MoRh
_chemical_formula_sum   'Hf16 Ta2 Ni4 Mo1 Rh1'
_cell_volume   470.95565115
_cell_formula_units_Z   1
loop_
 _symmetry_equiv_pos_site_id
 _symmetry_equiv_pos_as_xyz
  1  'x, y, z'
loop_
 _atom_site_type_symbol
 _atom_site_label
 _atom_site_symmetry_multiplicity
 _atom_site_fract_x
 _atom_site_fract_y
 _atom_site_fract_z
 _atom_site_occupancy
  Hf  Hf0  1  0.695297  0.101266  0.101529  1
  Hf  Hf1  1  0.101266  0.695297  0.101529  1
  Hf  Hf2  1  0.100600  0.100600  0.697785  1
  Hf  Hf3  1  0.103472  0.103472  0.101892  1
  Hf  Hf4  1  0.315489  0.315489  0.683949  1
  Hf  Hf5  1  0.685264  0.685264  0.314479  1
  Hf  Hf6  1  0.315191  0.684118  0.315231  1
  Hf  Hf7  1  0.683462  0.315001  0.687316  1
  Hf  Hf8  1  0.684118  0.315191  0.315231  1
  Hf  Hf9  1  0.315001  0.683462  0.687316  1
  Hf  Hf10  1  0.953341  0.953341  0.546073  1
  Hf  Hf11  1  0.547275  0.547275  0.953105  1
  Hf  Hf12  1  0.952871  0.547242  0.951499  1
  Hf  Hf13  1  0.551652  0.947160  0.551551  1
  Hf  Hf14  1  0.547242  0.952871  0.951499  1
  Hf  Hf15  1  0.947160  0.551652  0.551551  1
  Ta  Ta16  1  0.002664  0.334019  0.331229  1
  Ta  Ta17  1  0.334019  0.002664  0.331229  1
  Ni  Ni18  1  0.326334  0.888312  0.891455  1
  Ni  Ni19  1  0.888312  0.326334  0.891455  1
  Ni  Ni20  1  0.890276  0.890276  0.324377  1
  Ni  Ni21  1  0.890923  0.890923  0.892234  1
  Mo  Mo22  1  0.334227  0.334227  0.992676  1
  Rh  Rh23  1  0.334540  0.334540  0.333807  1
