# generated using pymatgen
data_TbLuAl20(RuRh)2
_symmetry_space_group_name_H-M   'P 1'
_cell_length_a   6.84340664
_cell_length_b   6.84096848
_cell_length_c   9.15138800
_cell_angle_alpha   90.00000000
_cell_angle_beta   90.00000000
_cell_angle_gamma   97.08861430
_symmetry_Int_Tables_number   1
_chemical_formula_structural   TbLuAl20(RuRh)2
_chemical_formula_sum   'Tb1 Lu1 Al20 Ru2 Rh2'
_cell_volume   425.15238065
_cell_formula_units_Z   1
loop_
 _symmetry_equiv_pos_site_id
 _symmetry_equiv_pos_as_xyz
  1  'x, y, z'
loop_
 _atom_site_type_symbol
 _atom_site_label
 _atom_site_symmetry_multiplicity
 _atom_site_fract_x
 _atom_site_fract_y
 _atom_site_fract_z
 _atom_site_occupancy
  Tb  Tb0  1  0.130627  0.874706  0.250000  1
  Lu  Lu1  1  0.867513  0.125986  0.750000  1
  Al  Al2  1  0.621531  0.375301  0.550471  1
  Al  Al3  1  0.379235  0.624197  0.450311  1
  Al  Al4  1  0.379235  0.624197  0.049689  1
  Al  Al5  1  0.621531  0.375301  0.949529  1
  Al  Al6  1  0.224096  0.222701  0.499828  1
  Al  Al7  1  0.775646  0.777638  0.501792  1
  Al  Al8  1  0.775646  0.777638  0.998208  1
  Al  Al9  1  0.224096  0.222701  0.000172  1
  Al  Al10  1  0.844336  0.154602  0.100831  1
  Al  Al11  1  0.154766  0.846303  0.898234  1
  Al  Al12  1  0.154766  0.846303  0.601766  1
  Al  Al13  1  0.844336  0.154602  0.399169  1
  Al  Al14  1  0.855934  0.586938  0.750000  1
  Al  Al15  1  0.143321  0.410728  0.250000  1
  Al  Al16  1  0.413345  0.142035  0.750000  1
  Al  Al17  1  0.588746  0.858634  0.250000  1
  Al  Al18  1  0.223406  0.479561  0.750000  1
  Al  Al19  1  0.775632  0.519311  0.250000  1
  Al  Al20  1  0.519451  0.778516  0.750000  1
  Al  Al21  1  0.481749  0.222226  0.250000  1
  Ru  Ru22  1  0.500419  0.000073  0.999090  1
  Ru  Ru23  1  0.500419  0.000073  0.500910  1
  Rh  Rh24  1  0.000110  0.499866  0.500507  1
  Rh  Rh25  1  0.000110  0.499866  0.999493  1
