# generated using pymatgen
data_BaNaFeCo3As4
_symmetry_space_group_name_H-M   'P 1'
_cell_length_a   5.43935100
_cell_length_b   6.96776364
_cell_length_c   5.43114824
_cell_angle_alpha   67.22702127
_cell_angle_beta   89.99781538
_cell_angle_gamma   90.00126088
_symmetry_Int_Tables_number   1
_chemical_formula_structural   BaNaFeCo3As4
_chemical_formula_sum   'Ba1 Na1 Fe1 Co3 As4'
_cell_volume   189.79494750
_cell_formula_units_Z   1
loop_
 _symmetry_equiv_pos_site_id
 _symmetry_equiv_pos_as_xyz
  1  'x, y, z'
loop_
 _atom_site_type_symbol
 _atom_site_label
 _atom_site_symmetry_multiplicity
 _atom_site_fract_x
 _atom_site_fract_y
 _atom_site_fract_z
 _atom_site_occupancy
  Ba  Ba0  1  0.997839  0.999972  0.000016  1
  Na  Na1  1  0.500602  0.999991  0.500010  1
  Fe  Fe2  1  0.251443  0.500032  0.499972  1
  Co  Co3  1  0.251186  0.500023  0.999974  1
  Co  Co4  1  0.748920  0.499987  0.000047  1
  Co  Co5  1  0.748523  0.499995  0.499974  1
  As  As6  1  0.498012  0.703940  0.150919  1
  As  As7  1  0.002670  0.700471  0.647902  1
  As  As8  1  0.002734  0.299519  0.352082  1
  As  As9  1  0.498072  0.296066  0.849104  1
