# generated using pymatgen
data_La10AlPb5
_symmetry_space_group_name_H-M   'P 1'
_cell_length_a   6.35727935
_cell_length_b   9.68663611
_cell_length_c   9.68648749
_cell_angle_alpha   96.14448667
_cell_angle_beta   109.15523384
_cell_angle_gamma   70.84224569
_symmetry_Int_Tables_number   1
_chemical_formula_structural   La10AlPb5
_chemical_formula_sum   'La10 Al1 Pb5'
_cell_volume   532.26769369
_cell_formula_units_Z   1
loop_
 _symmetry_equiv_pos_site_id
 _symmetry_equiv_pos_as_xyz
  1  'x, y, z'
loop_
 _atom_site_type_symbol
 _atom_site_label
 _atom_site_symmetry_multiplicity
 _atom_site_fract_x
 _atom_site_fract_y
 _atom_site_fract_z
 _atom_site_occupancy
  La  La0  1  0.249983  0.500017  0.499983  1
  La  La1  1  0.749995  0.500005  0.499995  1
  La  La2  1  0.425227  0.866446  0.700787  1
  La  La3  1  0.590889  0.133540  0.299198  1
  La  La4  1  0.909113  0.299213  0.133554  1
  La  La5  1  0.074770  0.700802  0.866460  1
  La  La6  1  0.724547  0.700783  0.133673  1
  La  La7  1  0.291637  0.299188  0.866328  1
  La  La8  1  0.775503  0.133672  0.700812  1
  La  La9  1  0.208342  0.866327  0.299217  1
  Al  Al10  1  0.750001  0.999999  0.000001  1
  Pb  Pb11  1  0.338555  0.500041  0.177148  1
  Pb  Pb12  1  0.661448  0.499975  0.822856  1
  Pb  Pb13  1  0.838552  0.822852  0.499959  1
  Pb  Pb14  1  0.161432  0.177144  0.500025  1
  Pb  Pb15  1  0.250005  0.999995  0.000005  1
