# generated using pymatgen
data_CeTi2CuAu3
_symmetry_space_group_name_H-M   'P 1'
_cell_length_a   5.60585441
_cell_length_b   5.60585286
_cell_length_c   5.65044515
_cell_angle_alpha   102.25437572
_cell_angle_beta   102.25436189
_cell_angle_gamma   124.89810095
_symmetry_Int_Tables_number   1
_chemical_formula_structural   CeTi2CuAu3
_chemical_formula_sum   'Ce1 Ti2 Cu1 Au3'
_cell_volume   129.39734712
_cell_formula_units_Z   1
loop_
 _symmetry_equiv_pos_site_id
 _symmetry_equiv_pos_as_xyz
  1  'x, y, z'
loop_
 _atom_site_type_symbol
 _atom_site_label
 _atom_site_symmetry_multiplicity
 _atom_site_fract_x
 _atom_site_fract_y
 _atom_site_fract_z
 _atom_site_occupancy
  Ce  Ce0  1  0.005042  0.005042  0.010083  1
  Ti  Ti1  1  0.249199  0.749199  0.498398  1
  Ti  Ti2  1  0.749199  0.249199  0.498398  1
  Cu  Cu3  1  0.300511  0.300511  0.601022  1
  Au  Au4  1  0.706990  0.706990  0.413981  1
  Au  Au5  1  0.683033  0.306026  0.989059  1
  Au  Au6  1  0.306026  0.683033  0.989059  1
