# generated using pymatgen
data_Sm6NiI10
_symmetry_space_group_name_H-M   'P 1'
_cell_length_a   7.83476393
_cell_length_b   9.81781959
_cell_length_c   9.83820837
_cell_angle_alpha   107.35445849
_cell_angle_beta   97.06538322
_cell_angle_gamma   104.93996905
_symmetry_Int_Tables_number   1
_chemical_formula_structural   Sm6NiI10
_chemical_formula_sum   'Sm6 Ni1 I10'
_cell_volume   681.29919222
_cell_formula_units_Z   1
loop_
 _symmetry_equiv_pos_site_id
 _symmetry_equiv_pos_as_xyz
  1  'x, y, z'
loop_
 _atom_site_type_symbol
 _atom_site_label
 _atom_site_symmetry_multiplicity
 _atom_site_fract_x
 _atom_site_fract_y
 _atom_site_fract_z
 _atom_site_occupancy
  Sm  Sm0  1  0.886184  0.959942  0.239519  1
  Sm  Sm1  1  0.113816  0.040058  0.760481  1
  Sm  Sm2  1  0.030152  0.715870  0.914525  1
  Sm  Sm3  1  0.969848  0.284130  0.085475  1
  Sm  Sm4  1  0.654200  0.876175  0.835263  1
  Sm  Sm5  1  0.345800  0.123825  0.164737  1
  Ni  Ni6  1  0.000000  0.000000  0.000000  1
  I  I7  1  0.644507  0.546169  0.726749  1
  I  I8  1  0.355493  0.453831  0.273251  1
  I  I9  1  0.738728  0.911260  0.536642  1
  I  I10  1  0.261272  0.088740  0.463358  1
  I  I11  1  0.085604  0.371481  0.818522  1
  I  I12  1  0.914396  0.628519  0.181478  1
  I  I13  1  0.453591  0.814697  0.092799  1
  I  I14  1  0.546409  0.185303  0.907201  1
  I  I15  1  0.220480  0.740659  0.652256  1
  I  I16  1  0.779520  0.259341  0.347744  1
