# generated using pymatgen
data_Ta12Cr7Ga5C3N
_symmetry_space_group_name_H-M   'P 1'
_cell_length_a   8.19018366
_cell_length_b   8.20218877
_cell_length_c   8.20218957
_cell_angle_alpha   60.09923885
_cell_angle_beta   60.06888495
_cell_angle_gamma   60.06887834
_symmetry_Int_Tables_number   1
_chemical_formula_structural   Ta12Cr7Ga5C3N
_chemical_formula_sum   'Ta12 Cr7 Ga5 C3 N1'
_cell_volume   390.31471511
_cell_formula_units_Z   1
loop_
 _symmetry_equiv_pos_site_id
 _symmetry_equiv_pos_as_xyz
  1  'x, y, z'
loop_
 _atom_site_type_symbol
 _atom_site_label
 _atom_site_symmetry_multiplicity
 _atom_site_fract_x
 _atom_site_fract_y
 _atom_site_fract_z
 _atom_site_occupancy
  Ta  Ta0  1  0.810704  0.807732  0.190189  1
  Ta  Ta1  1  0.187759  0.199201  0.806564  1
  Ta  Ta2  1  0.810704  0.190189  0.807732  1
  Ta  Ta3  1  0.187759  0.806564  0.199201  1
  Ta  Ta4  1  0.187595  0.805787  0.805787  1
  Ta  Ta5  1  0.811447  0.189790  0.189790  1
  Ta  Ta6  1  0.446511  0.444908  0.054972  1
  Ta  Ta7  1  0.056115  0.054001  0.444868  1
  Ta  Ta8  1  0.446511  0.054972  0.444908  1
  Ta  Ta9  1  0.056115  0.444868  0.054001  1
  Ta  Ta10  1  0.055708  0.445771  0.445771  1
  Ta  Ta11  1  0.445618  0.054519  0.054519  1
  Cr  Cr12  1  0.104402  0.631769  0.631769  1
  Cr  Cr13  1  0.644787  0.108683  0.623287  1
  Cr  Cr14  1  0.644787  0.623287  0.108683  1
  Cr  Cr15  1  0.645303  0.623041  0.623041  1
  Cr  Cr16  1  0.820308  0.519510  0.830602  1
  Cr  Cr17  1  0.820308  0.830602  0.519510  1
  Cr  Cr18  1  0.820048  0.830355  0.830355  1
  Ga  Ga19  1  0.759579  0.413576  0.413576  1
  Ga  Ga20  1  0.416417  0.754189  0.415088  1
  Ga  Ga21  1  0.416417  0.415088  0.754189  1
  Ga  Ga22  1  0.416393  0.414919  0.414919  1
  Ga  Ga23  1  0.488587  0.836822  0.836822  1
  C  C24  1  0.624013  0.125165  0.125165  1
  C  C25  1  0.125731  0.624634  0.124896  1
  C  C26  1  0.125731  0.124896  0.624634  1
  N  N27  1  0.124641  0.125165  0.125165  1
