# generated using pymatgen
data_CeHf3(Al3Co)6
_symmetry_space_group_name_H-M   'P 1'
_cell_length_a   7.34235937
_cell_length_b   7.33005466
_cell_length_c   9.10705100
_cell_angle_alpha   90.00000000
_cell_angle_beta   90.00000000
_cell_angle_gamma   119.45950628
_symmetry_Int_Tables_number   1
_chemical_formula_structural   CeHf3(Al3Co)6
_chemical_formula_sum   'Ce1 Hf3 Al18 Co6'
_cell_volume   426.76707680
_cell_formula_units_Z   1
loop_
 _symmetry_equiv_pos_site_id
 _symmetry_equiv_pos_as_xyz
  1  'x, y, z'
loop_
 _atom_site_type_symbol
 _atom_site_label
 _atom_site_symmetry_multiplicity
 _atom_site_fract_x
 _atom_site_fract_y
 _atom_site_fract_z
 _atom_site_occupancy
  Ce  Ce0  1  0.328013  0.007940  0.750000  1
  Hf  Hf1  1  0.991915  0.671936  0.250000  1
  Hf  Hf2  1  0.006620  0.328267  0.750000  1
  Hf  Hf3  1  0.674407  0.993315  0.250000  1
  Al  Al4  1  0.115644  0.117332  0.250000  1
  Al  Al5  1  0.872755  0.878149  0.750000  1
  Al  Al6  1  0.329876  0.334214  0.541729  1
  Al  Al7  1  0.670257  0.670235  0.052530  1
  Al  Al8  1  0.329876  0.334214  0.958271  1
  Al  Al9  1  0.670257  0.670235  0.447470  1
  Al  Al10  1  0.338272  0.561672  0.250000  1
  Al  Al11  1  0.668551  0.448938  0.750000  1
  Al  Al12  1  0.563517  0.339898  0.250000  1
  Al  Al13  1  0.440982  0.653029  0.750000  1
  Al  Al14  1  0.993508  0.334716  0.074954  1
  Al  Al15  1  0.001318  0.660749  0.568838  1
  Al  Al16  1  0.335569  0.994420  0.420475  1
  Al  Al17  1  0.669527  0.005299  0.931177  1
  Al  Al18  1  0.001318  0.660749  0.931162  1
  Al  Al19  1  0.993508  0.334716  0.425046  1
  Al  Al20  1  0.669527  0.005299  0.568823  1
  Al  Al21  1  0.335569  0.994420  0.079525  1
  Co  Co22  1  0.998605  0.998523  0.001462  1
  Co  Co23  1  0.998605  0.998523  0.498538  1
  Co  Co24  1  0.672760  0.328580  0.001249  1
  Co  Co25  1  0.328243  0.673028  0.498387  1
  Co  Co26  1  0.328243  0.673028  0.001613  1
  Co  Co27  1  0.672760  0.328580  0.498751  1
