# generated using pymatgen
data_Tm7Lu9(ScBi3)4
_symmetry_space_group_name_H-M   'P 1'
_cell_length_a   8.03783206
_cell_length_b   9.32686900
_cell_length_c   11.77999208
_cell_angle_alpha   90.00000000
_cell_angle_beta   89.98635465
_cell_angle_gamma   90.00000000
_symmetry_Int_Tables_number   1
_chemical_formula_structural   Tm7Lu9(ScBi3)4
_chemical_formula_sum   'Tm7 Lu9 Sc4 Bi12'
_cell_volume   883.12014369
_cell_formula_units_Z   1
loop_
 _symmetry_equiv_pos_site_id
 _symmetry_equiv_pos_as_xyz
  1  'x, y, z'
loop_
 _atom_site_type_symbol
 _atom_site_label
 _atom_site_symmetry_multiplicity
 _atom_site_fract_x
 _atom_site_fract_y
 _atom_site_fract_z
 _atom_site_occupancy
  Tm  Tm0  1  0.355114  0.250000  0.282872  1
  Tm  Tm1  1  0.644839  0.750000  0.717163  1
  Tm  Tm2  1  0.144944  0.750000  0.782864  1
  Tm  Tm3  1  0.855089  0.250000  0.217157  1
  Tm  Tm4  1  0.186777  0.250000  0.781489  1
  Tm  Tm5  1  0.813383  0.750000  0.218558  1
  Tm  Tm6  1  0.313315  0.750000  0.281432  1
  Lu  Lu7  1  0.686721  0.250000  0.718393  1
  Lu  Lu8  1  0.195995  0.067098  0.058599  1
  Lu  Lu9  1  0.803936  0.932893  0.941351  1
  Lu  Lu10  1  0.303889  0.932831  0.558632  1
  Lu  Lu11  1  0.803936  0.567107  0.941351  1
  Lu  Lu12  1  0.696094  0.067100  0.441427  1
  Lu  Lu13  1  0.195995  0.432902  0.058599  1
  Lu  Lu14  1  0.696094  0.432900  0.441427  1
  Lu  Lu15  1  0.303889  0.567169  0.558632  1
  Sc  Sc16  1  0.023552  0.250000  0.511647  1
  Sc  Sc17  1  0.976400  0.750000  0.488412  1
  Sc  Sc18  1  0.476382  0.750000  0.011588  1
  Sc  Sc19  1  0.523660  0.250000  0.988262  1
  Bi  Bi20  1  0.401197  0.250000  0.543435  1
  Bi  Bi21  1  0.599095  0.750000  0.456862  1
  Bi  Bi22  1  0.099138  0.750000  0.043156  1
  Bi  Bi23  1  0.900742  0.250000  0.956761  1
  Bi  Bi24  1  0.065956  0.003707  0.329200  1
  Bi  Bi25  1  0.933806  0.996524  0.670854  1
  Bi  Bi26  1  0.434233  0.996431  0.829064  1
  Bi  Bi27  1  0.933806  0.503476  0.670854  1
  Bi  Bi28  1  0.565916  0.003675  0.170847  1
  Bi  Bi29  1  0.065956  0.496293  0.329200  1
  Bi  Bi30  1  0.565916  0.496325  0.170847  1
  Bi  Bi31  1  0.434233  0.503569  0.829064  1
