# generated using pymatgen
data_Cs4ZrTe4
_symmetry_space_group_name_H-M   'P 1'
_cell_length_a   9.86542800
_cell_length_b   11.65304300
_cell_length_c   17.12280200
_cell_angle_alpha   90.00000000
_cell_angle_beta   90.00000000
_cell_angle_gamma   90.00000000
_symmetry_Int_Tables_number   1
_chemical_formula_structural   Cs4ZrTe4
_chemical_formula_sum   'Cs16 Zr4 Te16'
_cell_volume   1968.47595890
_cell_formula_units_Z   4
loop_
 _symmetry_equiv_pos_site_id
 _symmetry_equiv_pos_as_xyz
  1  'x, y, z'
loop_
 _atom_site_type_symbol
 _atom_site_label
 _atom_site_symmetry_multiplicity
 _atom_site_fract_x
 _atom_site_fract_y
 _atom_site_fract_z
 _atom_site_occupancy
  Cs  Cs0  1  0.000000  0.000000  0.000000  1
  Cs  Cs1  1  0.500000  0.000000  0.500000  1
  Cs  Cs2  1  0.000000  0.500000  0.000000  1
  Cs  Cs3  1  0.500000  0.500000  0.500000  1
  Cs  Cs4  1  0.987747  0.750000  0.424347  1
  Cs  Cs5  1  0.487747  0.250000  0.075653  1
  Cs  Cs6  1  0.012253  0.250000  0.575653  1
  Cs  Cs7  1  0.512253  0.750000  0.924347  1
  Cs  Cs8  1  0.841229  0.052656  0.275628  1
  Cs  Cs9  1  0.341229  0.947344  0.224372  1
  Cs  Cs10  1  0.158771  0.552656  0.724372  1
  Cs  Cs11  1  0.658771  0.447344  0.775628  1
  Cs  Cs12  1  0.158771  0.947344  0.724372  1
  Cs  Cs13  1  0.658771  0.052656  0.775628  1
  Cs  Cs14  1  0.841229  0.447344  0.275628  1
  Cs  Cs15  1  0.341229  0.552656  0.224372  1
  Zr  Zr16  1  0.758498  0.750000  0.666933  1
  Zr  Zr17  1  0.241502  0.250000  0.333067  1
  Zr  Zr18  1  0.741502  0.750000  0.166933  1
  Zr  Zr19  1  0.258498  0.250000  0.833067  1
  Te  Te20  1  0.977214  0.250000  0.825476  1
  Te  Te21  1  0.522786  0.250000  0.325476  1
  Te  Te22  1  0.477214  0.750000  0.674524  1
  Te  Te23  1  0.022786  0.750000  0.174524  1
  Te  Te24  1  0.653143  0.556798  0.089442  1
  Te  Te25  1  0.153143  0.443202  0.410558  1
  Te  Te26  1  0.346857  0.056798  0.910558  1
  Te  Te27  1  0.846857  0.943202  0.589442  1
  Te  Te28  1  0.346857  0.443202  0.910558  1
  Te  Te29  1  0.846857  0.556798  0.589442  1
  Te  Te30  1  0.653143  0.943202  0.089442  1
  Te  Te31  1  0.153143  0.056798  0.410558  1
  Te  Te32  1  0.631107  0.750000  0.316689  1
  Te  Te33  1  0.131107  0.250000  0.183311  1
  Te  Te34  1  0.368893  0.250000  0.683311  1
  Te  Te35  1  0.868893  0.750000  0.816689  1
