# generated using pymatgen
data_La5TcRuO12
_symmetry_space_group_name_H-M   'P 1'
_cell_length_a   7.17638385
_cell_length_b   7.17638446
_cell_length_c   7.97287801
_cell_angle_alpha   73.72209916
_cell_angle_beta   73.72209597
_cell_angle_gamma   48.04719107
_symmetry_Int_Tables_number   1
_chemical_formula_structural   La5TcRuO12
_chemical_formula_sum   'La5 Tc1 Ru1 O12'
_cell_volume   290.63235364
_cell_formula_units_Z   1
loop_
 _symmetry_equiv_pos_site_id
 _symmetry_equiv_pos_as_xyz
  1  'x, y, z'
loop_
 _atom_site_type_symbol
 _atom_site_label
 _atom_site_symmetry_multiplicity
 _atom_site_fract_x
 _atom_site_fract_y
 _atom_site_fract_z
 _atom_site_occupancy
  La  La0  1  0.299482  0.318798  0.353118  1
  La  La1  1  0.681202  0.700518  0.646882  1
  La  La2  1  0.681422  0.688863  0.168500  1
  La  La3  1  0.311137  0.318578  0.831500  1
  La  La4  1  0.994379  0.005621  0.500000  1
  Tc  Tc5  1  0.794321  0.205679  0.000000  1
  Ru  Ru6  1  0.228513  0.771487  0.000000  1
  O  O7  1  0.087465  0.598547  0.579640  1
  O  O8  1  0.000963  0.997437  0.191773  1
  O  O9  1  0.401453  0.912535  0.420360  1
  O  O10  1  0.506218  0.491736  0.161437  1
  O  O11  1  0.087103  0.587952  0.078541  1
  O  O12  1  0.897686  0.409163  0.424822  1
  O  O13  1  0.002563  0.999037  0.808227  1
  O  O14  1  0.590837  0.102313  0.575178  1
  O  O15  1  0.508264  0.493782  0.838563  1
  O  O16  1  0.603027  0.088084  0.076891  1
  O  O17  1  0.412048  0.912897  0.921459  1
  O  O18  1  0.911916  0.396973  0.923109  1
