# generated using pymatgen
data_Ce2ZnCo(GeH2)2
_symmetry_space_group_name_H-M   'P 1'
_cell_length_a   4.18985100
_cell_length_b   4.18985177
_cell_length_c   8.38643700
_cell_angle_alpha   90.00000000
_cell_angle_beta   90.00000000
_cell_angle_gamma   120.00000185
_symmetry_Int_Tables_number   1
_chemical_formula_structural   Ce2ZnCo(GeH2)2
_chemical_formula_sum   'Ce2 Zn1 Co1 Ge2 H4'
_cell_volume   127.49858047
_cell_formula_units_Z   1
loop_
 _symmetry_equiv_pos_site_id
 _symmetry_equiv_pos_as_xyz
  1  'x, y, z'
loop_
 _atom_site_type_symbol
 _atom_site_label
 _atom_site_symmetry_multiplicity
 _atom_site_fract_x
 _atom_site_fract_y
 _atom_site_fract_z
 _atom_site_occupancy
  Ce  Ce0  1  0.000000  0.000000  0.483466  1
  Ce  Ce1  1  0.000000  0.000000  0.016534  1
  Zn  Zn2  1  0.666667  0.333333  0.750000  1
  Co  Co3  1  0.333333  0.666667  0.250000  1
  Ge  Ge4  1  0.333333  0.666667  0.750000  1
  Ge  Ge5  1  0.666667  0.333333  0.250000  1
  H  H6  1  0.333333  0.666667  0.439134  1
  H  H7  1  0.666667  0.333333  0.507494  1
  H  H8  1  0.333333  0.666667  0.060866  1
  H  H9  1  0.666667  0.333333  0.992506  1
