# generated using pymatgen
data_Sr2AgClO2
_symmetry_space_group_name_H-M   'P 1'
_cell_length_a   10.09898815
_cell_length_b   10.09898831
_cell_length_c   10.09898979
_cell_angle_alpha   22.93255115
_cell_angle_beta   22.93254963
_cell_angle_gamma   22.93255039
_symmetry_Int_Tables_number   1
_chemical_formula_structural   Sr2AgClO2
_chemical_formula_sum   'Sr2 Ag1 Cl1 O2'
_cell_volume   137.23476162
_cell_formula_units_Z   1
loop_
 _symmetry_equiv_pos_site_id
 _symmetry_equiv_pos_as_xyz
  1  'x, y, z'
loop_
 _atom_site_type_symbol
 _atom_site_label
 _atom_site_symmetry_multiplicity
 _atom_site_fract_x
 _atom_site_fract_y
 _atom_site_fract_z
 _atom_site_occupancy
  Sr  Sr0  1  0.259811  0.259811  0.259811  1
  Sr  Sr1  1  0.740189  0.740189  0.740189  1
  Ag  Ag2  1  0.500000  0.500000  0.500000  1
  Cl  Cl3  1  0.000000  0.000000  0.000000  1
  O  O4  1  0.429938  0.429938  0.429938  1
  O  O5  1  0.570062  0.570062  0.570062  1
