# generated using pymatgen
data_Ti7NbCr2(B2P)2
_symmetry_space_group_name_H-M   'P 1'
_cell_length_a   5.91942551
_cell_length_b   5.91942606
_cell_length_c   7.06846573
_cell_angle_alpha   114.80411748
_cell_angle_beta   114.80413695
_cell_angle_gamma   90.11359825
_symmetry_Int_Tables_number   1
_chemical_formula_structural   Ti7NbCr2(B2P)2
_chemical_formula_sum   'Ti7 Nb1 Cr2 B4 P2'
_cell_volume   199.26908618
_cell_formula_units_Z   1
loop_
 _symmetry_equiv_pos_site_id
 _symmetry_equiv_pos_as_xyz
  1  'x, y, z'
loop_
 _atom_site_type_symbol
 _atom_site_label
 _atom_site_symmetry_multiplicity
 _atom_site_fract_x
 _atom_site_fract_y
 _atom_site_fract_z
 _atom_site_occupancy
  Ti  Ti0  1  0.690228  0.190228  0.734032  1
  Ti  Ti1  1  0.190806  0.043531  0.733824  1
  Ti  Ti2  1  0.543531  0.690806  0.733824  1
  Ti  Ti3  1  0.957774  0.457774  0.266938  1
  Ti  Ti4  1  0.308976  0.808976  0.266541  1
  Ti  Ti5  1  0.809872  0.958831  0.267014  1
  Ti  Ti6  1  0.458831  0.309872  0.267014  1
  Nb  Nb7  1  0.039551  0.539551  0.729860  1
  Cr  Cr8  1  0.501643  0.500267  0.001609  1
  Cr  Cr9  1  0.000267  0.001643  0.001609  1
  B  B10  1  0.389529  0.889529  0.001876  1
  B  B11  1  0.612327  0.112327  0.999415  1
  B  B12  1  0.113561  0.385756  0.002594  1
  B  B13  1  0.885756  0.613561  0.002594  1
  P  P14  1  0.251350  0.246000  0.495628  1
  P  P15  1  0.746000  0.751350  0.495628  1
