# generated using pymatgen
data_CaPr3(Mo2O7)2
_symmetry_space_group_name_H-M   'P 1'
_cell_length_a   7.54493068
_cell_length_b   7.48976196
_cell_length_c   7.48976100
_cell_angle_alpha   59.99999983
_cell_angle_beta   60.24158630
_cell_angle_gamma   60.24159025
_symmetry_Int_Tables_number   1
_chemical_formula_structural   CaPr3(Mo2O7)2
_chemical_formula_sum   'Ca1 Pr3 Mo4 O14'
_cell_volume   300.36718745
_cell_formula_units_Z   1
loop_
 _symmetry_equiv_pos_site_id
 _symmetry_equiv_pos_as_xyz
  1  'x, y, z'
loop_
 _atom_site_type_symbol
 _atom_site_label
 _atom_site_symmetry_multiplicity
 _atom_site_fract_x
 _atom_site_fract_y
 _atom_site_fract_z
 _atom_site_occupancy
  Ca  Ca0  1  0.625000  0.125000  0.125000  1
  Pr  Pr1  1  0.125000  0.625000  0.125000  1
  Pr  Pr2  1  0.125000  0.125000  0.625000  1
  Pr  Pr3  1  0.125000  0.125000  0.125000  1
  Mo  Mo4  1  0.125000  0.625000  0.625000  1
  Mo  Mo5  1  0.625000  0.125000  0.625000  1
  Mo  Mo6  1  0.625000  0.625000  0.125000  1
  Mo  Mo7  1  0.625000  0.625000  0.625000  1
  O  O8  1  0.715048  0.693444  0.295754  1
  O  O9  1  0.289059  0.302960  0.703990  1
  O  O10  1  0.715048  0.295754  0.693444  1
  O  O11  1  0.289059  0.703990  0.302960  1
  O  O12  1  0.289059  0.703990  0.703990  1
  O  O13  1  0.715048  0.295754  0.295754  1
  O  O14  1  0.534952  0.556556  0.954246  1
  O  O15  1  0.960941  0.947040  0.546010  1
  O  O16  1  0.534952  0.954246  0.556556  1
  O  O17  1  0.960941  0.546010  0.947040  1
  O  O18  1  0.960941  0.546010  0.546010  1
  O  O19  1  0.534952  0.954246  0.954246  1
  O  O20  1  0.257733  0.247422  0.247422  1
  O  O21  1  0.992267  0.002578  0.002578  1
