# generated using pymatgen
data_LaTb4NdRh18
_symmetry_space_group_name_H-M   'P 1'
_cell_length_a   5.31449001
_cell_length_b   5.31413321
_cell_length_c   17.56268200
_cell_angle_alpha   90.00000000
_cell_angle_beta   90.00000000
_cell_angle_gamma   120.00259507
_symmetry_Int_Tables_number   1
_chemical_formula_structural   LaTb4NdRh18
_chemical_formula_sum   'La1 Tb4 Nd1 Rh18'
_cell_volume   429.54052564
_cell_formula_units_Z   1
loop_
 _symmetry_equiv_pos_site_id
 _symmetry_equiv_pos_as_xyz
  1  'x, y, z'
loop_
 _atom_site_type_symbol
 _atom_site_label
 _atom_site_symmetry_multiplicity
 _atom_site_fract_x
 _atom_site_fract_y
 _atom_site_fract_z
 _atom_site_occupancy
  La  La0  1  0.333338  0.666666  0.750000  1
  Tb  Tb1  1  0.333335  0.666652  0.541445  1
  Tb  Tb2  1  0.666684  0.333351  0.041854  1
  Tb  Tb3  1  0.666684  0.333351  0.458146  1
  Tb  Tb4  1  0.333335  0.666652  0.958555  1
  Nd  Nd5  1  0.666654  0.333320  0.250000  1
  Rh  Rh6  1  0.167256  0.334558  0.125503  1
  Rh  Rh7  1  0.832726  0.665460  0.624720  1
  Rh  Rh8  1  0.665474  0.832742  0.125510  1
  Rh  Rh9  1  0.167269  0.832764  0.125515  1
  Rh  Rh10  1  0.832723  0.167232  0.624727  1
  Rh  Rh11  1  0.334484  0.167234  0.624725  1
  Rh  Rh12  1  0.832726  0.665460  0.875280  1
  Rh  Rh13  1  0.832723  0.167232  0.875273  1
  Rh  Rh14  1  0.334484  0.167234  0.875275  1
  Rh  Rh15  1  0.665474  0.832742  0.374490  1
  Rh  Rh16  1  0.167269  0.832764  0.374485  1
  Rh  Rh17  1  0.167256  0.334558  0.374497  1
  Rh  Rh18  1  0.000042  0.000024  0.250000  1
  Rh  Rh19  1  0.000076  0.000024  0.750000  1
  Rh  Rh20  1  0.333327  0.666675  0.250000  1
  Rh  Rh21  1  0.666587  0.333292  0.750000  1
  Rh  Rh22  1  0.000039  0.000008  0.000269  1
  Rh  Rh23  1  0.000039  0.000008  0.499731  1
