# generated using pymatgen
data_Ho3ThHgIr
_symmetry_space_group_name_H-M   'P 1'
_cell_length_a   9.70174780
_cell_length_b   9.70174811
_cell_length_c   9.70174800
_cell_angle_alpha   60.00000038
_cell_angle_beta   59.99999932
_cell_angle_gamma   59.99999667
_symmetry_Int_Tables_number   1
_chemical_formula_structural   Ho3ThHgIr
_chemical_formula_sum   'Ho12 Th4 Hg4 Ir4'
_cell_volume   645.70619890
_cell_formula_units_Z   4
loop_
 _symmetry_equiv_pos_site_id
 _symmetry_equiv_pos_as_xyz
  1  'x, y, z'
loop_
 _atom_site_type_symbol
 _atom_site_label
 _atom_site_symmetry_multiplicity
 _atom_site_fract_x
 _atom_site_fract_y
 _atom_site_fract_z
 _atom_site_occupancy
  Ho  Ho0  1  0.062580  0.437420  0.437420  1
  Ho  Ho1  1  0.437420  0.062580  0.062580  1
  Ho  Ho2  1  0.437420  0.062580  0.437420  1
  Ho  Ho3  1  0.062580  0.437420  0.062580  1
  Ho  Ho4  1  0.437420  0.437420  0.062580  1
  Ho  Ho5  1  0.062580  0.062580  0.437420  1
  Ho  Ho6  1  0.185304  0.814696  0.814696  1
  Ho  Ho7  1  0.814696  0.185304  0.185304  1
  Ho  Ho8  1  0.814696  0.185304  0.814696  1
  Ho  Ho9  1  0.185304  0.814696  0.185304  1
  Ho  Ho10  1  0.814696  0.814696  0.185304  1
  Ho  Ho11  1  0.185304  0.185304  0.814696  1
  Th  Th12  1  0.601421  0.601421  0.601421  1
  Th  Th13  1  0.601421  0.601421  0.195738  1
  Th  Th14  1  0.601421  0.195738  0.601421  1
  Th  Th15  1  0.195738  0.601421  0.601421  1
  Hg  Hg16  1  0.837578  0.837578  0.837578  1
  Hg  Hg17  1  0.837578  0.837578  0.487265  1
  Hg  Hg18  1  0.837578  0.487265  0.837578  1
  Hg  Hg19  1  0.487265  0.837578  0.837578  1
  Ir  Ir20  1  0.393130  0.393130  0.393130  1
  Ir  Ir21  1  0.393130  0.393130  0.820609  1
  Ir  Ir22  1  0.393130  0.820609  0.393130  1
  Ir  Ir23  1  0.820609  0.393130  0.393130  1
