# generated using pymatgen
data_K4Al7(InTe4)5
_symmetry_space_group_name_H-M   'P 1'
_cell_length_a   11.09131093
_cell_length_b   11.13165309
_cell_length_c   11.16343675
_cell_angle_alpha   91.56070012
_cell_angle_beta   91.24712884
_cell_angle_gamma   90.98120918
_symmetry_Int_Tables_number   1
_chemical_formula_structural   K4Al7(InTe4)5
_chemical_formula_sum   'K4 Al7 In5 Te20'
_cell_volume   1377.23539566
_cell_formula_units_Z   1
loop_
 _symmetry_equiv_pos_site_id
 _symmetry_equiv_pos_as_xyz
  1  'x, y, z'
loop_
 _atom_site_type_symbol
 _atom_site_label
 _atom_site_symmetry_multiplicity
 _atom_site_fract_x
 _atom_site_fract_y
 _atom_site_fract_z
 _atom_site_occupancy
  K  K0  1  0.254039  0.001540  0.748957  1
  K  K1  1  0.745583  0.251498  0.999641  1
  K  K2  1  0.999902  0.747666  0.252329  1
  K  K3  1  0.500866  0.498200  0.497561  1
  Al  Al4  1  0.426997  0.111925  0.167436  1
  Al  Al5  1  0.735878  0.159726  0.354372  1
  Al  Al6  1  0.355144  0.740414  0.160459  1
  Al  Al7  1  0.161804  0.355815  0.738445  1
  Al  Al8  1  0.261859  0.644217  0.837801  1
  Al  Al9  1  0.838421  0.261737  0.643108  1
  Al  Al10  1  0.644676  0.840189  0.259499  1
  In  In11  1  0.835555  0.886154  0.575264  1
  In  In12  1  0.573183  0.837452  0.889087  1
  In  In13  1  0.885766  0.575398  0.836763  1
  In  In14  1  0.167654  0.423909  0.114368  1
  In  In15  1  0.116030  0.163193  0.423021  1
  Te  Te16  1  0.194696  0.802998  0.999218  1
  Te  Te17  1  0.806463  0.999181  0.196200  1
  Te  Te18  1  0.187180  0.169071  0.171690  1
  Te  Te19  1  0.828212  0.830864  0.829657  1
  Te  Te20  1  0.999938  0.197062  0.802666  1
  Te  Te21  1  0.926740  0.498161  0.074214  1
  Te  Te22  1  0.075166  0.925617  0.500428  1
  Te  Te23  1  0.492522  0.073966  0.942851  1
  Te  Te24  1  0.731844  0.702516  0.424934  1
  Te  Te25  1  0.426660  0.735769  0.701633  1
  Te  Te26  1  0.699885  0.426458  0.734312  1
  Te  Te27  1  0.266375  0.577047  0.299364  1
  Te  Te28  1  0.300088  0.265449  0.574090  1
  Te  Te29  1  0.562325  0.287978  0.263336  1
  Te  Te30  1  0.676913  0.086552  0.574848  1
  Te  Te31  1  0.575931  0.677274  0.085771  1
  Te  Te32  1  0.085089  0.575491  0.677830  1
  Te  Te33  1  0.323571  0.424632  0.913284  1
  Te  Te34  1  0.912772  0.320313  0.422275  1
  Te  Te35  1  0.424273  0.924567  0.313288  1
