# generated using pymatgen
data_Y8CuSnPd23
_symmetry_space_group_name_H-M   'P 1'
_cell_length_a   8.36755900
_cell_length_b   8.39060300
_cell_length_c   8.46703500
_cell_angle_alpha   90.00000000
_cell_angle_beta   90.00000000
_cell_angle_gamma   90.00000000
_symmetry_Int_Tables_number   1
_chemical_formula_structural   Y8CuSnPd23
_chemical_formula_sum   'Y8 Cu1 Sn1 Pd23'
_cell_volume   594.46092275
_cell_formula_units_Z   1
loop_
 _symmetry_equiv_pos_site_id
 _symmetry_equiv_pos_as_xyz
  1  'x, y, z'
loop_
 _atom_site_type_symbol
 _atom_site_label
 _atom_site_symmetry_multiplicity
 _atom_site_fract_x
 _atom_site_fract_y
 _atom_site_fract_z
 _atom_site_occupancy
  Y  Y0  1  0.251473  0.250337  0.256262  1
  Y  Y1  1  0.748289  0.747318  0.749044  1
  Y  Y2  1  0.748289  0.747318  0.250956  1
  Y  Y3  1  0.748289  0.252682  0.749044  1
  Y  Y4  1  0.251473  0.250337  0.743738  1
  Y  Y5  1  0.251473  0.749663  0.256262  1
  Y  Y6  1  0.251473  0.749663  0.743738  1
  Y  Y7  1  0.748289  0.252682  0.250956  1
  Cu  Cu8  1  0.271412  0.500000  0.000000  1
  Sn  Sn9  1  0.995466  0.000000  0.000000  1
  Pd  Pd10  1  0.739044  0.500000  0.000000  1
  Pd  Pd11  1  0.998466  0.264553  0.500000  1
  Pd  Pd12  1  0.493060  0.271524  0.000000  1
  Pd  Pd13  1  0.998466  0.735447  0.500000  1
  Pd  Pd14  1  0.493060  0.728476  0.000000  1
  Pd  Pd15  1  0.499599  0.000000  0.266950  1
  Pd  Pd16  1  0.263722  0.000000  0.500000  1
  Pd  Pd17  1  0.499599  0.000000  0.733050  1
  Pd  Pd18  1  0.735302  0.000000  0.500000  1
  Pd  Pd19  1  0.001306  0.500000  0.266336  1
  Pd  Pd20  1  0.001306  0.500000  0.733664  1
  Pd  Pd21  1  0.254303  0.500000  0.500000  1
  Pd  Pd22  1  0.745300  0.500000  0.500000  1
  Pd  Pd23  1  0.500825  0.255714  0.500000  1
  Pd  Pd24  1  0.500825  0.744286  0.500000  1
  Pd  Pd25  1  0.496515  0.500000  0.253263  1
  Pd  Pd26  1  0.496515  0.500000  0.746737  1
  Pd  Pd27  1  0.307575  0.000000  0.000000  1
  Pd  Pd28  1  0.684149  0.000000  0.000000  1
  Pd  Pd29  1  0.013398  0.312454  0.000000  1
  Pd  Pd30  1  0.013398  0.687546  0.000000  1
  Pd  Pd31  1  0.999171  0.000000  0.306311  1
  Pd  Pd32  1  0.999171  0.000000  0.693689  1
