# generated using pymatgen
data_Sm3YCo16(P3Ru)4
_symmetry_space_group_name_H-M   'P 1'
_cell_length_a   3.71102400
_cell_length_b   10.45709153
_cell_length_c   11.83804160
_cell_angle_alpha   89.96358551
_cell_angle_beta   90.00000000
_cell_angle_gamma   90.00000000
_symmetry_Int_Tables_number   1
_chemical_formula_structural   Sm3YCo16(P3Ru)4
_chemical_formula_sum   'Sm3 Y1 Co16 P12 Ru4'
_cell_volume   459.39307719
_cell_formula_units_Z   1
loop_
 _symmetry_equiv_pos_site_id
 _symmetry_equiv_pos_as_xyz
  1  'x, y, z'
loop_
 _atom_site_type_symbol
 _atom_site_label
 _atom_site_symmetry_multiplicity
 _atom_site_fract_x
 _atom_site_fract_y
 _atom_site_fract_z
 _atom_site_occupancy
  Sm  Sm0  1  0.250000  0.913353  0.203777  1
  Sm  Sm1  1  0.750000  0.086547  0.796409  1
  Sm  Sm2  1  0.750000  0.413772  0.296206  1
  Y  Y3  1  0.250000  0.586459  0.703337  1
  Co  Co4  1  0.250000  0.091779  0.991063  1
  Co  Co5  1  0.750000  0.908083  0.008733  1
  Co  Co6  1  0.750000  0.592234  0.511092  1
  Co  Co7  1  0.250000  0.409126  0.491619  1
  Co  Co8  1  0.250000  0.279906  0.676284  1
  Co  Co9  1  0.750000  0.720130  0.324311  1
  Co  Co10  1  0.750000  0.777776  0.823340  1
  Co  Co11  1  0.250000  0.220769  0.176020  1
  Co  Co12  1  0.250000  0.613128  0.201688  1
  Co  Co13  1  0.750000  0.388475  0.797129  1
  Co  Co14  1  0.750000  0.113272  0.298407  1
  Co  Co15  1  0.250000  0.885732  0.702243  1
  Co  Co16  1  0.250000  0.034039  0.431425  1
  Co  Co17  1  0.750000  0.964585  0.569251  1
  Co  Co18  1  0.750000  0.534543  0.067692  1
  Co  Co19  1  0.250000  0.466666  0.929798  1
  P  P20  1  0.250000  0.080396  0.610606  1
  P  P21  1  0.750000  0.919225  0.389725  1
  P  P22  1  0.750000  0.580595  0.887490  1
  P  P23  1  0.250000  0.419752  0.109760  1
  P  P24  1  0.250000  0.225279  0.367371  1
  P  P25  1  0.750000  0.772122  0.633478  1
  P  P26  1  0.750000  0.725053  0.132808  1
  P  P27  1  0.250000  0.274628  0.867018  1
  P  P28  1  0.250000  0.902282  0.891205  1
  P  P29  1  0.750000  0.097929  0.108795  1
  P  P30  1  0.750000  0.404054  0.609467  1
  P  P31  1  0.250000  0.597800  0.391168  1
  Ru  Ru32  1  0.250000  0.783484  0.492893  1
  Ru  Ru33  1  0.750000  0.216584  0.508664  1
  Ru  Ru34  1  0.750000  0.284423  0.007631  1
  Ru  Ru35  1  0.250000  0.716022  0.992098  1
