# generated using pymatgen
data_DyY11Co5Sn
_symmetry_space_group_name_H-M   'P 1'
_cell_length_a   8.32623312
_cell_length_b   8.32622977
_cell_length_c   8.33792790
_cell_angle_alpha   106.94773033
_cell_angle_beta   110.73563263
_cell_angle_gamma   110.70385427
_symmetry_Int_Tables_number   1
_chemical_formula_structural   DyY11Co5Sn
_chemical_formula_sum   'Dy1 Y11 Co5 Sn1'
_cell_volume   444.64028128
_cell_formula_units_Z   1
loop_
 _symmetry_equiv_pos_site_id
 _symmetry_equiv_pos_as_xyz
  1  'x, y, z'
loop_
 _atom_site_type_symbol
 _atom_site_label
 _atom_site_symmetry_multiplicity
 _atom_site_fract_x
 _atom_site_fract_y
 _atom_site_fract_z
 _atom_site_occupancy
  Dy  Dy0  1  0.806609  0.206959  0.013568  1
  Y  Y1  1  0.478119  0.291766  0.185931  1
  Y  Y2  1  0.105595  0.291713  0.814192  1
  Y  Y3  1  0.894164  0.707812  0.185931  1
  Y  Y4  1  0.522479  0.708598  0.814192  1
  Y  Y5  1  0.305213  0.618944  0.313359  1
  Y  Y6  1  0.305667  0.991994  0.686487  1
  Y  Y7  1  0.694493  0.380821  0.686488  1
  Y  Y8  1  0.694416  0.008147  0.313360  1
  Y  Y9  1  0.192912  0.208405  0.401318  1
  Y  Y10  1  0.806788  0.791457  0.598244  1
  Y  Y11  1  0.192994  0.791858  0.984853  1
  Co  Co12  1  0.499946  0.610947  0.110894  1
  Co  Co13  1  0.499910  0.389231  0.889142  1
  Co  Co14  1  0.379811  0.999915  0.379725  1
  Co  Co15  1  0.621505  0.000667  0.622173  1
  Co  Co16  1  0.999230  0.000606  0.999835  1
  Sn  Sn17  1  0.000149  0.500159  0.500308  1
