# generated using pymatgen
data_Er2TmLu13(Ga3Rh)2
_symmetry_space_group_name_H-M   'P 1'
_cell_length_a   9.88179144
_cell_length_b   9.88179096
_cell_length_c   6.86805800
_cell_angle_alpha   89.98457091
_cell_angle_beta   90.01542915
_cell_angle_gamma   120.04962938
_symmetry_Int_Tables_number   1
_chemical_formula_structural   Er2TmLu13(Ga3Rh)2
_chemical_formula_sum   'Er2 Tm1 Lu13 Ga6 Rh2'
_cell_volume   580.52176060
_cell_formula_units_Z   1
loop_
 _symmetry_equiv_pos_site_id
 _symmetry_equiv_pos_as_xyz
  1  'x, y, z'
loop_
 _atom_site_type_symbol
 _atom_site_label
 _atom_site_symmetry_multiplicity
 _atom_site_fract_x
 _atom_site_fract_y
 _atom_site_fract_z
 _atom_site_occupancy
  Er  Er0  1  0.533978  0.466022  0.794947  1
  Er  Er1  1  0.000046  0.999954  0.267362  1
  Tm  Tm2  1  0.000024  0.999976  0.766970  1
  Lu  Lu3  1  0.172375  0.827625  0.988461  1
  Lu  Lu4  1  0.344605  0.171943  0.488045  1
  Lu  Lu5  1  0.828057  0.655395  0.488045  1
  Lu  Lu6  1  0.171707  0.344452  0.989022  1
  Lu  Lu7  1  0.655548  0.828293  0.989022  1
  Lu  Lu8  1  0.827780  0.172220  0.488751  1
  Lu  Lu9  1  0.333040  0.666960  0.665181  1
  Lu  Lu10  1  0.666942  0.333058  0.165273  1
  Lu  Lu11  1  0.465116  0.534884  0.295069  1
  Lu  Lu12  1  0.930911  0.465324  0.795149  1
  Lu  Lu13  1  0.534676  0.069089  0.795149  1
  Lu  Lu14  1  0.465375  0.930724  0.295166  1
  Lu  Lu15  1  0.069276  0.534625  0.295166  1
  Ga  Ga16  1  0.163254  0.836746  0.541178  1
  Ga  Ga17  1  0.326174  0.162939  0.040602  1
  Ga  Ga18  1  0.837061  0.673826  0.040602  1
  Ga  Ga19  1  0.163480  0.326549  0.540837  1
  Ga  Ga20  1  0.673451  0.836520  0.540837  1
  Ga  Ga21  1  0.836599  0.163401  0.040646  1
  Rh  Rh22  1  0.333259  0.666741  0.056586  1
  Rh  Rh23  1  0.667263  0.332737  0.555942  1
