# generated using pymatgen
data_Ho3Tm5Tc(B8Ru)3
_symmetry_space_group_name_H-M   'P 1'
_cell_length_a   3.63699400
_cell_length_b   9.08721172
_cell_length_c   11.47218801
_cell_angle_alpha   89.91435070
_cell_angle_beta   90.00000000
_cell_angle_gamma   90.00000000
_symmetry_Int_Tables_number   1
_chemical_formula_structural   Ho3Tm5Tc(B8Ru)3
_chemical_formula_sum   'Ho3 Tm5 Tc1 B24 Ru3'
_cell_volume   379.15693311
_cell_formula_units_Z   1
loop_
 _symmetry_equiv_pos_site_id
 _symmetry_equiv_pos_as_xyz
  1  'x, y, z'
loop_
 _atom_site_type_symbol
 _atom_site_label
 _atom_site_symmetry_multiplicity
 _atom_site_fract_x
 _atom_site_fract_y
 _atom_site_fract_z
 _atom_site_occupancy
  Ho  Ho0  1  0.000000  0.323522  0.413363  1
  Ho  Ho1  1  0.000000  0.677734  0.583389  1
  Ho  Ho2  1  0.000000  0.819830  0.087737  1
  Tm  Tm3  1  0.000000  0.177687  0.915261  1
  Tm  Tm4  1  0.000000  0.943222  0.372114  1
  Tm  Tm5  1  0.000000  0.057466  0.628454  1
  Tm  Tm6  1  0.000000  0.443798  0.128033  1
  Tm  Tm7  1  0.000000  0.556813  0.871444  1
  Tc  Tc8  1  0.000000  0.637908  0.320656  1
  B  B9  1  0.500000  0.553013  0.433188  1
  B  B10  1  0.500000  0.446163  0.567571  1
  B  B11  1  0.500000  0.053844  0.066593  1
  B  B12  1  0.500000  0.946391  0.933347  1
  B  B13  1  0.500000  0.749178  0.419224  1
  B  B14  1  0.500000  0.251279  0.580994  1
  B  B15  1  0.500000  0.248680  0.079843  1
  B  B16  1  0.500000  0.751100  0.919393  1
  B  B17  1  0.500000  0.791781  0.265529  1
  B  B18  1  0.500000  0.208588  0.734949  1
  B  B19  1  0.500000  0.290941  0.233309  1
  B  B20  1  0.500000  0.709424  0.765677  1
  B  B21  1  0.500000  0.630617  0.184891  1
  B  B22  1  0.500000  0.368595  0.815787  1
  B  B23  1  0.500000  0.130904  0.314675  1
  B  B24  1  0.500000  0.869852  0.684893  1
  B  B25  1  0.500000  0.982601  0.212635  1
  B  B26  1  0.500000  0.017978  0.787965  1
  B  B27  1  0.500000  0.481600  0.287004  1
  B  B28  1  0.500000  0.517165  0.713030  1
  B  B29  1  0.500000  0.604905  0.028330  1
  B  B30  1  0.500000  0.393776  0.970425  1
  B  B31  1  0.500000  0.105740  0.471229  1
  B  B32  1  0.500000  0.896117  0.529417  1
  Ru  Ru33  1  0.000000  0.361567  0.680408  1
  Ru  Ru34  1  0.000000  0.137538  0.178315  1
  Ru  Ru35  1  0.000000  0.862682  0.820927  1
