# generated using pymatgen
data_Sc4Cr3FeOs4
_symmetry_space_group_name_H-M   'P 1'
_cell_length_a   5.05196800
_cell_length_b   5.05362728
_cell_length_c   8.47505000
_cell_angle_alpha   90.00000000
_cell_angle_beta   90.00000000
_cell_angle_gamma   119.52789881
_symmetry_Int_Tables_number   1
_chemical_formula_structural   Sc4Cr3FeOs4
_chemical_formula_sum   'Sc4 Cr3 Fe1 Os4'
_cell_volume   188.27087163
_cell_formula_units_Z   1
loop_
 _symmetry_equiv_pos_site_id
 _symmetry_equiv_pos_as_xyz
  1  'x, y, z'
loop_
 _atom_site_type_symbol
 _atom_site_label
 _atom_site_symmetry_multiplicity
 _atom_site_fract_x
 _atom_site_fract_y
 _atom_site_fract_z
 _atom_site_occupancy
  Sc  Sc0  1  0.332542  0.666432  0.438370  1
  Sc  Sc1  1  0.665880  0.330712  0.564293  1
  Sc  Sc2  1  0.665880  0.330712  0.935707  1
  Sc  Sc3  1  0.332542  0.666432  0.061630  1
  Cr  Cr4  1  0.175415  0.830850  0.750000  1
  Cr  Cr5  1  0.342557  0.176380  0.250000  1
  Cr  Cr6  1  0.827028  0.660412  0.250000  1
  Fe  Fe7  1  0.169407  0.342122  0.750000  1
  Os  Os8  1  0.650140  0.828107  0.750000  1
  Os  Os9  1  0.008394  0.993646  0.000383  1
  Os  Os10  1  0.821818  0.180549  0.250000  1
  Os  Os11  1  0.008394  0.993646  0.499617  1
