# generated using pymatgen
data_Tb5Dy2Ho13Sn16
_symmetry_space_group_name_H-M   'P 1'
_cell_length_a   8.03764437
_cell_length_b   8.17011019
_cell_length_c   15.44521500
_cell_angle_alpha   90.00131842
_cell_angle_beta   90.05247238
_cell_angle_gamma   89.95803390
_symmetry_Int_Tables_number   1
_chemical_formula_structural   Tb5Dy2Ho13Sn16
_chemical_formula_sum   'Tb5 Dy2 Ho13 Sn16'
_cell_volume   1014.26248002
_cell_formula_units_Z   1
loop_
 _symmetry_equiv_pos_site_id
 _symmetry_equiv_pos_as_xyz
  1  'x, y, z'
loop_
 _atom_site_type_symbol
 _atom_site_label
 _atom_site_symmetry_multiplicity
 _atom_site_fract_x
 _atom_site_fract_y
 _atom_site_fract_z
 _atom_site_occupancy
  Tb  Tb0  1  0.020459  0.179309  0.597461  1
  Tb  Tb1  1  0.479532  0.679070  0.402732  1
  Tb  Tb2  1  0.979146  0.820935  0.097246  1
  Tb  Tb3  1  0.479083  0.678963  0.097299  1
  Tb  Tb4  1  0.979382  0.820823  0.402798  1
  Dy  Dy5  1  0.520647  0.321327  0.597372  1
  Dy  Dy6  1  0.021154  0.179046  0.902375  1
  Ho  Ho7  1  0.367396  0.837326  0.877528  1
  Ho  Ho8  1  0.867083  0.662437  0.622568  1
  Ho  Ho9  1  0.632716  0.162907  0.377720  1
  Ho  Ho10  1  0.132125  0.337039  0.122185  1
  Ho  Ho11  1  0.632104  0.162919  0.121956  1
  Ho  Ho12  1  0.132768  0.336883  0.377825  1
  Ho  Ho13  1  0.367285  0.837663  0.622821  1
  Ho  Ho14  1  0.867411  0.662456  0.877548  1
  Ho  Ho15  1  0.521374  0.321234  0.902421  1
  Ho  Ho16  1  0.198989  0.503113  0.750213  1
  Ho  Ho17  1  0.698896  0.996941  0.750273  1
  Ho  Ho18  1  0.800792  0.496577  0.249917  1
  Ho  Ho19  1  0.300963  0.003321  0.249957  1
  Sn  Sn20  1  0.293162  0.037248  0.041610  1
  Sn  Sn21  1  0.793694  0.462369  0.458352  1
  Sn  Sn22  1  0.705743  0.962787  0.542029  1
  Sn  Sn23  1  0.206927  0.536485  0.958030  1
  Sn  Sn24  1  0.706611  0.963449  0.957887  1
  Sn  Sn25  1  0.206520  0.537930  0.541789  1
  Sn  Sn26  1  0.294192  0.036815  0.458200  1
  Sn  Sn27  1  0.792995  0.462545  0.041531  1
  Sn  Sn28  1  0.564982  0.619432  0.750018  1
  Sn  Sn29  1  0.064998  0.879890  0.750008  1
  Sn  Sn30  1  0.434667  0.380543  0.249804  1
  Sn  Sn31  1  0.934728  0.119456  0.249807  1
  Sn  Sn32  1  0.330925  0.148411  0.750420  1
  Sn  Sn33  1  0.830146  0.352267  0.750299  1
  Sn  Sn34  1  0.670357  0.852876  0.249966  1
  Sn  Sn35  1  0.170048  0.647213  0.250039  1
