# generated using pymatgen
data_Sr2LiCdSb4
_symmetry_space_group_name_H-M   'P 1'
_cell_length_a   4.39190400
_cell_length_b   4.51771159
_cell_length_c   24.24017017
_cell_angle_alpha   90.06542086
_cell_angle_beta   90.00000000
_cell_angle_gamma   90.00000000
_symmetry_Int_Tables_number   1
_chemical_formula_structural   Sr2LiCdSb4
_chemical_formula_sum   'Sr4 Li2 Cd2 Sb8'
_cell_volume   480.95752252
_cell_formula_units_Z   2
loop_
 _symmetry_equiv_pos_site_id
 _symmetry_equiv_pos_as_xyz
  1  'x, y, z'
loop_
 _atom_site_type_symbol
 _atom_site_label
 _atom_site_symmetry_multiplicity
 _atom_site_fract_x
 _atom_site_fract_y
 _atom_site_fract_z
 _atom_site_occupancy
  Sr  Sr0  1  0.250000  0.772167  0.616339  1
  Sr  Sr1  1  0.750000  0.227833  0.383661  1
  Sr  Sr2  1  0.750000  0.273570  0.882740  1
  Sr  Sr3  1  0.250000  0.726430  0.117260  1
  Li  Li4  1  0.250000  0.273928  0.751227  1
  Li  Li5  1  0.750000  0.726072  0.248773  1
  Cd  Cd6  1  0.750000  0.774200  0.748956  1
  Cd  Cd7  1  0.250000  0.225800  0.251044  1
  Sb  Sb8  1  0.250000  0.213584  0.002808  1
  Sb  Sb9  1  0.750000  0.786416  0.997192  1
  Sb  Sb10  1  0.750000  0.714575  0.499375  1
  Sb  Sb11  1  0.250000  0.285425  0.500625  1
  Sb  Sb12  1  0.250000  0.726678  0.327435  1
  Sb  Sb13  1  0.750000  0.273322  0.672565  1
  Sb  Sb14  1  0.750000  0.226031  0.172486  1
  Sb  Sb15  1  0.250000  0.773969  0.827514  1
