# generated using pymatgen
data_Ho8MgAgIr2
_symmetry_space_group_name_H-M   'P 1'
_cell_length_a   9.58063621
_cell_length_b   9.58063524
_cell_length_c   9.58735900
_cell_angle_alpha   59.97678513
_cell_angle_beta   59.97678848
_cell_angle_gamma   60.16531949
_symmetry_Int_Tables_number   1
_chemical_formula_structural   Ho8MgAgIr2
_chemical_formula_sum   'Ho16 Mg2 Ag2 Ir4'
_cell_volume   622.81557991
_cell_formula_units_Z   2
loop_
 _symmetry_equiv_pos_site_id
 _symmetry_equiv_pos_as_xyz
  1  'x, y, z'
loop_
 _atom_site_type_symbol
 _atom_site_label
 _atom_site_symmetry_multiplicity
 _atom_site_fract_x
 _atom_site_fract_y
 _atom_site_fract_z
 _atom_site_occupancy
  Ho  Ho0  1  0.347967  0.347967  0.346365  1
  Ho  Ho1  1  0.347967  0.347967  0.957704  1
  Ho  Ho2  1  0.349186  0.954001  0.348407  1
  Ho  Ho3  1  0.954001  0.349186  0.348407  1
  Ho  Ho4  1  0.811218  0.187383  0.188918  1
  Ho  Ho5  1  0.187383  0.811218  0.812481  1
  Ho  Ho6  1  0.187383  0.811218  0.188918  1
  Ho  Ho7  1  0.811218  0.187383  0.812481  1
  Ho  Ho8  1  0.187857  0.187857  0.812143  1
  Ho  Ho9  1  0.807864  0.807864  0.192136  1
  Ho  Ho10  1  0.933312  0.562837  0.563960  1
  Ho  Ho11  1  0.562837  0.933312  0.939890  1
  Ho  Ho12  1  0.562837  0.933312  0.563960  1
  Ho  Ho13  1  0.933312  0.562837  0.939890  1
  Ho  Ho14  1  0.562575  0.562575  0.937425  1
  Ho  Ho15  1  0.936099  0.936099  0.563901  1
  Mg  Mg16  1  0.581391  0.273069  0.572770  1
  Mg  Mg17  1  0.273069  0.581391  0.572770  1
  Ag  Ag18  1  0.581817  0.581817  0.583939  1
  Ag  Ag19  1  0.581817  0.581817  0.252427  1
  Ir  Ir20  1  0.141460  0.141460  0.141704  1
  Ir  Ir21  1  0.141460  0.141460  0.575376  1
  Ir  Ir22  1  0.140417  0.575556  0.142014  1
  Ir  Ir23  1  0.575556  0.140417  0.142014  1
