# generated using pymatgen
data_Dy4C2SI
_symmetry_space_group_name_H-M   'P 1'
_cell_length_a   3.74429400
_cell_length_b   3.74429287
_cell_length_c   13.86079400
_cell_angle_alpha   90.00000000
_cell_angle_beta   90.00000000
_cell_angle_gamma   119.99999228
_symmetry_Int_Tables_number   1
_chemical_formula_structural   Dy4C2SI
_chemical_formula_sum   'Dy4 C2 S1 I1'
_cell_volume   168.29008425
_cell_formula_units_Z   1
loop_
 _symmetry_equiv_pos_site_id
 _symmetry_equiv_pos_as_xyz
  1  'x, y, z'
loop_
 _atom_site_type_symbol
 _atom_site_label
 _atom_site_symmetry_multiplicity
 _atom_site_fract_x
 _atom_site_fract_y
 _atom_site_fract_z
 _atom_site_occupancy
  Dy  Dy0  1  0.333333  0.666667  0.570780  1
  Dy  Dy1  1  0.666667  0.333333  0.383069  1
  Dy  Dy2  1  0.666667  0.333333  0.116931  1
  Dy  Dy3  1  0.333333  0.666667  0.929220  1
  C  C4  1  0.000000  0.000000  0.014354  1
  C  C5  1  0.000000  0.000000  0.485646  1
  S  S6  1  0.333333  0.666667  0.250000  1
  I  I7  1  0.666667  0.333333  0.750000  1
