# generated using pymatgen
data_Zr4Sc2TaTi3Al12Co7
_symmetry_space_group_name_H-M   'P 1'
_cell_length_a   8.56481453
_cell_length_b   8.56481307
_cell_length_c   8.56481500
_cell_angle_alpha   59.96728519
_cell_angle_beta   59.96729084
_cell_angle_gamma   59.96728625
_symmetry_Int_Tables_number   1
_chemical_formula_structural   Zr4Sc2TaTi3Al12Co7
_chemical_formula_sum   'Zr4 Sc2 Ta1 Ti3 Al12 Co7'
_cell_volume   443.93209948
_cell_formula_units_Z   1
loop_
 _symmetry_equiv_pos_site_id
 _symmetry_equiv_pos_as_xyz
  1  'x, y, z'
loop_
 _atom_site_type_symbol
 _atom_site_label
 _atom_site_symmetry_multiplicity
 _atom_site_fract_x
 _atom_site_fract_y
 _atom_site_fract_z
 _atom_site_occupancy
  Zr  Zr0  1  0.692870  0.695307  0.305803  1
  Zr  Zr1  1  0.305123  0.693489  0.692528  1
  Zr  Zr2  1  0.305473  0.693180  0.308610  1
  Zr  Zr3  1  0.303185  0.309987  0.693088  1
  Sc  Sc4  1  0.693697  0.306826  0.303769  1
  Sc  Sc5  1  0.694546  0.306344  0.695596  1
  Ta  Ta6  1  0.120160  0.118431  0.118421  1
  Ti  Ti7  1  0.645777  0.116720  0.118956  1
  Ti  Ti8  1  0.119038  0.644097  0.118457  1
  Ti  Ti9  1  0.119845  0.117806  0.644931  1
  Al  Al10  1  0.359026  0.878698  0.879220  1
  Al  Al11  1  0.879853  0.358155  0.879191  1
  Al  Al12  1  0.879942  0.878216  0.358689  1
  Al  Al13  1  0.881176  0.879351  0.880740  1
  Al  Al14  1  0.994559  0.336350  0.337274  1
  Al  Al15  1  0.336643  0.995865  0.336468  1
  Al  Al16  1  0.337795  0.336482  0.994573  1
  Al  Al17  1  0.335019  0.334221  0.333891  1
  Al  Al18  1  0.000108  0.666676  0.666671  1
  Al  Al19  1  0.666706  0.001856  0.665983  1
  Al  Al20  1  0.666280  0.665353  0.001975  1
  Al  Al21  1  0.665924  0.665087  0.666349  1
  Co  Co22  1  0.000262  0.999134  0.999796  1
  Co  Co23  1  0.493934  0.004267  0.002725  1
  Co  Co24  1  0.497710  0.004095  0.497862  1
  Co  Co25  1  0.496996  0.498112  0.003283  1
  Co  Co26  1  0.002558  0.497941  0.497716  1
  Co  Co27  1  0.002881  0.493679  0.004047  1
  Co  Co28  1  0.002911  0.004271  0.493387  1
