# generated using pymatgen
data_Sc2Si2Pt2Rh
_symmetry_space_group_name_H-M   'P 1'
_cell_length_a   4.09783400
_cell_length_b   6.41830100
_cell_length_c   8.59427400
_cell_angle_alpha   90.00000000
_cell_angle_beta   90.00000000
_cell_angle_gamma   90.00000000
_symmetry_Int_Tables_number   1
_chemical_formula_structural   Sc2Si2Pt2Rh
_chemical_formula_sum   'Sc4 Si4 Pt4 Rh2'
_cell_volume   226.03913543
_cell_formula_units_Z   2
loop_
 _symmetry_equiv_pos_site_id
 _symmetry_equiv_pos_as_xyz
  1  'x, y, z'
loop_
 _atom_site_type_symbol
 _atom_site_label
 _atom_site_symmetry_multiplicity
 _atom_site_fract_x
 _atom_site_fract_y
 _atom_site_fract_z
 _atom_site_occupancy
  Sc  Sc0  1  0.000000  0.888035  0.332798  1
  Sc  Sc1  1  0.000000  0.111965  0.667202  1
  Sc  Sc2  1  0.000000  0.388035  0.167202  1
  Sc  Sc3  1  0.000000  0.611965  0.832798  1
  Si  Si4  1  0.500000  0.569500  0.351726  1
  Si  Si5  1  0.500000  0.430500  0.648274  1
  Si  Si6  1  0.500000  0.069500  0.148274  1
  Si  Si7  1  0.500000  0.930500  0.851726  1
  Pt  Pt8  1  0.500000  0.690826  0.084540  1
  Pt  Pt9  1  0.500000  0.309174  0.915460  1
  Pt  Pt10  1  0.500000  0.190826  0.415460  1
  Pt  Pt11  1  0.500000  0.809174  0.584540  1
  Rh  Rh12  1  0.000000  0.500000  0.500000  1
  Rh  Rh13  1  0.000000  0.000000  0.000000  1
