# generated using pymatgen
data_AlGa3(SnI8)2
_symmetry_space_group_name_H-M   'P 1'
_cell_length_a   8.29189316
_cell_length_b   8.52616030
_cell_length_c   15.60714215
_cell_angle_alpha   87.35913033
_cell_angle_beta   89.94030352
_cell_angle_gamma   89.98683220
_symmetry_Int_Tables_number   1
_chemical_formula_structural   AlGa3(SnI8)2
_chemical_formula_sum   'Al1 Ga3 Sn2 I16'
_cell_volume   1102.22142854
_cell_formula_units_Z   1
loop_
 _symmetry_equiv_pos_site_id
 _symmetry_equiv_pos_as_xyz
  1  'x, y, z'
loop_
 _atom_site_type_symbol
 _atom_site_label
 _atom_site_symmetry_multiplicity
 _atom_site_fract_x
 _atom_site_fract_y
 _atom_site_fract_z
 _atom_site_occupancy
  Al  Al0  1  0.429538  0.641848  0.278008  1
  Ga  Ga1  1  0.934129  0.221486  0.579398  1
  Ga  Ga2  1  0.065806  0.221484  0.079154  1
  Ga  Ga3  1  0.570410  0.641563  0.777277  1
  Sn  Sn4  1  0.754134  0.073106  0.810021  1
  Sn  Sn5  1  0.245287  0.073000  0.309555  1
  I  I6  1  0.421138  0.615534  0.638040  1
  I  I7  1  0.576888  0.615777  0.139561  1
  I  I8  1  0.872819  0.732267  0.760227  1
  I  I9  1  0.130414  0.731312  0.260287  1
  I  I10  1  0.938230  0.481015  0.495606  1
  I  I11  1  0.061971  0.481044  0.995586  1
  I  I12  1  0.920748  0.996052  0.001236  1
  I  I13  1  0.079383  0.996002  0.501123  1
  I  I14  1  0.638298  0.126499  0.616860  1
  I  I15  1  0.361711  0.126395  0.116797  1
  I  I16  1  0.561270  0.383750  0.875385  1
  I  I17  1  0.438712  0.386751  0.374426  1
  I  I18  1  0.441875  0.863478  0.867287  1
  I  I19  1  0.557045  0.861093  0.366362  1
  I  I20  1  0.928174  0.232664  0.231185  1
  I  I21  1  0.072021  0.232681  0.731022  1
