# generated using pymatgen
data_Dy4Ho2Al23VOs8
_symmetry_space_group_name_H-M   'P 1'
_cell_length_a   8.84254206
_cell_length_b   8.84254134
_cell_length_c   9.54583004
_cell_angle_alpha   90.00950812
_cell_angle_beta   89.99049052
_cell_angle_gamma   119.98998131
_symmetry_Int_Tables_number   1
_chemical_formula_structural   Dy4Ho2Al23VOs8
_chemical_formula_sum   'Dy4 Ho2 Al23 V1 Os8'
_cell_volume   646.46109040
_cell_formula_units_Z   1
loop_
 _symmetry_equiv_pos_site_id
 _symmetry_equiv_pos_as_xyz
  1  'x, y, z'
loop_
 _atom_site_type_symbol
 _atom_site_label
 _atom_site_symmetry_multiplicity
 _atom_site_fract_x
 _atom_site_fract_y
 _atom_site_fract_z
 _atom_site_occupancy
  Dy  Dy0  1  0.195513  0.391119  0.246220  1
  Dy  Dy1  1  0.807187  0.614263  0.750308  1
  Dy  Dy2  1  0.608881  0.804487  0.246220  1
  Dy  Dy3  1  0.385737  0.192813  0.750308  1
  Ho  Ho4  1  0.195701  0.804299  0.246159  1
  Ho  Ho5  1  0.806976  0.193024  0.750346  1
  Al  Al6  1  0.666737  0.333263  0.977220  1
  Al  Al7  1  0.666740  0.333260  0.519252  1
  Al  Al8  1  0.333260  0.666740  0.483100  1
  Al  Al9  1  0.162111  0.324265  0.575708  1
  Al  Al10  1  0.837217  0.674422  0.424626  1
  Al  Al11  1  0.675735  0.837889  0.575708  1
  Al  Al12  1  0.835599  0.671122  0.076526  1
  Al  Al13  1  0.325578  0.162783  0.424626  1
  Al  Al14  1  0.160507  0.321092  0.925229  1
  Al  Al15  1  0.162164  0.837836  0.575641  1
  Al  Al16  1  0.328878  0.164401  0.076526  1
  Al  Al17  1  0.837181  0.162819  0.424740  1
  Al  Al18  1  0.678908  0.839493  0.925229  1
  Al  Al19  1  0.835535  0.164465  0.076438  1
  Al  Al20  1  0.160561  0.839439  0.925321  1
  Al  Al21  1  0.562002  0.124125  0.253278  1
  Al  Al22  1  0.441587  0.883053  0.751333  1
  Al  Al23  1  0.875875  0.437998  0.253278  1
  Al  Al24  1  0.116947  0.558413  0.751333  1
  Al  Al25  1  0.562116  0.437884  0.253289  1
  Al  Al26  1  0.441463  0.558537  0.751312  1
  Al  Al27  1  0.000074  0.999926  0.250195  1
  Al  Al28  1  0.999939  0.000061  0.749463  1
  V  V29  1  0.333321  0.666679  0.983861  1
  Os  Os30  1  0.495282  0.990614  0.005491  1
  Os  Os31  1  0.009386  0.504718  0.005491  1
  Os  Os32  1  0.499416  0.998765  0.503576  1
  Os  Os33  1  0.495303  0.504697  0.005528  1
  Os  Os34  1  0.001235  0.500584  0.503576  1
  Os  Os35  1  0.499367  0.500633  0.503553  1
  Os  Os36  1  0.999984  0.000016  0.000851  1
  Os  Os37  1  0.999997  0.000003  0.499137  1
