# generated using pymatgen
data_Ho4TmIr2Os
_symmetry_space_group_name_H-M   'P 1'
_cell_length_a   10.79116100
_cell_length_b   10.79116100
_cell_length_c   6.37459300
_cell_angle_alpha   90.00000000
_cell_angle_beta   90.00000000
_cell_angle_gamma   90.00000000
_symmetry_Int_Tables_number   1
_chemical_formula_structural   Ho4TmIr2Os
_chemical_formula_sum   'Ho16 Tm4 Ir8 Os4'
_cell_volume   742.31597296
_cell_formula_units_Z   4
loop_
 _symmetry_equiv_pos_site_id
 _symmetry_equiv_pos_as_xyz
  1  'x, y, z'
loop_
 _atom_site_type_symbol
 _atom_site_label
 _atom_site_symmetry_multiplicity
 _atom_site_fract_x
 _atom_site_fract_y
 _atom_site_fract_z
 _atom_site_occupancy
  Ho  Ho0  1  0.293230  0.086279  0.376417  1
  Ho  Ho1  1  0.293230  0.913721  0.876417  1
  Ho  Ho2  1  0.706770  0.086279  0.876417  1
  Ho  Ho3  1  0.706770  0.913721  0.376417  1
  Ho  Ho4  1  0.586279  0.793230  0.876417  1
  Ho  Ho5  1  0.586279  0.206770  0.376417  1
  Ho  Ho6  1  0.413721  0.793230  0.376417  1
  Ho  Ho7  1  0.413721  0.206770  0.876417  1
  Ho  Ho8  1  0.206770  0.413721  0.623583  1
  Ho  Ho9  1  0.206770  0.586279  0.123583  1
  Ho  Ho10  1  0.793230  0.413721  0.123583  1
  Ho  Ho11  1  0.793230  0.586279  0.623583  1
  Ho  Ho12  1  0.913721  0.706770  0.123583  1
  Ho  Ho13  1  0.913721  0.293230  0.623583  1
  Ho  Ho14  1  0.086279  0.706770  0.623583  1
  Ho  Ho15  1  0.086279  0.293230  0.123583  1
  Tm  Tm16  1  0.000000  0.000000  0.500000  1
  Tm  Tm17  1  0.000000  0.000000  0.000000  1
  Tm  Tm18  1  0.500000  0.500000  0.000000  1
  Tm  Tm19  1  0.500000  0.500000  0.500000  1
  Ir  Ir20  1  0.848036  0.151964  0.250000  1
  Ir  Ir21  1  0.848036  0.848036  0.750000  1
  Ir  Ir22  1  0.151964  0.151964  0.750000  1
  Ir  Ir23  1  0.151964  0.848036  0.250000  1
  Ir  Ir24  1  0.651964  0.348036  0.750000  1
  Ir  Ir25  1  0.651964  0.651964  0.250000  1
  Ir  Ir26  1  0.348036  0.348036  0.250000  1
  Ir  Ir27  1  0.348036  0.651964  0.750000  1
  Os  Os28  1  0.500000  0.000000  0.122500  1
  Os  Os29  1  0.500000  0.000000  0.622500  1
  Os  Os30  1  0.000000  0.500000  0.877500  1
  Os  Os31  1  0.000000  0.500000  0.377500  1
