# generated using pymatgen
data_Ho10TlIn7Pd3Ru
_symmetry_space_group_name_H-M   'P 1'
_cell_length_a   3.62665100
_cell_length_b   8.11560515
_cell_length_c   18.26935113
_cell_angle_alpha   89.97748081
_cell_angle_beta   90.00000000
_cell_angle_gamma   90.00000000
_symmetry_Int_Tables_number   1
_chemical_formula_structural   Ho10TlIn7Pd3Ru
_chemical_formula_sum   'Ho10 Tl1 In7 Pd3 Ru1'
_cell_volume   537.71204236
_cell_formula_units_Z   1
loop_
 _symmetry_equiv_pos_site_id
 _symmetry_equiv_pos_as_xyz
  1  'x, y, z'
loop_
 _atom_site_type_symbol
 _atom_site_label
 _atom_site_symmetry_multiplicity
 _atom_site_fract_x
 _atom_site_fract_y
 _atom_site_fract_z
 _atom_site_occupancy
  Ho  Ho0  1  0.000000  0.499982  0.499614  1
  Ho  Ho1  1  0.000000  0.000506  0.000851  1
  Ho  Ho2  1  0.000000  0.727426  0.277379  1
  Ho  Ho3  1  0.000000  0.259412  0.719684  1
  Ho  Ho4  1  0.000000  0.759305  0.779563  1
  Ho  Ho5  1  0.000000  0.252921  0.220456  1
  Ho  Ho6  1  0.000000  0.614600  0.088187  1
  Ho  Ho7  1  0.000000  0.383920  0.915868  1
  Ho  Ho8  1  0.000000  0.883499  0.584011  1
  Ho  Ho9  1  0.000000  0.118675  0.414735  1
  Tl  Tl10  1  0.500000  0.710675  0.932770  1
  In  In11  1  0.500000  0.292347  0.069233  1
  In  In12  1  0.500000  0.791566  0.432204  1
  In  In13  1  0.500000  0.209331  0.567612  1
  In  In14  1  0.500000  0.579176  0.649069  1
  In  In15  1  0.500000  0.425851  0.349982  1
  In  In16  1  0.500000  0.922276  0.150353  1
  In  In17  1  0.500000  0.080050  0.850501  1
  Pd  Pd18  1  0.500000  0.474379  0.802945  1
  Pd  Pd19  1  0.500000  0.977267  0.695449  1
  Pd  Pd20  1  0.500000  0.018779  0.303984  1
  Ru  Ru21  1  0.500000  0.518058  0.195550  1
