# generated using pymatgen
data_TbY19(Cd3Ni)2
_symmetry_space_group_name_H-M   'P 1'
_cell_length_a   9.65853938
_cell_length_b   9.65854035
_cell_length_c   9.82177926
_cell_angle_alpha   90.09264094
_cell_angle_beta   89.90736178
_cell_angle_gamma   120.02369548
_symmetry_Int_Tables_number   1
_chemical_formula_structural   TbY19(Cd3Ni)2
_chemical_formula_sum   'Tb1 Y19 Cd6 Ni2'
_cell_volume   793.30328171
_cell_formula_units_Z   1
loop_
 _symmetry_equiv_pos_site_id
 _symmetry_equiv_pos_as_xyz
  1  'x, y, z'
loop_
 _atom_site_type_symbol
 _atom_site_label
 _atom_site_symmetry_multiplicity
 _atom_site_fract_x
 _atom_site_fract_y
 _atom_site_fract_z
 _atom_site_occupancy
  Tb  Tb0  1  0.211344  0.788656  0.436467  1
  Y  Y1  1  0.000061  0.999939  0.499930  1
  Y  Y2  1  0.999898  0.000102  0.000172  1
  Y  Y3  1  0.543677  0.456323  0.250112  1
  Y  Y4  1  0.543538  0.087200  0.249970  1
  Y  Y5  1  0.912800  0.456462  0.249970  1
  Y  Y6  1  0.456377  0.543623  0.750014  1
  Y  Y7  1  0.456473  0.912690  0.750008  1
  Y  Y8  1  0.087310  0.543527  0.750008  1
  Y  Y9  1  0.210567  0.420904  0.437609  1
  Y  Y10  1  0.579096  0.789433  0.437609  1
  Y  Y11  1  0.789238  0.210762  0.562753  1
  Y  Y12  1  0.789534  0.578776  0.562656  1
  Y  Y13  1  0.421224  0.210466  0.562656  1
  Y  Y14  1  0.789412  0.210588  0.937348  1
  Y  Y15  1  0.789353  0.578539  0.937311  1
  Y  Y16  1  0.421461  0.210647  0.937311  1
  Y  Y17  1  0.210402  0.789598  0.062139  1
  Y  Y18  1  0.210709  0.421662  0.062710  1
  Y  Y19  1  0.578338  0.789291  0.062710  1
  Cd  Cd20  1  0.884468  0.115532  0.250074  1
  Cd  Cd21  1  0.884333  0.768953  0.249873  1
  Cd  Cd22  1  0.231047  0.115667  0.249873  1
  Cd  Cd23  1  0.115532  0.884468  0.750355  1
  Cd  Cd24  1  0.115526  0.231136  0.750066  1
  Cd  Cd25  1  0.768864  0.884474  0.750066  1
  Ni  Ni26  1  0.332787  0.667213  0.250240  1
  Ni  Ni27  1  0.666631  0.333369  0.749993  1
