# generated using pymatgen
data_Tb3Sm4Zr(ReB6)4
_symmetry_space_group_name_H-M   'P 1'
_cell_length_a   3.70386100
_cell_length_b   9.20847929
_cell_length_c   11.63609536
_cell_angle_alpha   89.97129957
_cell_angle_beta   90.00000000
_cell_angle_gamma   90.00000000
_symmetry_Int_Tables_number   1
_chemical_formula_structural   Tb3Sm4Zr(ReB6)4
_chemical_formula_sum   'Tb3 Sm4 Zr1 Re4 B24'
_cell_volume   396.87140896
_cell_formula_units_Z   1
loop_
 _symmetry_equiv_pos_site_id
 _symmetry_equiv_pos_as_xyz
  1  'x, y, z'
loop_
 _atom_site_type_symbol
 _atom_site_label
 _atom_site_symmetry_multiplicity
 _atom_site_fract_x
 _atom_site_fract_y
 _atom_site_fract_z
 _atom_site_occupancy
  Tb  Tb0  1  0.000000  0.056072  0.627534  1
  Tb  Tb1  1  0.000000  0.442698  0.131338  1
  Tb  Tb2  1  0.000000  0.556761  0.869871  1
  Sm  Sm3  1  0.000000  0.322511  0.414544  1
  Sm  Sm4  1  0.000000  0.677624  0.586063  1
  Sm  Sm5  1  0.000000  0.822765  0.085988  1
  Sm  Sm6  1  0.000000  0.176772  0.913622  1
  Zr  Zr7  1  0.000000  0.942485  0.368447  1
  Re  Re8  1  0.000000  0.643666  0.321163  1
  Re  Re9  1  0.000000  0.360908  0.678530  1
  Re  Re10  1  0.000000  0.135478  0.183307  1
  Re  Re11  1  0.000000  0.861568  0.818963  1
  B  B12  1  0.500000  0.555937  0.432156  1
  B  B13  1  0.500000  0.446771  0.567857  1
  B  B14  1  0.500000  0.053153  0.068929  1
  B  B15  1  0.500000  0.945953  0.931774  1
  B  B16  1  0.500000  0.753090  0.417214  1
  B  B17  1  0.500000  0.251501  0.582895  1
  B  B18  1  0.500000  0.247672  0.084131  1
  B  B19  1  0.500000  0.751314  0.916895  1
  B  B20  1  0.500000  0.793880  0.266069  1
  B  B21  1  0.500000  0.208518  0.733836  1
  B  B22  1  0.500000  0.289943  0.235446  1
  B  B23  1  0.500000  0.708806  0.765758  1
  B  B24  1  0.500000  0.632028  0.186617  1
  B  B25  1  0.500000  0.368938  0.813412  1
  B  B26  1  0.500000  0.127807  0.315747  1
  B  B27  1  0.500000  0.869654  0.686154  1
  B  B28  1  0.500000  0.981674  0.213929  1
  B  B29  1  0.500000  0.016820  0.787317  1
  B  B30  1  0.500000  0.485485  0.288366  1
  B  B31  1  0.500000  0.516031  0.712315  1
  B  B32  1  0.500000  0.599576  0.028010  1
  B  B33  1  0.500000  0.399743  0.973029  1
  B  B34  1  0.500000  0.095473  0.469380  1
  B  B35  1  0.500000  0.900924  0.523393  1
