# generated using pymatgen
data_CeHo7(CdOs)2
_symmetry_space_group_name_H-M   'P 1'
_cell_length_a   9.70644939
_cell_length_b   9.59730657
_cell_length_c   9.59730715
_cell_angle_alpha   59.54123302
_cell_angle_beta   59.62309076
_cell_angle_gamma   59.62309135
_symmetry_Int_Tables_number   1
_chemical_formula_structural   CeHo7(CdOs)2
_chemical_formula_sum   'Ce2 Ho14 Cd4 Os4'
_cell_volume   626.37613888
_cell_formula_units_Z   2
loop_
 _symmetry_equiv_pos_site_id
 _symmetry_equiv_pos_as_xyz
  1  'x, y, z'
loop_
 _atom_site_type_symbol
 _atom_site_label
 _atom_site_symmetry_multiplicity
 _atom_site_fract_x
 _atom_site_fract_y
 _atom_site_fract_z
 _atom_site_occupancy
  Ce  Ce0  1  0.967426  0.342618  0.342618  1
  Ce  Ce1  1  0.347338  0.342618  0.342618  1
  Ho  Ho2  1  0.561570  0.559992  0.939291  1
  Ho  Ho3  1  0.939148  0.559992  0.939291  1
  Ho  Ho4  1  0.559697  0.940303  0.940303  1
  Ho  Ho5  1  0.939148  0.939291  0.559992  1
  Ho  Ho6  1  0.561570  0.939291  0.559992  1
  Ho  Ho7  1  0.941983  0.558017  0.558017  1
  Ho  Ho8  1  0.191954  0.188531  0.811401  1
  Ho  Ho9  1  0.808113  0.188531  0.811401  1
  Ho  Ho10  1  0.189384  0.810616  0.810615  1
  Ho  Ho11  1  0.808113  0.811402  0.188531  1
  Ho  Ho12  1  0.191953  0.811401  0.188530  1
  Ho  Ho13  1  0.810297  0.189703  0.189703  1
  Ho  Ho14  1  0.347260  0.350423  0.955059  1
  Ho  Ho15  1  0.347260  0.955059  0.350423  1
  Cd  Cd16  1  0.581889  0.579515  0.256706  1
  Cd  Cd17  1  0.581889  0.256706  0.579515  1
  Cd  Cd18  1  0.259444  0.580053  0.580053  1
  Cd  Cd19  1  0.580449  0.580053  0.580053  1
  Os  Os20  1  0.136438  0.149283  0.577840  1
  Os  Os21  1  0.136438  0.577840  0.149283  1
  Os  Os22  1  0.576199  0.144380  0.144380  1
  Os  Os23  1  0.135040  0.144380  0.144380  1
