# generated using pymatgen
data_Dy7Sn23Ir5Rh
_symmetry_space_group_name_H-M   'P 1'
_cell_length_a   9.86057575
_cell_length_b   9.86682702
_cell_length_c   10.12730624
_cell_angle_alpha   89.99999921
_cell_angle_beta   89.89323992
_cell_angle_gamma   120.02097243
_symmetry_Int_Tables_number   1
_chemical_formula_structural   Dy7Sn23Ir5Rh
_chemical_formula_sum   'Dy7 Sn23 Ir5 Rh1'
_cell_volume   853.12277853
_cell_formula_units_Z   1
loop_
 _symmetry_equiv_pos_site_id
 _symmetry_equiv_pos_as_xyz
  1  'x, y, z'
loop_
 _atom_site_type_symbol
 _atom_site_label
 _atom_site_symmetry_multiplicity
 _atom_site_fract_x
 _atom_site_fract_y
 _atom_site_fract_z
 _atom_site_occupancy
  Dy  Dy0  1  0.005727  0.002863  0.004183  1
  Dy  Dy1  1  0.479807  0.519834  0.307198  1
  Dy  Dy2  1  0.519524  0.478398  0.691412  1
  Dy  Dy3  1  0.479807  0.959973  0.307198  1
  Dy  Dy4  1  0.519524  0.041126  0.691412  1
  Dy  Dy5  1  0.040175  0.520087  0.306625  1
  Dy  Dy6  1  0.959222  0.479611  0.692940  1
  Sn  Sn7  1  0.353669  0.999893  0.999406  1
  Sn  Sn8  1  0.648824  0.998497  0.999083  1
  Sn  Sn9  1  0.999731  0.352178  0.999953  1
  Sn  Sn10  1  0.999731  0.647552  0.999953  1
  Sn  Sn11  1  0.648824  0.650328  0.999083  1
  Sn  Sn12  1  0.353669  0.353776  0.999406  1
  Sn  Sn13  1  0.333399  0.666700  0.822743  1
  Sn  Sn14  1  0.666240  0.333119  0.174584  1
  Sn  Sn15  1  0.999940  0.999971  0.500345  1
  Sn  Sn16  1  0.779340  0.221742  0.457054  1
  Sn  Sn17  1  0.221233  0.777825  0.542826  1
  Sn  Sn18  1  0.779340  0.557598  0.457054  1
  Sn  Sn19  1  0.221233  0.443409  0.542826  1
  Sn  Sn20  1  0.443741  0.221870  0.456031  1
  Sn  Sn21  1  0.558011  0.779006  0.544507  1
  Sn  Sn22  1  0.333978  0.666990  0.120582  1
  Sn  Sn23  1  0.665755  0.332877  0.878249  1
  Sn  Sn24  1  0.118106  0.880212  0.283879  1
  Sn  Sn25  1  0.879904  0.117583  0.719696  1
  Sn  Sn26  1  0.118106  0.237894  0.283879  1
  Sn  Sn27  1  0.879904  0.762321  0.719696  1
  Sn  Sn28  1  0.760872  0.880435  0.283844  1
  Sn  Sn29  1  0.237569  0.118785  0.716244  1
  Ir  Ir30  1  0.830093  0.168057  0.198363  1
  Ir  Ir31  1  0.168805  0.831050  0.801197  1
  Ir  Ir32  1  0.830093  0.662035  0.198363  1
  Ir  Ir33  1  0.168805  0.337757  0.801197  1
  Ir  Ir34  1  0.336538  0.168268  0.197808  1
  Rh  Rh35  1  0.660763  0.830382  0.801184  1
