# generated using pymatgen
data_BaTaBF10
_symmetry_space_group_name_H-M   'P 1'
_cell_length_a   6.65415500
_cell_length_b   10.97396100
_cell_length_c   12.43701600
_cell_angle_alpha   90.00000000
_cell_angle_beta   90.00000000
_cell_angle_gamma   90.00000000
_symmetry_Int_Tables_number   1
_chemical_formula_structural   BaTaBF10
_chemical_formula_sum   'Ba4 Ta4 B4 F40'
_cell_volume   908.18122302
_cell_formula_units_Z   4
loop_
 _symmetry_equiv_pos_site_id
 _symmetry_equiv_pos_as_xyz
  1  'x, y, z'
loop_
 _atom_site_type_symbol
 _atom_site_label
 _atom_site_symmetry_multiplicity
 _atom_site_fract_x
 _atom_site_fract_y
 _atom_site_fract_z
 _atom_site_occupancy
  Ba  Ba0  1  0.750000  0.268940  0.608401  1
  Ba  Ba1  1  0.750000  0.768940  0.891599  1
  Ba  Ba2  1  0.250000  0.731060  0.391599  1
  Ba  Ba3  1  0.250000  0.231060  0.108401  1
  Ta  Ta4  1  0.250000  0.982543  0.699034  1
  Ta  Ta5  1  0.250000  0.482543  0.800966  1
  Ta  Ta6  1  0.750000  0.017457  0.300966  1
  Ta  Ta7  1  0.750000  0.517457  0.199034  1
  B  B8  1  0.750000  0.641608  0.571525  1
  B  B9  1  0.750000  0.141608  0.928475  1
  B  B10  1  0.250000  0.358392  0.428475  1
  B  B11  1  0.250000  0.858392  0.071525  1
  F  F12  1  0.576836  0.684624  0.516779  1
  F  F13  1  0.923164  0.184624  0.983221  1
  F  F14  1  0.076836  0.315376  0.483221  1
  F  F15  1  0.423164  0.815376  0.016779  1
  F  F16  1  0.423164  0.315376  0.483221  1
  F  F17  1  0.076836  0.815376  0.016779  1
  F  F18  1  0.923164  0.684624  0.516779  1
  F  F19  1  0.576836  0.184624  0.983221  1
  F  F20  1  0.750000  0.512174  0.572473  1
  F  F21  1  0.750000  0.012174  0.927527  1
  F  F22  1  0.250000  0.487826  0.427527  1
  F  F23  1  0.250000  0.987826  0.072473  1
  F  F24  1  0.750000  0.684319  0.679127  1
  F  F25  1  0.750000  0.184319  0.820873  1
  F  F26  1  0.250000  0.315681  0.320873  1
  F  F27  1  0.250000  0.815681  0.179127  1
  F  F28  1  0.250000  0.884189  0.569042  1
  F  F29  1  0.250000  0.384189  0.930958  1
  F  F30  1  0.750000  0.115811  0.430958  1
  F  F31  1  0.750000  0.615811  0.069042  1
  F  F32  1  0.455143  0.879062  0.760833  1
  F  F33  1  0.044857  0.379062  0.739167  1
  F  F34  1  0.955143  0.120938  0.239167  1
  F  F35  1  0.544857  0.620938  0.260833  1
  F  F36  1  0.544857  0.120938  0.239167  1
  F  F37  1  0.955143  0.620938  0.260833  1
  F  F38  1  0.044857  0.879062  0.760833  1
  F  F39  1  0.455143  0.379062  0.739167  1
  F  F40  1  0.250000  0.082276  0.823170  1
  F  F41  1  0.250000  0.582276  0.676830  1
  F  F42  1  0.750000  0.917724  0.176830  1
  F  F43  1  0.750000  0.417724  0.323170  1
  F  F44  1  0.042601  0.083874  0.636196  1
  F  F45  1  0.457399  0.583874  0.863804  1
  F  F46  1  0.542601  0.916126  0.363804  1
  F  F47  1  0.957399  0.416126  0.136196  1
  F  F48  1  0.957399  0.916126  0.363804  1
  F  F49  1  0.542601  0.416126  0.136196  1
  F  F50  1  0.457399  0.083874  0.636196  1
  F  F51  1  0.042601  0.583874  0.863804  1
