# generated using pymatgen
data_YbPrZr(Si3Pd10)2
_symmetry_space_group_name_H-M   'P 1'
_cell_length_a   8.72052546
_cell_length_b   8.72052467
_cell_length_c   8.72052600
_cell_angle_alpha   60.00000252
_cell_angle_beta   60.00000552
_cell_angle_gamma   60.00000725
_symmetry_Int_Tables_number   1
_chemical_formula_structural   YbPrZr(Si3Pd10)2
_chemical_formula_sum   'Yb1 Pr1 Zr1 Si6 Pd20'
_cell_volume   468.93538240
_cell_formula_units_Z   1
loop_
 _symmetry_equiv_pos_site_id
 _symmetry_equiv_pos_as_xyz
  1  'x, y, z'
loop_
 _atom_site_type_symbol
 _atom_site_label
 _atom_site_symmetry_multiplicity
 _atom_site_fract_x
 _atom_site_fract_y
 _atom_site_fract_z
 _atom_site_occupancy
  Yb  Yb0  1  0.750000  0.750000  0.750000  1
  Pr  Pr1  1  0.250000  0.250000  0.250000  1
  Zr  Zr2  1  0.000000  0.000000  0.000000  1
  Si  Si3  1  0.731886  0.268114  0.268114  1
  Si  Si4  1  0.268114  0.731886  0.731886  1
  Si  Si5  1  0.268114  0.731886  0.268114  1
  Si  Si6  1  0.731886  0.268114  0.731886  1
  Si  Si7  1  0.268114  0.268114  0.731886  1
  Si  Si8  1  0.731886  0.731886  0.268114  1
  Pd  Pd9  1  0.385585  0.385585  0.385585  1
  Pd  Pd10  1  0.616957  0.616957  0.616957  1
  Pd  Pd11  1  0.385585  0.385585  0.843245  1
  Pd  Pd12  1  0.385585  0.843245  0.385585  1
  Pd  Pd13  1  0.616957  0.616957  0.149129  1
  Pd  Pd14  1  0.616957  0.149129  0.616957  1
  Pd  Pd15  1  0.843245  0.385585  0.385585  1
  Pd  Pd16  1  0.149129  0.616957  0.616957  1
  Pd  Pd17  1  0.342660  0.999755  0.999755  1
  Pd  Pd18  1  0.657831  0.999755  0.999755  1
  Pd  Pd19  1  0.999755  0.342660  0.657831  1
  Pd  Pd20  1  0.999755  0.657831  0.342660  1
  Pd  Pd21  1  0.999755  0.342660  0.999755  1
  Pd  Pd22  1  0.657831  0.999755  0.342660  1
  Pd  Pd23  1  0.999755  0.657831  0.999755  1
  Pd  Pd24  1  0.342660  0.999755  0.657831  1
  Pd  Pd25  1  0.999755  0.999755  0.342660  1
  Pd  Pd26  1  0.999755  0.999755  0.657831  1
  Pd  Pd27  1  0.657831  0.342660  0.999755  1
  Pd  Pd28  1  0.342660  0.657831  0.999755  1
