# generated using pymatgen
data_K3MoP2O9
_symmetry_space_group_name_H-M   'P 1'
_cell_length_a   17.93559100
_cell_length_b   5.29444268
_cell_length_c   9.94017700
_cell_angle_alpha   89.92385729
_cell_angle_beta   90.00000000
_cell_angle_gamma   90.00000000
_symmetry_Int_Tables_number   1
_chemical_formula_structural   K3MoP2O9
_chemical_formula_sum   'K12 Mo4 P8 O36'
_cell_volume   943.90802068
_cell_formula_units_Z   4
loop_
 _symmetry_equiv_pos_site_id
 _symmetry_equiv_pos_as_xyz
  1  'x, y, z'
loop_
 _atom_site_type_symbol
 _atom_site_label
 _atom_site_symmetry_multiplicity
 _atom_site_fract_x
 _atom_site_fract_y
 _atom_site_fract_z
 _atom_site_occupancy
  K  K0  1  0.859964  0.761374  0.077324  1
  K  K1  1  0.640036  0.761374  0.577324  1
  K  K2  1  0.422673  0.245884  0.055591  1
  K  K3  1  0.359964  0.238626  0.422676  1
  K  K4  1  0.140036  0.238626  0.922676  1
  K  K5  1  0.705804  0.259834  0.954162  1
  K  K6  1  0.205804  0.740166  0.545838  1
  K  K7  1  0.294196  0.740166  0.045838  1
  K  K8  1  0.794196  0.259834  0.454162  1
  K  K9  1  0.077327  0.245884  0.555591  1
  K  K10  1  0.577327  0.754116  0.944409  1
  K  K11  1  0.922673  0.754116  0.444409  1
  Mo  Mo12  1  0.411113  0.766900  0.679430  1
  Mo  Mo13  1  0.588887  0.233100  0.320570  1
  Mo  Mo14  1  0.911113  0.233100  0.820570  1
  Mo  Mo15  1  0.088887  0.766900  0.179430  1
  P  P16  1  0.708295  0.746185  0.266765  1
  P  P17  1  0.208295  0.253815  0.233235  1
  P  P18  1  0.962806  0.270300  0.165054  1
  P  P19  1  0.462806  0.729700  0.334946  1
  P  P20  1  0.791705  0.746185  0.766765  1
  P  P21  1  0.037194  0.729700  0.834946  1
  P  P22  1  0.291705  0.253815  0.733235  1
  P  P23  1  0.537194  0.270300  0.665054  1
  O  O24  1  0.418805  0.767781  0.854469  1
  O  O25  1  0.406364  0.748719  0.454777  1
  O  O26  1  0.694917  0.749994  0.115634  1
  O  O27  1  0.305083  0.250006  0.884366  1
  O  O28  1  0.073818  0.777818  0.699012  1
  O  O29  1  0.971814  0.917440  0.861125  1
  O  O30  1  0.593636  0.251281  0.545223  1
  O  O31  1  0.081195  0.767781  0.354469  1
  O  O32  1  0.661239  0.529389  0.338023  1
  O  O33  1  0.289599  0.284135  0.191242  1
  O  O34  1  0.710401  0.715865  0.808758  1
  O  O35  1  0.528186  0.917440  0.361125  1
  O  O36  1  0.838761  0.529389  0.838023  1
  O  O37  1  0.093636  0.748719  0.954777  1
  O  O38  1  0.028186  0.082560  0.138875  1
  O  O39  1  0.505630  0.547371  0.658980  1
  O  O40  1  0.918805  0.232219  0.645531  1
  O  O41  1  0.680284  0.004424  0.334205  1
  O  O42  1  0.906364  0.251281  0.045223  1
  O  O43  1  0.210401  0.284135  0.691242  1
  O  O44  1  0.426182  0.777818  0.199012  1
  O  O45  1  0.319716  0.995576  0.665795  1
  O  O46  1  0.789599  0.715865  0.308758  1
  O  O47  1  0.819716  0.004424  0.834205  1
  O  O48  1  0.161239  0.470611  0.161977  1
  O  O49  1  0.805083  0.749994  0.615634  1
  O  O50  1  0.926182  0.222182  0.300988  1
  O  O51  1  0.194917  0.250006  0.384366  1
  O  O52  1  0.180284  0.995576  0.165795  1
  O  O53  1  0.005630  0.452629  0.841020  1
  O  O54  1  0.494370  0.452629  0.341020  1
  O  O55  1  0.471814  0.082560  0.638875  1
  O  O56  1  0.581195  0.232219  0.145531  1
  O  O57  1  0.994370  0.547371  0.158980  1
  O  O58  1  0.573818  0.222182  0.800988  1
  O  O59  1  0.338761  0.470611  0.661977  1
