# generated using pymatgen
data_Lu(NpAl4)3
_symmetry_space_group_name_H-M   'P 1'
_cell_length_a   6.02294300
_cell_length_b   6.02294306
_cell_length_c   9.68213300
_cell_angle_alpha   90.00000000
_cell_angle_beta   90.00000000
_cell_angle_gamma   119.99999419
_symmetry_Int_Tables_number   1
_chemical_formula_structural   Lu(NpAl4)3
_chemical_formula_sum   'Lu1 Np3 Al12'
_cell_volume   304.17198481
_cell_formula_units_Z   1
loop_
 _symmetry_equiv_pos_site_id
 _symmetry_equiv_pos_as_xyz
  1  'x, y, z'
loop_
 _atom_site_type_symbol
 _atom_site_label
 _atom_site_symmetry_multiplicity
 _atom_site_fract_x
 _atom_site_fract_y
 _atom_site_fract_z
 _atom_site_occupancy
  Lu  Lu0  1  0.000000  0.000000  0.000000  1
  Np  Np1  1  0.000000  0.000000  0.500000  1
  Np  Np2  1  0.333333  0.666667  0.248223  1
  Np  Np3  1  0.666667  0.333333  0.751777  1
  Al  Al4  1  0.500000  0.500000  0.500000  1
  Al  Al5  1  0.500000  0.000000  0.500000  1
  Al  Al6  1  0.000000  0.500000  0.500000  1
  Al  Al7  1  0.500000  0.500000  0.000000  1
  Al  Al8  1  0.500000  0.000000  0.000000  1
  Al  Al9  1  0.000000  0.500000  0.000000  1
  Al  Al10  1  0.821627  0.643253  0.250079  1
  Al  Al11  1  0.356747  0.178373  0.250079  1
  Al  Al12  1  0.821627  0.178373  0.250079  1
  Al  Al13  1  0.178373  0.356747  0.749921  1
  Al  Al14  1  0.643253  0.821627  0.749921  1
  Al  Al15  1  0.178373  0.821627  0.749921  1
