# generated using pymatgen
data_LaPr9C4Br15
_symmetry_space_group_name_H-M   'P 1'
_cell_length_a   9.31190271
_cell_length_b   10.30841829
_cell_length_c   11.26136451
_cell_angle_alpha   70.11250726
_cell_angle_beta   66.17431375
_cell_angle_gamma   70.85011749
_symmetry_Int_Tables_number   1
_chemical_formula_structural   LaPr9C4Br15
_chemical_formula_sum   'La1 Pr9 C4 Br15'
_cell_volume   906.77330480
_cell_formula_units_Z   1
loop_
 _symmetry_equiv_pos_site_id
 _symmetry_equiv_pos_as_xyz
  1  'x, y, z'
loop_
 _atom_site_type_symbol
 _atom_site_label
 _atom_site_symmetry_multiplicity
 _atom_site_fract_x
 _atom_site_fract_y
 _atom_site_fract_z
 _atom_site_occupancy
  La  La0  1  0.336798  0.750884  0.830683  1
  Pr  Pr1  1  0.666904  0.249544  0.169045  1
  Pr  Pr2  1  0.169028  0.429616  0.046189  1
  Pr  Pr3  1  0.830052  0.569505  0.954591  1
  Pr  Pr4  1  0.077082  0.179868  0.889520  1
  Pr  Pr5  1  0.921674  0.820130  0.110193  1
  Pr  Pr6  1  0.245464  0.540694  0.645745  1
  Pr  Pr7  1  0.753408  0.458734  0.354160  1
  Pr  Pr8  1  0.027927  0.105664  0.264689  1
  Pr  Pr9  1  0.971978  0.894354  0.736115  1
  C  C10  1  0.880443  0.359891  0.170562  1
  C  C11  1  0.120733  0.640178  0.828983  1
  C  C12  1  0.955790  0.296474  0.061902  1
  C  C13  1  0.045291  0.703380  0.938006  1
  Br  Br14  1  0.501132  0.497910  0.001401  1
  Br  Br15  1  0.132541  0.814125  0.469846  1
  Br  Br16  1  0.867244  0.185813  0.530636  1
  Br  Br17  1  0.252551  0.028656  0.646400  1
  Br  Br18  1  0.746602  0.973942  0.351993  1
  Br  Br19  1  0.334259  0.168692  0.220440  1
  Br  Br20  1  0.666014  0.831838  0.779226  1
  Br  Br21  1  0.454685  0.367765  0.412790  1
  Br  Br22  1  0.545902  0.631334  0.585527  1
  Br  Br23  1  0.948353  0.443467  0.704507  1
  Br  Br24  1  0.050841  0.556630  0.295453  1
  Br  Br25  1  0.229771  0.909084  0.062433  1
  Br  Br26  1  0.768268  0.091969  0.938973  1
  Br  Br27  1  0.383768  0.272287  0.818106  1
  Br  Br28  1  0.615496  0.727573  0.181885  1
