# generated using pymatgen
data_La6PrNd3(Sn5Ir2)4
_symmetry_space_group_name_H-M   'P 1'
_cell_length_a   14.22768803
_cell_length_b   14.22768803
_cell_length_c   4.71727000
_cell_angle_alpha   90.00000000
_cell_angle_beta   90.00000000
_cell_angle_gamma   90.00763531
_symmetry_Int_Tables_number   1
_chemical_formula_structural   La6PrNd3(Sn5Ir2)4
_chemical_formula_sum   'La6 Pr1 Nd3 Sn20 Ir8'
_cell_volume   954.90330926
_cell_formula_units_Z   1
loop_
 _symmetry_equiv_pos_site_id
 _symmetry_equiv_pos_as_xyz
  1  'x, y, z'
loop_
 _atom_site_type_symbol
 _atom_site_label
 _atom_site_symmetry_multiplicity
 _atom_site_fract_x
 _atom_site_fract_y
 _atom_site_fract_z
 _atom_site_occupancy
  La  La0  1  0.499996  0.499995  0.000000  1
  La  La1  1  0.999995  0.999996  0.000000  1
  La  La2  1  0.887489  0.387489  0.500000  1
  La  La3  1  0.112522  0.612522  0.500000  1
  La  La4  1  0.387462  0.112522  0.500000  1
  La  La5  1  0.612522  0.887462  0.500000  1
  Pr  Pr6  1  0.676545  0.176545  0.500000  1
  Nd  Nd7  1  0.323506  0.823506  0.500000  1
  Nd  Nd8  1  0.176493  0.323499  0.500000  1
  Nd  Nd9  1  0.823499  0.676493  0.500000  1
  Sn  Sn10  1  0.569724  0.069724  0.000000  1
  Sn  Sn11  1  0.430185  0.930185  0.000000  1
  Sn  Sn12  1  0.069813  0.430185  0.000000  1
  Sn  Sn13  1  0.930185  0.569813  0.000000  1
  Sn  Sn14  1  0.655094  0.698097  0.000000  1
  Sn  Sn15  1  0.344904  0.301908  0.000000  1
  Sn  Sn16  1  0.155088  0.801902  0.000000  1
  Sn  Sn17  1  0.844997  0.198109  0.000000  1
  Sn  Sn18  1  0.301902  0.655088  0.000000  1
  Sn  Sn19  1  0.698109  0.344997  0.000000  1
  Sn  Sn20  1  0.198097  0.155094  0.000000  1
  Sn  Sn21  1  0.801908  0.844904  0.000000  1
  Sn  Sn22  1  0.663949  0.505320  0.500000  1
  Sn  Sn23  1  0.336065  0.494668  0.500000  1
  Sn  Sn24  1  0.163945  0.994676  0.500000  1
  Sn  Sn25  1  0.836100  0.005268  0.500000  1
  Sn  Sn26  1  0.494676  0.663945  0.500000  1
  Sn  Sn27  1  0.505268  0.336100  0.500000  1
  Sn  Sn28  1  0.005320  0.163949  0.500000  1
  Sn  Sn29  1  0.994668  0.836065  0.500000  1
  Ir  Ir30  1  0.746312  0.528135  0.000000  1
  Ir  Ir31  1  0.253687  0.471883  0.000000  1
  Ir  Ir32  1  0.246306  0.971874  0.000000  1
  Ir  Ir33  1  0.753738  0.028040  0.000000  1
  Ir  Ir34  1  0.471874  0.746306  0.000000  1
  Ir  Ir35  1  0.528040  0.253738  0.000000  1
  Ir  Ir36  1  0.028135  0.246312  0.000000  1
  Ir  Ir37  1  0.971883  0.753687  0.000000  1
