# generated using pymatgen
data_KMgMoH9
_symmetry_space_group_name_H-M   'P 1'
_cell_length_a   8.78790000
_cell_length_b   8.78789994
_cell_length_c   5.42344000
_cell_angle_alpha   90.00000000
_cell_angle_beta   90.00000000
_cell_angle_gamma   120.00000775
_symmetry_Int_Tables_number   1
_chemical_formula_structural   KMgMoH9
_chemical_formula_sum   'K3 Mg3 Mo3 H27'
_cell_volume   362.72346153
_cell_formula_units_Z   3
loop_
 _symmetry_equiv_pos_site_id
 _symmetry_equiv_pos_as_xyz
  1  'x, y, z'
loop_
 _atom_site_type_symbol
 _atom_site_label
 _atom_site_symmetry_multiplicity
 _atom_site_fract_x
 _atom_site_fract_y
 _atom_site_fract_z
 _atom_site_occupancy
  K  K0  1  0.000000  0.599449  0.000000  1
  K  K1  1  0.400551  0.400551  0.000000  1
  K  K2  1  0.599449  0.000000  0.000000  1
  Mg  Mg3  1  0.000000  0.295027  0.500000  1
  Mg  Mg4  1  0.704973  0.704973  0.500000  1
  Mg  Mg5  1  0.295027  0.000000  0.500000  1
  Mo  Mo6  1  0.666667  0.333333  0.500000  1
  Mo  Mo7  1  0.333333  0.666667  0.500000  1
  Mo  Mo8  1  0.000000  0.000000  0.000000  1
  H  H9  1  0.800326  0.310807  0.727233  1
  H  H10  1  0.689193  0.489519  0.727233  1
  H  H11  1  0.510481  0.199674  0.727233  1
  H  H12  1  0.199674  0.510481  0.272767  1
  H  H13  1  0.510481  0.199674  0.272767  1
  H  H14  1  0.800326  0.310807  0.272767  1
  H  H15  1  0.689193  0.489519  0.272767  1
  H  H16  1  0.310807  0.800326  0.727233  1
  H  H17  1  0.489519  0.689193  0.727233  1
  H  H18  1  0.197667  0.000000  0.000000  1
  H  H19  1  0.802333  0.802333  0.000000  1
  H  H20  1  0.000000  0.197667  0.000000  1
  H  H21  1  0.861997  0.000000  0.244126  1
  H  H22  1  0.138003  0.138003  0.755874  1
  H  H23  1  0.000000  0.861997  0.755874  1
  H  H24  1  0.000000  0.861997  0.244126  1
  H  H25  1  0.138003  0.138003  0.244126  1
  H  H26  1  0.861997  0.000000  0.755874  1
  H  H27  1  0.125247  0.637988  0.500000  1
  H  H28  1  0.512742  0.874753  0.500000  1
  H  H29  1  0.362012  0.487258  0.500000  1
  H  H30  1  0.487258  0.362012  0.500000  1
  H  H31  1  0.874753  0.512742  0.500000  1
  H  H32  1  0.637988  0.125247  0.500000  1
  H  H33  1  0.199674  0.510481  0.727233  1
  H  H34  1  0.310807  0.800326  0.272767  1
  H  H35  1  0.489519  0.689193  0.272767  1
