# generated using pymatgen
data_Ba3AgRuO6
_symmetry_space_group_name_H-M   'P 1'
_cell_length_a   7.18981848
_cell_length_b   7.18981793
_cell_length_c   7.18981828
_cell_angle_alpha   90.30339232
_cell_angle_beta   90.30339575
_cell_angle_gamma   90.30338982
_symmetry_Int_Tables_number   1
_chemical_formula_structural   Ba3AgRuO6
_chemical_formula_sum   'Ba6 Ag2 Ru2 O12'
_cell_volume   371.65108190
_cell_formula_units_Z   2
loop_
 _symmetry_equiv_pos_site_id
 _symmetry_equiv_pos_as_xyz
  1  'x, y, z'
loop_
 _atom_site_type_symbol
 _atom_site_label
 _atom_site_symmetry_multiplicity
 _atom_site_fract_x
 _atom_site_fract_y
 _atom_site_fract_z
 _atom_site_occupancy
  Ba  Ba0  1  0.105923  0.750000  0.394077  1
  Ba  Ba1  1  0.394077  0.105923  0.750000  1
  Ba  Ba2  1  0.894077  0.250000  0.605923  1
  Ba  Ba3  1  0.605923  0.894077  0.250000  1
  Ba  Ba4  1  0.750000  0.394077  0.105923  1
  Ba  Ba5  1  0.250000  0.605923  0.894077  1
  Ag  Ag6  1  0.250000  0.250000  0.250000  1
  Ag  Ag7  1  0.750000  0.750000  0.750000  1
  Ru  Ru8  1  0.000000  0.000000  0.000000  1
  Ru  Ru9  1  0.500000  0.500000  0.500000  1
  O  O10  1  0.443649  0.763357  0.577779  1
  O  O11  1  0.577779  0.443649  0.763357  1
  O  O12  1  0.763357  0.577779  0.443649  1
  O  O13  1  0.056351  0.922221  0.736643  1
  O  O14  1  0.736643  0.056351  0.922221  1
  O  O15  1  0.922221  0.736643  0.056351  1
  O  O16  1  0.556351  0.236643  0.422221  1
  O  O17  1  0.422221  0.556351  0.236643  1
  O  O18  1  0.236643  0.422221  0.556351  1
  O  O19  1  0.943649  0.077779  0.263357  1
  O  O20  1  0.077779  0.263357  0.943649  1
  O  O21  1  0.263357  0.943649  0.077779  1
