# generated using pymatgen
data_Tm20GaHgBi10
_symmetry_space_group_name_H-M   'P 1'
_cell_length_a   8.12026519
_cell_length_b   9.39035900
_cell_length_c   11.84969592
_cell_angle_alpha   90.00000000
_cell_angle_beta   89.85785061
_cell_angle_gamma   90.00000000
_symmetry_Int_Tables_number   1
_chemical_formula_structural   Tm20GaHgBi10
_chemical_formula_sum   'Tm20 Ga1 Hg1 Bi10'
_cell_volume   903.56266600
_cell_formula_units_Z   1
loop_
 _symmetry_equiv_pos_site_id
 _symmetry_equiv_pos_as_xyz
  1  'x, y, z'
loop_
 _atom_site_type_symbol
 _atom_site_label
 _atom_site_symmetry_multiplicity
 _atom_site_fract_x
 _atom_site_fract_y
 _atom_site_fract_z
 _atom_site_occupancy
  Tm  Tm0  1  0.035128  0.250000  0.508984  1
  Tm  Tm1  1  0.979292  0.750000  0.490538  1
  Tm  Tm2  1  0.478465  0.750000  0.010654  1
  Tm  Tm3  1  0.534104  0.250000  0.990607  1
  Tm  Tm4  1  0.354609  0.250000  0.293694  1
  Tm  Tm5  1  0.652973  0.750000  0.716498  1
  Tm  Tm6  1  0.149016  0.750000  0.782643  1
  Tm  Tm7  1  0.854301  0.250000  0.210532  1
  Tm  Tm8  1  0.185235  0.250000  0.782278  1
  Tm  Tm9  1  0.810920  0.750000  0.217732  1
  Tm  Tm10  1  0.311304  0.750000  0.282517  1
  Tm  Tm11  1  0.675523  0.250000  0.711457  1
  Tm  Tm12  1  0.188905  0.069329  0.057914  1
  Tm  Tm13  1  0.806850  0.945390  0.940299  1
  Tm  Tm14  1  0.308229  0.950419  0.558699  1
  Tm  Tm15  1  0.806850  0.554610  0.940299  1
  Tm  Tm16  1  0.684308  0.071718  0.445013  1
  Tm  Tm17  1  0.188905  0.430671  0.057914  1
  Tm  Tm18  1  0.684308  0.428282  0.445013  1
  Tm  Tm19  1  0.308229  0.549581  0.558699  1
  Ga  Ga20  1  0.408248  0.250000  0.539892  1
  Hg  Hg21  1  0.909779  0.250000  0.956238  1
  Bi  Bi22  1  0.594883  0.750000  0.457577  1
  Bi  Bi23  1  0.093773  0.750000  0.042393  1
  Bi  Bi24  1  0.061816  0.002671  0.324471  1
  Bi  Bi25  1  0.937321  0.999669  0.676184  1
  Bi  Bi26  1  0.437053  0.996850  0.823487  1
  Bi  Bi27  1  0.937321  0.500331  0.676184  1
  Bi  Bi28  1  0.561740  0.003273  0.176815  1
  Bi  Bi29  1  0.061816  0.497329  0.324471  1
  Bi  Bi30  1  0.561740  0.496727  0.176815  1
  Bi  Bi31  1  0.437053  0.503150  0.823487  1
