# generated using pymatgen
data_Tb5PrTcTe2
_symmetry_space_group_name_H-M   'P 1'
_cell_length_a   8.40810403
_cell_length_b   8.47156382
_cell_length_c   4.09689600
_cell_angle_alpha   90.00000000
_cell_angle_beta   90.00000000
_cell_angle_gamma   120.24997820
_symmetry_Int_Tables_number   1
_chemical_formula_structural   Tb5PrTcTe2
_chemical_formula_sum   'Tb5 Pr1 Tc1 Te2'
_cell_volume   252.08543249
_cell_formula_units_Z   1
loop_
 _symmetry_equiv_pos_site_id
 _symmetry_equiv_pos_as_xyz
  1  'x, y, z'
loop_
 _atom_site_type_symbol
 _atom_site_label
 _atom_site_symmetry_multiplicity
 _atom_site_fract_x
 _atom_site_fract_y
 _atom_site_fract_z
 _atom_site_occupancy
  Tb  Tb0  1  0.606489  0.607610  0.500000  1
  Tb  Tb1  1  0.393511  0.001121  0.500000  1
  Tb  Tb2  1  0.000000  0.758974  0.000000  1
  Tb  Tb3  1  0.235178  0.236706  0.000000  1
  Tb  Tb4  1  0.764822  0.001528  0.000000  1
  Pr  Pr5  1  0.000000  0.404008  0.500000  1
  Tc  Tc6  1  0.000000  0.985581  0.500000  1
  Te  Te7  1  0.339928  0.672201  0.000000  1
  Te  Te8  1  0.660072  0.332272  0.000000  1
