# generated using pymatgen
data_CeDy4U(Ni3Sb4)2
_symmetry_space_group_name_H-M   'P 1'
_cell_length_a   8.19054677
_cell_length_b   8.19054781
_cell_length_c   8.19054712
_cell_angle_alpha   109.16971206
_cell_angle_beta   109.16971193
_cell_angle_gamma   110.07594078
_symmetry_Int_Tables_number   1
_chemical_formula_structural   CeDy4U(Ni3Sb4)2
_chemical_formula_sum   'Ce1 Dy4 U1 Ni6 Sb8'
_cell_volume   422.94170309
_cell_formula_units_Z   1
loop_
 _symmetry_equiv_pos_site_id
 _symmetry_equiv_pos_as_xyz
  1  'x, y, z'
loop_
 _atom_site_type_symbol
 _atom_site_label
 _atom_site_symmetry_multiplicity
 _atom_site_fract_x
 _atom_site_fract_y
 _atom_site_fract_z
 _atom_site_occupancy
  Ce  Ce0  1  0.125000  0.875000  0.250000  1
  Dy  Dy1  1  0.873714  0.249606  0.122101  1
  Dy  Dy2  1  0.627506  0.751613  0.377899  1
  Dy  Dy3  1  0.248387  0.126286  0.875893  1
  Dy  Dy4  1  0.750394  0.372494  0.624107  1
  U  U5  1  0.375000  0.625000  0.750000  1
  Ni  Ni6  1  0.376923  0.266254  0.632868  1
  Ni  Ni7  1  0.133387  0.744054  0.867132  1
  Ni  Ni8  1  0.255946  0.623077  0.389332  1
  Ni  Ni9  1  0.733746  0.866613  0.110668  1
  Ni  Ni10  1  0.625000  0.375000  0.250000  1
  Ni  Ni11  1  0.875000  0.125000  0.750000  1
  Sb  Sb12  1  0.654751  0.499692  0.001942  1
  Sb  Sb13  1  0.500144  0.001547  0.656586  1
  Sb  Sb14  1  0.997750  0.652809  0.498058  1
  Sb  Sb15  1  0.844960  0.843558  0.843414  1
  Sb  Sb16  1  0.500308  0.002250  0.155059  1
  Sb  Sb17  1  0.156442  0.499856  0.001403  1
  Sb  Sb18  1  0.998453  0.155040  0.498597  1
  Sb  Sb19  1  0.347191  0.345249  0.344941  1
