# generated using pymatgen
data_Cs4Mn3Be3S8
_symmetry_space_group_name_H-M   'P 1'
_cell_length_a   9.48029305
_cell_length_b   9.45209255
_cell_length_c   9.48029238
_cell_angle_alpha   145.53845510
_cell_angle_beta   105.20008014
_cell_angle_gamma   85.15298606
_symmetry_Int_Tables_number   1
_chemical_formula_structural   Cs4Mn3Be3S8
_chemical_formula_sum   'Cs4 Mn3 Be3 S8'
_cell_volume   450.19393520
_cell_formula_units_Z   1
loop_
 _symmetry_equiv_pos_site_id
 _symmetry_equiv_pos_as_xyz
  1  'x, y, z'
loop_
 _atom_site_type_symbol
 _atom_site_label
 _atom_site_symmetry_multiplicity
 _atom_site_fract_x
 _atom_site_fract_y
 _atom_site_fract_z
 _atom_site_occupancy
  Cs  Cs0  1  0.121022  0.243575  0.361454  1
  Cs  Cs1  1  0.383338  0.731584  0.107213  1
  Cs  Cs2  1  0.617879  0.256425  0.877447  1
  Cs  Cs3  1  0.875629  0.768416  0.651755  1
  Mn  Mn4  1  0.746057  0.250000  0.496057  1
  Mn  Mn5  1  0.256329  0.750000  0.506329  1
  Mn  Mn6  1  0.019600  0.250000  0.769600  1
  Be  Be7  1  0.508893  0.750000  0.758893  1
  Be  Be8  1  0.988938  0.750000  0.238938  1
  Be  Be9  1  0.492286  0.250000  0.242286  1
  S  S10  1  0.202319  0.042933  0.556146  1
  S  S11  1  0.316153  0.903688  0.885302  1
  S  S12  1  0.013213  0.457067  0.159386  1
  S  S13  1  0.481614  0.596312  0.412465  1
  S  S14  1  0.800261  0.907759  0.380627  1
  S  S15  1  0.685107  0.099720  0.118212  1
  S  S16  1  0.972869  0.592241  0.892503  1
  S  S17  1  0.518492  0.400280  0.585387  1
