# generated using pymatgen
data_TiPd2Pt3
_symmetry_space_group_name_H-M   'P 1'
_cell_length_a   6.20050358
_cell_length_b   6.20050278
_cell_length_c   3.97781800
_cell_angle_alpha   90.00000000
_cell_angle_beta   90.00000000
_cell_angle_gamma   142.86778060
_symmetry_Int_Tables_number   1
_chemical_formula_structural   TiPd2Pt3
_chemical_formula_sum   'Ti1 Pd2 Pt3'
_cell_volume   92.31846780
_cell_formula_units_Z   1
loop_
 _symmetry_equiv_pos_site_id
 _symmetry_equiv_pos_as_xyz
  1  'x, y, z'
loop_
 _atom_site_type_symbol
 _atom_site_label
 _atom_site_symmetry_multiplicity
 _atom_site_fract_x
 _atom_site_fract_y
 _atom_site_fract_z
 _atom_site_occupancy
  Ti  Ti0  1  0.000000  0.000000  0.000000  1
  Pd  Pd1  1  0.661530  0.338468  0.000000  1
  Pd  Pd2  1  0.338468  0.661530  0.000000  1
  Pt  Pt3  1  0.837020  0.162978  0.499999  1
  Pt  Pt4  1  0.499999  0.499999  0.499999  1
  Pt  Pt5  1  0.162978  0.837020  0.499999  1
