# generated using pymatgen
data_Dy3Tm13In4RuRh3
_symmetry_space_group_name_H-M   'P 1'
_cell_length_a   9.56809608
_cell_length_b   9.55382307
_cell_length_c   9.55434022
_cell_angle_alpha   59.97614247
_cell_angle_beta   59.97910039
_cell_angle_gamma   59.99508263
_symmetry_Int_Tables_number   1
_chemical_formula_structural   Dy3Tm13In4RuRh3
_chemical_formula_sum   'Dy3 Tm13 In4 Ru1 Rh3'
_cell_volume   617.34126837
_cell_formula_units_Z   1
loop_
 _symmetry_equiv_pos_site_id
 _symmetry_equiv_pos_as_xyz
  1  'x, y, z'
loop_
 _atom_site_type_symbol
 _atom_site_label
 _atom_site_symmetry_multiplicity
 _atom_site_fract_x
 _atom_site_fract_y
 _atom_site_fract_z
 _atom_site_occupancy
  Dy  Dy0  1  0.059994  0.060195  0.437304  1
  Dy  Dy1  1  0.442350  0.061059  0.436451  1
  Dy  Dy2  1  0.062958  0.438121  0.061258  1
  Tm  Tm3  1  0.046388  0.651074  0.649906  1
  Tm  Tm4  1  0.439314  0.438596  0.060631  1
  Tm  Tm5  1  0.651379  0.047294  0.649612  1
  Tm  Tm6  1  0.187847  0.809626  0.192695  1
  Tm  Tm7  1  0.189799  0.190948  0.809875  1
  Tm  Tm8  1  0.809411  0.810243  0.192826  1
  Tm  Tm9  1  0.440113  0.061141  0.059521  1
  Tm  Tm10  1  0.809491  0.188149  0.191898  1
  Tm  Tm11  1  0.059880  0.443390  0.437593  1
  Tm  Tm12  1  0.808801  0.191265  0.810266  1
  Tm  Tm13  1  0.190489  0.809311  0.810023  1
  Tm  Tm14  1  0.650653  0.649845  0.048338  1
  Tm  Tm15  1  0.652496  0.651161  0.650104  1
  In  In16  1  0.416578  0.417720  0.416849  1
  In  In17  1  0.747722  0.417525  0.417709  1
  In  In18  1  0.417849  0.747715  0.416477  1
  In  In19  1  0.418254  0.417096  0.747337  1
  Ru  Ru20  1  0.858720  0.857063  0.425474  1
  Rh  Rh21  1  0.857736  0.858937  0.859609  1
  Rh  Rh22  1  0.423872  0.858033  0.859966  1
  Rh  Rh23  1  0.857912  0.424496  0.858281  1
