# generated using pymatgen
data_LiLa6(SmPt3)2
_symmetry_space_group_name_H-M   'P 1'
_cell_length_a   7.80514567
_cell_length_b   7.80514573
_cell_length_c   7.80514634
_cell_angle_alpha   69.96496067
_cell_angle_beta   69.96496189
_cell_angle_gamma   69.96496206
_symmetry_Int_Tables_number   1
_chemical_formula_structural   LiLa6(SmPt3)2
_chemical_formula_sum   'Li1 La6 Sm2 Pt6'
_cell_volume   405.78933176
_cell_formula_units_Z   1
loop_
 _symmetry_equiv_pos_site_id
 _symmetry_equiv_pos_as_xyz
  1  'x, y, z'
loop_
 _atom_site_type_symbol
 _atom_site_label
 _atom_site_symmetry_multiplicity
 _atom_site_fract_x
 _atom_site_fract_y
 _atom_site_fract_z
 _atom_site_occupancy
  Li  Li0  1  0.000000  0.000000  0.000000  1
  La  La1  1  0.317394  0.612792  0.857868  1
  La  La2  1  0.857868  0.317394  0.612792  1
  La  La3  1  0.612792  0.857868  0.317394  1
  La  La4  1  0.682606  0.387208  0.142132  1
  La  La5  1  0.142132  0.682606  0.387208  1
  La  La6  1  0.387208  0.142132  0.682606  1
  Sm  Sm7  1  0.816140  0.816140  0.816140  1
  Sm  Sm8  1  0.183860  0.183860  0.183860  1
  Pt  Pt9  1  0.177069  0.955371  0.576119  1
  Pt  Pt10  1  0.576119  0.177069  0.955371  1
  Pt  Pt11  1  0.955371  0.576119  0.177069  1
  Pt  Pt12  1  0.822931  0.044629  0.423881  1
  Pt  Pt13  1  0.423881  0.822931  0.044629  1
  Pt  Pt14  1  0.044629  0.423881  0.822931  1
