# generated using pymatgen
data_Er4Tm8Co5Hg
_symmetry_space_group_name_H-M   'P 1'
_cell_length_a   8.15109962
_cell_length_b   8.15109926
_cell_length_c   8.15109892
_cell_angle_alpha   110.88368023
_cell_angle_beta   110.67173635
_cell_angle_gamma   106.88877320
_symmetry_Int_Tables_number   1
_chemical_formula_structural   Er4Tm8Co5Hg
_chemical_formula_sum   'Er4 Tm8 Co5 Hg1'
_cell_volume   416.26190055
_cell_formula_units_Z   1
loop_
 _symmetry_equiv_pos_site_id
 _symmetry_equiv_pos_as_xyz
  1  'x, y, z'
loop_
 _atom_site_type_symbol
 _atom_site_label
 _atom_site_symmetry_multiplicity
 _atom_site_fract_x
 _atom_site_fract_y
 _atom_site_fract_z
 _atom_site_occupancy
  Er  Er0  1  0.286586  0.185090  0.471677  1
  Er  Er1  1  0.713414  0.814910  0.528323  1
  Er  Er2  1  0.286586  0.814910  0.101495  1
  Er  Er3  1  0.713414  0.185090  0.898505  1
  Tm  Tm4  1  0.618707  0.314706  0.304000  1
  Tm  Tm5  1  0.381293  0.685294  0.696000  1
  Tm  Tm6  1  0.010706  0.314706  0.696000  1
  Tm  Tm7  1  0.989294  0.685294  0.304000  1
  Tm  Tm8  1  0.214833  0.407279  0.192446  1
  Tm  Tm9  1  0.785167  0.592721  0.807554  1
  Tm  Tm10  1  0.214833  0.022387  0.807554  1
  Tm  Tm11  1  0.785167  0.977613  0.192446  1
  Co  Co12  1  0.000000  0.375895  0.375895  1
  Co  Co13  1  0.000000  0.624105  0.624105  1
  Co  Co14  1  0.386138  0.886138  0.500000  1
  Co  Co15  1  0.613862  0.113862  0.500000  1
  Co  Co16  1  0.000000  0.000000  0.000000  1
  Hg  Hg17  1  0.500000  0.500000  0.000000  1
