# generated using pymatgen
data_Ce8Ta5Nb7Si16
_symmetry_space_group_name_H-M   'P 1'
_cell_length_a   6.94897242
_cell_length_b   7.12351179
_cell_length_c   13.42195905
_cell_angle_alpha   90.01112186
_cell_angle_beta   90.01497696
_cell_angle_gamma   90.03647870
_symmetry_Int_Tables_number   1
_chemical_formula_structural   Ce8Ta5Nb7Si16
_chemical_formula_sum   'Ce8 Ta5 Nb7 Si16'
_cell_volume   664.40139158
_cell_formula_units_Z   1
loop_
 _symmetry_equiv_pos_site_id
 _symmetry_equiv_pos_as_xyz
  1  'x, y, z'
loop_
 _atom_site_type_symbol
 _atom_site_label
 _atom_site_symmetry_multiplicity
 _atom_site_fract_x
 _atom_site_fract_y
 _atom_site_fract_z
 _atom_site_occupancy
  Ce  Ce0  1  0.503216  0.667597  0.594156  1
  Ce  Ce1  1  0.003172  0.831647  0.905573  1
  Ce  Ce2  1  0.496757  0.331522  0.094311  1
  Ce  Ce3  1  0.996808  0.168372  0.406104  1
  Ce  Ce4  1  0.496768  0.331770  0.405947  1
  Ce  Ce5  1  0.996776  0.168502  0.094383  1
  Ce  Ce6  1  0.503389  0.668367  0.905638  1
  Ce  Ce7  1  0.003341  0.831571  0.593885  1
  Ta  Ta8  1  0.663249  0.172868  0.625542  1
  Ta  Ta9  1  0.836486  0.494176  0.749676  1
  Ta  Ta10  1  0.337216  0.005496  0.749631  1
  Ta  Ta11  1  0.163177  0.505602  0.250097  1
  Ta  Ta12  1  0.663257  0.994668  0.250281  1
  Nb  Nb13  1  0.163498  0.327274  0.874394  1
  Nb  Nb14  1  0.336332  0.827481  0.125484  1
  Nb  Nb15  1  0.836343  0.672612  0.374847  1
  Nb  Nb16  1  0.336686  0.827623  0.374815  1
  Nb  Nb17  1  0.836411  0.672674  0.125431  1
  Nb  Nb18  1  0.663457  0.172586  0.874438  1
  Nb  Nb19  1  0.163904  0.327325  0.625124  1
  Si  Si20  1  0.660061  0.959893  0.457278  1
  Si  Si21  1  0.159718  0.540396  0.043458  1
  Si  Si22  1  0.340155  0.040248  0.956271  1
  Si  Si23  1  0.839397  0.459402  0.543701  1
  Si  Si24  1  0.340769  0.040018  0.543732  1
  Si  Si25  1  0.840360  0.459629  0.956301  1
  Si  Si26  1  0.659701  0.959819  0.043569  1
  Si  Si27  1  0.159900  0.540280  0.456469  1
  Si  Si28  1  0.459835  0.374544  0.750045  1
  Si  Si29  1  0.959830  0.125451  0.749619  1
  Si  Si30  1  0.540076  0.625824  0.250081  1
  Si  Si31  1  0.039988  0.874469  0.250185  1
  Si  Si32  1  0.701922  0.876511  0.749472  1
  Si  Si33  1  0.201643  0.623657  0.749762  1
  Si  Si34  1  0.298116  0.123714  0.250175  1
  Si  Si35  1  0.798286  0.376411  0.250126  1
