# generated using pymatgen
data_Y4Ga18Ir5Pt
_symmetry_space_group_name_H-M   'P 1'
_cell_length_a   7.61446914
_cell_length_b   7.61446909
_cell_length_c   9.50785172
_cell_angle_alpha   89.97780849
_cell_angle_beta   89.97780713
_cell_angle_gamma   119.93673692
_symmetry_Int_Tables_number   1
_chemical_formula_structural   Y4Ga18Ir5Pt
_chemical_formula_sum   'Y4 Ga18 Ir5 Pt1'
_cell_volume   477.71476231
_cell_formula_units_Z   1
loop_
 _symmetry_equiv_pos_site_id
 _symmetry_equiv_pos_as_xyz
  1  'x, y, z'
loop_
 _atom_site_type_symbol
 _atom_site_label
 _atom_site_symmetry_multiplicity
 _atom_site_fract_x
 _atom_site_fract_y
 _atom_site_fract_z
 _atom_site_occupancy
  Y  Y0  1  0.996103  0.668448  0.250873  1
  Y  Y1  1  0.003386  0.331250  0.749177  1
  Y  Y2  1  0.668750  0.996614  0.250823  1
  Y  Y3  1  0.331552  0.003897  0.749127  1
  Ga  Ga4  1  0.127864  0.127025  0.250435  1
  Ga  Ga5  1  0.872975  0.872136  0.749565  1
  Ga  Ga6  1  0.002198  0.334188  0.081631  1
  Ga  Ga7  1  0.004137  0.668862  0.918542  1
  Ga  Ga8  1  0.001508  0.665826  0.579606  1
  Ga  Ga9  1  0.334174  0.998492  0.420394  1
  Ga  Ga10  1  0.998712  0.333954  0.419971  1
  Ga  Ga11  1  0.666046  0.001288  0.580029  1
  Ga  Ga12  1  0.665812  0.997802  0.918369  1
  Ga  Ga13  1  0.331138  0.995863  0.081458  1
  Ga  Ga14  1  0.331985  0.332051  0.564037  1
  Ga  Ga15  1  0.667949  0.668015  0.435963  1
  Ga  Ga16  1  0.667395  0.670469  0.066672  1
  Ga  Ga17  1  0.329531  0.332605  0.933328  1
  Ga  Ga18  1  0.340241  0.547082  0.250617  1
  Ga  Ga19  1  0.660132  0.455484  0.747610  1
  Ga  Ga20  1  0.544516  0.339868  0.252390  1
  Ga  Ga21  1  0.452918  0.659759  0.749383  1
  Ir  Ir22  1  0.329043  0.670957  0.000000  1
  Ir  Ir23  1  0.328631  0.671369  0.500000  1
  Ir  Ir24  1  0.671770  0.328230  0.500000  1
  Ir  Ir25  1  0.000177  0.999823  0.000000  1
  Ir  Ir26  1  0.999980  0.000020  0.500000  1
  Pt  Pt27  1  0.671375  0.328625  0.000000  1
