# generated using pymatgen
data_Ho3Pa(ReB6)2
_symmetry_space_group_name_H-M   'P 1'
_cell_length_a   3.69656500
_cell_length_b   9.15941739
_cell_length_c   11.52353220
_cell_angle_alpha   90.34470525
_cell_angle_beta   90.00000000
_cell_angle_gamma   90.00000000
_symmetry_Int_Tables_number   1
_chemical_formula_structural   Ho3Pa(ReB6)2
_chemical_formula_sum   'Ho6 Pa2 Re4 B24'
_cell_volume   390.16109122
_cell_formula_units_Z   2
loop_
 _symmetry_equiv_pos_site_id
 _symmetry_equiv_pos_as_xyz
  1  'x, y, z'
loop_
 _atom_site_type_symbol
 _atom_site_label
 _atom_site_symmetry_multiplicity
 _atom_site_fract_x
 _atom_site_fract_y
 _atom_site_fract_z
 _atom_site_occupancy
  Ho  Ho0  1  0.000000  0.824023  0.085420  1
  Ho  Ho1  1  0.000000  0.175977  0.914580  1
  Ho  Ho2  1  0.000000  0.944645  0.372402  1
  Ho  Ho3  1  0.000000  0.055355  0.627598  1
  Ho  Ho4  1  0.000000  0.443808  0.126464  1
  Ho  Ho5  1  0.000000  0.556192  0.873536  1
  Pa  Pa6  1  0.000000  0.321484  0.413196  1
  Pa  Pa7  1  0.000000  0.678516  0.586804  1
  Re  Re8  1  0.000000  0.635216  0.324696  1
  Re  Re9  1  0.000000  0.364784  0.675304  1
  Re  Re10  1  0.000000  0.140409  0.181591  1
  Re  Re11  1  0.000000  0.859591  0.818409  1
  B  B12  1  0.500000  0.553720  0.432987  1
  B  B13  1  0.500000  0.446280  0.567013  1
  B  B14  1  0.500000  0.053501  0.067186  1
  B  B15  1  0.500000  0.946499  0.932814  1
  B  B16  1  0.500000  0.748452  0.419416  1
  B  B17  1  0.500000  0.251548  0.580584  1
  B  B18  1  0.500000  0.248041  0.080185  1
  B  B19  1  0.500000  0.751959  0.919815  1
  B  B20  1  0.500000  0.791461  0.265230  1
  B  B21  1  0.500000  0.208539  0.734770  1
  B  B22  1  0.500000  0.292009  0.233985  1
  B  B23  1  0.500000  0.707991  0.766015  1
  B  B24  1  0.500000  0.631425  0.185349  1
  B  B25  1  0.500000  0.368575  0.814651  1
  B  B26  1  0.500000  0.132047  0.314137  1
  B  B27  1  0.500000  0.867953  0.685863  1
  B  B28  1  0.500000  0.982184  0.211992  1
  B  B29  1  0.500000  0.017816  0.788008  1
  B  B30  1  0.500000  0.482979  0.286719  1
  B  B31  1  0.500000  0.517021  0.713281  1
  B  B32  1  0.500000  0.605047  0.029380  1
  B  B33  1  0.500000  0.394953  0.970620  1
  B  B34  1  0.500000  0.110009  0.469609  1
  B  B35  1  0.500000  0.889991  0.530391  1
