# generated using pymatgen
data_Zr4FeCo7P6
_symmetry_space_group_name_H-M   'P 1'
_cell_length_a   12.15303405
_cell_length_b   12.13043552
_cell_length_c   3.67236800
_cell_angle_alpha   90.00000000
_cell_angle_beta   90.00000000
_cell_angle_gamma   120.07194224
_symmetry_Int_Tables_number   1
_chemical_formula_structural   Zr4FeCo7P6
_chemical_formula_sum   'Zr8 Fe2 Co14 P12'
_cell_volume   468.51407361
_cell_formula_units_Z   2
loop_
 _symmetry_equiv_pos_site_id
 _symmetry_equiv_pos_as_xyz
  1  'x, y, z'
loop_
 _atom_site_type_symbol
 _atom_site_label
 _atom_site_symmetry_multiplicity
 _atom_site_fract_x
 _atom_site_fract_y
 _atom_site_fract_z
 _atom_site_occupancy
  Zr  Zr0  1  0.444296  0.444840  0.000000  1
  Zr  Zr1  1  0.555698  0.000346  0.000000  1
  Zr  Zr2  1  0.999509  0.555286  0.000000  1
  Zr  Zr3  1  0.666460  0.333499  0.000000  1
  Zr  Zr4  1  0.331588  0.665879  0.000000  1
  Zr  Zr5  1  0.824542  0.824191  0.500000  1
  Zr  Zr6  1  0.176166  0.999749  0.500000  1
  Zr  Zr7  1  0.000784  0.177170  0.500000  1
  Fe  Fe8  1  0.195208  0.372029  0.000000  1
  Fe  Fe9  1  0.177144  0.804853  0.000000  1
  Co  Co10  1  0.821101  0.628280  0.000000  1
  Co  Co11  1  0.807731  0.178426  0.000000  1
  Co  Co12  1  0.371970  0.192541  0.000000  1
  Co  Co13  1  0.123901  0.479094  0.500000  1
  Co  Co14  1  0.355130  0.875232  0.500000  1
  Co  Co15  1  0.520728  0.646786  0.500000  1
  Co  Co16  1  0.646693  0.520554  0.500000  1
  Co  Co17  1  0.871627  0.353672  0.500000  1
  Co  Co18  1  0.482012  0.127749  0.500000  1
  Co  Co19  1  0.999723  0.999459  0.000000  1
  Co  Co20  1  0.722400  0.000248  0.500000  1
  Co  Co21  1  0.997120  0.720825  0.500000  1
  Co  Co22  1  0.628911  0.822730  0.000000  1
  Co  Co23  1  0.279273  0.276173  0.500000  1
  P  P24  1  0.655030  0.655319  0.000000  1
  P  P25  1  0.343558  0.997477  0.000000  1
  P  P26  1  0.002882  0.346403  0.000000  1
  P  P27  1  0.481645  0.308357  0.500000  1
  P  P28  1  0.691977  0.173508  0.500000  1
  P  P29  1  0.826513  0.518504  0.500000  1
  P  P30  1  0.517295  0.826326  0.500000  1
  P  P31  1  0.173066  0.693310  0.500000  1
  P  P32  1  0.825614  0.000516  0.000000  1
  P  P33  1  0.002360  0.825330  0.000000  1
  P  P34  1  0.305415  0.479185  0.500000  1
  P  P35  1  0.174930  0.176155  0.000000  1
