# generated using pymatgen
data_Ac2Zn21Ru
_symmetry_space_group_name_H-M   'P 1'
_cell_length_a   8.41668599
_cell_length_b   8.40541120
_cell_length_c   8.40541142
_cell_angle_alpha   98.82457949
_cell_angle_beta   100.67485138
_cell_angle_gamma   131.31670312
_symmetry_Int_Tables_number   1
_chemical_formula_structural   Ac2Zn21Ru
_chemical_formula_sum   'Ac2 Zn21 Ru1'
_cell_volume   407.12210624
_cell_formula_units_Z   1
loop_
 _symmetry_equiv_pos_site_id
 _symmetry_equiv_pos_as_xyz
  1  'x, y, z'
loop_
 _atom_site_type_symbol
 _atom_site_label
 _atom_site_symmetry_multiplicity
 _atom_site_fract_x
 _atom_site_fract_y
 _atom_site_fract_z
 _atom_site_occupancy
  Ac  Ac0  1  0.252722  0.747997  0.504726  1
  Ac  Ac1  1  0.997278  0.002003  0.995274  1
  Zn  Zn2  1  0.901530  0.569584  0.088737  1
  Zn  Zn3  1  0.625000  0.875000  0.250000  1
  Zn  Zn4  1  0.432099  0.510478  0.326514  1
  Zn  Zn5  1  0.486437  0.569573  0.672504  1
  Zn  Zn6  1  0.432099  0.105583  0.921621  1
  Zn  Zn7  1  0.763563  0.180427  0.827496  1
  Zn  Zn8  1  0.486437  0.813932  0.916864  1
  Zn  Zn9  1  0.500549  0.489452  0.011096  1
  Zn  Zn10  1  0.763563  0.936068  0.583136  1
  Zn  Zn11  1  0.749451  0.260548  0.488904  1
  Zn  Zn12  1  0.065979  0.651588  0.833209  1
  Zn  Zn13  1  0.125000  0.375000  0.750000  1
  Zn  Zn14  1  0.348470  0.180416  0.411263  1
  Zn  Zn15  1  0.817901  0.644417  0.578379  1
  Zn  Zn16  1  0.901530  0.812792  0.331946  1
  Zn  Zn17  1  0.184021  0.098412  0.666791  1
  Zn  Zn18  1  0.065979  0.232770  0.414391  1
  Zn  Zn19  1  0.348470  0.937208  0.168054  1
  Zn  Zn20  1  0.817901  0.239522  0.173486  1
  Zn  Zn21  1  0.184021  0.517230  0.085609  1
  Zn  Zn22  1  0.625000  0.375000  0.750000  1
  Ru  Ru23  1  0.625000  0.375000  0.250000  1
