# generated using pymatgen
data_Ba10Si5Sb
_symmetry_space_group_name_H-M   'P 1'
_cell_length_a   10.36630645
_cell_length_b   10.36630697
_cell_length_c   10.36630835
_cell_angle_alpha   131.21768192
_cell_angle_beta   131.21768526
_cell_angle_gamma   71.46745773
_symmetry_Int_Tables_number   1
_chemical_formula_structural   Ba10Si5Sb
_chemical_formula_sum   'Ba10 Si5 Sb1'
_cell_volume   616.84103129
_cell_formula_units_Z   1
loop_
 _symmetry_equiv_pos_site_id
 _symmetry_equiv_pos_as_xyz
  1  'x, y, z'
loop_
 _atom_site_type_symbol
 _atom_site_label
 _atom_site_symmetry_multiplicity
 _atom_site_fract_x
 _atom_site_fract_y
 _atom_site_fract_z
 _atom_site_occupancy
  Ba  Ba0  1  0.044336  0.526597  0.857120  1
  Ba  Ba1  1  0.312783  0.830521  0.857120  1
  Ba  Ba2  1  0.973403  0.455664  0.142880  1
  Ba  Ba3  1  0.987373  0.987373  0.000000  1
  Ba  Ba4  1  0.455664  0.312783  0.482261  1
  Ba  Ba5  1  0.187217  0.044336  0.517739  1
  Ba  Ba6  1  0.669479  0.187217  0.142880  1
  Ba  Ba7  1  0.526597  0.669479  0.482261  1
  Ba  Ba8  1  0.830521  0.973403  0.517739  1
  Ba  Ba9  1  0.512627  0.512627  0.000000  1
  Si  Si10  1  0.898695  0.601305  0.500000  1
  Si  Si11  1  0.601305  0.101305  0.702610  1
  Si  Si12  1  0.101305  0.398695  0.500000  1
  Si  Si13  1  0.250000  0.250000  0.000000  1
  Si  Si14  1  0.398695  0.898695  0.297390  1
  Sb  Sb15  1  0.750000  0.750000  0.000000  1
