# generated using pymatgen
data_HoNp9O20
_symmetry_space_group_name_H-M   'P 1'
_cell_length_a   6.59124510
_cell_length_b   7.61607535
_cell_length_c   8.51350608
_cell_angle_alpha   102.95742025
_cell_angle_beta   97.43176578
_cell_angle_gamma   106.74837100
_symmetry_Int_Tables_number   1
_chemical_formula_structural   HoNp9O20
_chemical_formula_sum   'Ho1 Np9 O20'
_cell_volume   390.11349840
_cell_formula_units_Z   1
loop_
 _symmetry_equiv_pos_site_id
 _symmetry_equiv_pos_as_xyz
  1  'x, y, z'
loop_
 _atom_site_type_symbol
 _atom_site_label
 _atom_site_symmetry_multiplicity
 _atom_site_fract_x
 _atom_site_fract_y
 _atom_site_fract_z
 _atom_site_occupancy
  Ho  Ho0  1  0.000000  0.000000  0.000000  1
  Np  Np1  1  0.800736  0.601381  0.601510  1
  Np  Np2  1  0.000000  0.500000  0.000000  1
  Np  Np3  1  0.599374  0.198783  0.198482  1
  Np  Np4  1  0.800332  0.099784  0.601583  1
  Np  Np5  1  0.602037  0.701072  0.199261  1
  Np  Np6  1  0.199264  0.398619  0.398490  1
  Np  Np7  1  0.397963  0.298928  0.800739  1
  Np  Np8  1  0.199668  0.900216  0.398417  1
  Np  Np9  1  0.400626  0.801217  0.801518  1
  O  O10  1  0.849652  0.325089  0.451809  1
  O  O11  1  0.645558  0.923609  0.051366  1
  O  O12  1  0.949968  0.771417  0.152078  1
  O  O13  1  0.851121  0.825782  0.450384  1
  O  O14  1  0.447722  0.523168  0.649538  1
  O  O15  1  0.648831  0.425500  0.049544  1
  O  O16  1  0.747273  0.374215  0.750331  1
  O  O17  1  0.253960  0.126671  0.253257  1
  O  O18  1  0.448277  0.025307  0.648689  1
  O  O19  1  0.949136  0.279265  0.152001  1
  O  O20  1  0.551723  0.974693  0.351311  1
  O  O21  1  0.050864  0.720735  0.847999  1
  O  O22  1  0.252727  0.625785  0.249669  1
  O  O23  1  0.746040  0.873329  0.746743  1
  O  O24  1  0.351169  0.574500  0.950456  1
  O  O25  1  0.050032  0.228583  0.847922  1
  O  O26  1  0.552278  0.476832  0.350462  1
  O  O27  1  0.148879  0.174218  0.549616  1
  O  O28  1  0.354442  0.076391  0.948634  1
  O  O29  1  0.150348  0.674911  0.548191  1
