# generated using pymatgen
data_Tb3Th(B10Rh)2
_symmetry_space_group_name_H-M   'P 1'
_cell_length_a   4.17279200
_cell_length_b   5.69425991
_cell_length_c   11.36430615
_cell_angle_alpha   90.00756571
_cell_angle_beta   90.00000000
_cell_angle_gamma   90.00000000
_symmetry_Int_Tables_number   1
_chemical_formula_structural   Tb3Th(B10Rh)2
_chemical_formula_sum   'Tb3 Th1 B20 Rh2'
_cell_volume   270.02684655
_cell_formula_units_Z   1
loop_
 _symmetry_equiv_pos_site_id
 _symmetry_equiv_pos_as_xyz
  1  'x, y, z'
loop_
 _atom_site_type_symbol
 _atom_site_label
 _atom_site_symmetry_multiplicity
 _atom_site_fract_x
 _atom_site_fract_y
 _atom_site_fract_z
 _atom_site_occupancy
  Tb  Tb0  1  0.500000  0.300087  0.864902  1
  Tb  Tb1  1  0.500000  0.699945  0.133748  1
  Tb  Tb2  1  0.500000  0.802579  0.640129  1
  Th  Th3  1  0.500000  0.203058  0.364636  1
  B  B4  1  0.000000  0.117332  0.543969  1
  B  B5  1  0.000000  0.880501  0.457786  1
  B  B6  1  0.000000  0.618401  0.956619  1
  B  B7  1  0.000000  0.381788  0.041959  1
  B  B8  1  0.000000  0.138133  0.698750  1
  B  B9  1  0.000000  0.863973  0.302784  1
  B  B10  1  0.301532  0.219412  0.117059  1
  B  B11  1  0.301697  0.780192  0.881177  1
  B  B12  1  0.698306  0.716407  0.379989  1
  B  B13  1  0.698123  0.279854  0.619809  1
  B  B14  1  0.698303  0.780192  0.881177  1
  B  B15  1  0.698468  0.219412  0.117059  1
  B  B16  1  0.301877  0.279854  0.619809  1
  B  B17  1  0.301694  0.716407  0.379989  1
  B  B18  1  0.000000  0.055361  0.192384  1
  B  B19  1  0.000000  0.945679  0.807759  1
  B  B20  1  0.000000  0.554955  0.306351  1
  B  B21  1  0.000000  0.446329  0.692849  1
  B  B22  1  0.000000  0.362613  0.196484  1
  B  B23  1  0.000000  0.637811  0.802345  1
  Rh  Rh24  1  0.000000  0.500388  0.500785  1
  Rh  Rh25  1  0.000000  0.999336  0.999693  1
