# generated using pymatgen
data_GdMg(NbSe2)8
_symmetry_space_group_name_H-M   'P 1'
_cell_length_a   7.02591600
_cell_length_b   7.02591809
_cell_length_c   14.49114900
_cell_angle_alpha   90.00000000
_cell_angle_beta   90.00000000
_cell_angle_gamma   120.00000899
_symmetry_Int_Tables_number   1
_chemical_formula_structural   GdMg(NbSe2)8
_chemical_formula_sum   'Gd1 Mg1 Nb8 Se16'
_cell_volume   619.49734561
_cell_formula_units_Z   1
loop_
 _symmetry_equiv_pos_site_id
 _symmetry_equiv_pos_as_xyz
  1  'x, y, z'
loop_
 _atom_site_type_symbol
 _atom_site_label
 _atom_site_symmetry_multiplicity
 _atom_site_fract_x
 _atom_site_fract_y
 _atom_site_fract_z
 _atom_site_occupancy
  Gd  Gd0  1  0.000000  0.000000  0.000000  1
  Mg  Mg1  1  0.000000  0.000000  0.500000  1
  Nb  Nb2  1  0.000000  0.000000  0.259037  1
  Nb  Nb3  1  0.000000  0.000000  0.740963  1
  Nb  Nb4  1  0.506556  0.013111  0.261206  1
  Nb  Nb5  1  0.493444  0.986889  0.738794  1
  Nb  Nb6  1  0.986889  0.493444  0.261206  1
  Nb  Nb7  1  0.013111  0.506556  0.738794  1
  Nb  Nb8  1  0.506556  0.493444  0.261206  1
  Nb  Nb9  1  0.493444  0.506556  0.738794  1
  Se  Se10  1  0.333333  0.666667  0.620711  1
  Se  Se11  1  0.666667  0.333333  0.379289  1
  Se  Se12  1  0.666667  0.333333  0.142372  1
  Se  Se13  1  0.333333  0.666667  0.857628  1
  Se  Se14  1  0.168561  0.337123  0.145133  1
  Se  Se15  1  0.831439  0.662877  0.854867  1
  Se  Se16  1  0.662877  0.831439  0.145133  1
  Se  Se17  1  0.832516  0.665031  0.624993  1
  Se  Se18  1  0.337123  0.168561  0.854867  1
  Se  Se19  1  0.167484  0.334969  0.375007  1
  Se  Se20  1  0.168561  0.831439  0.145133  1
  Se  Se21  1  0.334969  0.167484  0.624993  1
  Se  Se22  1  0.831439  0.168561  0.854867  1
  Se  Se23  1  0.665031  0.832516  0.375007  1
  Se  Se24  1  0.832516  0.167484  0.624993  1
  Se  Se25  1  0.167484  0.832516  0.375007  1
