# generated using pymatgen
data_Dy7Y13CdIn5Ru2
_symmetry_space_group_name_H-M   'P 1'
_cell_length_a   9.73163714
_cell_length_b   9.79891740
_cell_length_c   9.72055317
_cell_angle_alpha   90.00000057
_cell_angle_beta   89.98152568
_cell_angle_gamma   120.22895933
_symmetry_Int_Tables_number   1
_chemical_formula_structural   Dy7Y13CdIn5Ru2
_chemical_formula_sum   'Dy7 Y13 Cd1 In5 Ru2'
_cell_volume   800.90125490
_cell_formula_units_Z   1
loop_
 _symmetry_equiv_pos_site_id
 _symmetry_equiv_pos_as_xyz
  1  'x, y, z'
loop_
 _atom_site_type_symbol
 _atom_site_label
 _atom_site_symmetry_multiplicity
 _atom_site_fract_x
 _atom_site_fract_y
 _atom_site_fract_z
 _atom_site_occupancy
  Dy  Dy0  1  0.995672  0.997836  0.502361  1
  Dy  Dy1  1  0.996280  0.998140  0.997717  1
  Dy  Dy2  1  0.210255  0.790242  0.439876  1
  Dy  Dy3  1  0.210255  0.420014  0.439876  1
  Dy  Dy4  1  0.579030  0.789516  0.437223  1
  Dy  Dy5  1  0.790071  0.211186  0.560197  1
  Dy  Dy6  1  0.790071  0.578884  0.560197  1
  Y  Y7  1  0.418349  0.209174  0.561428  1
  Y  Y8  1  0.790395  0.210629  0.940218  1
  Y  Y9  1  0.790395  0.579765  0.940218  1
  Y  Y10  1  0.419320  0.209659  0.938090  1
  Y  Y11  1  0.210228  0.790812  0.059800  1
  Y  Y12  1  0.210228  0.419417  0.059800  1
  Y  Y13  1  0.580187  0.790094  0.062529  1
  Y  Y14  1  0.540944  0.459752  0.250766  1
  Y  Y15  1  0.540944  0.081194  0.250766  1
  Y  Y16  1  0.922673  0.461337  0.251047  1
  Y  Y17  1  0.461940  0.543018  0.749097  1
  Y  Y18  1  0.461940  0.918921  0.749097  1
  Y  Y19  1  0.081499  0.540749  0.749131  1
  Cd  Cd20  1  0.767035  0.883517  0.750529  1
  In  In21  1  0.884638  0.117906  0.249430  1
  In  In22  1  0.884638  0.766731  0.249430  1
  In  In23  1  0.230588  0.115294  0.249690  1
  In  In24  1  0.116113  0.882144  0.750533  1
  In  In25  1  0.116113  0.233968  0.750533  1
  Ru  Ru26  1  0.330461  0.665231  0.251674  1
  Ru  Ru27  1  0.669739  0.334870  0.748746  1
