# generated using pymatgen
data_Tb6Sc8Al8Rh7
_symmetry_space_group_name_H-M   'P 1'
_cell_length_a   9.30076769
_cell_length_b   9.30076765
_cell_length_c   9.30076800
_cell_angle_alpha   59.99999874
_cell_angle_beta   59.99999888
_cell_angle_gamma   60.00000117
_symmetry_Int_Tables_number   1
_chemical_formula_structural   Tb6Sc8Al8Rh7
_chemical_formula_sum   'Tb6 Sc8 Al8 Rh7'
_cell_volume   568.90716210
_cell_formula_units_Z   1
loop_
 _symmetry_equiv_pos_site_id
 _symmetry_equiv_pos_as_xyz
  1  'x, y, z'
loop_
 _atom_site_type_symbol
 _atom_site_label
 _atom_site_symmetry_multiplicity
 _atom_site_fract_x
 _atom_site_fract_y
 _atom_site_fract_z
 _atom_site_occupancy
  Tb  Tb0  1  0.686719  0.686719  0.313281  1
  Tb  Tb1  1  0.313281  0.686719  0.313281  1
  Tb  Tb2  1  0.686719  0.313281  0.313281  1
  Tb  Tb3  1  0.313281  0.313281  0.686719  1
  Tb  Tb4  1  0.686719  0.313281  0.686719  1
  Tb  Tb5  1  0.313281  0.686719  0.686719  1
  Sc  Sc6  1  0.877994  0.877994  0.366017  1
  Sc  Sc7  1  0.877994  0.366017  0.877994  1
  Sc  Sc8  1  0.366017  0.877994  0.877994  1
  Sc  Sc9  1  0.877994  0.877994  0.877994  1
  Sc  Sc10  1  0.122006  0.122006  0.633983  1
  Sc  Sc11  1  0.122006  0.633983  0.122006  1
  Sc  Sc12  1  0.633983  0.122006  0.122006  1
  Sc  Sc13  1  0.122006  0.122006  0.122006  1
  Al  Al14  1  0.667928  0.667928  0.996214  1
  Al  Al15  1  0.667928  0.996214  0.667928  1
  Al  Al16  1  0.996214  0.667928  0.667928  1
  Al  Al17  1  0.667928  0.667928  0.667928  1
  Al  Al18  1  0.332072  0.332072  0.003786  1
  Al  Al19  1  0.332072  0.003786  0.332072  1
  Al  Al20  1  0.003786  0.332072  0.332072  1
  Al  Al21  1  0.332072  0.332072  0.332072  1
  Rh  Rh22  1  0.000000  0.000000  0.000000  1
  Rh  Rh23  1  0.000000  0.000000  0.500000  1
  Rh  Rh24  1  0.500000  0.000000  0.500000  1
  Rh  Rh25  1  0.000000  0.500000  0.500000  1
  Rh  Rh26  1  0.500000  0.500000  0.000000  1
  Rh  Rh27  1  0.000000  0.500000  0.000000  1
  Rh  Rh28  1  0.500000  0.000000  0.000000  1
