# generated using pymatgen
data_Dy5Hf3Pt4
_symmetry_space_group_name_H-M   'P 1'
_cell_length_a   4.72450900
_cell_length_b   7.08833588
_cell_length_c   8.33006508
_cell_angle_alpha   90.17982702
_cell_angle_beta   90.00000000
_cell_angle_gamma   90.00000000
_symmetry_Int_Tables_number   1
_chemical_formula_structural   Dy5Hf3Pt4
_chemical_formula_sum   'Dy5 Hf3 Pt4'
_cell_volume   278.96339795
_cell_formula_units_Z   1
loop_
 _symmetry_equiv_pos_site_id
 _symmetry_equiv_pos_as_xyz
  1  'x, y, z'
loop_
 _atom_site_type_symbol
 _atom_site_label
 _atom_site_symmetry_multiplicity
 _atom_site_fract_x
 _atom_site_fract_y
 _atom_site_fract_z
 _atom_site_occupancy
  Dy  Dy0  1  0.750000  0.353635  0.416933  1
  Dy  Dy1  1  0.250000  0.009026  0.325997  1
  Dy  Dy2  1  0.250000  0.520772  0.170879  1
  Dy  Dy3  1  0.750000  0.982145  0.681973  1
  Dy  Dy4  1  0.750000  0.483431  0.821629  1
  Hf  Hf5  1  0.250000  0.141876  0.924433  1
  Hf  Hf6  1  0.250000  0.646149  0.579087  1
  Hf  Hf7  1  0.750000  0.853021  0.077444  1
  Pt  Pt8  1  0.250000  0.267957  0.610322  1
  Pt  Pt9  1  0.250000  0.770778  0.904383  1
  Pt  Pt10  1  0.750000  0.746277  0.407177  1
  Pt  Pt11  1  0.750000  0.224933  0.079743  1
