# generated using pymatgen
data_Na2Nb5WS12
_symmetry_space_group_name_H-M   'P 1'
_cell_length_a   5.79739700
_cell_length_b   5.79739718
_cell_length_c   14.79435600
_cell_angle_alpha   90.00000000
_cell_angle_beta   90.00000000
_cell_angle_gamma   120.00000466
_symmetry_Int_Tables_number   1
_chemical_formula_structural   Na2Nb5WS12
_chemical_formula_sum   'Na2 Nb5 W1 S12'
_cell_volume   430.61858831
_cell_formula_units_Z   1
loop_
 _symmetry_equiv_pos_site_id
 _symmetry_equiv_pos_as_xyz
  1  'x, y, z'
loop_
 _atom_site_type_symbol
 _atom_site_label
 _atom_site_symmetry_multiplicity
 _atom_site_fract_x
 _atom_site_fract_y
 _atom_site_fract_z
 _atom_site_occupancy
  Na  Na0  1  0.333333  0.666667  0.250647  1
  Na  Na1  1  0.666667  0.333333  0.750182  1
  Nb  Nb2  1  0.000000  0.000000  0.999961  1
  Nb  Nb3  1  0.666667  0.333333  0.000099  1
  Nb  Nb4  1  0.333333  0.666667  0.500202  1
  Nb  Nb5  1  0.000000  0.000000  0.500006  1
  Nb  Nb6  1  0.666667  0.333333  0.499809  1
  W  W7  1  0.333333  0.666667  0.999650  1
  S  S8  1  0.668419  0.666628  0.393832  1
  S  S9  1  0.666619  0.668362  0.606200  1
  S  S10  1  0.009457  0.668473  0.895565  1
  S  S11  1  0.659016  0.990543  0.895565  1
  S  S12  1  0.660042  0.993402  0.104217  1
  S  S13  1  0.333372  0.001792  0.393832  1
  S  S14  1  0.001742  0.333381  0.606200  1
  S  S15  1  0.331638  0.998258  0.606200  1
  S  S16  1  0.006598  0.666640  0.104217  1
  S  S17  1  0.331527  0.340984  0.895565  1
  S  S18  1  0.998208  0.331581  0.393832  1
  S  S19  1  0.333360  0.339958  0.104217  1
