# generated using pymatgen
data_Na8Sr4HfZrAs8
_symmetry_space_group_name_H-M   'P 1'
_cell_length_a   9.80328439
_cell_length_b   9.80066399
_cell_length_c   7.68554205
_cell_angle_alpha   89.76723884
_cell_angle_beta   89.76878202
_cell_angle_gamma   120.44183881
_symmetry_Int_Tables_number   1
_chemical_formula_structural   Na8Sr4HfZrAs8
_chemical_formula_sum   'Na8 Sr4 Hf1 Zr1 As8'
_cell_volume   636.60045106
_cell_formula_units_Z   1
loop_
 _symmetry_equiv_pos_site_id
 _symmetry_equiv_pos_as_xyz
  1  'x, y, z'
loop_
 _atom_site_type_symbol
 _atom_site_label
 _atom_site_symmetry_multiplicity
 _atom_site_fract_x
 _atom_site_fract_y
 _atom_site_fract_z
 _atom_site_occupancy
  Na  Na0  1  0.468742  0.933146  0.382520  1
  Na  Na1  1  0.932819  0.468562  0.882453  1
  Na  Na2  1  0.868019  0.730752  0.206884  1
  Na  Na3  1  0.277456  0.131044  0.231152  1
  Na  Na4  1  0.855727  0.133512  0.223175  1
  Na  Na5  1  0.130954  0.277369  0.730949  1
  Na  Na6  1  0.730745  0.868071  0.706735  1
  Na  Na7  1  0.133500  0.855763  0.722978  1
  Sr  Sr8  1  0.057574  0.533293  0.388465  1
  Sr  Sr9  1  0.477526  0.535273  0.384836  1
  Sr  Sr10  1  0.533515  0.057988  0.888163  1
  Sr  Sr11  1  0.535478  0.477313  0.884791  1
  Hf  Hf12  1  0.662706  0.326804  0.495944  1
  Zr  Zr13  1  0.326720  0.662792  0.995696  1
  As  As14  1  0.190739  0.373163  0.115019  1
  As  As15  1  0.625549  0.810814  0.094999  1
  As  As16  1  0.189894  0.814556  0.103742  1
  As  As17  1  0.809918  0.623499  0.594419  1
  As  As18  1  0.375055  0.191585  0.614267  1
  As  As19  1  0.813554  0.190871  0.603142  1
  As  As20  1  0.666051  0.337671  0.158464  1
  As  As21  1  0.337773  0.666172  0.655802  1
