# generated using pymatgen
data_Dy8Ta11Si16Os
_symmetry_space_group_name_H-M   'P 1'
_cell_length_a   7.01315324
_cell_length_b   7.02729553
_cell_length_c   13.00858759
_cell_angle_alpha   90.29104875
_cell_angle_beta   90.02663727
_cell_angle_gamma   90.08809292
_symmetry_Int_Tables_number   1
_chemical_formula_structural   Dy8Ta11Si16Os
_chemical_formula_sum   'Dy8 Ta11 Si16 Os1'
_cell_volume   641.09963112
_cell_formula_units_Z   1
loop_
 _symmetry_equiv_pos_site_id
 _symmetry_equiv_pos_as_xyz
  1  'x, y, z'
loop_
 _atom_site_type_symbol
 _atom_site_label
 _atom_site_symmetry_multiplicity
 _atom_site_fract_x
 _atom_site_fract_y
 _atom_site_fract_z
 _atom_site_occupancy
  Dy  Dy0  1  0.998716  0.658841  0.033400  1
  Dy  Dy1  1  0.002062  0.341926  0.531101  1
  Dy  Dy2  1  0.659936  0.997876  0.967821  1
  Dy  Dy3  1  0.159349  0.501346  0.781276  1
  Dy  Dy4  1  0.840231  0.498233  0.282168  1
  Dy  Dy5  1  0.502208  0.159438  0.219995  1
  Dy  Dy6  1  0.497395  0.840176  0.716622  1
  Dy  Dy7  1  0.340725  0.999627  0.467653  1
  Ta  Ta8  1  0.844686  0.993862  0.374520  1
  Ta  Ta9  1  0.011380  0.158268  0.127467  1
  Ta  Ta10  1  0.994829  0.842927  0.624350  1
  Ta  Ta11  1  0.504971  0.345937  0.623994  1
  Ta  Ta12  1  0.154049  0.006713  0.874404  1
  Ta  Ta13  1  0.673991  0.671091  0.499997  1
  Ta  Ta14  1  0.830060  0.169867  0.749921  1
  Ta  Ta15  1  0.171731  0.832197  0.249177  1
  Ta  Ta16  1  0.329614  0.328292  0.000744  1
  Ta  Ta17  1  0.494827  0.655287  0.123598  1
  Ta  Ta18  1  0.654092  0.492287  0.875426  1
  Si  Si19  1  0.047046  0.706375  0.434625  1
  Si  Si20  1  0.956146  0.294815  0.936376  1
  Si  Si21  1  0.707354  0.045321  0.563620  1
  Si  Si22  1  0.208978  0.460111  0.189021  1
  Si  Si23  1  0.793973  0.543712  0.686700  1
  Si  Si24  1  0.455357  0.204880  0.813445  1
  Si  Si25  1  0.539588  0.785891  0.313330  1
  Si  Si26  1  0.294772  0.955538  0.063203  1
  Si  Si27  1  0.796971  0.869688  0.183620  1
  Si  Si28  1  0.299173  0.631203  0.565013  1
  Si  Si29  1  0.703194  0.365718  0.068051  1
  Si  Si30  1  0.625542  0.302592  0.432953  1
  Si  Si31  1  0.366565  0.702904  0.932294  1
  Si  Si32  1  0.132350  0.207405  0.318753  1
  Si  Si33  1  0.202930  0.133042  0.681848  1
  Si  Si34  1  0.867285  0.794778  0.817175  1
  Os  Os35  1  0.337922  0.501839  0.376339  1
