# generated using pymatgen
data_Dy2Be(SiRh2)3
_symmetry_space_group_name_H-M   'P 1'
_cell_length_a   5.54064539
_cell_length_b   6.57145512
_cell_length_c   6.57145605
_cell_angle_alpha   65.34918280
_cell_angle_beta   65.29555322
_cell_angle_gamma   65.29554613
_symmetry_Int_Tables_number   1
_chemical_formula_structural   Dy2Be(SiRh2)3
_chemical_formula_sum   'Dy2 Be1 Si3 Rh6'
_cell_volume   188.76383431
_cell_formula_units_Z   1
loop_
 _symmetry_equiv_pos_site_id
 _symmetry_equiv_pos_as_xyz
  1  'x, y, z'
loop_
 _atom_site_type_symbol
 _atom_site_label
 _atom_site_symmetry_multiplicity
 _atom_site_fract_x
 _atom_site_fract_y
 _atom_site_fract_z
 _atom_site_occupancy
  Dy  Dy0  1  0.539793  0.744746  0.744746  1
  Dy  Dy1  1  0.448777  0.256170  0.256170  1
  Be  Be2  1  0.232400  0.573558  0.573558  1
  Si  Si3  1  0.776718  0.418685  0.418685  1
  Si  Si4  1  0.119802  0.080738  0.080738  1
  Si  Si5  1  0.878306  0.924487  0.924487  1
  Rh  Rh6  1  0.499623  0.220160  0.780393  1
  Rh  Rh7  1  0.001043  0.716869  0.286514  1
  Rh  Rh8  1  0.499623  0.780393  0.220160  1
  Rh  Rh9  1  0.001043  0.286514  0.716869  1
  Rh  Rh10  1  0.001438  0.508530  0.989150  1
  Rh  Rh11  1  0.001438  0.989150  0.508530  1
