# generated using pymatgen
data_La8Ir5Au
_symmetry_space_group_name_H-M   'P 1'
_cell_length_a   7.87046397
_cell_length_b   7.87046429
_cell_length_c   7.87046347
_cell_angle_alpha   109.06181103
_cell_angle_beta   110.29317426
_cell_angle_gamma   109.06182089
_symmetry_Int_Tables_number   1
_chemical_formula_structural   La8Ir5Au
_chemical_formula_sum   'La8 Ir5 Au1'
_cell_volume   375.24242274
_cell_formula_units_Z   1
loop_
 _symmetry_equiv_pos_site_id
 _symmetry_equiv_pos_as_xyz
  1  'x, y, z'
loop_
 _atom_site_type_symbol
 _atom_site_label
 _atom_site_symmetry_multiplicity
 _atom_site_fract_x
 _atom_site_fract_y
 _atom_site_fract_z
 _atom_site_occupancy
  La  La0  1  0.122858  0.509295  0.992733  1
  La  La1  1  0.494453  0.995590  0.605543  1
  La  La2  1  0.394457  0.388911  0.390047  1
  La  La3  1  0.001137  0.111089  0.505547  1
  La  La4  1  0.886437  0.869875  0.877142  1
  La  La5  1  0.007267  0.630125  0.516562  1
  La  La6  1  0.609953  0.504410  0.998863  1
  La  La7  1  0.483438  0.990705  0.113563  1
  Ir  Ir8  1  0.121726  0.870424  0.245987  1
  Ir  Ir9  1  0.375564  0.629576  0.751303  1
  Ir  Ir10  1  0.248697  0.124261  0.878274  1
  Ir  Ir11  1  0.754013  0.375739  0.624436  1
  Ir  Ir12  1  0.625000  0.750000  0.375000  1
  Au  Au13  1  0.875000  0.250000  0.125000  1
