# generated using pymatgen
data_DyHo15CdHg3Rh4
_symmetry_space_group_name_H-M   'P 1'
_cell_length_a   9.56841983
_cell_length_b   9.56837915
_cell_length_c   9.57575700
_cell_angle_alpha   59.97447970
_cell_angle_beta   59.97462047
_cell_angle_gamma   59.94628641
_symmetry_Int_Tables_number   1
_chemical_formula_structural   DyHo15CdHg3Rh4
_chemical_formula_sum   'Dy1 Ho15 Cd1 Hg3 Rh4'
_cell_volume   619.43119867
_cell_formula_units_Z   1
loop_
 _symmetry_equiv_pos_site_id
 _symmetry_equiv_pos_as_xyz
  1  'x, y, z'
loop_
 _atom_site_type_symbol
 _atom_site_label
 _atom_site_symmetry_multiplicity
 _atom_site_fract_x
 _atom_site_fract_y
 _atom_site_fract_z
 _atom_site_occupancy
  Dy  Dy0  1  0.936228  0.936968  0.563402  1
  Ho  Ho1  1  0.562701  0.564418  0.936440  1
  Ho  Ho2  1  0.689239  0.689403  0.310680  1
  Ho  Ho3  1  0.147635  0.555518  0.148423  1
  Ho  Ho4  1  0.688995  0.312332  0.688175  1
  Ho  Ho5  1  0.149498  0.148776  0.150242  1
  Ho  Ho6  1  0.552504  0.148047  0.149724  1
  Ho  Ho7  1  0.688995  0.312332  0.310497  1
  Ho  Ho8  1  0.149498  0.148776  0.551484  1
  Ho  Ho9  1  0.311209  0.689770  0.310181  1
  Ho  Ho10  1  0.311209  0.689770  0.688841  1
  Ho  Ho11  1  0.936499  0.563738  0.563163  1
  Ho  Ho12  1  0.936499  0.563738  0.936599  1
  Ho  Ho13  1  0.562671  0.937108  0.563749  1
  Ho  Ho14  1  0.562671  0.937108  0.936472  1
  Ho  Ho15  1  0.310981  0.311765  0.688626  1
  Cd  Cd16  1  0.919675  0.241286  0.919520  1
  Hg  Hg17  1  0.914687  0.916323  0.253964  1
  Hg  Hg18  1  0.255069  0.916121  0.914405  1
  Hg  Hg19  1  0.914687  0.916323  0.915026  1
  Rh  Rh20  1  0.356644  0.357367  0.928633  1
  Rh  Rh21  1  0.356906  0.928389  0.357352  1
  Rh  Rh22  1  0.928654  0.357255  0.357045  1
  Rh  Rh23  1  0.356644  0.357367  0.357354  1
