# generated using pymatgen
data_TbYb3Lu4(B6Os)4
_symmetry_space_group_name_H-M   'P 1'
_cell_length_a   3.61083800
_cell_length_b   9.08706690
_cell_length_c   11.48126414
_cell_angle_alpha   89.94893845
_cell_angle_beta   90.00000000
_cell_angle_gamma   90.00000000
_symmetry_Int_Tables_number   1
_chemical_formula_structural   TbYb3Lu4(B6Os)4
_chemical_formula_sum   'Tb1 Yb3 Lu4 B24 Os4'
_cell_volume   376.72224524
_cell_formula_units_Z   1
loop_
 _symmetry_equiv_pos_site_id
 _symmetry_equiv_pos_as_xyz
  1  'x, y, z'
loop_
 _atom_site_type_symbol
 _atom_site_label
 _atom_site_symmetry_multiplicity
 _atom_site_fract_x
 _atom_site_fract_y
 _atom_site_fract_z
 _atom_site_occupancy
  Tb  Tb0  1  0.000000  0.176221  0.914733  1
  Yb  Yb1  1  0.000000  0.324579  0.414362  1
  Yb  Yb2  1  0.000000  0.675658  0.585036  1
  Yb  Yb3  1  0.000000  0.822984  0.086345  1
  Lu  Lu4  1  0.000000  0.941879  0.368378  1
  Lu  Lu5  1  0.000000  0.057175  0.630142  1
  Lu  Lu6  1  0.000000  0.443868  0.131789  1
  Lu  Lu7  1  0.000000  0.557903  0.868995  1
  B  B8  1  0.500000  0.553559  0.432815  1
  B  B9  1  0.500000  0.446067  0.567556  1
  B  B10  1  0.500000  0.053789  0.067600  1
  B  B11  1  0.500000  0.945163  0.933054  1
  B  B12  1  0.500000  0.749765  0.417614  1
  B  B13  1  0.500000  0.250030  0.582125  1
  B  B14  1  0.500000  0.250265  0.082589  1
  B  B15  1  0.500000  0.750153  0.917961  1
  B  B16  1  0.500000  0.792010  0.264269  1
  B  B17  1  0.500000  0.207860  0.735314  1
  B  B18  1  0.500000  0.292368  0.235277  1
  B  B19  1  0.500000  0.708533  0.764711  1
  B  B20  1  0.500000  0.630878  0.185305  1
  B  B21  1  0.500000  0.369530  0.815213  1
  B  B22  1  0.500000  0.130837  0.314621  1
  B  B23  1  0.500000  0.869289  0.684386  1
  B  B24  1  0.500000  0.982407  0.211716  1
  B  B25  1  0.500000  0.016737  0.787529  1
  B  B26  1  0.500000  0.483311  0.288338  1
  B  B27  1  0.500000  0.516865  0.712170  1
  B  B28  1  0.500000  0.598134  0.027001  1
  B  B29  1  0.500000  0.402065  0.973279  1
  B  B30  1  0.500000  0.096414  0.473094  1
  B  B31  1  0.500000  0.903374  0.526065  1
  Os  Os32  1  0.000000  0.639672  0.320056  1
  Os  Os33  1  0.000000  0.359645  0.680891  1
  Os  Os34  1  0.000000  0.139298  0.180278  1
  Os  Os35  1  0.000000  0.861716  0.819395  1
