# generated using pymatgen
data_Zr3BeS
_symmetry_space_group_name_H-M   'P 1'
_cell_length_a   6.91067600
_cell_length_b   6.90246700
_cell_length_c   3.59732800
_cell_angle_alpha   90.00000000
_cell_angle_beta   90.00000000
_cell_angle_gamma   90.00000000
_symmetry_Int_Tables_number   1
_chemical_formula_structural   Zr3BeS
_chemical_formula_sum   'Zr6 Be2 S2'
_cell_volume   171.59511063
_cell_formula_units_Z   2
loop_
 _symmetry_equiv_pos_site_id
 _symmetry_equiv_pos_as_xyz
  1  'x, y, z'
loop_
 _atom_site_type_symbol
 _atom_site_label
 _atom_site_symmetry_multiplicity
 _atom_site_fract_x
 _atom_site_fract_y
 _atom_site_fract_z
 _atom_site_occupancy
  Zr  Zr0  1  0.000117  0.999165  0.000000  1
  Zr  Zr1  1  0.500117  0.500835  0.000000  1
  Zr  Zr2  1  0.324808  0.179313  0.499999  1
  Zr  Zr3  1  0.824808  0.320688  0.499999  1
  Zr  Zr4  1  0.179695  0.680786  0.499999  1
  Zr  Zr5  1  0.679695  0.819215  0.499999  1
  Be  Be6  1  0.882823  0.615326  0.000000  1
  Be  Be7  1  0.382822  0.884674  0.000000  1
  S  S8  1  0.612557  0.110012  0.000000  1
  S  S9  1  0.112557  0.389987  0.000000  1
