# generated using pymatgen
data_Tm8In4HgAu7
_symmetry_space_group_name_H-M   'P 1'
_cell_length_a   7.96904789
_cell_length_b   7.96904789
_cell_length_c   7.30050005
_cell_angle_alpha   90.04345612
_cell_angle_beta   89.95654388
_cell_angle_gamma   90.03207471
_symmetry_Int_Tables_number   1
_chemical_formula_structural   Tm8In4HgAu7
_chemical_formula_sum   'Tm8 In4 Hg1 Au7'
_cell_volume   463.62320341
_cell_formula_units_Z   1
loop_
 _symmetry_equiv_pos_site_id
 _symmetry_equiv_pos_as_xyz
  1  'x, y, z'
loop_
 _atom_site_type_symbol
 _atom_site_label
 _atom_site_symmetry_multiplicity
 _atom_site_fract_x
 _atom_site_fract_y
 _atom_site_fract_z
 _atom_site_occupancy
  Tm  Tm0  1  0.846248  0.153752  0.504320  1
  Tm  Tm1  1  0.158914  0.841086  0.499147  1
  Tm  Tm2  1  0.337740  0.342996  0.995320  1
  Tm  Tm3  1  0.657004  0.662260  0.995320  1
  Tm  Tm4  1  0.680715  0.686858  0.504023  1
  Tm  Tm5  1  0.313142  0.319285  0.504023  1
  Tm  Tm6  1  0.181230  0.818770  0.000628  1
  Tm  Tm7  1  0.822360  0.177640  0.995510  1
  In  In8  1  0.498259  0.996079  0.248832  1
  In  In9  1  0.998548  0.501204  0.751661  1
  In  In10  1  0.498796  0.001452  0.751661  1
  In  In11  1  0.003921  0.501741  0.248832  1
  Hg  Hg12  1  0.629849  0.370151  0.276516  1
  Au  Au13  1  0.371514  0.628486  0.272352  1
  Au  Au14  1  0.129759  0.127309  0.772811  1
  Au  Au15  1  0.872691  0.870241  0.772811  1
  Au  Au16  1  0.370576  0.629424  0.726537  1
  Au  Au17  1  0.628961  0.371039  0.725491  1
  Au  Au18  1  0.870388  0.870617  0.227102  1
  Au  Au19  1  0.129383  0.129612  0.227102  1
