# generated using pymatgen
data_Tb5Y3(TmBi)12
_symmetry_space_group_name_H-M   'P 1'
_cell_length_a   8.23653518
_cell_length_b   9.44463700
_cell_length_c   12.04407526
_cell_angle_alpha   90.00000000
_cell_angle_beta   89.97603318
_cell_angle_gamma   90.00000000
_symmetry_Int_Tables_number   1
_chemical_formula_structural   Tb5Y3(TmBi)12
_chemical_formula_sum   'Tb5 Y3 Tm12 Bi12'
_cell_volume   936.92159956
_cell_formula_units_Z   1
loop_
 _symmetry_equiv_pos_site_id
 _symmetry_equiv_pos_as_xyz
  1  'x, y, z'
loop_
 _atom_site_type_symbol
 _atom_site_label
 _atom_site_symmetry_multiplicity
 _atom_site_fract_x
 _atom_site_fract_y
 _atom_site_fract_z
 _atom_site_occupancy
  Tb  Tb0  1  0.186445  0.750000  0.718762  1
  Tb  Tb1  1  0.686396  0.750000  0.781278  1
  Tb  Tb2  1  0.813464  0.250000  0.281280  1
  Tb  Tb3  1  0.313568  0.250000  0.218737  1
  Tb  Tb4  1  0.353853  0.750000  0.216234  1
  Y  Y5  1  0.853673  0.750000  0.283989  1
  Y  Y6  1  0.646282  0.250000  0.784035  1
  Y  Y7  1  0.146197  0.250000  0.716023  1
  Tm  Tm8  1  0.025079  0.750000  0.988932  1
  Tm  Tm9  1  0.525193  0.750000  0.511128  1
  Tm  Tm10  1  0.974882  0.250000  0.011062  1
  Tm  Tm11  1  0.475015  0.250000  0.488909  1
  Tm  Tm12  1  0.306852  0.434416  0.940486  1
  Tm  Tm13  1  0.806847  0.065644  0.559490  1
  Tm  Tm14  1  0.693072  0.934419  0.059511  1
  Tm  Tm15  1  0.193155  0.565584  0.440463  1
  Tm  Tm16  1  0.693072  0.565581  0.059511  1
  Tm  Tm17  1  0.193155  0.934416  0.440463  1
  Tm  Tm18  1  0.306852  0.065584  0.940486  1
  Tm  Tm19  1  0.806847  0.434356  0.559490  1
  Bi  Bi20  1  0.433932  0.004095  0.672487  1
  Bi  Bi21  1  0.933937  0.495921  0.827498  1
  Bi  Bi22  1  0.566103  0.503987  0.327523  1
  Bi  Bi23  1  0.066068  0.995941  0.172497  1
  Bi  Bi24  1  0.566103  0.996013  0.327523  1
  Bi  Bi25  1  0.066068  0.504059  0.172497  1
  Bi  Bi26  1  0.433932  0.495905  0.672487  1
  Bi  Bi27  1  0.933937  0.004079  0.827498  1
  Bi  Bi28  1  0.406739  0.750000  0.957651  1
  Bi  Bi29  1  0.906704  0.750000  0.542037  1
  Bi  Bi30  1  0.593263  0.250000  0.042043  1
  Bi  Bi31  1  0.093311  0.250000  0.457990  1
