# generated using pymatgen
data_Sc8Ga3Ru
_symmetry_space_group_name_H-M   'P 1'
_cell_length_a   9.46898700
_cell_length_b   9.46895704
_cell_length_c   6.38703300
_cell_angle_alpha   90.00000000
_cell_angle_beta   90.00000000
_cell_angle_gamma   120.00019171
_symmetry_Int_Tables_number   1
_chemical_formula_structural   Sc8Ga3Ru
_chemical_formula_sum   'Sc16 Ga6 Ru2'
_cell_volume   495.94625955
_cell_formula_units_Z   2
loop_
 _symmetry_equiv_pos_site_id
 _symmetry_equiv_pos_as_xyz
  1  'x, y, z'
loop_
 _atom_site_type_symbol
 _atom_site_label
 _atom_site_symmetry_multiplicity
 _atom_site_fract_x
 _atom_site_fract_y
 _atom_site_fract_z
 _atom_site_occupancy
  Sc  Sc0  1  0.171941  0.828060  0.501793  1
  Sc  Sc1  1  0.656118  0.828058  0.501790  1
  Sc  Sc2  1  0.171947  0.343885  0.501793  1
  Sc  Sc3  1  0.828059  0.171940  0.001793  1
  Sc  Sc4  1  0.343882  0.171942  0.001790  1
  Sc  Sc5  1  0.828053  0.656115  0.001793  1
  Sc  Sc6  1  0.333334  0.666668  0.848625  1
  Sc  Sc7  1  0.666666  0.333332  0.348625  1
  Sc  Sc8  1  0.472144  0.527861  0.207958  1
  Sc  Sc9  1  0.055715  0.527857  0.207964  1
  Sc  Sc10  1  0.472144  0.944280  0.207962  1
  Sc  Sc11  1  0.527856  0.472139  0.707958  1
  Sc  Sc12  1  0.944285  0.472143  0.707964  1
  Sc  Sc13  1  0.527856  0.055720  0.707962  1
  Sc  Sc14  1  0.999997  0.999999  0.228855  1
  Sc  Sc15  1  0.000003  0.000001  0.728855  1
  Ga  Ga16  1  0.163714  0.836284  0.964223  1
  Ga  Ga17  1  0.672566  0.836282  0.964197  1
  Ga  Ga18  1  0.163719  0.327435  0.964219  1
  Ga  Ga19  1  0.836286  0.163716  0.464223  1
  Ga  Ga20  1  0.327434  0.163718  0.464197  1
  Ga  Ga21  1  0.836281  0.672565  0.464219  1
  Ru  Ru22  1  0.333329  0.666665  0.438042  1
  Ru  Ru23  1  0.666671  0.333335  0.938042  1
