# generated using pymatgen
data_AcTbMo3P7Rh9
_symmetry_space_group_name_H-M   'P 1'
_cell_length_a   3.96123712
_cell_length_b   9.63624882
_cell_length_c   9.63596141
_cell_angle_alpha   119.99859166
_cell_angle_beta   90.00172622
_cell_angle_gamma   89.99849800
_symmetry_Int_Tables_number   1
_chemical_formula_structural   AcTbMo3P7Rh9
_chemical_formula_sum   'Ac1 Tb1 Mo3 P7 Rh9'
_cell_volume   318.54492605
_cell_formula_units_Z   1
loop_
 _symmetry_equiv_pos_site_id
 _symmetry_equiv_pos_as_xyz
  1  'x, y, z'
loop_
 _atom_site_type_symbol
 _atom_site_label
 _atom_site_symmetry_multiplicity
 _atom_site_fract_x
 _atom_site_fract_y
 _atom_site_fract_z
 _atom_site_occupancy
  Ac  Ac0  1  0.261920  0.666663  0.333329  1
  Tb  Tb1  1  0.761824  0.333331  0.666665  1
  Mo  Mo2  1  0.761984  0.092036  0.875561  1
  Mo  Mo3  1  0.761964  0.124445  0.216487  1
  Mo  Mo4  1  0.761972  0.783525  0.907955  1
  P  P5  1  0.262014  0.000003  0.999995  1
  P  P6  1  0.761909  0.892041  0.603805  1
  P  P7  1  0.761910  0.396194  0.288236  1
  P  P8  1  0.761921  0.711765  0.107956  1
  P  P9  1  0.261865  0.114272  0.413414  1
  P  P10  1  0.261852  0.586585  0.700863  1
  P  P11  1  0.261850  0.299142  0.885721  1
  Rh  Rh12  1  0.261895  0.884734  0.158296  1
  Rh  Rh13  1  0.261896  0.841701  0.726432  1
  Rh  Rh14  1  0.261898  0.273559  0.115264  1
  Rh  Rh15  1  0.761871  0.607831  0.566550  1
  Rh  Rh16  1  0.761867  0.433448  0.041277  1
  Rh  Rh17  1  0.761866  0.958715  0.392172  1
  Rh  Rh18  1  0.261906  0.363692  0.436091  1
  Rh  Rh19  1  0.261906  0.563918  0.927609  1
  Rh  Rh20  1  0.261911  0.072399  0.636319  1
