# generated using pymatgen
data_Pr2Sm6Si12PdAu3
_symmetry_space_group_name_H-M   'P 1'
_cell_length_a   8.25374400
_cell_length_b   8.25374402
_cell_length_c   8.53007300
_cell_angle_alpha   90.00000000
_cell_angle_beta   90.00000000
_cell_angle_gamma   119.99999993
_symmetry_Int_Tables_number   1
_chemical_formula_structural   Pr2Sm6Si12PdAu3
_chemical_formula_sum   'Pr2 Sm6 Si12 Pd1 Au3'
_cell_volume   503.25183821
_cell_formula_units_Z   1
loop_
 _symmetry_equiv_pos_site_id
 _symmetry_equiv_pos_as_xyz
  1  'x, y, z'
loop_
 _atom_site_type_symbol
 _atom_site_label
 _atom_site_symmetry_multiplicity
 _atom_site_fract_x
 _atom_site_fract_y
 _atom_site_fract_z
 _atom_site_occupancy
  Pr  Pr0  1  0.000000  0.000000  0.748464  1
  Pr  Pr1  1  0.000000  0.000000  0.251800  1
  Sm  Sm2  1  0.500881  0.499119  0.747811  1
  Sm  Sm3  1  0.501273  0.498727  0.252061  1
  Sm  Sm4  1  0.998239  0.499119  0.747811  1
  Sm  Sm5  1  0.997454  0.498727  0.252061  1
  Sm  Sm6  1  0.500881  0.001761  0.747811  1
  Sm  Sm7  1  0.501273  0.002546  0.252061  1
  Si  Si8  1  0.835838  0.164162  0.001063  1
  Si  Si9  1  0.164420  0.835580  0.998988  1
  Si  Si10  1  0.328323  0.164162  0.001063  1
  Si  Si11  1  0.162989  0.837011  0.499661  1
  Si  Si12  1  0.671159  0.835580  0.998988  1
  Si  Si13  1  0.831996  0.168004  0.500537  1
  Si  Si14  1  0.835838  0.671677  0.001063  1
  Si  Si15  1  0.674022  0.837011  0.499661  1
  Si  Si16  1  0.164420  0.328841  0.998988  1
  Si  Si17  1  0.336009  0.168004  0.500537  1
  Si  Si18  1  0.162989  0.325978  0.499661  1
  Si  Si19  1  0.831996  0.663991  0.500537  1
  Pd  Pd20  1  0.666667  0.333333  0.500389  1
  Au  Au21  1  0.666667  0.333333  0.998515  1
  Au  Au22  1  0.333333  0.666667  0.001102  1
  Au  Au23  1  0.333333  0.666667  0.499363  1
