# generated using pymatgen
data_Y3Lu2(FeB3)2
_symmetry_space_group_name_H-M   'P 1'
_cell_length_a   5.40094342
_cell_length_b   5.40094216
_cell_length_c   8.26947059
_cell_angle_alpha   70.93992768
_cell_angle_beta   70.93993359
_cell_angle_gamma   60.00000631
_symmetry_Int_Tables_number   1
_chemical_formula_structural   Y3Lu2(FeB3)2
_chemical_formula_sum   'Y3 Lu2 Fe2 B6'
_cell_volume   193.48334774
_cell_formula_units_Z   1
loop_
 _symmetry_equiv_pos_site_id
 _symmetry_equiv_pos_as_xyz
  1  'x, y, z'
loop_
 _atom_site_type_symbol
 _atom_site_label
 _atom_site_symmetry_multiplicity
 _atom_site_fract_x
 _atom_site_fract_y
 _atom_site_fract_z
 _atom_site_occupancy
  Y  Y0  1  0.000000  0.000000  0.000000  1
  Y  Y1  1  0.747495  0.747495  0.757514  1
  Y  Y2  1  0.252505  0.252505  0.242486  1
  Lu  Lu3  1  0.580962  0.580962  0.257115  1
  Lu  Lu4  1  0.419038  0.419038  0.742885  1
  Fe  Fe5  1  0.881559  0.881559  0.355323  1
  Fe  Fe6  1  0.118441  0.118441  0.644677  1
  B  B7  1  0.500000  0.168242  0.500000  1
  B  B8  1  0.831758  0.500000  0.500000  1
  B  B9  1  0.168242  0.831758  0.500000  1
  B  B10  1  0.168242  0.500000  0.500000  1
  B  B11  1  0.831758  0.168242  0.500000  1
  B  B12  1  0.500000  0.831758  0.500000  1
