# generated using pymatgen
data_Dy12Co4RhPb
_symmetry_space_group_name_H-M   'P 1'
_cell_length_a   8.29996112
_cell_length_b   8.29996061
_cell_length_c   8.29996147
_cell_angle_alpha   110.93828427
_cell_angle_beta   110.55832674
_cell_angle_gamma   106.94641380
_symmetry_Int_Tables_number   1
_chemical_formula_structural   Dy12Co4RhPb
_chemical_formula_sum   'Dy12 Co4 Rh1 Pb1'
_cell_volume   439.51307590
_cell_formula_units_Z   1
loop_
 _symmetry_equiv_pos_site_id
 _symmetry_equiv_pos_as_xyz
  1  'x, y, z'
loop_
 _atom_site_type_symbol
 _atom_site_label
 _atom_site_symmetry_multiplicity
 _atom_site_fract_x
 _atom_site_fract_y
 _atom_site_fract_z
 _atom_site_occupancy
  Dy  Dy0  1  0.405970  0.210276  0.195694  1
  Dy  Dy1  1  0.594030  0.789724  0.804306  1
  Dy  Dy2  1  0.014583  0.210276  0.804306  1
  Dy  Dy3  1  0.985417  0.789724  0.195694  1
  Dy  Dy4  1  0.185592  0.292320  0.477912  1
  Dy  Dy5  1  0.814408  0.707680  0.522088  1
  Dy  Dy6  1  0.185592  0.707680  0.893271  1
  Dy  Dy7  1  0.814408  0.292320  0.106729  1
  Dy  Dy8  1  0.313224  0.619417  0.306193  1
  Dy  Dy9  1  0.686776  0.380583  0.693807  1
  Dy  Dy10  1  0.313224  0.007030  0.693807  1
  Dy  Dy11  1  0.686776  0.992970  0.306193  1
  Co  Co12  1  0.379310  0.000000  0.379310  1
  Co  Co13  1  0.620690  0.000000  0.620690  1
  Co  Co14  1  0.112106  0.612106  0.500000  1
  Co  Co15  1  0.887894  0.387894  0.500000  1
  Rh  Rh16  1  0.000000  0.000000  0.000000  1
  Pb  Pb17  1  0.500000  0.500000  0.000000  1
