# generated using pymatgen
data_Ho4GaAs5Ir7
_symmetry_space_group_name_H-M   'P 1'
_cell_length_a   7.28770989
_cell_length_b   7.28770920
_cell_length_c   7.28771002
_cell_angle_alpha   108.13662400
_cell_angle_beta   110.14261968
_cell_angle_gamma   110.14261318
_symmetry_Int_Tables_number   1
_chemical_formula_structural   Ho4GaAs5Ir7
_chemical_formula_sum   'Ho4 Ga1 As5 Ir7'
_cell_volume   297.83449724
_cell_formula_units_Z   1
loop_
 _symmetry_equiv_pos_site_id
 _symmetry_equiv_pos_as_xyz
  1  'x, y, z'
loop_
 _atom_site_type_symbol
 _atom_site_label
 _atom_site_symmetry_multiplicity
 _atom_site_fract_x
 _atom_site_fract_y
 _atom_site_fract_z
 _atom_site_occupancy
  Ho  Ho0  1  0.000000  0.999685  0.499140  1
  Ho  Ho1  1  0.000000  0.499140  0.999685  1
  Ho  Ho2  1  0.500545  0.999685  0.999685  1
  Ho  Ho3  1  0.499455  0.499140  0.499140  1
  Ga  Ga4  1  0.000000  0.683944  0.683944  1
  As  As5  1  0.683433  0.680868  0.997435  1
  As  As6  1  0.316567  0.997435  0.314002  1
  As  As7  1  0.000000  0.329932  0.329932  1
  As  As8  1  0.316567  0.314002  0.997435  1
  As  As9  1  0.683433  0.997435  0.680868  1
  Ir  Ir10  1  0.747424  0.249572  0.502149  1
  Ir  Ir11  1  0.747424  0.502149  0.249572  1
  Ir  Ir12  1  0.500000  0.249207  0.749207  1
  Ir  Ir13  1  0.252576  0.502149  0.754725  1
  Ir  Ir14  1  0.252576  0.754725  0.502149  1
  Ir  Ir15  1  0.500000  0.749207  0.249207  1
  Ir  Ir16  1  0.000000  0.991723  0.991723  1
