# generated using pymatgen
data_Sc3(TiRe12)2
_symmetry_space_group_name_H-M   'P 1'
_cell_length_a   8.41171401
_cell_length_b   8.41171347
_cell_length_c   8.42595741
_cell_angle_alpha   109.47234379
_cell_angle_beta   109.47234085
_cell_angle_gamma   109.40038232
_symmetry_Int_Tables_number   1
_chemical_formula_structural   Sc3(TiRe12)2
_chemical_formula_sum   'Sc3 Ti2 Re24'
_cell_volume   459.33895373
_cell_formula_units_Z   1
loop_
 _symmetry_equiv_pos_site_id
 _symmetry_equiv_pos_as_xyz
  1  'x, y, z'
loop_
 _atom_site_type_symbol
 _atom_site_label
 _atom_site_symmetry_multiplicity
 _atom_site_fract_x
 _atom_site_fract_y
 _atom_site_fract_z
 _atom_site_occupancy
  Sc  Sc0  1  0.000669  0.000669  0.000000  1
  Sc  Sc1  1  0.632997  0.000024  0.000000  1
  Sc  Sc2  1  0.000024  0.632997  0.000000  1
  Ti  Ti3  1  0.000401  0.000401  0.632217  1
  Ti  Ti4  1  0.368184  0.368184  0.367783  1
  Re  Re5  1  0.396680  0.677034  0.000000  1
  Re  Re6  1  0.720963  0.322545  0.323721  1
  Re  Re7  1  0.397242  0.998824  0.676279  1
  Re  Re8  1  0.677034  0.396680  0.000000  1
  Re  Re9  1  0.998824  0.397242  0.676279  1
  Re  Re10  1  0.322545  0.720963  0.323721  1
  Re  Re11  1  0.317383  0.317383  0.720295  1
  Re  Re12  1  0.998874  0.682482  0.400390  1
  Re  Re13  1  0.682482  0.998874  0.400390  1
  Re  Re14  1  0.597088  0.597088  0.279705  1
  Re  Re15  1  0.282092  0.598484  0.599610  1
  Re  Re16  1  0.598484  0.282092  0.599610  1
  Re  Re17  1  0.376357  0.192824  0.000000  1
  Re  Re18  1  0.185346  0.808172  0.806904  1
  Re  Re19  1  0.378442  0.001269  0.193096  1
  Re  Re20  1  0.192824  0.376357  0.000000  1
  Re  Re21  1  0.001269  0.378442  0.193096  1
  Re  Re22  1  0.808172  0.185346  0.806904  1
  Re  Re23  1  0.807603  0.807603  0.186186  1
  Re  Re24  1  0.001887  0.194349  0.377936  1
  Re  Re25  1  0.194349  0.001887  0.377936  1
  Re  Re26  1  0.621417  0.621417  0.813814  1
  Re  Re27  1  0.816413  0.623952  0.622064  1
  Re  Re28  1  0.623952  0.816413  0.622064  1
