# generated using pymatgen
data_Co2MoOs4W
_symmetry_space_group_name_H-M   'P 1'
_cell_length_a   5.42430700
_cell_length_b   5.39615679
_cell_length_c   4.33636800
_cell_angle_alpha   90.00000000
_cell_angle_beta   90.00000000
_cell_angle_gamma   120.17272421
_symmetry_Int_Tables_number   1
_chemical_formula_structural   Co2MoOs4W
_chemical_formula_sum   'Co2 Mo1 Os4 W1'
_cell_volume   109.73042658
_cell_formula_units_Z   1
loop_
 _symmetry_equiv_pos_site_id
 _symmetry_equiv_pos_as_xyz
  1  'x, y, z'
loop_
 _atom_site_type_symbol
 _atom_site_label
 _atom_site_symmetry_multiplicity
 _atom_site_fract_x
 _atom_site_fract_y
 _atom_site_fract_z
 _atom_site_occupancy
  Co  Co0  1  0.165715  0.331429  0.250000  1
  Co  Co1  1  0.835425  0.670851  0.750000  1
  Mo  Mo2  1  0.331239  0.662478  0.750000  1
  Os  Os3  1  0.671230  0.834103  0.250000  1
  Os  Os4  1  0.162874  0.834103  0.250000  1
  Os  Os5  1  0.327017  0.164854  0.750000  1
  Os  Os6  1  0.837836  0.164854  0.750000  1
  W  W7  1  0.668664  0.337327  0.250000  1
