# generated using pymatgen
data_CuRh2F12
_symmetry_space_group_name_H-M   'P 1'
_cell_length_a   5.07095125
_cell_length_b   5.46155078
_cell_length_c   8.79897349
_cell_angle_alpha   104.97765780
_cell_angle_beta   91.30941855
_cell_angle_gamma   118.19584649
_symmetry_Int_Tables_number   1
_chemical_formula_structural   CuRh2F12
_chemical_formula_sum   'Cu1 Rh2 F12'
_cell_volume   204.44700742
_cell_formula_units_Z   1
loop_
 _symmetry_equiv_pos_site_id
 _symmetry_equiv_pos_as_xyz
  1  'x, y, z'
loop_
 _atom_site_type_symbol
 _atom_site_label
 _atom_site_symmetry_multiplicity
 _atom_site_fract_x
 _atom_site_fract_y
 _atom_site_fract_z
 _atom_site_occupancy
  Cu  Cu0  1  0.500000  0.500000  0.500000  1
  Rh  Rh1  1  0.263646  0.001212  0.748489  1
  Rh  Rh2  1  0.736354  0.998788  0.251511  1
  F  F3  1  0.764269  0.759278  0.377752  1
  F  F4  1  0.235731  0.240722  0.622248  1
  F  F5  1  0.315161  0.761549  0.201875  1
  F  F6  1  0.270860  0.759106  0.862345  1
  F  F7  1  0.729140  0.240894  0.137655  1
  F  F8  1  0.816942  0.749331  0.693768  1
  F  F9  1  0.183058  0.250669  0.306232  1
  F  F10  1  0.299727  0.753187  0.554712  1
  F  F11  1  0.700273  0.246813  0.445288  1
  F  F12  1  0.209688  0.236851  0.925353  1
  F  F13  1  0.790312  0.763149  0.074647  1
  F  F14  1  0.684839  0.238451  0.798125  1
