# generated using pymatgen
data_Yb12CdGe7Pd8
_symmetry_space_group_name_H-M   'P 1'
_cell_length_a   5.60808100
_cell_length_b   8.10808126
_cell_length_c   13.50140019
_cell_angle_alpha   89.89836707
_cell_angle_beta   90.00000000
_cell_angle_gamma   90.00000000
_symmetry_Int_Tables_number   1
_chemical_formula_structural   Yb12CdGe7Pd8
_chemical_formula_sum   'Yb12 Cd1 Ge7 Pd8'
_cell_volume   613.91818426
_cell_formula_units_Z   1
loop_
 _symmetry_equiv_pos_site_id
 _symmetry_equiv_pos_as_xyz
  1  'x, y, z'
loop_
 _atom_site_type_symbol
 _atom_site_label
 _atom_site_symmetry_multiplicity
 _atom_site_fract_x
 _atom_site_fract_y
 _atom_site_fract_z
 _atom_site_occupancy
  Yb  Yb0  1  0.649142  0.253774  0.255819  1
  Yb  Yb1  1  0.352450  0.745950  0.746713  1
  Yb  Yb2  1  0.352450  0.754050  0.253287  1
  Yb  Yb3  1  0.649142  0.246226  0.744181  1
  Yb  Yb4  1  0.155500  0.402187  0.103023  1
  Yb  Yb5  1  0.856159  0.611913  0.898359  1
  Yb  Yb6  1  0.856177  0.607707  0.600731  1
  Yb  Yb7  1  0.856177  0.892293  0.399269  1
  Yb  Yb8  1  0.144974  0.392117  0.400520  1
  Yb  Yb9  1  0.144974  0.107883  0.599480  1
  Yb  Yb10  1  0.155500  0.097813  0.896977  1
  Yb  Yb11  1  0.856159  0.888087  0.101641  1
  Cd  Cd12  1  0.668714  0.250000  0.000000  1
  Ge  Ge13  1  0.143879  0.106413  0.251265  1
  Ge  Ge14  1  0.857426  0.898309  0.746129  1
  Ge  Ge15  1  0.857426  0.601691  0.253871  1
  Ge  Ge16  1  0.143879  0.393587  0.748735  1
  Ge  Ge17  1  0.331651  0.750000  0.000000  1
  Ge  Ge18  1  0.344320  0.750000  0.500000  1
  Ge  Ge19  1  0.654547  0.250000  0.500000  1
  Pd  Pd20  1  0.366479  0.028304  0.095154  1
  Pd  Pd21  1  0.620577  0.945144  0.905376  1
  Pd  Pd22  1  0.621183  0.960645  0.588910  1
  Pd  Pd23  1  0.621183  0.539355  0.411090  1
  Pd  Pd24  1  0.376439  0.038830  0.409222  1
  Pd  Pd25  1  0.376439  0.461170  0.590778  1
  Pd  Pd26  1  0.366479  0.471696  0.904846  1
  Pd  Pd27  1  0.620577  0.554856  0.094624  1
