# generated using pymatgen
data_Y3ErAl18PdRh5
_symmetry_space_group_name_H-M   'P 1'
_cell_length_a   7.57180846
_cell_length_b   7.57448723
_cell_length_c   9.47484200
_cell_angle_alpha   89.96607933
_cell_angle_beta   89.96904853
_cell_angle_gamma   119.46027522
_symmetry_Int_Tables_number   1
_chemical_formula_structural   Y3ErAl18PdRh5
_chemical_formula_sum   'Y3 Er1 Al18 Pd1 Rh5'
_cell_volume   473.14206054
_cell_formula_units_Z   1
loop_
 _symmetry_equiv_pos_site_id
 _symmetry_equiv_pos_as_xyz
  1  'x, y, z'
loop_
 _atom_site_type_symbol
 _atom_site_label
 _atom_site_symmetry_multiplicity
 _atom_site_fract_x
 _atom_site_fract_y
 _atom_site_fract_z
 _atom_site_occupancy
  Y  Y0  1  0.993886  0.670368  0.750500  1
  Y  Y1  1  0.004324  0.328240  0.249683  1
  Y  Y2  1  0.671557  0.995672  0.750305  1
  Er  Er3  1  0.329384  0.005783  0.249357  1
  Al  Al4  1  0.128169  0.127092  0.750427  1
  Al  Al5  1  0.873307  0.871902  0.249595  1
  Al  Al6  1  0.005582  0.335754  0.576696  1
  Al  Al7  1  0.003255  0.669156  0.423210  1
  Al  Al8  1  0.000698  0.665379  0.075227  1
  Al  Al9  1  0.335161  0.999840  0.925848  1
  Al  Al10  1  0.000872  0.335113  0.924526  1
  Al  Al11  1  0.664132  0.999125  0.075989  1
  Al  Al12  1  0.663553  0.994540  0.422795  1
  Al  Al13  1  0.331605  0.997496  0.575705  1
  Al  Al14  1  0.332553  0.332125  0.049361  1
  Al  Al15  1  0.667339  0.667447  0.951389  1
  Al  Al16  1  0.666353  0.669611  0.552672  1
  Al  Al17  1  0.330438  0.333102  0.446550  1
  Al  Al18  1  0.340782  0.550889  0.750638  1
  Al  Al19  1  0.658799  0.452140  0.246599  1
  Al  Al20  1  0.547212  0.340126  0.753461  1
  Al  Al21  1  0.449283  0.660010  0.249381  1
  Pd  Pd22  1  0.672537  0.327418  0.499778  1
  Rh  Rh23  1  0.328195  0.671862  0.499766  1
  Rh  Rh24  1  0.328133  0.671889  0.000227  1
  Rh  Rh25  1  0.672104  0.327633  0.000299  1
  Rh  Rh26  1  0.000298  0.000224  0.499712  1
  Rh  Rh27  1  0.000487  0.000067  0.000304  1
