# generated using pymatgen
data_YbCdP2O7
_symmetry_space_group_name_H-M   'P 1'
_cell_length_a   6.67981267
_cell_length_b   6.70938441
_cell_length_c   6.69476083
_cell_angle_alpha   66.01718964
_cell_angle_beta   84.25176324
_cell_angle_gamma   87.41652037
_symmetry_Int_Tables_number   1
_chemical_formula_structural   YbCdP2O7
_chemical_formula_sum   'Yb2 Cd2 P4 O14'
_cell_volume   272.75696828
_cell_formula_units_Z   2
loop_
 _symmetry_equiv_pos_site_id
 _symmetry_equiv_pos_as_xyz
  1  'x, y, z'
loop_
 _atom_site_type_symbol
 _atom_site_label
 _atom_site_symmetry_multiplicity
 _atom_site_fract_x
 _atom_site_fract_y
 _atom_site_fract_z
 _atom_site_occupancy
  Yb  Yb0  1  0.877628  0.682697  0.260659  1
  Yb  Yb1  1  0.122372  0.317303  0.739341  1
  Cd  Cd2  1  0.352080  0.743923  0.888467  1
  Cd  Cd3  1  0.647920  0.256077  0.111533  1
  P  P4  1  0.852691  0.769258  0.761286  1
  P  P5  1  0.147309  0.230742  0.238714  1
  P  P6  1  0.365474  0.806508  0.366931  1
  P  P7  1  0.634526  0.193492  0.633069  1
  O  O8  1  0.012392  0.835380  0.873528  1
  O  O9  1  0.987608  0.164620  0.126472  1
  O  O10  1  0.743775  0.984025  0.597762  1
  O  O11  1  0.256225  0.015975  0.402238  1
  O  O12  1  0.579403  0.882828  0.261862  1
  O  O13  1  0.420597  0.117172  0.738138  1
  O  O14  1  0.932325  0.651757  0.617523  1
  O  O15  1  0.067675  0.348243  0.382477  1
  O  O16  1  0.690306  0.642066  0.949112  1
  O  O17  1  0.309694  0.357934  0.050888  1
  O  O18  1  0.762184  0.244152  0.783072  1
  O  O19  1  0.237816  0.755848  0.216928  1
  O  O20  1  0.358592  0.630191  0.601448  1
  O  O21  1  0.641408  0.369809  0.398552  1
