# generated using pymatgen
data_Nd3Y3Zn4Pt13
_symmetry_space_group_name_H-M   'P 1'
_cell_length_a   8.34452839
_cell_length_b   8.34452811
_cell_length_c   8.34821700
_cell_angle_alpha   109.48017600
_cell_angle_beta   109.48017532
_cell_angle_gamma   109.46226514
_symmetry_Int_Tables_number   1
_chemical_formula_structural   Nd3Y3Zn4Pt13
_chemical_formula_sum   'Nd3 Y3 Zn4 Pt13'
_cell_volume   447.43237282
_cell_formula_units_Z   1
loop_
 _symmetry_equiv_pos_site_id
 _symmetry_equiv_pos_as_xyz
  1  'x, y, z'
loop_
 _atom_site_type_symbol
 _atom_site_label
 _atom_site_symmetry_multiplicity
 _atom_site_fract_x
 _atom_site_fract_y
 _atom_site_fract_z
 _atom_site_occupancy
  Nd  Nd0  1  0.298172  0.298172  0.000818  1
  Nd  Nd1  1  0.701828  0.000000  0.702646  1
  Nd  Nd2  1  0.000000  0.701828  0.702646  1
  Y  Y3  1  0.695175  0.695175  0.999506  1
  Y  Y4  1  0.304825  0.000000  0.304331  1
  Y  Y5  1  0.000000  0.304825  0.304331  1
  Zn  Zn6  1  0.000000  0.000000  0.494054  1
  Zn  Zn7  1  0.000000  0.501593  0.998928  1
  Zn  Zn8  1  0.501593  0.000000  0.998928  1
  Zn  Zn9  1  0.498407  0.498407  0.497335  1
  Pt  Pt10  1  0.329183  0.329183  0.656510  1
  Pt  Pt11  1  0.670817  0.000000  0.327328  1
  Pt  Pt12  1  0.000000  0.670817  0.327328  1
  Pt  Pt13  1  0.670530  0.332449  0.001233  1
  Pt  Pt14  1  0.329470  0.661918  0.330703  1
  Pt  Pt15  1  0.000000  0.331657  0.666596  1
  Pt  Pt16  1  0.332449  0.670530  0.001233  1
  Pt  Pt17  1  0.331657  0.000000  0.666596  1
  Pt  Pt18  1  0.661918  0.329470  0.330703  1
  Pt  Pt19  1  0.668343  0.668343  0.334940  1
  Pt  Pt20  1  0.667551  0.338082  0.668784  1
  Pt  Pt21  1  0.338082  0.667551  0.668784  1
  Pt  Pt22  1  0.000000  0.000000  0.015738  1
