# generated using pymatgen
data_Tm3In3HgRh2
_symmetry_space_group_name_H-M   'P 1'
_cell_length_a   7.80583600
_cell_length_b   7.80583576
_cell_length_c   3.75974600
_cell_angle_alpha   90.00000000
_cell_angle_beta   90.00000000
_cell_angle_gamma   120.00000100
_symmetry_Int_Tables_number   1
_chemical_formula_structural   Tm3In3HgRh2
_chemical_formula_sum   'Tm3 In3 Hg1 Rh2'
_cell_volume   198.39374027
_cell_formula_units_Z   1
loop_
 _symmetry_equiv_pos_site_id
 _symmetry_equiv_pos_as_xyz
  1  'x, y, z'
loop_
 _atom_site_type_symbol
 _atom_site_label
 _atom_site_symmetry_multiplicity
 _atom_site_fract_x
 _atom_site_fract_y
 _atom_site_fract_z
 _atom_site_occupancy
  Tm  Tm0  1  0.971360  0.385915  0.500000  1
  Tm  Tm1  1  0.614085  0.585446  0.500000  1
  Tm  Tm2  1  0.414554  0.028640  0.500000  1
  In  In3  1  0.258805  0.256693  0.000000  1
  In  In4  1  0.997888  0.741195  0.000000  1
  In  In5  1  0.743307  0.002112  0.000000  1
  Hg  Hg6  1  0.333333  0.666667  0.000000  1
  Rh  Rh7  1  0.000000  0.000000  0.500000  1
  Rh  Rh8  1  0.666667  0.333333  0.000000  1
