# generated using pymatgen
data_Er2B2SbRu5
_symmetry_space_group_name_H-M   'P 1'
_cell_length_a   9.69979600
_cell_length_b   9.69979600
_cell_length_c   3.12515200
_cell_angle_alpha   90.00000000
_cell_angle_beta   90.00000000
_cell_angle_gamma   90.00000000
_symmetry_Int_Tables_number   1
_chemical_formula_structural   Er2B2SbRu5
_chemical_formula_sum   'Er4 B4 Sb2 Ru10'
_cell_volume   294.03318371
_cell_formula_units_Z   2
loop_
 _symmetry_equiv_pos_site_id
 _symmetry_equiv_pos_as_xyz
  1  'x, y, z'
loop_
 _atom_site_type_symbol
 _atom_site_label
 _atom_site_symmetry_multiplicity
 _atom_site_fract_x
 _atom_site_fract_y
 _atom_site_fract_z
 _atom_site_occupancy
  Er  Er0  1  0.825413  0.674587  0.000000  1
  Er  Er1  1  0.174587  0.325413  0.000000  1
  Er  Er2  1  0.325413  0.825413  0.000000  1
  Er  Er3  1  0.674587  0.174587  0.000000  1
  B  B4  1  0.620058  0.879942  0.000000  1
  B  B5  1  0.379942  0.120058  0.000000  1
  B  B6  1  0.120058  0.620058  0.000000  1
  B  B7  1  0.879942  0.379942  0.000000  1
  Sb  Sb8  1  0.500000  0.500000  0.000000  1
  Sb  Sb9  1  0.000000  0.000000  0.000000  1
  Ru  Ru10  1  0.570890  0.720444  0.500000  1
  Ru  Ru11  1  0.429110  0.279556  0.500000  1
  Ru  Ru12  1  0.070890  0.779556  0.500000  1
  Ru  Ru13  1  0.929110  0.220444  0.500000  1
  Ru  Ru14  1  0.279556  0.570890  0.500000  1
  Ru  Ru15  1  0.720444  0.429110  0.500000  1
  Ru  Ru16  1  0.220444  0.070890  0.500000  1
  Ru  Ru17  1  0.779556  0.929110  0.500000  1
  Ru  Ru18  1  0.500000  0.000000  0.500000  1
  Ru  Ru19  1  0.000000  0.500000  0.500000  1
