# generated using pymatgen
data_YHo2Nb(Co4P3)2
_symmetry_space_group_name_H-M   'P 1'
_cell_length_a   3.70767300
_cell_length_b   10.63411100
_cell_length_c   12.33542400
_cell_angle_alpha   90.00000000
_cell_angle_beta   90.00000000
_cell_angle_gamma   90.00000000
_symmetry_Int_Tables_number   1
_chemical_formula_structural   YHo2Nb(Co4P3)2
_chemical_formula_sum   'Y2 Ho4 Nb2 Co16 P12'
_cell_volume   486.35870728
_cell_formula_units_Z   2
loop_
 _symmetry_equiv_pos_site_id
 _symmetry_equiv_pos_as_xyz
  1  'x, y, z'
loop_
 _atom_site_type_symbol
 _atom_site_label
 _atom_site_symmetry_multiplicity
 _atom_site_fract_x
 _atom_site_fract_y
 _atom_site_fract_z
 _atom_site_occupancy
  Y  Y0  1  0.000000  0.500000  0.526777  1
  Y  Y1  1  0.500000  0.000000  0.473223  1
  Ho  Ho2  1  0.500000  0.820417  0.204992  1
  Ho  Ho3  1  0.500000  0.179583  0.204992  1
  Ho  Ho4  1  0.000000  0.679583  0.795008  1
  Ho  Ho5  1  0.000000  0.320417  0.795008  1
  Nb  Nb6  1  0.500000  0.500000  0.156694  1
  Nb  Nb7  1  0.000000  0.000000  0.843306  1
  Co  Co8  1  0.000000  0.500000  0.985885  1
  Co  Co9  1  0.500000  0.000000  0.014115  1
  Co  Co10  1  0.500000  0.295098  0.432207  1
  Co  Co11  1  0.500000  0.704902  0.432207  1
  Co  Co12  1  0.000000  0.204902  0.567793  1
  Co  Co13  1  0.000000  0.795098  0.567793  1
  Co  Co14  1  0.500000  0.877183  0.705087  1
  Co  Co15  1  0.500000  0.122817  0.705087  1
  Co  Co16  1  0.000000  0.622817  0.294913  1
  Co  Co17  1  0.000000  0.377183  0.294913  1
  Co  Co18  1  0.500000  0.332474  0.991523  1
  Co  Co19  1  0.500000  0.667526  0.991523  1
  Co  Co20  1  0.000000  0.167526  0.008477  1
  Co  Co21  1  0.000000  0.832474  0.008477  1
  Co  Co22  1  0.500000  0.500000  0.702990  1
  Co  Co23  1  0.000000  0.000000  0.297010  1
  P  P24  1  0.500000  0.310770  0.616136  1
  P  P25  1  0.500000  0.689230  0.616136  1
  P  P26  1  0.000000  0.189230  0.383864  1
  P  P27  1  0.000000  0.810770  0.383864  1
  P  P28  1  0.500000  0.500000  0.882082  1
  P  P29  1  0.000000  0.000000  0.117918  1
  P  P30  1  0.500000  0.841060  0.893248  1
  P  P31  1  0.500000  0.158940  0.893248  1
  P  P32  1  0.000000  0.658940  0.106752  1
  P  P33  1  0.000000  0.341060  0.106752  1
  P  P34  1  0.500000  0.500000  0.355510  1
  P  P35  1  0.000000  0.000000  0.644490  1
