# generated using pymatgen
data_HoLu(Hf4Sn3)2
_symmetry_space_group_name_H-M   'P 1'
_cell_length_a   8.59828459
_cell_length_b   8.59828553
_cell_length_c   5.82109700
_cell_angle_alpha   90.00000000
_cell_angle_beta   90.00000000
_cell_angle_gamma   121.22473949
_symmetry_Int_Tables_number   1
_chemical_formula_structural   HoLu(Hf4Sn3)2
_chemical_formula_sum   'Ho1 Lu1 Hf8 Sn6'
_cell_volume   368.01539962
_cell_formula_units_Z   1
loop_
 _symmetry_equiv_pos_site_id
 _symmetry_equiv_pos_as_xyz
  1  'x, y, z'
loop_
 _atom_site_type_symbol
 _atom_site_label
 _atom_site_symmetry_multiplicity
 _atom_site_fract_x
 _atom_site_fract_y
 _atom_site_fract_z
 _atom_site_occupancy
  Ho  Ho0  1  0.771075  0.771075  0.750000  1
  Lu  Lu1  1  0.229108  0.229108  0.250000  1
  Hf  Hf2  1  0.250618  0.000718  0.750000  1
  Hf  Hf3  1  0.000718  0.250618  0.750000  1
  Hf  Hf4  1  0.748906  0.999596  0.250000  1
  Hf  Hf5  1  0.999596  0.748906  0.250000  1
  Hf  Hf6  1  0.666068  0.334372  0.000108  1
  Hf  Hf7  1  0.334372  0.666068  0.000108  1
  Hf  Hf8  1  0.334372  0.666068  0.499892  1
  Hf  Hf9  1  0.666068  0.334372  0.499892  1
  Sn  Sn10  1  0.391129  0.391129  0.750000  1
  Sn  Sn11  1  0.606220  0.003426  0.750000  1
  Sn  Sn12  1  0.003426  0.606220  0.750000  1
  Sn  Sn13  1  0.607886  0.607886  0.250000  1
  Sn  Sn14  1  0.392893  0.997543  0.250000  1
  Sn  Sn15  1  0.997543  0.392893  0.250000  1
