# generated using pymatgen
data_LaYb11(SiAg)12
_symmetry_space_group_name_H-M   'P 1'
_cell_length_a   4.51911500
_cell_length_b   7.72387643
_cell_length_c   21.43836028
_cell_angle_alpha   90.19639331
_cell_angle_beta   90.00000000
_cell_angle_gamma   90.00000000
_symmetry_Int_Tables_number   1
_chemical_formula_structural   LaYb11(SiAg)12
_chemical_formula_sum   'La1 Yb11 Si12 Ag12'
_cell_volume   748.30340993
_cell_formula_units_Z   1
loop_
 _symmetry_equiv_pos_site_id
 _symmetry_equiv_pos_as_xyz
  1  'x, y, z'
loop_
 _atom_site_type_symbol
 _atom_site_label
 _atom_site_symmetry_multiplicity
 _atom_site_fract_x
 _atom_site_fract_y
 _atom_site_fract_z
 _atom_site_occupancy
  La  La0  1  0.750000  0.705558  0.833224  1
  Yb  Yb1  1  0.250000  0.219753  0.001755  1
  Yb  Yb2  1  0.250000  0.280054  0.499429  1
  Yb  Yb3  1  0.750000  0.778089  0.002543  1
  Yb  Yb4  1  0.750000  0.719355  0.499618  1
  Yb  Yb5  1  0.250000  0.203262  0.333403  1
  Yb  Yb6  1  0.250000  0.290803  0.833575  1
  Yb  Yb7  1  0.750000  0.794988  0.664588  1
  Yb  Yb8  1  0.750000  0.704098  0.166924  1
  Yb  Yb9  1  0.250000  0.210826  0.665196  1
  Yb  Yb10  1  0.250000  0.293032  0.167650  1
  Yb  Yb11  1  0.750000  0.792736  0.332798  1
  Si  Si12  1  0.250000  0.583448  0.723815  1
  Si  Si13  1  0.250000  0.918668  0.223970  1
  Si  Si14  1  0.750000  0.418032  0.275893  1
  Si  Si15  1  0.750000  0.083422  0.775056  1
  Si  Si16  1  0.250000  0.912400  0.106876  1
  Si  Si17  1  0.250000  0.586700  0.605827  1
  Si  Si18  1  0.750000  0.089041  0.893896  1
  Si  Si19  1  0.750000  0.413182  0.393087  1
  Si  Si20  1  0.250000  0.591040  0.923944  1
  Si  Si21  1  0.250000  0.908552  0.427944  1
  Si  Si22  1  0.750000  0.408515  0.072635  1
  Si  Si23  1  0.750000  0.091252  0.571965  1
  Ag  Ag24  1  0.250000  0.920162  0.758482  1
  Ag  Ag25  1  0.250000  0.588000  0.262467  1
  Ag  Ag26  1  0.750000  0.088215  0.237909  1
  Ag  Ag27  1  0.750000  0.405995  0.735130  1
  Ag  Ag28  1  0.250000  0.925398  0.909219  1
  Ag  Ag29  1  0.250000  0.581164  0.405489  1
  Ag  Ag30  1  0.750000  0.081506  0.094946  1
  Ag  Ag31  1  0.750000  0.418891  0.593207  1
  Ag  Ag32  1  0.250000  0.915916  0.565574  1
  Ag  Ag33  1  0.250000  0.582552  0.067566  1
  Ag  Ag34  1  0.750000  0.083968  0.434016  1
  Ag  Ag35  1  0.750000  0.411430  0.940387  1
