# generated using pymatgen
data_Y4VOs7
_symmetry_space_group_name_H-M   'P 1'
_cell_length_a   5.25787824
_cell_length_b   5.25787859
_cell_length_c   8.89391200
_cell_angle_alpha   90.00000000
_cell_angle_beta   90.00000000
_cell_angle_gamma   117.44759246
_symmetry_Int_Tables_number   1
_chemical_formula_structural   Y4VOs7
_chemical_formula_sum   'Y4 V1 Os7'
_cell_volume   218.19730910
_cell_formula_units_Z   1
loop_
 _symmetry_equiv_pos_site_id
 _symmetry_equiv_pos_as_xyz
  1  'x, y, z'
loop_
 _atom_site_type_symbol
 _atom_site_label
 _atom_site_symmetry_multiplicity
 _atom_site_fract_x
 _atom_site_fract_y
 _atom_site_fract_z
 _atom_site_occupancy
  Y  Y0  1  0.330555  0.669445  0.436916  1
  Y  Y1  1  0.668724  0.331276  0.566143  1
  Y  Y2  1  0.668724  0.331276  0.933857  1
  Y  Y3  1  0.330555  0.669445  0.063084  1
  V  V4  1  0.835482  0.164518  0.250000  1
  Os  Os5  1  0.996412  0.003588  0.498746  1
  Os  Os6  1  0.996412  0.003588  0.001254  1
  Os  Os7  1  0.824077  0.651304  0.250000  1
  Os  Os8  1  0.348696  0.175923  0.250000  1
  Os  Os9  1  0.169959  0.830041  0.750000  1
  Os  Os10  1  0.174869  0.344466  0.750000  1
  Os  Os11  1  0.655534  0.825131  0.750000  1
