# generated using pymatgen
data_UV3P3Rh2
_symmetry_space_group_name_H-M   'P 1'
_cell_length_a   3.92699700
_cell_length_b   6.74871558
_cell_length_c   9.91914394
_cell_angle_alpha   80.29538950
_cell_angle_beta   90.00000000
_cell_angle_gamma   90.00000000
_symmetry_Int_Tables_number   1
_chemical_formula_structural   UV3P3Rh2
_chemical_formula_sum   'U2 V6 P6 Rh4'
_cell_volume   259.11717334
_cell_formula_units_Z   2
loop_
 _symmetry_equiv_pos_site_id
 _symmetry_equiv_pos_as_xyz
  1  'x, y, z'
loop_
 _atom_site_type_symbol
 _atom_site_label
 _atom_site_symmetry_multiplicity
 _atom_site_fract_x
 _atom_site_fract_y
 _atom_site_fract_z
 _atom_site_occupancy
  U  U0  1  0.250000  0.804207  0.786229  1
  U  U1  1  0.750000  0.195793  0.213771  1
  V  V2  1  0.250000  0.619543  0.514010  1
  V  V3  1  0.750000  0.380457  0.485990  1
  V  V4  1  0.250000  0.124934  0.504651  1
  V  V5  1  0.750000  0.875066  0.495349  1
  V  V6  1  0.250000  0.316560  0.730633  1
  V  V7  1  0.750000  0.683440  0.269367  1
  P  P8  1  0.250000  0.257200  0.972005  1
  P  P9  1  0.750000  0.742800  0.027995  1
  P  P10  1  0.250000  0.428075  0.332827  1
  P  P11  1  0.750000  0.571925  0.667173  1
  P  P12  1  0.250000  0.904079  0.336684  1
  P  P13  1  0.750000  0.095921  0.663316  1
  Rh  Rh14  1  0.250000  0.526264  0.096027  1
  Rh  Rh15  1  0.750000  0.473736  0.903973  1
  Rh  Rh16  1  0.250000  0.929373  0.098218  1
  Rh  Rh17  1  0.750000  0.070627  0.901782  1
