# generated using pymatgen
data_DyErTm2(B6Rh)2
_symmetry_space_group_name_H-M   'P 1'
_cell_length_a   3.63438500
_cell_length_b   9.13557004
_cell_length_c   11.47216906
_cell_angle_alpha   89.98914634
_cell_angle_beta   90.00000500
_cell_angle_gamma   90.00005662
_symmetry_Int_Tables_number   1
_chemical_formula_structural   DyErTm2(B6Rh)2
_chemical_formula_sum   'Dy2 Er2 Tm4 B24 Rh4'
_cell_volume   380.90100037
_cell_formula_units_Z   2
loop_
 _symmetry_equiv_pos_site_id
 _symmetry_equiv_pos_as_xyz
  1  'x, y, z'
loop_
 _atom_site_type_symbol
 _atom_site_label
 _atom_site_symmetry_multiplicity
 _atom_site_fract_x
 _atom_site_fract_y
 _atom_site_fract_z
 _atom_site_occupancy
  Dy  Dy0  1  0.499996  0.178012  0.913753  1
  Dy  Dy1  1  0.500004  0.821988  0.086247  1
  Er  Er2  1  0.500026  0.321661  0.413818  1
  Er  Er3  1  0.499974  0.678339  0.586182  1
  Tm  Tm4  1  0.500001  0.444257  0.127026  1
  Tm  Tm5  1  0.499999  0.555743  0.872974  1
  Tm  Tm6  1  0.499999  0.055758  0.626602  1
  Tm  Tm7  1  0.500001  0.944242  0.373398  1
  B  B8  1  0.000002  0.108812  0.470562  1
  B  B9  1  0.999998  0.891188  0.529438  1
  B  B10  1  0.999998  0.392336  0.970868  1
  B  B11  1  0.000002  0.607664  0.029132  1
  B  B12  1  0.000005  0.132942  0.316746  1
  B  B13  1  0.999995  0.867058  0.683254  1
  B  B14  1  0.999997  0.367516  0.816184  1
  B  B15  1  0.000003  0.632484  0.183816  1
  B  B16  1  0.000002  0.054176  0.065729  1
  B  B17  1  0.999998  0.945824  0.934271  1
  B  B18  1  0.999999  0.445963  0.565122  1
  B  B19  1  0.000001  0.554037  0.434878  1
  B  B20  1  0.000003  0.482422  0.286694  1
  B  B21  1  0.999997  0.517578  0.713306  1
  B  B22  1  0.999998  0.017134  0.786093  1
  B  B23  1  0.000002  0.982866  0.213907  1
  B  B24  1  0.000000  0.250174  0.079850  1
  B  B25  1  0.000000  0.749826  0.920150  1
  B  B26  1  0.000001  0.250152  0.579182  1
  B  B27  1  0.999999  0.749848  0.420818  1
  B  B28  1  0.000002  0.294583  0.236393  1
  B  B29  1  0.999998  0.705417  0.763607  1
  B  B30  1  0.999997  0.205795  0.735448  1
  B  B31  1  0.000003  0.794205  0.264552  1
  Rh  Rh32  1  0.500001  0.140272  0.179908  1
  Rh  Rh33  1  0.499999  0.859728  0.820092  1
  Rh  Rh34  1  0.499995  0.360732  0.678715  1
  Rh  Rh35  1  0.500005  0.639268  0.321285  1
