# generated using pymatgen
data_Hf16MnNi4Ir3N2
_symmetry_space_group_name_H-M   'P 1'
_cell_length_a   8.60086107
_cell_length_b   8.58441704
_cell_length_c   8.60086160
_cell_angle_alpha   120.06572309
_cell_angle_beta   120.09096290
_cell_angle_gamma   89.91909196
_symmetry_Int_Tables_number   1
_chemical_formula_structural   Hf16MnNi4Ir3N2
_chemical_formula_sum   'Hf16 Mn1 Ni4 Ir3 N2'
_cell_volume   448.28720918
_cell_formula_units_Z   1
loop_
 _symmetry_equiv_pos_site_id
 _symmetry_equiv_pos_as_xyz
  1  'x, y, z'
loop_
 _atom_site_type_symbol
 _atom_site_label
 _atom_site_symmetry_multiplicity
 _atom_site_fract_x
 _atom_site_fract_y
 _atom_site_fract_z
 _atom_site_occupancy
  Hf  Hf0  1  0.935540  0.184665  0.749125  1
  Hf  Hf1  1  0.321443  0.571189  0.749746  1
  Hf  Hf2  1  0.931383  0.569350  0.754754  1
  Hf  Hf3  1  0.311544  0.174992  0.743876  1
  Hf  Hf4  1  0.931116  0.174992  0.363448  1
  Hf  Hf5  1  0.314596  0.569350  0.137967  1
  Hf  Hf6  1  0.057145  0.807637  0.250492  1
  Hf  Hf7  1  0.688926  0.446151  0.257225  1
  Hf  Hf8  1  0.058607  0.438595  0.245571  1
  Hf  Hf9  1  0.692117  0.813022  0.261445  1
  Hf  Hf10  1  0.051577  0.813022  0.620905  1
  Hf  Hf11  1  0.693024  0.438595  0.879988  1
  Hf  Hf12  1  0.486908  0.012371  0.025462  1
  Hf  Hf13  1  0.487426  0.459664  0.472239  1
  Hf  Hf14  1  0.485914  0.013679  0.470338  1
  Hf  Hf15  1  0.043341  0.013679  0.027764  1
  Mn  Mn16  1  0.708993  0.787812  0.578820  1
  Ni  Ni17  1  0.273539  0.233308  0.459769  1
  Ni  Ni18  1  0.274569  0.814619  0.040050  1
  Ni  Ni19  1  0.277479  0.228122  0.046776  1
  Ni  Ni20  1  0.681345  0.228122  0.450643  1
  Ir  Ir21  1  0.710037  0.129062  0.919025  1
  Ir  Ir22  1  0.708875  0.789320  0.913818  1
  Ir  Ir23  1  0.375502  0.789320  0.580445  1
  N  N24  1  0.998953  0.499629  0.000676  1
  N  N25  1  0.000103  0.999736  0.499634  1
