# generated using pymatgen
data_YbScBiO
_symmetry_space_group_name_H-M   'P 1'
_cell_length_a   4.15940500
_cell_length_b   7.22588700
_cell_length_c   6.45212700
_cell_angle_alpha   90.00000000
_cell_angle_beta   90.00000000
_cell_angle_gamma   90.00000000
_symmetry_Int_Tables_number   1
_chemical_formula_structural   YbScBiO
_chemical_formula_sum   'Yb2 Sc2 Bi2 O2'
_cell_volume   193.92119665
_cell_formula_units_Z   2
loop_
 _symmetry_equiv_pos_site_id
 _symmetry_equiv_pos_as_xyz
  1  'x, y, z'
loop_
 _atom_site_type_symbol
 _atom_site_label
 _atom_site_symmetry_multiplicity
 _atom_site_fract_x
 _atom_site_fract_y
 _atom_site_fract_z
 _atom_site_occupancy
  Yb  Yb0  1  0.000000  0.186998  0.376128  1
  Yb  Yb1  1  0.000000  0.813001  0.876128  1
  Sc  Sc2  1  0.500000  0.499870  0.125760  1
  Sc  Sc3  1  0.500000  0.500129  0.625760  1
  Bi  Bi4  1  0.000000  0.732656  0.376015  1
  Bi  Bi5  1  0.000000  0.267343  0.876016  1
  O  O6  1  0.500000  0.317901  0.376091  1
  O  O7  1  0.500000  0.682099  0.876091  1
