# generated using pymatgen
data_Hf11Ti(Ga2Sn)4
_symmetry_space_group_name_H-M   'P 1'
_cell_length_a   5.69165454
_cell_length_b   8.76502590
_cell_length_c   9.34046500
_cell_angle_alpha   90.00000000
_cell_angle_beta   90.00000000
_cell_angle_gamma   90.10815847
_symmetry_Int_Tables_number   1
_chemical_formula_structural   Hf11Ti(Ga2Sn)4
_chemical_formula_sum   'Hf11 Ti1 Ga8 Sn4'
_cell_volume   465.97161221
_cell_formula_units_Z   1
loop_
 _symmetry_equiv_pos_site_id
 _symmetry_equiv_pos_as_xyz
  1  'x, y, z'
loop_
 _atom_site_type_symbol
 _atom_site_label
 _atom_site_symmetry_multiplicity
 _atom_site_fract_x
 _atom_site_fract_y
 _atom_site_fract_z
 _atom_site_occupancy
  Hf  Hf0  1  0.500000  0.250000  0.880111  1
  Hf  Hf1  1  0.000000  0.250000  0.878173  1
  Hf  Hf2  1  0.500000  0.750000  0.121972  1
  Hf  Hf3  1  0.750602  0.471176  0.610110  1
  Hf  Hf4  1  0.251720  0.530141  0.389779  1
  Hf  Hf5  1  0.748280  0.969859  0.389779  1
  Hf  Hf6  1  0.249398  0.028824  0.610110  1
  Hf  Hf7  1  0.747703  0.373643  0.198261  1
  Hf  Hf8  1  0.252023  0.625882  0.801507  1
  Hf  Hf9  1  0.747977  0.874118  0.801507  1
  Hf  Hf10  1  0.252297  0.126357  0.198261  1
  Ti  Ti11  1  0.000000  0.750000  0.122171  1
  Ga  Ga12  1  0.000000  0.750000  0.570735  1
  Ga  Ga13  1  0.500000  0.250000  0.430053  1
  Ga  Ga14  1  0.000000  0.250000  0.429487  1
  Ga  Ga15  1  0.500000  0.750000  0.569281  1
  Ga  Ga16  1  0.749361  0.137091  0.645571  1
  Ga  Ga17  1  0.243249  0.861084  0.350812  1
  Ga  Ga18  1  0.756751  0.638916  0.350812  1
  Ga  Ga19  1  0.250639  0.362909  0.645571  1
  Sn  Sn20  1  0.754351  0.047521  0.085349  1
  Sn  Sn21  1  0.245315  0.946045  0.917620  1
  Sn  Sn22  1  0.754685  0.553955  0.917620  1
  Sn  Sn23  1  0.245649  0.452479  0.085349  1
