# generated using pymatgen
data_Ti8Ga15Ru5Pt2
_symmetry_space_group_name_H-M   'P 1'
_cell_length_a   8.68272703
_cell_length_b   8.65616361
_cell_length_c   8.68221900
_cell_angle_alpha   120.12134800
_cell_angle_beta   119.95153158
_cell_angle_gamma   90.03122795
_symmetry_Int_Tables_number   1
_chemical_formula_structural   Ti8Ga15Ru5Pt2
_chemical_formula_sum   'Ti8 Ga15 Ru5 Pt2'
_cell_volume   460.78490310
_cell_formula_units_Z   1
loop_
 _symmetry_equiv_pos_site_id
 _symmetry_equiv_pos_as_xyz
  1  'x, y, z'
loop_
 _atom_site_type_symbol
 _atom_site_label
 _atom_site_symmetry_multiplicity
 _atom_site_fract_x
 _atom_site_fract_y
 _atom_site_fract_z
 _atom_site_occupancy
  Ti  Ti0  1  0.794191  0.283932  0.065699  1
  Ti  Ti1  1  0.218189  0.284001  0.489392  1
  Ti  Ti2  1  0.208506  0.708752  0.500256  1
  Ti  Ti3  1  0.214265  0.723067  0.929528  1
  Ti  Ti4  1  0.793450  0.723348  0.508807  1
  Ti  Ti5  1  0.774617  0.279318  0.504524  1
  Ti  Ti6  1  0.384930  0.130524  0.745632  1
  Ti  Ti7  1  0.377084  0.630286  0.253175  1
  Ga  Ga8  1  0.992741  0.491594  0.498607  1
  Ga  Ga9  1  0.154537  0.352819  0.198034  1
  Ga  Ga10  1  0.150303  0.953443  0.803151  1
  Ga  Ga11  1  0.150624  0.357414  0.799425  1
  Ga  Ga12  1  0.557791  0.357489  0.206886  1
  Ga  Ga13  1  0.850444  0.650382  0.799750  1
  Ga  Ga14  1  0.852866  0.057985  0.205208  1
  Ga  Ga15  1  0.848369  0.644864  0.198513  1
  Ga  Ga16  1  0.446197  0.644854  0.796550  1
  Ga  Ga17  1  0.375115  0.124387  0.255823  1
  Ga  Ga18  1  0.868961  0.124741  0.749616  1
  Ga  Ga19  1  0.614843  0.865930  0.251067  1
  Ga  Ga20  1  0.619576  0.369523  0.750091  1
  Ga  Ga21  1  0.616421  0.871281  0.733557  1
  Ga  Ga22  1  0.138052  0.871547  0.255128  1
  Ru  Ru23  1  0.497369  0.496340  0.999093  1
  Ru  Ru24  1  0.499288  0.497322  0.499080  1
  Ru  Ru25  1  0.998760  0.497814  0.998272  1
  Ru  Ru26  1  0.999404  0.001752  0.002353  1
  Ru  Ru27  1  0.500738  0.001811  0.501392  1
  Pt  Pt28  1  0.002078  0.001719  0.501474  1
  Pt  Pt29  1  0.500285  0.001760  0.999918  1
