# generated using pymatgen
data_Pu4BeB14
_symmetry_space_group_name_H-M   'P 1'
_cell_length_a   7.20032800
_cell_length_b   7.20032800
_cell_length_c   7.40121700
_cell_angle_alpha   90.00000000
_cell_angle_beta   90.00000000
_cell_angle_gamma   90.00000000
_symmetry_Int_Tables_number   1
_chemical_formula_structural   Pu4BeB14
_chemical_formula_sum   'Pu8 Be2 B28'
_cell_volume   383.71404750
_cell_formula_units_Z   2
loop_
 _symmetry_equiv_pos_site_id
 _symmetry_equiv_pos_as_xyz
  1  'x, y, z'
loop_
 _atom_site_type_symbol
 _atom_site_label
 _atom_site_symmetry_multiplicity
 _atom_site_fract_x
 _atom_site_fract_y
 _atom_site_fract_z
 _atom_site_occupancy
  Pu  Pu0  1  0.196730  0.326987  0.000000  1
  Pu  Pu1  1  0.673013  0.196730  0.000000  1
  Pu  Pu2  1  0.326987  0.803270  0.000000  1
  Pu  Pu3  1  0.696730  0.173013  0.500000  1
  Pu  Pu4  1  0.303270  0.826987  0.500000  1
  Pu  Pu5  1  0.803270  0.673013  0.000000  1
  Pu  Pu6  1  0.826987  0.696730  0.500000  1
  Pu  Pu7  1  0.173013  0.303270  0.500000  1
  Be  Be8  1  0.000000  0.000000  0.000000  1
  Be  Be9  1  0.500000  0.500000  0.500000  1
  B  B10  1  0.174573  0.039876  0.227761  1
  B  B11  1  0.960124  0.174573  0.227761  1
  B  B12  1  0.039876  0.825427  0.227761  1
  B  B13  1  0.674573  0.460124  0.272239  1
  B  B14  1  0.325427  0.539876  0.272239  1
  B  B15  1  0.825427  0.960124  0.227761  1
  B  B16  1  0.539876  0.674573  0.272239  1
  B  B17  1  0.460124  0.325427  0.272239  1
  B  B18  1  0.825427  0.960124  0.772239  1
  B  B19  1  0.039876  0.825427  0.772239  1
  B  B20  1  0.960124  0.174573  0.772239  1
  B  B21  1  0.325427  0.539876  0.727761  1
  B  B22  1  0.674573  0.460124  0.727761  1
  B  B23  1  0.174573  0.039876  0.772239  1
  B  B24  1  0.460124  0.325427  0.727761  1
  B  B25  1  0.539876  0.674573  0.727761  1
  B  B26  1  0.088941  0.588941  0.250000  1
  B  B27  1  0.411059  0.088941  0.250000  1
  B  B28  1  0.588941  0.911059  0.250000  1
  B  B29  1  0.911059  0.411059  0.250000  1
  B  B30  1  0.911059  0.411059  0.750000  1
  B  B31  1  0.588941  0.911059  0.750000  1
  B  B32  1  0.411059  0.088941  0.750000  1
  B  B33  1  0.088941  0.588941  0.750000  1
  B  B34  1  0.000000  0.000000  0.388194  1
  B  B35  1  0.500000  0.500000  0.111806  1
  B  B36  1  0.000000  0.000000  0.611806  1
  B  B37  1  0.500000  0.500000  0.888194  1
