# generated using pymatgen
data_Ti2O2F9
_symmetry_space_group_name_H-M   'P 1'
_cell_length_a   5.18037104
_cell_length_b   5.47739259
_cell_length_c   7.97767386
_cell_angle_alpha   90.22383553
_cell_angle_beta   106.79930365
_cell_angle_gamma   119.48894173
_symmetry_Int_Tables_number   1
_chemical_formula_structural   Ti2O2F9
_chemical_formula_sum   'Ti2 O2 F9'
_cell_volume   185.70627904
_cell_formula_units_Z   1
loop_
 _symmetry_equiv_pos_site_id
 _symmetry_equiv_pos_as_xyz
  1  'x, y, z'
loop_
 _atom_site_type_symbol
 _atom_site_label
 _atom_site_symmetry_multiplicity
 _atom_site_fract_x
 _atom_site_fract_y
 _atom_site_fract_z
 _atom_site_occupancy
  Ti  Ti0  1  0.092848  0.690435  0.651648  1
  Ti  Ti1  1  0.219590  0.237820  0.338954  1
  O  O2  1  0.609477  0.367054  0.921824  1
  O  O3  1  0.662438  0.353401  0.073790  1
  F  F4  1  0.289771  0.984060  0.251545  1
  F  F5  1  0.427219  0.511403  0.218727  1
  F  F6  1  0.503099  0.934415  0.697588  1
  F  F7  1  0.838253  0.093706  0.144701  1
  F  F8  1  0.035912  0.854577  0.820787  1
  F  F9  1  0.083974  0.469374  0.440142  1
  F  F10  1  0.027918  0.957469  0.486296  1
  F  F11  1  0.138373  0.438875  0.782607  1
  F  F12  1  0.613551  0.429158  0.540741  1
