# generated using pymatgen
data_Ho16MgCd3Ni3Ru
_symmetry_space_group_name_H-M   'P 1'
_cell_length_a   9.56682036
_cell_length_b   9.56649551
_cell_length_c   9.56596842
_cell_angle_alpha   59.49140408
_cell_angle_beta   59.47622234
_cell_angle_gamma   59.48259684
_symmetry_Int_Tables_number   1
_chemical_formula_structural   Ho16MgCd3Ni3Ru
_chemical_formula_sum   'Ho16 Mg1 Cd3 Ni3 Ru1'
_cell_volume   611.78848472
_cell_formula_units_Z   1
loop_
 _symmetry_equiv_pos_site_id
 _symmetry_equiv_pos_as_xyz
  1  'x, y, z'
loop_
 _atom_site_type_symbol
 _atom_site_label
 _atom_site_symmetry_multiplicity
 _atom_site_fract_x
 _atom_site_fract_y
 _atom_site_fract_z
 _atom_site_occupancy
  Ho  Ho0  1  0.347806  0.347812  0.347335  1
  Ho  Ho1  1  0.349858  0.349985  0.956450  1
  Ho  Ho2  1  0.349832  0.956572  0.349926  1
  Ho  Ho3  1  0.956465  0.349556  0.350034  1
  Ho  Ho4  1  0.809831  0.188996  0.188875  1
  Ho  Ho5  1  0.186349  0.812631  0.812430  1
  Ho  Ho6  1  0.188865  0.809733  0.188928  1
  Ho  Ho7  1  0.812794  0.186404  0.812274  1
  Ho  Ho8  1  0.189062  0.189016  0.809884  1
  Ho  Ho9  1  0.812394  0.812615  0.186494  1
  Ho  Ho10  1  0.935628  0.566407  0.566733  1
  Ho  Ho11  1  0.559722  0.938160  0.938413  1
  Ho  Ho12  1  0.566412  0.935600  0.566848  1
  Ho  Ho13  1  0.937970  0.559981  0.938373  1
  Ho  Ho14  1  0.566749  0.566664  0.935434  1
  Ho  Ho15  1  0.937815  0.937714  0.560220  1
  Mg  Mg16  1  0.574868  0.574863  0.574932  1
  Cd  Cd17  1  0.579796  0.580014  0.254601  1
  Cd  Cd18  1  0.580104  0.254402  0.579921  1
  Cd  Cd19  1  0.254412  0.580106  0.579951  1
  Ni  Ni20  1  0.142861  0.142408  0.574764  1
  Ni  Ni21  1  0.141804  0.574924  0.142134  1
  Ni  Ni22  1  0.575165  0.142376  0.141782  1
  Ru  Ru23  1  0.143435  0.143062  0.143262  1
