# generated using pymatgen
data_Hf4GeAs7
_symmetry_space_group_name_H-M   'P 1'
_cell_length_a   3.70415000
_cell_length_b   6.77649832
_cell_length_c   9.05853246
_cell_angle_alpha   90.01289338
_cell_angle_beta   90.00000000
_cell_angle_gamma   90.00000000
_symmetry_Int_Tables_number   1
_chemical_formula_structural   Hf4GeAs7
_chemical_formula_sum   'Hf4 Ge1 As7'
_cell_volume   227.37972355
_cell_formula_units_Z   1
loop_
 _symmetry_equiv_pos_site_id
 _symmetry_equiv_pos_as_xyz
  1  'x, y, z'
loop_
 _atom_site_type_symbol
 _atom_site_label
 _atom_site_symmetry_multiplicity
 _atom_site_fract_x
 _atom_site_fract_y
 _atom_site_fract_z
 _atom_site_occupancy
  Hf  Hf0  1  0.000000  0.769294  0.660209  1
  Hf  Hf1  1  0.000000  0.271450  0.839564  1
  Hf  Hf2  1  0.500000  0.229564  0.335017  1
  Hf  Hf3  1  0.500000  0.731025  0.164824  1
  Ge  Ge4  1  0.000000  0.372537  0.543618  1
  As  As5  1  0.000000  0.420287  0.146879  1
  As  As6  1  0.000000  0.921541  0.350750  1
  As  As7  1  0.500000  0.583909  0.851792  1
  As  As8  1  0.500000  0.087960  0.647643  1
  As  As9  1  0.000000  0.877449  0.957099  1
  As  As10  1  0.500000  0.613223  0.460136  1
  As  As11  1  0.500000  0.121759  0.042469  1
