# generated using pymatgen
data_Ce4In2IrPtRh2
_symmetry_space_group_name_H-M   'P 1'
_cell_length_a   7.73163237
_cell_length_b   7.73017606
_cell_length_c   3.73680700
_cell_angle_alpha   90.00000000
_cell_angle_beta   90.00000000
_cell_angle_gamma   90.18207123
_symmetry_Int_Tables_number   1
_chemical_formula_structural   Ce4In2IrPtRh2
_chemical_formula_sum   'Ce4 In2 Ir1 Pt1 Rh2'
_cell_volume   223.33616587
_cell_formula_units_Z   1
loop_
 _symmetry_equiv_pos_site_id
 _symmetry_equiv_pos_as_xyz
  1  'x, y, z'
loop_
 _atom_site_type_symbol
 _atom_site_label
 _atom_site_symmetry_multiplicity
 _atom_site_fract_x
 _atom_site_fract_y
 _atom_site_fract_z
 _atom_site_occupancy
  Ce  Ce0  1  0.669888  0.174404  0.500000  1
  Ce  Ce1  1  0.324671  0.829232  0.500000  1
  Ce  Ce2  1  0.172123  0.331485  0.500000  1
  Ce  Ce3  1  0.837941  0.665337  0.500000  1
  In  In4  1  0.001762  0.001856  0.000000  1
  In  In5  1  0.500554  0.498679  0.000000  1
  Ir  Ir6  1  0.133680  0.632788  0.000000  1
  Pt  Pt7  1  0.632803  0.868239  0.000000  1
  Rh  Rh8  1  0.861835  0.361332  0.000000  1
  Rh  Rh9  1  0.364742  0.136649  0.000000  1
