# generated using pymatgen
data_La8SmHo(In3Br)2
_symmetry_space_group_name_H-M   'P 1'
_cell_length_a   9.74077900
_cell_length_b   9.74077919
_cell_length_c   6.89774200
_cell_angle_alpha   90.00000000
_cell_angle_beta   90.00000000
_cell_angle_gamma   120.00000274
_symmetry_Int_Tables_number   1
_chemical_formula_structural   La8SmHo(In3Br)2
_chemical_formula_sum   'La8 Sm1 Ho1 In6 Br2'
_cell_volume   566.79362216
_cell_formula_units_Z   1
loop_
 _symmetry_equiv_pos_site_id
 _symmetry_equiv_pos_as_xyz
  1  'x, y, z'
loop_
 _atom_site_type_symbol
 _atom_site_label
 _atom_site_symmetry_multiplicity
 _atom_site_fract_x
 _atom_site_fract_y
 _atom_site_fract_z
 _atom_site_occupancy
  La  La0  1  0.733607  0.732676  0.252935  1
  La  La1  1  0.999069  0.732676  0.747065  1
  La  La2  1  0.733607  0.000931  0.747065  1
  La  La3  1  0.267324  0.266393  0.747065  1
  La  La4  1  0.999069  0.266393  0.252935  1
  La  La5  1  0.267324  0.000931  0.252935  1
  La  La6  1  0.333333  0.666667  0.000000  1
  La  La7  1  0.666667  0.333333  0.000000  1
  Sm  Sm8  1  0.333333  0.666667  0.500000  1
  Ho  Ho9  1  0.666667  0.333333  0.500000  1
  In  In10  1  0.393555  0.001635  0.743570  1
  In  In11  1  0.998365  0.606445  0.256430  1
  In  In12  1  0.608080  0.001635  0.256430  1
  In  In13  1  0.998365  0.391920  0.743570  1
  In  In14  1  0.393555  0.391920  0.256430  1
  In  In15  1  0.608080  0.606445  0.743570  1
  Br  Br16  1  0.000000  0.000000  0.500000  1
  Br  Br17  1  0.000000  0.000000  0.000000  1
