# generated using pymatgen
data_Tb2U3P7Rh9
_symmetry_space_group_name_H-M   'P 1'
_cell_length_a   4.04507910
_cell_length_b   9.92088353
_cell_length_c   9.94525630
_cell_angle_alpha   119.88896909
_cell_angle_beta   90.00068836
_cell_angle_gamma   90.00080293
_symmetry_Int_Tables_number   1
_chemical_formula_structural   Tb2U3P7Rh9
_chemical_formula_sum   'Tb2 U3 P7 Rh9'
_cell_volume   346.02604805
_cell_formula_units_Z   1
loop_
 _symmetry_equiv_pos_site_id
 _symmetry_equiv_pos_as_xyz
  1  'x, y, z'
loop_
 _atom_site_type_symbol
 _atom_site_label
 _atom_site_symmetry_multiplicity
 _atom_site_fract_x
 _atom_site_fract_y
 _atom_site_fract_z
 _atom_site_occupancy
  Tb  Tb0  1  0.261561  0.666189  0.332865  1
  Tb  Tb1  1  0.762285  0.333766  0.667224  1
  U  U2  1  0.761967  0.104764  0.873414  1
  U  U3  1  0.762024  0.129359  0.236685  1
  U  U4  1  0.761918  0.768106  0.892773  1
  P  P5  1  0.262052  0.000353  0.002598  1
  P  P6  1  0.761536  0.846955  0.577255  1
  P  P7  1  0.761552  0.422378  0.269582  1
  P  P8  1  0.761609  0.730321  0.151646  1
  P  P9  1  0.262127  0.107310  0.437236  1
  P  P10  1  0.261889  0.564086  0.670807  1
  P  P11  1  0.262058  0.329029  0.892183  1
  Rh  Rh12  1  0.261721  0.881055  0.178116  1
  Rh  Rh13  1  0.261495  0.821916  0.699618  1
  Rh  Rh14  1  0.261532  0.294276  0.118288  1
  Rh  Rh15  1  0.761731  0.588727  0.542129  1
  Rh  Rh16  1  0.761863  0.456986  0.046109  1
  Rh  Rh17  1  0.761962  0.952854  0.410657  1
  Rh  Rh18  1  0.262163  0.342630  0.427417  1
  Rh  Rh19  1  0.262345  0.573567  0.914956  1
  Rh  Rh20  1  0.262608  0.085373  0.658443  1
