# generated using pymatgen
data_KNdSc2O5
_symmetry_space_group_name_H-M   'P 1'
_cell_length_a   4.04545200
_cell_length_b   4.00691300
_cell_length_c   8.13811700
_cell_angle_alpha   90.00000000
_cell_angle_beta   90.00000000
_cell_angle_gamma   90.00000000
_symmetry_Int_Tables_number   1
_chemical_formula_structural   KNdSc2O5
_chemical_formula_sum   'K1 Nd1 Sc2 O5'
_cell_volume   131.91703906
_cell_formula_units_Z   1
loop_
 _symmetry_equiv_pos_site_id
 _symmetry_equiv_pos_as_xyz
  1  'x, y, z'
loop_
 _atom_site_type_symbol
 _atom_site_label
 _atom_site_symmetry_multiplicity
 _atom_site_fract_x
 _atom_site_fract_y
 _atom_site_fract_z
 _atom_site_occupancy
  K  K0  1  0.500001  0.499999  0.500000  1
  Nd  Nd1  1  0.500001  0.499999  0.000000  1
  Sc  Sc2  1  0.000000  0.000000  0.256413  1
  Sc  Sc3  1  0.000000  0.000000  0.743586  1
  O  O4  1  0.000000  0.499999  0.179535  1
  O  O5  1  0.500001  0.000000  0.182673  1
  O  O6  1  0.000000  0.000000  0.500000  1
  O  O7  1  0.500001  0.000000  0.817327  1
  O  O8  1  0.000000  0.499999  0.820464  1
