# generated using pymatgen
data_YTmCo4(PIr)6
_symmetry_space_group_name_H-M   'P 1'
_cell_length_a   3.85818500
_cell_length_b   10.58089000
_cell_length_c   12.19623600
_cell_angle_alpha   90.00000000
_cell_angle_beta   90.00000000
_cell_angle_gamma   90.00000000
_symmetry_Int_Tables_number   1
_chemical_formula_structural   YTmCo4(PIr)6
_chemical_formula_sum   'Y2 Tm2 Co8 P12 Ir12'
_cell_volume   497.88732134
_cell_formula_units_Z   2
loop_
 _symmetry_equiv_pos_site_id
 _symmetry_equiv_pos_as_xyz
  1  'x, y, z'
loop_
 _atom_site_type_symbol
 _atom_site_label
 _atom_site_symmetry_multiplicity
 _atom_site_fract_x
 _atom_site_fract_y
 _atom_site_fract_z
 _atom_site_occupancy
  Y  Y0  1  0.250000  0.583958  0.711021  1
  Y  Y1  1  0.250000  0.916042  0.211021  1
  Tm  Tm2  1  0.750000  0.415289  0.289288  1
  Tm  Tm3  1  0.750000  0.084711  0.789288  1
  Co  Co4  1  0.250000  0.883761  0.697239  1
  Co  Co5  1  0.250000  0.616239  0.197239  1
  Co  Co6  1  0.750000  0.117226  0.303256  1
  Co  Co7  1  0.750000  0.382774  0.803256  1
  Co  Co8  1  0.250000  0.463167  0.934680  1
  Co  Co9  1  0.250000  0.036833  0.434680  1
  Co  Co10  1  0.750000  0.535460  0.067510  1
  Co  Co11  1  0.750000  0.964540  0.567510  1
  P  P12  1  0.250000  0.432610  0.112187  1
  P  P13  1  0.250000  0.067390  0.612187  1
  P  P14  1  0.750000  0.567276  0.890002  1
  P  P15  1  0.750000  0.932724  0.390002  1
  P  P16  1  0.250000  0.274275  0.869609  1
  P  P17  1  0.250000  0.225725  0.369609  1
  P  P18  1  0.750000  0.725734  0.129213  1
  P  P19  1  0.750000  0.774266  0.629213  1
  P  P20  1  0.250000  0.597607  0.376159  1
  P  P21  1  0.250000  0.902393  0.876159  1
  P  P22  1  0.750000  0.401895  0.623148  1
  P  P23  1  0.750000  0.098105  0.123148  1
  Ir  Ir24  1  0.250000  0.723443  0.990510  1
  Ir  Ir25  1  0.250000  0.776557  0.490510  1
  Ir  Ir26  1  0.750000  0.276320  0.008992  1
  Ir  Ir27  1  0.750000  0.223680  0.508992  1
  Ir  Ir28  1  0.250000  0.410306  0.474555  1
  Ir  Ir29  1  0.250000  0.089694  0.974555  1
  Ir  Ir30  1  0.750000  0.589015  0.522757  1
  Ir  Ir31  1  0.750000  0.910985  0.022757  1
  Ir  Ir32  1  0.250000  0.228159  0.178478  1
  Ir  Ir33  1  0.250000  0.271841  0.678478  1
  Ir  Ir34  1  0.750000  0.772422  0.821396  1
  Ir  Ir35  1  0.750000  0.727578  0.321396  1
