# generated using pymatgen
data_Er10CdIn4Hg3Pd4
_symmetry_space_group_name_H-M   'P 1'
_cell_length_a   3.59504900
_cell_length_b   8.00479126
_cell_length_c   18.22486209
_cell_angle_alpha   90.08585319
_cell_angle_beta   90.00000000
_cell_angle_gamma   90.00000000
_symmetry_Int_Tables_number   1
_chemical_formula_structural   Er10CdIn4Hg3Pd4
_chemical_formula_sum   'Er10 Cd1 In4 Hg3 Pd4'
_cell_volume   524.46750878
_cell_formula_units_Z   1
loop_
 _symmetry_equiv_pos_site_id
 _symmetry_equiv_pos_as_xyz
  1  'x, y, z'
loop_
 _atom_site_type_symbol
 _atom_site_label
 _atom_site_symmetry_multiplicity
 _atom_site_fract_x
 _atom_site_fract_y
 _atom_site_fract_z
 _atom_site_occupancy
  Er  Er0  1  0.000000  0.499482  0.499628  1
  Er  Er1  1  0.000000  0.004648  0.002114  1
  Er  Er2  1  0.000000  0.745230  0.285193  1
  Er  Er3  1  0.000000  0.254365  0.715941  1
  Er  Er4  1  0.000000  0.753320  0.782387  1
  Er  Er5  1  0.000000  0.245361  0.214615  1
  Er  Er6  1  0.000000  0.610523  0.083882  1
  Er  Er7  1  0.000000  0.386848  0.915966  1
  Er  Er8  1  0.000000  0.890437  0.583465  1
  Er  Er9  1  0.000000  0.109388  0.416205  1
  Cd  Cd10  1  0.500000  0.713011  0.932902  1
  In  In11  1  0.500000  0.578848  0.648227  1
  In  In12  1  0.500000  0.419459  0.350662  1
  In  In13  1  0.500000  0.919210  0.149196  1
  In  In14  1  0.500000  0.074409  0.852325  1
  Hg  Hg15  1  0.500000  0.291703  0.066048  1
  Hg  Hg16  1  0.500000  0.787547  0.434245  1
  Hg  Hg17  1  0.500000  0.212312  0.566325  1
  Pd  Pd18  1  0.500000  0.533780  0.198349  1
  Pd  Pd19  1  0.500000  0.468863  0.802750  1
  Pd  Pd20  1  0.500000  0.967621  0.697867  1
  Pd  Pd21  1  0.500000  0.033636  0.301710  1
