# generated using pymatgen
data_NbTe5Pt
_symmetry_space_group_name_H-M   'P 1'
_cell_length_a   7.42855004
_cell_length_b   7.42854992
_cell_length_c   15.74577400
_cell_angle_alpha   90.00000000
_cell_angle_beta   90.00000000
_cell_angle_gamma   150.72404843
_symmetry_Int_Tables_number   1
_chemical_formula_structural   NbTe5Pt
_chemical_formula_sum   'Nb2 Te10 Pt2'
_cell_volume   424.90859861
_cell_formula_units_Z   2
loop_
 _symmetry_equiv_pos_site_id
 _symmetry_equiv_pos_as_xyz
  1  'x, y, z'
loop_
 _atom_site_type_symbol
 _atom_site_label
 _atom_site_symmetry_multiplicity
 _atom_site_fract_x
 _atom_site_fract_y
 _atom_site_fract_z
 _atom_site_occupancy
  Nb  Nb0  1  0.506837  0.493163  0.750000  1
  Nb  Nb1  1  0.493163  0.506837  0.250000  1
  Te  Te2  1  0.158552  0.841448  0.750000  1
  Te  Te3  1  0.841448  0.158552  0.250000  1
  Te  Te4  1  0.399117  0.600883  0.085084  1
  Te  Te5  1  0.600883  0.399117  0.914916  1
  Te  Te6  1  0.903021  0.096979  0.851692  1
  Te  Te7  1  0.096979  0.903021  0.148308  1
  Te  Te8  1  0.096979  0.903021  0.351692  1
  Te  Te9  1  0.903021  0.096979  0.648308  1
  Te  Te10  1  0.399117  0.600883  0.414916  1
  Te  Te11  1  0.600883  0.399117  0.585084  1
  Pt  Pt12  1  0.000000  0.000000  0.000000  1
  Pt  Pt13  1  0.000000  0.000000  0.500000  1
