# generated using pymatgen
data_SmEr2Si6Pd19Pt
_symmetry_space_group_name_H-M   'P 1'
_cell_length_a   8.71851309
_cell_length_b   8.71851174
_cell_length_c   8.71851200
_cell_angle_alpha   59.90228829
_cell_angle_beta   59.90229343
_cell_angle_gamma   59.90229512
_symmetry_Int_Tables_number   1
_chemical_formula_structural   SmEr2Si6Pd19Pt
_chemical_formula_sum   'Sm1 Er2 Si6 Pd19 Pt1'
_cell_volume   467.57190862
_cell_formula_units_Z   1
loop_
 _symmetry_equiv_pos_site_id
 _symmetry_equiv_pos_as_xyz
  1  'x, y, z'
loop_
 _atom_site_type_symbol
 _atom_site_label
 _atom_site_symmetry_multiplicity
 _atom_site_fract_x
 _atom_site_fract_y
 _atom_site_fract_z
 _atom_site_occupancy
  Sm  Sm0  1  0.749957  0.749957  0.749957  1
  Er  Er1  1  0.250431  0.250431  0.250431  1
  Er  Er2  1  0.999964  0.999964  0.999964  1
  Si  Si3  1  0.731265  0.268019  0.268019  1
  Si  Si4  1  0.267704  0.732744  0.732744  1
  Si  Si5  1  0.268019  0.731265  0.268019  1
  Si  Si6  1  0.732744  0.267704  0.732744  1
  Si  Si7  1  0.268019  0.268019  0.731265  1
  Si  Si8  1  0.732744  0.732744  0.267704  1
  Pd  Pd9  1  0.614973  0.614973  0.614973  1
  Pd  Pd10  1  0.382461  0.382461  0.852041  1
  Pd  Pd11  1  0.382461  0.852041  0.382461  1
  Pd  Pd12  1  0.616468  0.616468  0.153588  1
  Pd  Pd13  1  0.616468  0.153588  0.616468  1
  Pd  Pd14  1  0.852041  0.382461  0.382461  1
  Pd  Pd15  1  0.153588  0.616468  0.616468  1
  Pd  Pd16  1  0.344279  0.000129  0.000129  1
  Pd  Pd17  1  0.653899  0.000763  0.000763  1
  Pd  Pd18  1  0.000428  0.343809  0.654365  1
  Pd  Pd19  1  0.000428  0.654365  0.343809  1
  Pd  Pd20  1  0.000129  0.344279  0.000129  1
  Pd  Pd21  1  0.654365  0.000428  0.343809  1
  Pd  Pd22  1  0.000763  0.653899  0.000763  1
  Pd  Pd23  1  0.343809  0.000428  0.654365  1
  Pd  Pd24  1  0.000129  0.000129  0.344279  1
  Pd  Pd25  1  0.000763  0.000763  0.653899  1
  Pd  Pd26  1  0.654365  0.343809  0.000428  1
  Pd  Pd27  1  0.343809  0.654365  0.000428  1
  Pt  Pt28  1  0.383528  0.383528  0.383528  1
