# generated using pymatgen
data_TmPa2(AlRh)3
_symmetry_space_group_name_H-M   'P 1'
_cell_length_a   6.94805800
_cell_length_b   7.07703036
_cell_length_c   4.03093600
_cell_angle_alpha   90.00000000
_cell_angle_beta   90.00000000
_cell_angle_gamma   119.39897068
_symmetry_Int_Tables_number   1
_chemical_formula_structural   TmPa2(AlRh)3
_chemical_formula_sum   'Tm1 Pa2 Al3 Rh3'
_cell_volume   172.68298376
_cell_formula_units_Z   1
loop_
 _symmetry_equiv_pos_site_id
 _symmetry_equiv_pos_as_xyz
  1  'x, y, z'
loop_
 _atom_site_type_symbol
 _atom_site_label
 _atom_site_symmetry_multiplicity
 _atom_site_fract_x
 _atom_site_fract_y
 _atom_site_fract_z
 _atom_site_occupancy
  Tm  Tm0  1  0.413998  0.000000  0.000000  1
  Pa  Pa1  1  0.002472  0.421268  0.000000  1
  Pa  Pa2  1  0.581203  0.578732  0.000000  1
  Al  Al3  1  0.235013  0.224861  0.500000  1
  Al  Al4  1  0.010153  0.775139  0.500000  1
  Al  Al5  1  0.750904  0.000000  0.500000  1
  Rh  Rh6  1  0.693076  0.362313  0.500000  1
  Rh  Rh7  1  0.330761  0.637687  0.500000  1
  Rh  Rh8  1  0.982419  0.000000  0.000000  1
