# generated using pymatgen
data_LiScCo4(NiP)6
_symmetry_space_group_name_H-M   'P 1'
_cell_length_a   3.57766200
_cell_length_b   10.18442300
_cell_length_c   11.71743200
_cell_angle_alpha   90.00000000
_cell_angle_beta   90.00000000
_cell_angle_gamma   90.00000000
_symmetry_Int_Tables_number   1
_chemical_formula_structural   LiScCo4(NiP)6
_chemical_formula_sum   'Li2 Sc2 Co8 Ni12 P12'
_cell_volume   426.94131069
_cell_formula_units_Z   2
loop_
 _symmetry_equiv_pos_site_id
 _symmetry_equiv_pos_as_xyz
  1  'x, y, z'
loop_
 _atom_site_type_symbol
 _atom_site_label
 _atom_site_symmetry_multiplicity
 _atom_site_fract_x
 _atom_site_fract_y
 _atom_site_fract_z
 _atom_site_occupancy
  Li  Li0  1  0.250000  0.577351  0.703530  1
  Li  Li1  1  0.250000  0.922649  0.203530  1
  Sc  Sc2  1  0.750000  0.420792  0.295013  1
  Sc  Sc3  1  0.750000  0.079208  0.795013  1
  Co  Co4  1  0.250000  0.876997  0.700277  1
  Co  Co5  1  0.250000  0.623003  0.200277  1
  Co  Co6  1  0.750000  0.123506  0.300110  1
  Co  Co7  1  0.750000  0.376494  0.800110  1
  Co  Co8  1  0.250000  0.465789  0.930493  1
  Co  Co9  1  0.250000  0.034211  0.430493  1
  Co  Co10  1  0.750000  0.539813  0.066281  1
  Co  Co11  1  0.750000  0.960187  0.566281  1
  Ni  Ni12  1  0.250000  0.716524  0.990961  1
  Ni  Ni13  1  0.250000  0.783476  0.490961  1
  Ni  Ni14  1  0.750000  0.285717  0.010837  1
  Ni  Ni15  1  0.750000  0.214283  0.510837  1
  Ni  Ni16  1  0.250000  0.406566  0.484638  1
  Ni  Ni17  1  0.250000  0.093434  0.984638  1
  Ni  Ni18  1  0.750000  0.589651  0.517377  1
  Ni  Ni19  1  0.750000  0.910349  0.017377  1
  Ni  Ni20  1  0.250000  0.227478  0.174960  1
  Ni  Ni21  1  0.250000  0.272523  0.674960  1
  Ni  Ni22  1  0.750000  0.777043  0.825978  1
  Ni  Ni23  1  0.750000  0.722957  0.325978  1
  P  P24  1  0.250000  0.428487  0.114839  1
  P  P25  1  0.250000  0.071513  0.614839  1
  P  P26  1  0.750000  0.574982  0.880159  1
  P  P27  1  0.750000  0.925018  0.380159  1
  P  P28  1  0.250000  0.265634  0.866330  1
  P  P29  1  0.250000  0.234366  0.366330  1
  P  P30  1  0.750000  0.739198  0.135778  1
  P  P31  1  0.750000  0.760802  0.635778  1
  P  P32  1  0.250000  0.598045  0.388277  1
  P  P33  1  0.250000  0.901955  0.888277  1
  P  P34  1  0.750000  0.401649  0.614162  1
  P  P35  1  0.750000  0.098351  0.114162  1
