# generated using pymatgen
data_Sc5Co16(P4Rh)3
_symmetry_space_group_name_H-M   'P 1'
_cell_length_a   11.89919200
_cell_length_b   11.89919152
_cell_length_c   3.62394900
_cell_angle_alpha   90.00000000
_cell_angle_beta   90.00000000
_cell_angle_gamma   120.00000134
_symmetry_Int_Tables_number   1
_chemical_formula_structural   Sc5Co16(P4Rh)3
_chemical_formula_sum   'Sc5 Co16 P12 Rh3'
_cell_volume   444.37296555
_cell_formula_units_Z   1
loop_
 _symmetry_equiv_pos_site_id
 _symmetry_equiv_pos_as_xyz
  1  'x, y, z'
loop_
 _atom_site_type_symbol
 _atom_site_label
 _atom_site_symmetry_multiplicity
 _atom_site_fract_x
 _atom_site_fract_y
 _atom_site_fract_z
 _atom_site_occupancy
  Sc  Sc0  1  0.818813  0.000000  0.500000  1
  Sc  Sc1  1  0.000000  0.818813  0.500000  1
  Sc  Sc2  1  0.181187  0.181187  0.500000  1
  Sc  Sc3  1  0.333333  0.666667  0.000000  1
  Sc  Sc4  1  0.666667  0.333333  0.000000  1
  Co  Co5  1  0.282210  0.000000  0.500000  1
  Co  Co6  1  0.000000  0.282210  0.500000  1
  Co  Co7  1  0.717790  0.717790  0.500000  1
  Co  Co8  1  0.626267  0.805281  0.000000  1
  Co  Co9  1  0.194719  0.820986  0.000000  1
  Co  Co10  1  0.179014  0.373733  0.000000  1
  Co  Co11  1  0.373733  0.179014  0.000000  1
  Co  Co12  1  0.805281  0.626267  0.000000  1
  Co  Co13  1  0.820986  0.194719  0.000000  1
  Co  Co14  1  0.516552  0.872018  0.500000  1
  Co  Co15  1  0.127982  0.644533  0.500000  1
  Co  Co16  1  0.355467  0.483448  0.500000  1
  Co  Co17  1  0.483448  0.355467  0.500000  1
  Co  Co18  1  0.872018  0.516552  0.500000  1
  Co  Co19  1  0.644533  0.127982  0.500000  1
  Co  Co20  1  0.000000  0.000000  0.000000  1
  P  P21  1  0.177335  0.000000  0.000000  1
  P  P22  1  0.000000  0.177335  0.000000  1
  P  P23  1  0.822665  0.822665  0.000000  1
  P  P24  1  0.517416  0.686546  0.500000  1
  P  P25  1  0.313454  0.830870  0.500000  1
  P  P26  1  0.169130  0.482584  0.500000  1
  P  P27  1  0.482584  0.169130  0.500000  1
  P  P28  1  0.686546  0.517416  0.500000  1
  P  P29  1  0.830870  0.313454  0.500000  1
  P  P30  1  0.643721  0.000000  0.000000  1
  P  P31  1  0.000000  0.643721  0.000000  1
  P  P32  1  0.356279  0.356279  0.000000  1
  Rh  Rh33  1  0.450025  0.000000  0.000000  1
  Rh  Rh34  1  0.000000  0.450025  0.000000  1
  Rh  Rh35  1  0.549975  0.549975  0.000000  1
