# generated using pymatgen
data_Hf4Zr6Sb7
_symmetry_space_group_name_H-M   'P 1'
_cell_length_a   5.86791206
_cell_length_b   8.64012123
_cell_length_c   8.64012907
_cell_angle_alpha   120.00267195
_cell_angle_beta   89.98595701
_cell_angle_gamma   90.00085847
_symmetry_Int_Tables_number   1
_chemical_formula_structural   Hf4Zr6Sb7
_chemical_formula_sum   'Hf4 Zr6 Sb7'
_cell_volume   379.35218024
_cell_formula_units_Z   1
loop_
 _symmetry_equiv_pos_site_id
 _symmetry_equiv_pos_as_xyz
  1  'x, y, z'
loop_
 _atom_site_type_symbol
 _atom_site_label
 _atom_site_symmetry_multiplicity
 _atom_site_fract_x
 _atom_site_fract_y
 _atom_site_fract_z
 _atom_site_occupancy
  Hf  Hf0  1  0.500014  0.333330  0.666664  1
  Hf  Hf1  1  0.499986  0.666670  0.333336  1
  Hf  Hf2  1  0.999985  0.666698  0.333355  1
  Hf  Hf3  1  0.000013  0.333303  0.666643  1
  Zr  Zr4  1  0.774307  0.268126  0.999998  1
  Zr  Zr5  1  0.774318  0.731871  0.731879  1
  Zr  Zr6  1  0.774315  0.999976  0.268117  1
  Zr  Zr7  1  0.225693  0.731873  0.000000  1
  Zr  Zr8  1  0.225681  0.268128  0.268123  1
  Zr  Zr9  1  0.225683  0.000024  0.731884  1
  Sb  Sb10  1  0.746093  0.611126  0.000014  1
  Sb  Sb11  1  0.746071  0.388852  0.388869  1
  Sb  Sb12  1  0.746135  0.000003  0.611129  1
  Sb  Sb13  1  0.253906  0.388874  0.999983  1
  Sb  Sb14  1  0.253928  0.611148  0.611133  1
  Sb  Sb15  1  0.253868  0.999999  0.388872  1
  Sb  Sb16  1  0.499999  0.000000  0.000001  1
