# generated using pymatgen
data_Yb4PrEr5Sn8
_symmetry_space_group_name_H-M   'P 1'
_cell_length_a   7.85216100
_cell_length_b   8.39642680
_cell_length_c   15.81035150
_cell_angle_alpha   90.04994054
_cell_angle_beta   90.00000000
_cell_angle_gamma   90.00000000
_symmetry_Int_Tables_number   1
_chemical_formula_structural   Yb4PrEr5Sn8
_chemical_formula_sum   'Yb8 Pr2 Er10 Sn16'
_cell_volume   1042.37758111
_cell_formula_units_Z   2
loop_
 _symmetry_equiv_pos_site_id
 _symmetry_equiv_pos_as_xyz
  1  'x, y, z'
loop_
 _atom_site_type_symbol
 _atom_site_label
 _atom_site_symmetry_multiplicity
 _atom_site_fract_x
 _atom_site_fract_y
 _atom_site_fract_z
 _atom_site_occupancy
  Yb  Yb0  1  0.496146  0.312231  0.091271  1
  Yb  Yb1  1  0.996146  0.187769  0.408729  1
  Yb  Yb2  1  0.495622  0.312683  0.408641  1
  Yb  Yb3  1  0.995622  0.187317  0.091359  1
  Yb  Yb4  1  0.502258  0.683997  0.906035  1
  Yb  Yb5  1  0.002258  0.816003  0.593965  1
  Yb  Yb6  1  0.164347  0.489129  0.249988  1
  Yb  Yb7  1  0.664347  0.010871  0.250012  1
  Pr  Pr8  1  0.503312  0.683368  0.594143  1
  Pr  Pr9  1  0.003312  0.816632  0.905857  1
  Er  Er10  1  0.675482  0.163171  0.624239  1
  Er  Er11  1  0.175482  0.336829  0.875761  1
  Er  Er12  1  0.326365  0.834600  0.121584  1
  Er  Er13  1  0.826365  0.665400  0.378416  1
  Er  Er14  1  0.326096  0.834757  0.378265  1
  Er  Er15  1  0.826096  0.665243  0.121735  1
  Er  Er16  1  0.674846  0.162830  0.875389  1
  Er  Er17  1  0.174846  0.337170  0.624611  1
  Er  Er18  1  0.837375  0.508015  0.750090  1
  Er  Er19  1  0.337375  0.991985  0.749910  1
  Sn  Sn20  1  0.672822  0.961767  0.460413  1
  Sn  Sn21  1  0.172822  0.538233  0.039587  1
  Sn  Sn22  1  0.328477  0.036303  0.955902  1
  Sn  Sn23  1  0.828477  0.463697  0.544098  1
  Sn  Sn24  1  0.328114  0.035428  0.544146  1
  Sn  Sn25  1  0.828114  0.464572  0.955854  1
  Sn  Sn26  1  0.673452  0.961324  0.039640  1
  Sn  Sn27  1  0.173452  0.538676  0.460360  1
  Sn  Sn28  1  0.477048  0.370673  0.750177  1
  Sn  Sn29  1  0.977048  0.129327  0.749823  1
  Sn  Sn30  1  0.527941  0.627361  0.249980  1
  Sn  Sn31  1  0.027941  0.872639  0.250020  1
  Sn  Sn32  1  0.708994  0.859629  0.750197  1
  Sn  Sn33  1  0.208994  0.640371  0.749803  1
  Sn  Sn34  1  0.281302  0.127776  0.249939  1
  Sn  Sn35  1  0.781302  0.372224  0.250061  1
