# generated using pymatgen
data_Ho8Tm2In8IrPt3
_symmetry_space_group_name_H-M   'P 1'
_cell_length_a   3.61437600
_cell_length_b   8.12365100
_cell_length_c   18.18617924
_cell_angle_alpha   90.00772943
_cell_angle_beta   90.00000000
_cell_angle_gamma   90.00000000
_symmetry_Int_Tables_number   1
_chemical_formula_structural   Ho8Tm2In8IrPt3
_chemical_formula_sum   'Ho8 Tm2 In8 Ir1 Pt3'
_cell_volume   533.98130285
_cell_formula_units_Z   1
loop_
 _symmetry_equiv_pos_site_id
 _symmetry_equiv_pos_as_xyz
  1  'x, y, z'
loop_
 _atom_site_type_symbol
 _atom_site_label
 _atom_site_symmetry_multiplicity
 _atom_site_fract_x
 _atom_site_fract_y
 _atom_site_fract_z
 _atom_site_occupancy
  Ho  Ho0  1  0.000000  0.383982  0.915499  1
  Ho  Ho1  1  0.000000  0.616066  0.086274  1
  Ho  Ho2  1  0.000000  0.234459  0.222784  1
  Ho  Ho3  1  0.000000  0.758854  0.779565  1
  Ho  Ho4  1  0.000000  0.258219  0.721216  1
  Ho  Ho5  1  0.000000  0.751034  0.278479  1
  Ho  Ho6  1  0.000000  0.000022  0.000167  1
  Ho  Ho7  1  0.000000  0.500806  0.499284  1
  Tm  Tm8  1  0.000000  0.113714  0.411842  1
  Tm  Tm9  1  0.000000  0.884264  0.585304  1
  In  In10  1  0.500000  0.423299  0.351129  1
  In  In11  1  0.500000  0.577521  0.648464  1
  In  In12  1  0.500000  0.076660  0.851742  1
  In  In13  1  0.500000  0.927038  0.148458  1
  In  In14  1  0.500000  0.291230  0.067143  1
  In  In15  1  0.500000  0.708314  0.933777  1
  In  In16  1  0.500000  0.208414  0.566362  1
  In  In17  1  0.500000  0.793118  0.431633  1
  Ir  Ir18  1  0.500000  0.020049  0.304409  1
  Pt  Pt19  1  0.500000  0.975992  0.695819  1
  Pt  Pt20  1  0.500000  0.476720  0.803829  1
  Pt  Pt21  1  0.500000  0.520225  0.196820  1
