# generated using pymatgen
data_Dy4Al2Si3Ge
_symmetry_space_group_name_H-M   'P 1'
_cell_length_a   6.90738900
_cell_length_b   6.90738900
_cell_length_c   4.29809300
_cell_angle_alpha   90.00000000
_cell_angle_beta   90.00000000
_cell_angle_gamma   89.99933641
_symmetry_Int_Tables_number   1
_chemical_formula_structural   Dy4Al2Si3Ge
_chemical_formula_sum   'Dy4 Al2 Si3 Ge1'
_cell_volume   205.07071119
_cell_formula_units_Z   1
loop_
 _symmetry_equiv_pos_site_id
 _symmetry_equiv_pos_as_xyz
  1  'x, y, z'
loop_
 _atom_site_type_symbol
 _atom_site_label
 _atom_site_symmetry_multiplicity
 _atom_site_fract_x
 _atom_site_fract_y
 _atom_site_fract_z
 _atom_site_occupancy
  Dy  Dy0  1  0.319391  0.822715  0.500000  1
  Dy  Dy1  1  0.824055  0.675945  0.500000  1
  Dy  Dy2  1  0.177629  0.322371  0.500000  1
  Dy  Dy3  1  0.677285  0.180609  0.500000  1
  Al  Al4  1  0.497880  0.495216  0.000000  1
  Al  Al5  1  0.004784  0.002120  0.000000  1
  Si  Si6  1  0.877741  0.376758  0.000000  1
  Si  Si7  1  0.373722  0.126278  0.000000  1
  Si  Si8  1  0.123242  0.622259  0.000000  1
  Ge  Ge9  1  0.624273  0.875727  0.000000  1
