# generated using pymatgen
data_La5Ho2ThSb20
_symmetry_space_group_name_H-M   'P 1'
_cell_length_a   4.29574300
_cell_length_b   13.64999754
_cell_length_c   15.27987600
_cell_angle_alpha   78.82318013
_cell_angle_beta   90.00000000
_cell_angle_gamma   90.00000000
_symmetry_Int_Tables_number   1
_chemical_formula_structural   La5Ho2ThSb20
_chemical_formula_sum   'La5 Ho2 Th1 Sb20'
_cell_volume   878.97111046
_cell_formula_units_Z   1
loop_
 _symmetry_equiv_pos_site_id
 _symmetry_equiv_pos_as_xyz
  1  'x, y, z'
loop_
 _atom_site_type_symbol
 _atom_site_label
 _atom_site_symmetry_multiplicity
 _atom_site_fract_x
 _atom_site_fract_y
 _atom_site_fract_z
 _atom_site_occupancy
  La  La0  1  0.750000  0.332185  0.139842  1
  La  La1  1  0.250000  0.946870  0.364703  1
  La  La2  1  0.250000  0.666878  0.859270  1
  La  La3  1  0.250000  0.666667  0.576725  1
  La  La4  1  0.750000  0.053487  0.636319  1
  Ho  Ho5  1  0.250000  0.397804  0.769612  1
  Ho  Ho6  1  0.750000  0.602215  0.229821  1
  Th  Th7  1  0.750000  0.334125  0.424166  1
  Sb  Sb8  1  0.750000  0.858193  0.817114  1
  Sb  Sb9  1  0.250000  0.863185  0.676005  1
  Sb  Sb10  1  0.250000  0.152171  0.476352  1
  Sb  Sb11  1  0.750000  0.288079  0.928227  1
  Sb  Sb12  1  0.250000  0.150777  0.775073  1
  Sb  Sb13  1  0.750000  0.573619  0.441960  1
  Sb  Sb14  1  0.750000  0.139036  0.323035  1
  Sb  Sb15  1  0.250000  0.702457  0.349419  1
  Sb  Sb16  1  0.750000  0.296047  0.648169  1
  Sb  Sb17  1  0.750000  0.849207  0.224800  1
  Sb  Sb18  1  0.250000  0.420153  0.970453  1
  Sb  Sb19  1  0.250000  0.425333  0.555317  1
  Sb  Sb20  1  0.750000  0.571246  0.737308  1
  Sb  Sb21  1  0.250000  0.424074  0.267525  1
  Sb  Sb22  1  0.750000  0.855474  0.524080  1
  Sb  Sb23  1  0.750000  0.039138  0.885841  1
  Sb  Sb24  1  0.250000  0.709817  0.071218  1
  Sb  Sb25  1  0.250000  0.961732  0.115114  1
  Sb  Sb26  1  0.250000  0.142717  0.182774  1
  Sb  Sb27  1  0.750000  0.577310  0.029751  1
