# generated using pymatgen
data_Er16In4NiRh3
_symmetry_space_group_name_H-M   'P 1'
_cell_length_a   9.56854024
_cell_length_b   9.53625257
_cell_length_c   9.56854000
_cell_angle_alpha   59.88793671
_cell_angle_beta   60.00000085
_cell_angle_gamma   59.88794044
_symmetry_Int_Tables_number   1
_chemical_formula_structural   Er16In4NiRh3
_chemical_formula_sum   'Er16 In4 Ni1 Rh3'
_cell_volume   616.33442044
_cell_formula_units_Z   1
loop_
 _symmetry_equiv_pos_site_id
 _symmetry_equiv_pos_as_xyz
  1  'x, y, z'
loop_
 _atom_site_type_symbol
 _atom_site_label
 _atom_site_symmetry_multiplicity
 _atom_site_fract_x
 _atom_site_fract_y
 _atom_site_fract_z
 _atom_site_occupancy
  Er  Er0  1  0.186316  0.190189  0.811748  1
  Er  Er1  1  0.438536  0.061205  0.061724  1
  Er  Er2  1  0.438536  0.061205  0.438536  1
  Er  Er3  1  0.062141  0.438149  0.062141  1
  Er  Er4  1  0.649881  0.050358  0.649881  1
  Er  Er5  1  0.188622  0.811436  0.811320  1
  Er  Er6  1  0.061724  0.061205  0.438536  1
  Er  Er7  1  0.811748  0.190189  0.186316  1
  Er  Er8  1  0.811320  0.811436  0.188622  1
  Er  Er9  1  0.652126  0.648391  0.047356  1
  Er  Er10  1  0.652126  0.648391  0.652126  1
  Er  Er11  1  0.062141  0.438149  0.437569  1
  Er  Er12  1  0.047356  0.648391  0.652126  1
  Er  Er13  1  0.811748  0.190189  0.811748  1
  Er  Er14  1  0.437569  0.438149  0.062141  1
  Er  Er15  1  0.188622  0.811436  0.188622  1
  In  In16  1  0.417384  0.747847  0.417384  1
  In  In17  1  0.415787  0.417697  0.750729  1
  In  In18  1  0.750729  0.417697  0.415787  1
  In  In19  1  0.415787  0.417697  0.415787  1
  Ni  Ni20  1  0.857390  0.427831  0.857390  1
  Rh  Rh21  1  0.857245  0.857587  0.427923  1
  Rh  Rh22  1  0.427923  0.857587  0.857245  1
  Rh  Rh23  1  0.857245  0.857587  0.857245  1
