# generated using pymatgen
data_HoErPbAu2
_symmetry_space_group_name_H-M   'P 1'
_cell_length_a   8.12013400
_cell_length_b   8.12100400
_cell_length_c   3.65376300
_cell_angle_alpha   90.00000000
_cell_angle_beta   90.00000000
_cell_angle_gamma   90.00000000
_symmetry_Int_Tables_number   1
_chemical_formula_structural   HoErPbAu2
_chemical_formula_sum   'Ho2 Er2 Pb2 Au4'
_cell_volume   240.94243445
_cell_formula_units_Z   2
loop_
 _symmetry_equiv_pos_site_id
 _symmetry_equiv_pos_as_xyz
  1  'x, y, z'
loop_
 _atom_site_type_symbol
 _atom_site_label
 _atom_site_symmetry_multiplicity
 _atom_site_fract_x
 _atom_site_fract_y
 _atom_site_fract_z
 _atom_site_occupancy
  Ho  Ho0  1  0.669173  0.169097  0.500000  1
  Ho  Ho1  1  0.169173  0.330903  0.500000  1
  Er  Er2  1  0.831008  0.669080  0.500000  1
  Er  Er3  1  0.331008  0.830920  0.500000  1
  Pb  Pb4  1  0.999965  0.999856  0.000000  1
  Pb  Pb5  1  0.499965  0.500144  0.000000  1
  Au  Au6  1  0.374045  0.124995  0.000000  1
  Au  Au7  1  0.125808  0.626749  0.000000  1
  Au  Au8  1  0.625808  0.873251  0.000000  1
  Au  Au9  1  0.874045  0.375005  0.000000  1
