# generated using pymatgen
data_Tb3Dy5Tc2(B12Os)2
_symmetry_space_group_name_H-M   'P 1'
_cell_length_a   3.67733100
_cell_length_b   9.17449504
_cell_length_c   11.56390504
_cell_angle_alpha   89.91964685
_cell_angle_beta   90.00000000
_cell_angle_gamma   90.00000000
_symmetry_Int_Tables_number   1
_chemical_formula_structural   Tb3Dy5Tc2(B12Os)2
_chemical_formula_sum   'Tb3 Dy5 Tc2 B24 Os2'
_cell_volume   390.13865495
_cell_formula_units_Z   1
loop_
 _symmetry_equiv_pos_site_id
 _symmetry_equiv_pos_as_xyz
  1  'x, y, z'
loop_
 _atom_site_type_symbol
 _atom_site_label
 _atom_site_symmetry_multiplicity
 _atom_site_fract_x
 _atom_site_fract_y
 _atom_site_fract_z
 _atom_site_occupancy
  Tb  Tb0  1  0.000000  0.324908  0.415116  1
  Tb  Tb1  1  0.000000  0.675078  0.584901  1
  Tb  Tb2  1  0.000000  0.821467  0.087340  1
  Dy  Dy3  1  0.000000  0.178582  0.912633  1
  Dy  Dy4  1  0.000000  0.941980  0.371002  1
  Dy  Dy5  1  0.000000  0.058065  0.629037  1
  Dy  Dy6  1  0.000000  0.443796  0.129753  1
  Dy  Dy7  1  0.000000  0.556090  0.870206  1
  Tc  Tc8  1  0.000000  0.638326  0.320392  1
  Tc  Tc9  1  0.000000  0.361596  0.679698  1
  B  B10  1  0.500000  0.553341  0.432746  1
  B  B11  1  0.500000  0.446649  0.567263  1
  B  B12  1  0.500000  0.053829  0.067064  1
  B  B13  1  0.500000  0.946355  0.932837  1
  B  B14  1  0.500000  0.747909  0.418807  1
  B  B15  1  0.500000  0.252099  0.581212  1
  B  B16  1  0.500000  0.248262  0.081178  1
  B  B17  1  0.500000  0.751729  0.918653  1
  B  B18  1  0.500000  0.791177  0.265835  1
  B  B19  1  0.500000  0.208745  0.734308  1
  B  B20  1  0.500000  0.290478  0.233883  1
  B  B21  1  0.500000  0.709531  0.766098  1
  B  B22  1  0.500000  0.631496  0.185675  1
  B  B23  1  0.500000  0.368371  0.814424  1
  B  B24  1  0.500000  0.130946  0.313704  1
  B  B25  1  0.500000  0.869076  0.686299  1
  B  B26  1  0.500000  0.983215  0.212145  1
  B  B27  1  0.500000  0.016970  0.787919  1
  B  B28  1  0.500000  0.483239  0.287521  1
  B  B29  1  0.500000  0.516732  0.712482  1
  B  B30  1  0.500000  0.604349  0.028729  1
  B  B31  1  0.500000  0.395425  0.971210  1
  B  B32  1  0.500000  0.104075  0.470797  1
  B  B33  1  0.500000  0.895932  0.529213  1
  Os  Os34  1  0.000000  0.137412  0.178020  1
  Os  Os35  1  0.000000  0.862768  0.821901  1
