# generated using pymatgen
data_Tb6Ho5Tm5(CdPt)4
_symmetry_space_group_name_H-M   'P 1'
_cell_length_a   9.62430471
_cell_length_b   9.64717105
_cell_length_c   9.64717170
_cell_angle_alpha   60.09263011
_cell_angle_beta   60.07837063
_cell_angle_gamma   60.07837104
_symmetry_Int_Tables_number   1
_chemical_formula_structural   Tb6Ho5Tm5(CdPt)4
_chemical_formula_sum   'Tb6 Ho5 Tm5 Cd4 Pt4'
_cell_volume   634.55843241
_cell_formula_units_Z   1
loop_
 _symmetry_equiv_pos_site_id
 _symmetry_equiv_pos_as_xyz
  1  'x, y, z'
loop_
 _atom_site_type_symbol
 _atom_site_label
 _atom_site_symmetry_multiplicity
 _atom_site_fract_x
 _atom_site_fract_y
 _atom_site_fract_z
 _atom_site_occupancy
  Tb  Tb0  1  0.934404  0.565596  0.565596  1
  Tb  Tb1  1  0.561156  0.938844  0.938844  1
  Tb  Tb2  1  0.562780  0.936857  0.564200  1
  Tb  Tb3  1  0.936163  0.564200  0.936857  1
  Tb  Tb4  1  0.562780  0.564200  0.936857  1
  Tb  Tb5  1  0.936163  0.936857  0.564200  1
  Ho  Ho6  1  0.349411  0.351964  0.351964  1
  Ho  Ho7  1  0.352756  0.356278  0.938211  1
  Ho  Ho8  1  0.352756  0.938211  0.356278  1
  Ho  Ho9  1  0.946662  0.351964  0.351964  1
  Ho  Ho10  1  0.811194  0.188806  0.188806  1
  Tm  Tm11  1  0.186760  0.813240  0.813240  1
  Tm  Tm12  1  0.188647  0.812181  0.188200  1
  Tm  Tm13  1  0.810972  0.188200  0.812181  1
  Tm  Tm14  1  0.188647  0.188200  0.812181  1
  Tm  Tm15  1  0.810972  0.812181  0.188200  1
  Cd  Cd16  1  0.583312  0.579917  0.579917  1
  Cd  Cd17  1  0.582764  0.579588  0.254884  1
  Cd  Cd18  1  0.582764  0.254884  0.579588  1
  Cd  Cd19  1  0.256854  0.579917  0.579917  1
  Pt  Pt20  1  0.147062  0.141886  0.141886  1
  Pt  Pt21  1  0.142928  0.140866  0.573280  1
  Pt  Pt22  1  0.142928  0.573280  0.140866  1
  Pt  Pt23  1  0.569168  0.141886  0.141886  1
