# generated using pymatgen
data_Ho5ErTh2(MgIr)2
_symmetry_space_group_name_H-M   'P 1'
_cell_length_a   9.77455480
_cell_length_b   9.77723393
_cell_length_c   9.77723337
_cell_angle_alpha   59.98187504
_cell_angle_beta   60.00906915
_cell_angle_gamma   60.00906745
_symmetry_Int_Tables_number   1
_chemical_formula_structural   Ho5ErTh2(MgIr)2
_chemical_formula_sum   'Ho10 Er2 Th4 Mg4 Ir4'
_cell_volume   660.71466849
_cell_formula_units_Z   2
loop_
 _symmetry_equiv_pos_site_id
 _symmetry_equiv_pos_as_xyz
  1  'x, y, z'
loop_
 _atom_site_type_symbol
 _atom_site_label
 _atom_site_symmetry_multiplicity
 _atom_site_fract_x
 _atom_site_fract_y
 _atom_site_fract_z
 _atom_site_occupancy
  Ho  Ho0  1  0.186907  0.813093  0.186907  1
  Ho  Ho1  1  0.813093  0.186907  0.813093  1
  Ho  Ho2  1  0.186907  0.186907  0.813093  1
  Ho  Ho3  1  0.813093  0.813093  0.186907  1
  Ho  Ho4  1  0.934496  0.565504  0.565504  1
  Ho  Ho5  1  0.565504  0.934496  0.934496  1
  Ho  Ho6  1  0.565491  0.934509  0.565491  1
  Ho  Ho7  1  0.934509  0.565491  0.934509  1
  Ho  Ho8  1  0.565491  0.565491  0.934509  1
  Ho  Ho9  1  0.934509  0.934509  0.565491  1
  Er  Er10  1  0.812909  0.187091  0.187091  1
  Er  Er11  1  0.187091  0.812909  0.812909  1
  Th  Th12  1  0.348693  0.348377  0.348377  1
  Th  Th13  1  0.348377  0.348693  0.954551  1
  Th  Th14  1  0.348377  0.954551  0.348693  1
  Th  Th15  1  0.954551  0.348377  0.348377  1
  Mg  Mg16  1  0.580788  0.580835  0.580835  1
  Mg  Mg17  1  0.580835  0.580788  0.257541  1
  Mg  Mg18  1  0.580835  0.257541  0.580788  1
  Mg  Mg19  1  0.257541  0.580835  0.580835  1
  Ir  Ir20  1  0.142603  0.143004  0.143004  1
  Ir  Ir21  1  0.143004  0.142603  0.571392  1
  Ir  Ir22  1  0.143004  0.571392  0.142603  1
  Ir  Ir23  1  0.571392  0.143004  0.143004  1
