# generated using pymatgen
data_Ho3Lu13Cd3InNi4
_symmetry_space_group_name_H-M   'P 1'
_cell_length_a   9.35292372
_cell_length_b   9.35759797
_cell_length_c   9.35759686
_cell_angle_alpha   60.07694005
_cell_angle_beta   60.05323504
_cell_angle_gamma   60.05323973
_symmetry_Int_Tables_number   1
_chemical_formula_structural   Ho3Lu13Cd3InNi4
_chemical_formula_sum   'Ho3 Lu13 Cd3 In1 Ni4'
_cell_volume   579.91241990
_cell_formula_units_Z   1
loop_
 _symmetry_equiv_pos_site_id
 _symmetry_equiv_pos_as_xyz
  1  'x, y, z'
loop_
 _atom_site_type_symbol
 _atom_site_label
 _atom_site_symmetry_multiplicity
 _atom_site_fract_x
 _atom_site_fract_y
 _atom_site_fract_z
 _atom_site_occupancy
  Ho  Ho0  1  0.348532  0.349143  0.349143  1
  Ho  Ho1  1  0.348875  0.349429  0.952664  1
  Ho  Ho2  1  0.348875  0.952664  0.349429  1
  Lu  Lu3  1  0.953139  0.349174  0.349174  1
  Lu  Lu4  1  0.812612  0.187691  0.187691  1
  Lu  Lu5  1  0.187983  0.811824  0.811824  1
  Lu  Lu6  1  0.187586  0.812468  0.187264  1
  Lu  Lu7  1  0.811794  0.188163  0.811163  1
  Lu  Lu8  1  0.187586  0.187264  0.812468  1
  Lu  Lu9  1  0.811794  0.811163  0.188163  1
  Lu  Lu10  1  0.937828  0.563988  0.563988  1
  Lu  Lu11  1  0.564492  0.936211  0.936211  1
  Lu  Lu12  1  0.564000  0.937657  0.564330  1
  Lu  Lu13  1  0.936476  0.564208  0.936583  1
  Lu  Lu14  1  0.564000  0.564330  0.937657  1
  Lu  Lu15  1  0.936476  0.936583  0.564208  1
  Cd  Cd16  1  0.582681  0.581312  0.252730  1
  Cd  Cd17  1  0.582681  0.252730  0.581312  1
  Cd  Cd18  1  0.252490  0.581858  0.581858  1
  In  In19  1  0.583589  0.581499  0.581499  1
  Ni  Ni20  1  0.140141  0.142419  0.142419  1
  Ni  Ni21  1  0.139853  0.141916  0.575476  1
  Ni  Ni22  1  0.139853  0.575476  0.141916  1
  Ni  Ni23  1  0.576659  0.140827  0.140827  1
