# generated using pymatgen
data_Tb12Ga2Co3Ru
_symmetry_space_group_name_H-M   'P 1'
_cell_length_a   8.35580169
_cell_length_b   8.35580210
_cell_length_c   8.35580213
_cell_angle_alpha   112.17040653
_cell_angle_beta   109.69853589
_cell_angle_gamma   106.59270911
_symmetry_Int_Tables_number   1
_chemical_formula_structural   Tb12Ga2Co3Ru
_chemical_formula_sum   'Tb12 Ga2 Co3 Ru1'
_cell_volume   448.03445843
_cell_formula_units_Z   1
loop_
 _symmetry_equiv_pos_site_id
 _symmetry_equiv_pos_as_xyz
  1  'x, y, z'
loop_
 _atom_site_type_symbol
 _atom_site_label
 _atom_site_symmetry_multiplicity
 _atom_site_fract_x
 _atom_site_fract_y
 _atom_site_fract_z
 _atom_site_occupancy
  Tb  Tb0  1  0.053065  0.747175  0.305890  1
  Tb  Tb1  1  0.961618  0.266143  0.695476  1
  Tb  Tb2  1  0.558715  0.252825  0.305890  1
  Tb  Tb3  1  0.429334  0.733857  0.695476  1
  Tb  Tb4  1  0.674541  0.860449  0.186628  1
  Tb  Tb5  1  0.326179  0.512087  0.186628  1
  Tb  Tb6  1  0.326179  0.139551  0.814092  1
  Tb  Tb7  1  0.674541  0.487913  0.814092  1
  Tb  Tb8  1  0.177119  0.221841  0.398960  1
  Tb  Tb9  1  0.817497  0.216983  0.034480  1
  Tb  Tb10  1  0.177119  0.778159  0.955277  1
  Tb  Tb11  1  0.817497  0.783017  0.600513  1
  Ga  Ga12  1  0.988309  0.500000  0.488309  1
  Ga  Ga13  1  0.505448  0.000000  0.505448  1
  Co  Co14  1  0.337964  0.500000  0.837964  1
  Co  Co15  1  0.886904  0.886921  0.999983  1
  Co  Co16  1  0.113061  0.113079  0.999983  1
  Ru  Ru17  1  0.674911  0.500000  0.174911  1
