# generated using pymatgen
data_K8Li4TmLu3As8
_symmetry_space_group_name_H-M   'P 1'
_cell_length_a   10.25861026
_cell_length_b   10.25869806
_cell_length_c   6.68210100
_cell_angle_alpha   89.99865323
_cell_angle_beta   90.00105086
_cell_angle_gamma   98.77801150
_symmetry_Int_Tables_number   1
_chemical_formula_structural   K8Li4TmLu3As8
_chemical_formula_sum   'K8 Li4 Tm1 Lu3 As8'
_cell_volume   694.98735887
_cell_formula_units_Z   1
loop_
 _symmetry_equiv_pos_site_id
 _symmetry_equiv_pos_as_xyz
  1  'x, y, z'
loop_
 _atom_site_type_symbol
 _atom_site_label
 _atom_site_symmetry_multiplicity
 _atom_site_fract_x
 _atom_site_fract_y
 _atom_site_fract_z
 _atom_site_occupancy
  K  K0  1  0.568040  0.932011  0.750142  1
  K  K1  1  0.931983  0.568025  0.249832  1
  K  K2  1  0.432228  0.067346  0.249718  1
  K  K3  1  0.067382  0.432233  0.750268  1
  K  K4  1  0.678445  0.321960  0.788003  1
  K  K5  1  0.821863  0.178112  0.287790  1
  K  K6  1  0.321950  0.678416  0.212050  1
  K  K7  1  0.178097  0.821864  0.712187  1
  Li  Li8  1  0.618553  0.618553  0.999998  1
  Li  Li9  1  0.881700  0.881695  0.499997  1
  Li  Li10  1  0.381744  0.381737  0.999997  1
  Li  Li11  1  0.117715  0.117727  0.499999  1
  Tm  Tm12  1  0.368373  0.368365  0.499995  1
  Lu  Lu13  1  0.868726  0.868731  0.000006  1
  Lu  Lu14  1  0.631762  0.631770  0.500009  1
  Lu  Lu15  1  0.131057  0.131058  0.000003  1
  As  As16  1  0.346531  0.152399  0.751296  1
  As  As17  1  0.152399  0.346532  0.248707  1
  As  As18  1  0.653724  0.846483  0.250063  1
  As  As19  1  0.846484  0.653725  0.749942  1
  As  As20  1  0.905278  0.094501  0.765997  1
  As  As21  1  0.595635  0.405844  0.265551  1
  As  As22  1  0.094499  0.905279  0.234005  1
  As  As23  1  0.405832  0.595634  0.734445  1
