# generated using pymatgen
data_Dy7Th7TcRh5
_symmetry_space_group_name_H-M   'P 1'
_cell_length_a   9.80376944
_cell_length_b   9.79226038
_cell_length_c   6.40400960
_cell_angle_alpha   90.25907166
_cell_angle_beta   90.10596620
_cell_angle_gamma   119.30988411
_symmetry_Int_Tables_number   1
_chemical_formula_structural   Dy7Th7TcRh5
_chemical_formula_sum   'Dy7 Th7 Tc1 Rh5'
_cell_volume   536.07776581
_cell_formula_units_Z   1
loop_
 _symmetry_equiv_pos_site_id
 _symmetry_equiv_pos_as_xyz
  1  'x, y, z'
loop_
 _atom_site_type_symbol
 _atom_site_label
 _atom_site_symmetry_multiplicity
 _atom_site_fract_x
 _atom_site_fract_y
 _atom_site_fract_z
 _atom_site_occupancy
  Dy  Dy0  1  0.127658  0.872052  0.256021  1
  Dy  Dy1  1  0.461530  0.924648  0.547481  1
  Dy  Dy2  1  0.077429  0.539898  0.547988  1
  Dy  Dy3  1  0.461546  0.539010  0.547863  1
  Dy  Dy4  1  0.536490  0.074218  0.050654  1
  Dy  Dy5  1  0.924973  0.461864  0.050087  1
  Dy  Dy6  1  0.535583  0.461215  0.048028  1
  Th  Th7  1  0.667014  0.333062  0.520135  1
  Th  Th8  1  0.330806  0.664202  0.015189  1
  Th  Th9  1  0.874179  0.744737  0.757066  1
  Th  Th10  1  0.251874  0.128859  0.759831  1
  Th  Th11  1  0.878366  0.130516  0.761696  1
  Th  Th12  1  0.131047  0.256487  0.258833  1
  Th  Th13  1  0.744370  0.869434  0.257940  1
  Tc  Tc14  1  0.181940  0.364099  0.802566  1
  Rh  Rh15  1  0.631758  0.817272  0.799407  1
  Rh  Rh16  1  0.186361  0.817815  0.795484  1
  Rh  Rh17  1  0.806536  0.624929  0.303951  1
  Rh  Rh18  1  0.377570  0.192383  0.303726  1
  Rh  Rh19  1  0.812972  0.183299  0.297491  1
