# generated using pymatgen
data_Er10Zn3Co
_symmetry_space_group_name_H-M   'P 1'
_cell_length_a   9.30651100
_cell_length_b   9.30651030
_cell_length_c   9.47658800
_cell_angle_alpha   90.00000000
_cell_angle_beta   90.00000000
_cell_angle_gamma   119.99999184
_symmetry_Int_Tables_number   1
_chemical_formula_structural   Er10Zn3Co
_chemical_formula_sum   'Er20 Zn6 Co2'
_cell_volume   710.81473890
_cell_formula_units_Z   2
loop_
 _symmetry_equiv_pos_site_id
 _symmetry_equiv_pos_as_xyz
  1  'x, y, z'
loop_
 _atom_site_type_symbol
 _atom_site_label
 _atom_site_symmetry_multiplicity
 _atom_site_fract_x
 _atom_site_fract_y
 _atom_site_fract_z
 _atom_site_occupancy
  Er  Er0  1  0.000000  0.000000  0.500000  1
  Er  Er1  1  0.000000  0.000000  0.000000  1
  Er  Er2  1  0.542413  0.457587  0.250000  1
  Er  Er3  1  0.542413  0.084826  0.250000  1
  Er  Er4  1  0.915174  0.457587  0.250000  1
  Er  Er5  1  0.457587  0.542413  0.750000  1
  Er  Er6  1  0.457587  0.915174  0.750000  1
  Er  Er7  1  0.084826  0.542413  0.750000  1
  Er  Er8  1  0.209567  0.790433  0.437445  1
  Er  Er9  1  0.209567  0.419136  0.437445  1
  Er  Er10  1  0.580864  0.790433  0.437445  1
  Er  Er11  1  0.790433  0.209567  0.562555  1
  Er  Er12  1  0.790433  0.580864  0.562555  1
  Er  Er13  1  0.419136  0.209567  0.562555  1
  Er  Er14  1  0.790433  0.209567  0.937445  1
  Er  Er15  1  0.790433  0.580864  0.937445  1
  Er  Er16  1  0.419136  0.209567  0.937445  1
  Er  Er17  1  0.209567  0.790433  0.062555  1
  Er  Er18  1  0.209567  0.419136  0.062555  1
  Er  Er19  1  0.580864  0.790433  0.062555  1
  Zn  Zn20  1  0.885588  0.114412  0.250000  1
  Zn  Zn21  1  0.885588  0.771175  0.250000  1
  Zn  Zn22  1  0.228825  0.114412  0.250000  1
  Zn  Zn23  1  0.114412  0.885588  0.750000  1
  Zn  Zn24  1  0.114412  0.228825  0.750000  1
  Zn  Zn25  1  0.771175  0.885588  0.750000  1
  Co  Co26  1  0.333333  0.666667  0.250000  1
  Co  Co27  1  0.666667  0.333333  0.750000  1
