# generated using pymatgen
data_LiHo8InIr2
_symmetry_space_group_name_H-M   'P 1'
_cell_length_a   9.60841576
_cell_length_b   9.60841596
_cell_length_c   9.62686200
_cell_angle_alpha   59.93648073
_cell_angle_beta   59.93648006
_cell_angle_gamma   59.81313826
_symmetry_Int_Tables_number   1
_chemical_formula_structural   LiHo8InIr2
_chemical_formula_sum   'Li2 Ho16 In2 Ir4'
_cell_volume   626.95995838
_cell_formula_units_Z   2
loop_
 _symmetry_equiv_pos_site_id
 _symmetry_equiv_pos_as_xyz
  1  'x, y, z'
loop_
 _atom_site_type_symbol
 _atom_site_label
 _atom_site_symmetry_multiplicity
 _atom_site_fract_x
 _atom_site_fract_y
 _atom_site_fract_z
 _atom_site_occupancy
  Li  Li0  1  0.426339  0.426339  0.423769  1
  Li  Li1  1  0.426339  0.426339  0.723553  1
  Ho  Ho2  1  0.439336  0.439336  0.060664  1
  Ho  Ho3  1  0.651394  0.651394  0.047586  1
  Ho  Ho4  1  0.188972  0.811465  0.190138  1
  Ho  Ho5  1  0.061405  0.438641  0.062302  1
  Ho  Ho6  1  0.188972  0.811465  0.809425  1
  Ho  Ho7  1  0.061405  0.438641  0.437652  1
  Ho  Ho8  1  0.811465  0.188972  0.190138  1
  Ho  Ho9  1  0.651394  0.651394  0.649628  1
  Ho  Ho10  1  0.811465  0.188972  0.809425  1
  Ho  Ho11  1  0.184505  0.184505  0.815495  1
  Ho  Ho12  1  0.042008  0.652735  0.652629  1
  Ho  Ho13  1  0.438641  0.061405  0.062302  1
  Ho  Ho14  1  0.062881  0.062881  0.437119  1
  Ho  Ho15  1  0.652735  0.042008  0.652629  1
  Ho  Ho16  1  0.807966  0.807966  0.192034  1
  Ho  Ho17  1  0.438641  0.061405  0.437652  1
  In  In18  1  0.416165  0.743142  0.420347  1
  In  In19  1  0.743142  0.416165  0.420347  1
  Ir  Ir20  1  0.424610  0.855970  0.859709  1
  Ir  Ir21  1  0.857126  0.857126  0.860770  1
  Ir  Ir22  1  0.855970  0.424610  0.859709  1
  Ir  Ir23  1  0.857126  0.857126  0.424978  1
