# generated using pymatgen
data_Tb2Mn9Cr3P7
_symmetry_space_group_name_H-M   'P 1'
_cell_length_a   9.25678500
_cell_length_b   9.25678614
_cell_length_c   3.63305900
_cell_angle_alpha   90.00000000
_cell_angle_beta   90.00000000
_cell_angle_gamma   119.99999948
_symmetry_Int_Tables_number   1
_chemical_formula_structural   Tb2Mn9Cr3P7
_chemical_formula_sum   'Tb2 Mn9 Cr3 P7'
_cell_volume   269.60223741
_cell_formula_units_Z   1
loop_
 _symmetry_equiv_pos_site_id
 _symmetry_equiv_pos_as_xyz
  1  'x, y, z'
loop_
 _atom_site_type_symbol
 _atom_site_label
 _atom_site_symmetry_multiplicity
 _atom_site_fract_x
 _atom_site_fract_y
 _atom_site_fract_z
 _atom_site_occupancy
  Tb  Tb0  1  0.666667  0.333333  0.000000  1
  Tb  Tb1  1  0.333333  0.666667  0.500000  1
  Mn  Mn2  1  0.047507  0.621586  0.000000  1
  Mn  Mn3  1  0.574079  0.952493  0.000000  1
  Mn  Mn4  1  0.378414  0.425921  0.000000  1
  Mn  Mn5  1  0.278671  0.121539  0.000000  1
  Mn  Mn6  1  0.842867  0.721329  0.000000  1
  Mn  Mn7  1  0.878461  0.157133  0.000000  1
  Mn  Mn8  1  0.432870  0.044314  0.500000  1
  Mn  Mn9  1  0.611444  0.567130  0.500000  1
  Mn  Mn10  1  0.955686  0.388556  0.500000  1
  Cr  Cr11  1  0.095722  0.883398  0.500000  1
  Cr  Cr12  1  0.787675  0.904278  0.500000  1
  Cr  Cr13  1  0.116602  0.212325  0.500000  1
  P  P14  1  0.287614  0.880106  0.000000  1
  P  P15  1  0.592493  0.712386  0.000000  1
  P  P16  1  0.119894  0.407507  0.000000  1
  P  P17  1  0.407527  0.283688  0.500000  1
  P  P18  1  0.876162  0.592473  0.500000  1
  P  P19  1  0.716312  0.123838  0.500000  1
  P  P20  1  0.000000  0.000000  0.000000  1
