# generated using pymatgen
data_Y4Cd2IrAu3
_symmetry_space_group_name_H-M   'P 1'
_cell_length_a   3.80908400
_cell_length_b   7.84924020
_cell_length_c   7.84923965
_cell_angle_alpha   89.84281153
_cell_angle_beta   90.00000000
_cell_angle_gamma   90.00000000
_symmetry_Int_Tables_number   1
_chemical_formula_structural   Y4Cd2IrAu3
_chemical_formula_sum   'Y4 Cd2 Ir1 Au3'
_cell_volume   234.67894332
_cell_formula_units_Z   1
loop_
 _symmetry_equiv_pos_site_id
 _symmetry_equiv_pos_as_xyz
  1  'x, y, z'
loop_
 _atom_site_type_symbol
 _atom_site_label
 _atom_site_symmetry_multiplicity
 _atom_site_fract_x
 _atom_site_fract_y
 _atom_site_fract_z
 _atom_site_occupancy
  Y  Y0  1  0.500000  0.166965  0.666965  1
  Y  Y1  1  0.500000  0.814685  0.314685  1
  Y  Y2  1  0.500000  0.351613  0.176667  1
  Y  Y3  1  0.500000  0.676667  0.851613  1
  Cd  Cd4  1  0.000000  0.999253  0.002094  1
  Cd  Cd5  1  0.000000  0.502094  0.499253  1
  Ir  Ir6  1  0.000000  0.627799  0.127799  1
  Au  Au7  1  0.000000  0.368118  0.868118  1
  Au  Au8  1  0.000000  0.865611  0.627195  1
  Au  Au9  1  0.000000  0.127195  0.365611  1
