# generated using pymatgen
data_Pr6MgCo16P12Ru
_symmetry_space_group_name_H-M   'P 1'
_cell_length_a   3.79466500
_cell_length_b   10.74341800
_cell_length_c   12.52957200
_cell_angle_alpha   90.00000000
_cell_angle_beta   90.00000000
_cell_angle_gamma   90.00000000
_symmetry_Int_Tables_number   1
_chemical_formula_structural   Pr6MgCo16P12Ru
_chemical_formula_sum   'Pr6 Mg1 Co16 P12 Ru1'
_cell_volume   510.80148492
_cell_formula_units_Z   1
loop_
 _symmetry_equiv_pos_site_id
 _symmetry_equiv_pos_as_xyz
  1  'x, y, z'
loop_
 _atom_site_type_symbol
 _atom_site_label
 _atom_site_symmetry_multiplicity
 _atom_site_fract_x
 _atom_site_fract_y
 _atom_site_fract_z
 _atom_site_occupancy
  Pr  Pr0  1  0.000000  0.500000  0.524378  1
  Pr  Pr1  1  0.500000  0.000000  0.474814  1
  Pr  Pr2  1  0.500000  0.817524  0.205606  1
  Pr  Pr3  1  0.500000  0.182476  0.205606  1
  Pr  Pr4  1  0.000000  0.680939  0.792307  1
  Pr  Pr5  1  0.000000  0.319061  0.792307  1
  Mg  Mg6  1  0.000000  0.000000  0.848917  1
  Co  Co7  1  0.500000  0.500000  0.706305  1
  Co  Co8  1  0.000000  0.000000  0.294194  1
  Co  Co9  1  0.000000  0.500000  0.989761  1
  Co  Co10  1  0.500000  0.000000  0.013676  1
  Co  Co11  1  0.500000  0.336700  0.996103  1
  Co  Co12  1  0.500000  0.663300  0.996103  1
  Co  Co13  1  0.000000  0.171415  0.006139  1
  Co  Co14  1  0.000000  0.828585  0.006139  1
  Co  Co15  1  0.500000  0.298310  0.428419  1
  Co  Co16  1  0.500000  0.701690  0.428419  1
  Co  Co17  1  0.000000  0.204388  0.566308  1
  Co  Co18  1  0.000000  0.795612  0.566308  1
  Co  Co19  1  0.500000  0.879973  0.703707  1
  Co  Co20  1  0.500000  0.120027  0.703707  1
  Co  Co21  1  0.000000  0.617529  0.291590  1
  Co  Co22  1  0.000000  0.382471  0.291590  1
  P  P23  1  0.500000  0.500000  0.887375  1
  P  P24  1  0.000000  0.000000  0.112282  1
  P  P25  1  0.500000  0.500000  0.346160  1
  P  P26  1  0.000000  0.000000  0.651084  1
  P  P27  1  0.500000  0.304826  0.611724  1
  P  P28  1  0.500000  0.695174  0.611724  1
  P  P29  1  0.000000  0.194893  0.384890  1
  P  P30  1  0.000000  0.805107  0.384890  1
  P  P31  1  0.500000  0.840235  0.901800  1
  P  P32  1  0.500000  0.159765  0.901800  1
  P  P33  1  0.000000  0.650230  0.106558  1
  P  P34  1  0.000000  0.349770  0.106558  1
  Ru  Ru35  1  0.500000  0.500000  0.160746  1
