# generated using pymatgen
data_Li2Y7Ho11(Cd3Ru)2
_symmetry_space_group_name_H-M   'P 1'
_cell_length_a   9.45661415
_cell_length_b   9.45560017
_cell_length_c   9.68594457
_cell_angle_alpha   89.99999804
_cell_angle_beta   90.05629995
_cell_angle_gamma   119.99645104
_symmetry_Int_Tables_number   1
_chemical_formula_structural   Li2Y7Ho11(Cd3Ru)2
_chemical_formula_sum   'Li2 Y7 Ho11 Cd6 Ru2'
_cell_volume   750.08871290
_cell_formula_units_Z   1
loop_
 _symmetry_equiv_pos_site_id
 _symmetry_equiv_pos_as_xyz
  1  'x, y, z'
loop_
 _atom_site_type_symbol
 _atom_site_label
 _atom_site_symmetry_multiplicity
 _atom_site_fract_x
 _atom_site_fract_y
 _atom_site_fract_z
 _atom_site_occupancy
  Li  Li0  1  0.999987  0.999993  0.500053  1
  Li  Li1  1  0.000010  0.000005  0.000003  1
  Y  Y2  1  0.584338  0.792170  0.057735  1
  Y  Y3  1  0.542136  0.457508  0.250223  1
  Y  Y4  1  0.542136  0.084629  0.250223  1
  Y  Y5  1  0.915812  0.457906  0.249987  1
  Y  Y6  1  0.457751  0.541847  0.749614  1
  Y  Y7  1  0.457751  0.915904  0.749614  1
  Y  Y8  1  0.084371  0.542185  0.749969  1
  Ho  Ho9  1  0.208530  0.791543  0.441411  1
  Ho  Ho10  1  0.208530  0.416988  0.441411  1
  Ho  Ho11  1  0.583013  0.791507  0.441662  1
  Ho  Ho12  1  0.791559  0.208536  0.558595  1
  Ho  Ho13  1  0.791559  0.583022  0.558595  1
  Ho  Ho14  1  0.416991  0.208495  0.558559  1
  Ho  Ho15  1  0.791748  0.208912  0.941272  1
  Ho  Ho16  1  0.791748  0.582835  0.941272  1
  Ho  Ho17  1  0.417024  0.208511  0.941446  1
  Ho  Ho18  1  0.208166  0.791473  0.058672  1
  Ho  Ho19  1  0.208166  0.416694  0.058672  1
  Cd  Cd20  1  0.891839  0.108268  0.250014  1
  Cd  Cd21  1  0.891839  0.783573  0.250014  1
  Cd  Cd22  1  0.216461  0.108231  0.250052  1
  Cd  Cd23  1  0.108265  0.891768  0.749994  1
  Cd  Cd24  1  0.108265  0.216496  0.749994  1
  Cd  Cd25  1  0.783539  0.891769  0.749971  1
  Ru  Ru26  1  0.331800  0.665901  0.251019  1
  Ru  Ru27  1  0.666665  0.333332  0.749955  1
