# generated using pymatgen
data_Tb8Ta12Si15P
_symmetry_space_group_name_H-M   'P 1'
_cell_length_a   7.03863430
_cell_length_b   7.04234907
_cell_length_c   13.04177199
_cell_angle_alpha   89.92492749
_cell_angle_beta   89.98837391
_cell_angle_gamma   89.99951305
_symmetry_Int_Tables_number   1
_chemical_formula_structural   Tb8Ta12Si15P
_chemical_formula_sum   'Tb8 Ta12 Si15 P1'
_cell_volume   646.46076417
_cell_formula_units_Z   1
loop_
 _symmetry_equiv_pos_site_id
 _symmetry_equiv_pos_as_xyz
  1  'x, y, z'
loop_
 _atom_site_type_symbol
 _atom_site_label
 _atom_site_symmetry_multiplicity
 _atom_site_fract_x
 _atom_site_fract_y
 _atom_site_fract_z
 _atom_site_occupancy
  Tb  Tb0  1  0.340307  0.003181  0.469140  1
  Tb  Tb1  1  0.494517  0.844432  0.718103  1
  Tb  Tb2  1  0.502009  0.158723  0.218345  1
  Tb  Tb3  1  0.840766  0.496754  0.281940  1
  Tb  Tb4  1  0.159002  0.498739  0.780401  1
  Tb  Tb5  1  0.660140  0.996441  0.968415  1
  Tb  Tb6  1  0.003299  0.340274  0.533100  1
  Tb  Tb7  1  0.997451  0.659161  0.031215  1
  Ta  Ta8  1  0.328527  0.328939  0.999627  1
  Ta  Ta9  1  0.171572  0.828886  0.249936  1
  Ta  Ta10  1  0.829809  0.171636  0.749402  1
  Ta  Ta11  1  0.670892  0.670755  0.500240  1
  Ta  Ta12  1  0.155580  0.009225  0.871647  1
  Ta  Ta13  1  0.491972  0.653958  0.124192  1
  Ta  Ta14  1  0.504372  0.343493  0.625197  1
  Ta  Ta15  1  0.654201  0.495416  0.875751  1
  Ta  Ta16  1  0.345869  0.506688  0.375917  1
  Ta  Ta17  1  0.846723  0.993171  0.374910  1
  Ta  Ta18  1  0.007487  0.153062  0.125709  1
  Ta  Ta19  1  0.995580  0.848020  0.626074  1
  Si  Si20  1  0.365386  0.702985  0.931893  1
  Si  Si21  1  0.633389  0.296784  0.433297  1
  Si  Si22  1  0.702718  0.366612  0.067143  1
  Si  Si23  1  0.297946  0.633472  0.567229  1
  Si  Si24  1  0.797025  0.866230  0.182910  1
  Si  Si25  1  0.133832  0.202532  0.317481  1
  Si  Si26  1  0.866932  0.796546  0.816852  1
  Si  Si27  1  0.294063  0.955445  0.063103  1
  Si  Si28  1  0.544670  0.794120  0.314095  1
  Si  Si29  1  0.460741  0.207489  0.816405  1
  Si  Si30  1  0.792255  0.546148  0.685589  1
  Si  Si31  1  0.205781  0.454983  0.186123  1
  Si  Si32  1  0.706485  0.044252  0.563821  1
  Si  Si33  1  0.955117  0.293636  0.936278  1
  Si  Si34  1  0.044394  0.705509  0.436311  1
  P  P35  1  0.199189  0.132300  0.682209  1
