# generated using pymatgen
data_KSm2PuB24
_symmetry_space_group_name_H-M   'P 1'
_cell_length_a   7.14473565
_cell_length_b   7.14473683
_cell_length_c   5.88703500
_cell_angle_alpha   90.00000000
_cell_angle_beta   90.00000000
_cell_angle_gamma   109.12831246
_symmetry_Int_Tables_number   1
_chemical_formula_structural   KSm2PuB24
_chemical_formula_sum   'K1 Sm2 Pu1 B24'
_cell_volume   283.92456919
_cell_formula_units_Z   1
loop_
 _symmetry_equiv_pos_site_id
 _symmetry_equiv_pos_as_xyz
  1  'x, y, z'
loop_
 _atom_site_type_symbol
 _atom_site_label
 _atom_site_symmetry_multiplicity
 _atom_site_fract_x
 _atom_site_fract_y
 _atom_site_fract_z
 _atom_site_occupancy
  K  K0  1  0.000000  0.000000  0.000000  1
  Sm  Sm1  1  0.751126  0.248874  0.500000  1
  Sm  Sm2  1  0.248874  0.751126  0.500000  1
  Pu  Pu3  1  0.500000  0.500000  0.000000  1
  B  B4  1  0.176131  0.326272  0.649683  1
  B  B5  1  0.923439  0.574583  0.148425  1
  B  B6  1  0.673728  0.823869  0.649683  1
  B  B7  1  0.425417  0.076561  0.148425  1
  B  B8  1  0.176131  0.326272  0.350317  1
  B  B9  1  0.923439  0.574583  0.851575  1
  B  B10  1  0.673728  0.823869  0.350317  1
  B  B11  1  0.425417  0.076561  0.851575  1
  B  B12  1  0.400630  0.400630  0.500000  1
  B  B13  1  0.148796  0.650934  0.000000  1
  B  B14  1  0.898951  0.898951  0.500000  1
  B  B15  1  0.650934  0.148796  0.000000  1
  B  B16  1  0.326272  0.176131  0.649683  1
  B  B17  1  0.076561  0.425417  0.148425  1
  B  B18  1  0.823869  0.673728  0.649683  1
  B  B19  1  0.574583  0.923439  0.148425  1
  B  B20  1  0.101049  0.101049  0.500000  1
  B  B21  1  0.851204  0.349066  0.000000  1
  B  B22  1  0.599370  0.599370  0.500000  1
  B  B23  1  0.349066  0.851204  0.000000  1
  B  B24  1  0.326272  0.176131  0.350317  1
  B  B25  1  0.076561  0.425417  0.851575  1
  B  B26  1  0.823869  0.673728  0.350317  1
  B  B27  1  0.574583  0.923439  0.851575  1
