# generated using pymatgen
data_TbPr6Y3(Sn5Rh2)4
_symmetry_space_group_name_H-M   'P 1'
_cell_length_a   14.20266100
_cell_length_b   14.20266100
_cell_length_c   4.59841000
_cell_angle_alpha   90.00000000
_cell_angle_beta   90.00000000
_cell_angle_gamma   89.99942715
_symmetry_Int_Tables_number   1
_chemical_formula_structural   TbPr6Y3(Sn5Rh2)4
_chemical_formula_sum   'Tb1 Pr6 Y3 Sn20 Rh8'
_cell_volume   927.57093782
_cell_formula_units_Z   1
loop_
 _symmetry_equiv_pos_site_id
 _symmetry_equiv_pos_as_xyz
  1  'x, y, z'
loop_
 _atom_site_type_symbol
 _atom_site_label
 _atom_site_symmetry_multiplicity
 _atom_site_fract_x
 _atom_site_fract_y
 _atom_site_fract_z
 _atom_site_occupancy
  Tb  Tb0  1  0.677112  0.177112  0.500000  1
  Pr  Pr1  1  0.499995  0.499984  0.000000  1
  Pr  Pr2  1  0.999984  0.999995  0.000000  1
  Pr  Pr3  1  0.888146  0.388146  0.500000  1
  Pr  Pr4  1  0.111840  0.611840  0.500000  1
  Pr  Pr5  1  0.388131  0.111866  0.500000  1
  Pr  Pr6  1  0.611866  0.888131  0.500000  1
  Y  Y7  1  0.322926  0.822926  0.500000  1
  Y  Y8  1  0.177047  0.322914  0.500000  1
  Y  Y9  1  0.822914  0.677047  0.500000  1
  Sn  Sn10  1  0.570105  0.070105  0.000000  1
  Sn  Sn11  1  0.429833  0.929833  0.000000  1
  Sn  Sn12  1  0.070165  0.429850  0.000000  1
  Sn  Sn13  1  0.929850  0.570165  0.000000  1
  Sn  Sn14  1  0.654532  0.698076  0.000000  1
  Sn  Sn15  1  0.345490  0.301941  0.000000  1
  Sn  Sn16  1  0.154502  0.801930  0.000000  1
  Sn  Sn17  1  0.845528  0.198101  0.000000  1
  Sn  Sn18  1  0.301930  0.654502  0.000000  1
  Sn  Sn19  1  0.698101  0.345528  0.000000  1
  Sn  Sn20  1  0.198076  0.154532  0.000000  1
  Sn  Sn21  1  0.801941  0.845490  0.000000  1
  Sn  Sn22  1  0.664206  0.505744  0.500000  1
  Sn  Sn23  1  0.335848  0.494184  0.500000  1
  Sn  Sn24  1  0.164194  0.994211  0.500000  1
  Sn  Sn25  1  0.835844  0.005749  0.500000  1
  Sn  Sn26  1  0.494211  0.664194  0.500000  1
  Sn  Sn27  1  0.505749  0.335844  0.500000  1
  Sn  Sn28  1  0.005744  0.164206  0.500000  1
  Sn  Sn29  1  0.994184  0.835848  0.500000  1
  Rh  Rh30  1  0.747043  0.529214  0.000000  1
  Rh  Rh31  1  0.252941  0.470847  0.000000  1
  Rh  Rh32  1  0.247041  0.970791  0.000000  1
  Rh  Rh33  1  0.752982  0.029147  0.000000  1
  Rh  Rh34  1  0.470791  0.747041  0.000000  1
  Rh  Rh35  1  0.529147  0.252982  0.000000  1
  Rh  Rh36  1  0.029214  0.247043  0.000000  1
  Rh  Rh37  1  0.970847  0.752941  0.000000  1
