# generated using pymatgen
data_YbSm6IrBr12
_symmetry_space_group_name_H-M   'P 1'
_cell_length_a   9.38488481
_cell_length_b   9.38488419
_cell_length_c   9.38488400
_cell_angle_alpha   106.76770847
_cell_angle_beta   106.76772008
_cell_angle_gamma   106.76771211
_symmetry_Int_Tables_number   1
_chemical_formula_structural   YbSm6IrBr12
_chemical_formula_sum   'Yb1 Sm6 Ir1 Br12'
_cell_volume   692.70239975
_cell_formula_units_Z   1
loop_
 _symmetry_equiv_pos_site_id
 _symmetry_equiv_pos_as_xyz
  1  'x, y, z'
loop_
 _atom_site_type_symbol
 _atom_site_label
 _atom_site_symmetry_multiplicity
 _atom_site_fract_x
 _atom_site_fract_y
 _atom_site_fract_z
 _atom_site_occupancy
  Yb  Yb0  1  0.500000  0.500000  0.500000  1
  Sm  Sm1  1  0.103687  0.022745  0.315003  1
  Sm  Sm2  1  0.022745  0.315003  0.103687  1
  Sm  Sm3  1  0.315003  0.103687  0.022745  1
  Sm  Sm4  1  0.896312  0.977255  0.684997  1
  Sm  Sm5  1  0.977255  0.684997  0.896312  1
  Sm  Sm6  1  0.684997  0.896312  0.977255  1
  Ir  Ir7  1  0.000000  0.000000  0.000000  1
  Br  Br8  1  0.074270  0.681139  0.222023  1
  Br  Br9  1  0.681139  0.222023  0.074270  1
  Br  Br10  1  0.222023  0.074270  0.681139  1
  Br  Br11  1  0.925730  0.318861  0.777977  1
  Br  Br12  1  0.318861  0.777977  0.925730  1
  Br  Br13  1  0.777977  0.925730  0.318861  1
  Br  Br14  1  0.456912  0.163357  0.378522  1
  Br  Br15  1  0.163357  0.378522  0.456912  1
  Br  Br16  1  0.378522  0.456912  0.163357  1
  Br  Br17  1  0.543088  0.836643  0.621478  1
  Br  Br18  1  0.836643  0.621478  0.543088  1
  Br  Br19  1  0.621478  0.543088  0.836643  1
