# generated using pymatgen
data_La4HoIrRu
_symmetry_space_group_name_H-M   'P 1'
_cell_length_a   6.64262302
_cell_length_b   7.27198614
_cell_length_c   9.09149711
_cell_angle_alpha   95.24238129
_cell_angle_beta   111.42733468
_cell_angle_gamma   89.99999702
_symmetry_Int_Tables_number   1
_chemical_formula_structural   La4HoIrRu
_chemical_formula_sum   'La8 Ho2 Ir2 Ru2'
_cell_volume   406.83692056
_cell_formula_units_Z   2
loop_
 _symmetry_equiv_pos_site_id
 _symmetry_equiv_pos_as_xyz
  1  'x, y, z'
loop_
 _atom_site_type_symbol
 _atom_site_label
 _atom_site_symmetry_multiplicity
 _atom_site_fract_x
 _atom_site_fract_y
 _atom_site_fract_z
 _atom_site_occupancy
  La  La0  1  0.984291  0.916773  0.181478  1
  La  La1  1  0.802813  0.583227  0.818522  1
  La  La2  1  0.023272  0.089434  0.818070  1
  La  La3  1  0.205202  0.410566  0.181930  1
  La  La4  1  0.638163  0.815864  0.425252  1
  La  La5  1  0.212911  0.684136  0.574748  1
  La  La6  1  0.357389  0.187148  0.570395  1
  La  La7  1  0.786995  0.312852  0.429605  1
  Ho  Ho8  1  0.434447  0.750000  0.000000  1
  Ho  Ho9  1  0.569862  0.250000  0.000000  1
  Ir  Ir10  1  0.811111  0.575296  0.214069  1
  Ir  Ir11  1  0.597043  0.924704  0.785931  1
  Ru  Ru12  1  0.179036  0.423438  0.781575  1
  Ru  Ru13  1  0.397461  0.076562  0.218425  1
