# generated using pymatgen
data_Ce4TmRuPb3
_symmetry_space_group_name_H-M   'P 1'
_cell_length_a   9.57604517
_cell_length_b   9.57604666
_cell_length_c   6.34784900
_cell_angle_alpha   90.00000000
_cell_angle_beta   90.00000000
_cell_angle_gamma   119.34764130
_symmetry_Int_Tables_number   1
_chemical_formula_structural   Ce4TmRuPb3
_chemical_formula_sum   'Ce8 Tm2 Ru2 Pb6'
_cell_volume   507.39614780
_cell_formula_units_Z   2
loop_
 _symmetry_equiv_pos_site_id
 _symmetry_equiv_pos_as_xyz
  1  'x, y, z'
loop_
 _atom_site_type_symbol
 _atom_site_label
 _atom_site_symmetry_multiplicity
 _atom_site_fract_x
 _atom_site_fract_y
 _atom_site_fract_z
 _atom_site_occupancy
  Ce  Ce0  1  0.235136  0.003135  0.250000  1
  Ce  Ce1  1  0.764864  0.996865  0.750000  1
  Ce  Ce2  1  0.331183  0.668817  0.500000  1
  Ce  Ce3  1  0.668817  0.331183  0.500000  1
  Ce  Ce4  1  0.003135  0.235136  0.250000  1
  Ce  Ce5  1  0.996865  0.764864  0.750000  1
  Ce  Ce6  1  0.331183  0.668817  0.000000  1
  Ce  Ce7  1  0.668817  0.331183  0.000000  1
  Tm  Tm8  1  0.249221  0.249221  0.750000  1
  Tm  Tm9  1  0.750779  0.750779  0.250000  1
  Ru  Ru10  1  0.000000  0.000000  0.000000  1
  Ru  Ru11  1  0.000000  0.000000  0.500000  1
  Pb  Pb12  1  0.401045  0.401045  0.250000  1
  Pb  Pb13  1  0.598955  0.598955  0.750000  1
  Pb  Pb14  1  0.004353  0.396986  0.750000  1
  Pb  Pb15  1  0.603014  0.995647  0.250000  1
  Pb  Pb16  1  0.396986  0.004353  0.750000  1
  Pb  Pb17  1  0.995647  0.603014  0.250000  1
