# generated using pymatgen
data_TbZr4U3F28
_symmetry_space_group_name_H-M   'P 1'
_cell_length_a   5.85570330
_cell_length_b   9.44442804
_cell_length_c   12.59426836
_cell_angle_alpha   61.41121558
_cell_angle_beta   89.99912401
_cell_angle_gamma   89.92970770
_symmetry_Int_Tables_number   1
_chemical_formula_structural   TbZr4U3F28
_chemical_formula_sum   'Tb1 Zr4 U3 F28'
_cell_volume   611.58902544
_cell_formula_units_Z   1
loop_
 _symmetry_equiv_pos_site_id
 _symmetry_equiv_pos_as_xyz
  1  'x, y, z'
loop_
 _atom_site_type_symbol
 _atom_site_label
 _atom_site_symmetry_multiplicity
 _atom_site_fract_x
 _atom_site_fract_y
 _atom_site_fract_z
 _atom_site_occupancy
  Tb  Tb0  1  0.742654  0.812465  0.265327  1
  Zr  Zr1  1  0.744126  0.281344  0.452612  1
  Zr  Zr2  1  0.243649  0.723800  0.051178  1
  Zr  Zr3  1  0.254233  0.722039  0.540742  1
  Zr  Zr4  1  0.753977  0.270845  0.957567  1
  U  U5  1  0.242299  0.181600  0.235766  1
  U  U6  1  0.257394  0.184369  0.735410  1
  U  U7  1  0.756862  0.810626  0.765819  1
  F  F8  1  0.462945  0.716915  0.926327  1
  F  F9  1  0.962323  0.287677  0.577503  1
  F  F10  1  0.537653  0.286012  0.079267  1
  F  F11  1  0.032600  0.714814  0.417495  1
  F  F12  1  0.456896  0.284510  0.546040  1
  F  F13  1  0.960586  0.719785  0.954456  1
  F  F14  1  0.539125  0.719909  0.444487  1
  F  F15  1  0.042901  0.281545  0.047416  1
  F  F16  1  0.760711  0.518141  0.861711  1
  F  F17  1  0.262820  0.477294  0.638169  1
  F  F18  1  0.236195  0.479320  0.143760  1
  F  F19  1  0.737945  0.528089  0.358326  1
  F  F20  1  0.761097  0.024636  0.061129  1
  F  F21  1  0.263546  0.970094  0.442579  1
  F  F22  1  0.236136  0.970533  0.943554  1
  F  F23  1  0.735814  0.033940  0.557427  1
  F  F24  1  0.985701  0.734058  0.641111  1
  F  F25  1  0.483012  0.264141  0.856740  1
  F  F26  1  0.010932  0.266639  0.353150  1
  F  F27  1  0.509169  0.736712  0.152826  1
  F  F28  1  0.030178  0.747890  0.172366  1
  F  F29  1  0.537134  0.264970  0.326574  1
  F  F30  1  0.960946  0.259240  0.829115  1
  F  F31  1  0.467276  0.737689  0.665830  1
  F  F32  1  0.431987  0.969609  0.233522  1
  F  F33  1  0.920184  0.020755  0.265202  1
  F  F34  1  0.589952  0.031261  0.768455  1
  F  F35  1  0.089042  0.966734  0.731041  1
