# generated using pymatgen
data_Tb21Dy2LuTe12
_symmetry_space_group_name_H-M   'P 1'
_cell_length_a   4.08866800
_cell_length_b   11.58608215
_cell_length_c   22.23505448
_cell_angle_alpha   89.96997678
_cell_angle_beta   90.00000000
_cell_angle_gamma   90.00000000
_symmetry_Int_Tables_number   1
_chemical_formula_structural   Tb21Dy2LuTe12
_chemical_formula_sum   'Tb21 Dy2 Lu1 Te12'
_cell_volume   1053.31092548
_cell_formula_units_Z   1
loop_
 _symmetry_equiv_pos_site_id
 _symmetry_equiv_pos_as_xyz
  1  'x, y, z'
loop_
 _atom_site_type_symbol
 _atom_site_label
 _atom_site_symmetry_multiplicity
 _atom_site_fract_x
 _atom_site_fract_y
 _atom_site_fract_z
 _atom_site_occupancy
  Tb  Tb0  1  0.250000  0.151658  0.391816  1
  Tb  Tb1  1  0.750000  0.848408  0.608097  1
  Tb  Tb2  1  0.750000  0.651721  0.108063  1
  Tb  Tb3  1  0.250000  0.348710  0.892158  1
  Tb  Tb4  1  0.250000  0.455871  0.340203  1
  Tb  Tb5  1  0.750000  0.544048  0.659808  1
  Tb  Tb6  1  0.750000  0.956008  0.159816  1
  Tb  Tb7  1  0.250000  0.044383  0.840230  1
  Tb  Tb8  1  0.250000  0.734499  0.233693  1
  Tb  Tb9  1  0.750000  0.265668  0.766349  1
  Tb  Tb10  1  0.750000  0.234467  0.266214  1
  Tb  Tb11  1  0.250000  0.765572  0.733637  1
  Tb  Tb12  1  0.250000  0.115850  0.034529  1
  Tb  Tb13  1  0.750000  0.884831  0.965453  1
  Tb  Tb14  1  0.750000  0.615397  0.465477  1
  Tb  Tb15  1  0.250000  0.384595  0.534547  1
  Tb  Tb16  1  0.250000  0.413931  0.146537  1
  Tb  Tb17  1  0.750000  0.586283  0.852708  1
  Tb  Tb18  1  0.750000  0.913738  0.352943  1
  Tb  Tb19  1  0.250000  0.086292  0.647080  1
  Tb  Tb20  1  0.250000  0.610639  0.983228  1
  Dy  Dy21  1  0.750000  0.112254  0.517164  1
  Dy  Dy22  1  0.250000  0.887615  0.482848  1
  Lu  Lu23  1  0.750000  0.386880  0.017737  1
  Te  Te24  1  0.250000  0.850021  0.068731  1
  Te  Te25  1  0.750000  0.150157  0.931524  1
  Te  Te26  1  0.750000  0.349917  0.431386  1
  Te  Te27  1  0.250000  0.650069  0.568603  1
  Te  Te28  1  0.250000  0.711987  0.372965  1
  Te  Te29  1  0.750000  0.287996  0.627031  1
  Te  Te30  1  0.750000  0.212354  0.126751  1
  Te  Te31  1  0.250000  0.788080  0.872827  1
  Te  Te32  1  0.250000  0.020570  0.261149  1
  Te  Te33  1  0.750000  0.979475  0.738812  1
  Te  Te34  1  0.750000  0.520580  0.238764  1
  Te  Te35  1  0.250000  0.479478  0.761126  1
