# generated using pymatgen
data_Dy7Sc3(Si3H)2
_symmetry_space_group_name_H-M   'P 1'
_cell_length_a   8.33944400
_cell_length_b   8.33944369
_cell_length_c   6.01910400
_cell_angle_alpha   90.00000000
_cell_angle_beta   90.00000000
_cell_angle_gamma   120.00000123
_symmetry_Int_Tables_number   1
_chemical_formula_structural   Dy7Sc3(Si3H)2
_chemical_formula_sum   'Dy7 Sc3 Si6 H2'
_cell_volume   362.52390621
_cell_formula_units_Z   1
loop_
 _symmetry_equiv_pos_site_id
 _symmetry_equiv_pos_as_xyz
  1  'x, y, z'
loop_
 _atom_site_type_symbol
 _atom_site_label
 _atom_site_symmetry_multiplicity
 _atom_site_fract_x
 _atom_site_fract_y
 _atom_site_fract_z
 _atom_site_occupancy
  Dy  Dy0  1  0.666667  0.333333  0.500000  1
  Dy  Dy1  1  0.747131  0.747584  0.751915  1
  Dy  Dy2  1  0.252416  0.999548  0.751915  1
  Dy  Dy3  1  0.000452  0.252869  0.751915  1
  Dy  Dy4  1  0.252416  0.252869  0.248085  1
  Dy  Dy5  1  0.747131  0.999548  0.248085  1
  Dy  Dy6  1  0.000452  0.747584  0.248085  1
  Sc  Sc7  1  0.666667  0.333333  0.000000  1
  Sc  Sc8  1  0.333333  0.666667  0.000000  1
  Sc  Sc9  1  0.333333  0.666667  0.500000  1
  Si  Si10  1  0.390653  0.395044  0.755872  1
  Si  Si11  1  0.604956  0.995610  0.755872  1
  Si  Si12  1  0.004390  0.609347  0.755872  1
  Si  Si13  1  0.604956  0.609347  0.244128  1
  Si  Si14  1  0.390653  0.995610  0.244128  1
  Si  Si15  1  0.004390  0.395044  0.244128  1
  H  H16  1  0.000000  0.000000  0.500000  1
  H  H17  1  0.000000  0.000000  0.000000  1
