# generated using pymatgen
data_AlV12Si2Ir
_symmetry_space_group_name_H-M   'P 1'
_cell_length_a   4.74088300
_cell_length_b   4.75396700
_cell_length_c   9.50641000
_cell_angle_alpha   90.00000000
_cell_angle_beta   90.00000000
_cell_angle_gamma   90.00000000
_symmetry_Int_Tables_number   1
_chemical_formula_structural   AlV12Si2Ir
_chemical_formula_sum   'Al1 V12 Si2 Ir1'
_cell_volume   214.25548125
_cell_formula_units_Z   1
loop_
 _symmetry_equiv_pos_site_id
 _symmetry_equiv_pos_as_xyz
  1  'x, y, z'
loop_
 _atom_site_type_symbol
 _atom_site_label
 _atom_site_symmetry_multiplicity
 _atom_site_fract_x
 _atom_site_fract_y
 _atom_site_fract_z
 _atom_site_occupancy
  Al  Al0  1  0.500000  0.500000  0.002026  1
  V  V1  1  0.000000  0.500000  0.123335  1
  V  V2  1  0.000000  0.500000  0.626643  1
  V  V3  1  0.500000  0.250063  0.745088  1
  V  V4  1  0.500000  0.251189  0.254728  1
  V  V5  1  0.753545  0.000000  0.002253  1
  V  V6  1  0.748422  0.000000  0.498055  1
  V  V7  1  0.000000  0.500000  0.869795  1
  V  V8  1  0.000000  0.500000  0.380145  1
  V  V9  1  0.500000  0.749937  0.745088  1
  V  V10  1  0.500000  0.748811  0.254728  1
  V  V11  1  0.246455  0.000000  0.002253  1
  V  V12  1  0.251578  0.000000  0.498055  1
  Si  Si13  1  0.500000  0.500000  0.497344  1
  Si  Si14  1  0.000000  0.000000  0.250471  1
  Ir  Ir15  1  0.000000  0.000000  0.749993  1
