# generated using pymatgen
data_ScMnFe4P3
_symmetry_space_group_name_H-M   'P 1'
_cell_length_a   3.60575300
_cell_length_b   10.17086400
_cell_length_c   11.72369100
_cell_angle_alpha   90.00000000
_cell_angle_beta   90.00000000
_cell_angle_gamma   90.00000000
_symmetry_Int_Tables_number   1
_chemical_formula_structural   ScMnFe4P3
_chemical_formula_sum   'Sc4 Mn4 Fe16 P12'
_cell_volume   429.95022836
_cell_formula_units_Z   4
loop_
 _symmetry_equiv_pos_site_id
 _symmetry_equiv_pos_as_xyz
  1  'x, y, z'
loop_
 _atom_site_type_symbol
 _atom_site_label
 _atom_site_symmetry_multiplicity
 _atom_site_fract_x
 _atom_site_fract_y
 _atom_site_fract_z
 _atom_site_occupancy
  Sc  Sc0  1  0.250000  0.578891  0.705725  1
  Sc  Sc1  1  0.250000  0.921109  0.205725  1
  Sc  Sc2  1  0.750000  0.421109  0.294275  1
  Sc  Sc3  1  0.750000  0.078891  0.794275  1
  Mn  Mn4  1  0.250000  0.703349  0.988737  1
  Mn  Mn5  1  0.250000  0.796651  0.488737  1
  Mn  Mn6  1  0.750000  0.296651  0.011263  1
  Mn  Mn7  1  0.750000  0.203349  0.511263  1
  Fe  Fe8  1  0.250000  0.405070  0.486298  1
  Fe  Fe9  1  0.250000  0.094930  0.986298  1
  Fe  Fe10  1  0.750000  0.594930  0.513702  1
  Fe  Fe11  1  0.750000  0.905070  0.013702  1
  Fe  Fe12  1  0.250000  0.220569  0.171653  1
  Fe  Fe13  1  0.250000  0.279432  0.671653  1
  Fe  Fe14  1  0.750000  0.779432  0.828347  1
  Fe  Fe15  1  0.750000  0.720568  0.328347  1
  Fe  Fe16  1  0.250000  0.874267  0.701733  1
  Fe  Fe17  1  0.250000  0.625733  0.201733  1
  Fe  Fe18  1  0.750000  0.125733  0.298267  1
  Fe  Fe19  1  0.750000  0.374267  0.798267  1
  Fe  Fe20  1  0.250000  0.461586  0.932126  1
  Fe  Fe21  1  0.250000  0.038414  0.432126  1
  Fe  Fe22  1  0.750000  0.538414  0.067874  1
  Fe  Fe23  1  0.750000  0.961586  0.567874  1
  P  P24  1  0.250000  0.424729  0.116660  1
  P  P25  1  0.250000  0.075271  0.616660  1
  P  P26  1  0.750000  0.575271  0.883340  1
  P  P27  1  0.750000  0.924729  0.383340  1
  P  P28  1  0.250000  0.261247  0.863345  1
  P  P29  1  0.250000  0.238753  0.363345  1
  P  P30  1  0.750000  0.738753  0.136655  1
  P  P31  1  0.750000  0.761247  0.636655  1
  P  P32  1  0.250000  0.595276  0.391305  1
  P  P33  1  0.250000  0.904724  0.891305  1
  P  P34  1  0.750000  0.404724  0.608695  1
  P  P35  1  0.750000  0.095276  0.108695  1
