# generated using pymatgen
data_NdNpTcB6
_symmetry_space_group_name_H-M   'P 1'
_cell_length_a   3.69308500
_cell_length_b   9.34844000
_cell_length_c   11.44099000
_cell_angle_alpha   90.00000000
_cell_angle_beta   90.00000000
_cell_angle_gamma   90.00000000
_symmetry_Int_Tables_number   1
_chemical_formula_structural   NdNpTcB6
_chemical_formula_sum   'Nd4 Np4 Tc4 B24'
_cell_volume   394.99541501
_cell_formula_units_Z   4
loop_
 _symmetry_equiv_pos_site_id
 _symmetry_equiv_pos_as_xyz
  1  'x, y, z'
loop_
 _atom_site_type_symbol
 _atom_site_label
 _atom_site_symmetry_multiplicity
 _atom_site_fract_x
 _atom_site_fract_y
 _atom_site_fract_z
 _atom_site_occupancy
  Nd  Nd0  1  0.000000  0.338105  0.407425  1
  Nd  Nd1  1  0.000000  0.661895  0.592575  1
  Nd  Nd2  1  0.000000  0.838105  0.092575  1
  Nd  Nd3  1  0.000000  0.161895  0.907425  1
  Np  Np4  1  0.000000  0.959968  0.401241  1
  Np  Np5  1  0.000000  0.040032  0.598759  1
  Np  Np6  1  0.000000  0.459968  0.098759  1
  Np  Np7  1  0.000000  0.540032  0.901241  1
  Tc  Tc8  1  0.000000  0.648612  0.316982  1
  Tc  Tc9  1  0.000000  0.351388  0.683018  1
  Tc  Tc10  1  0.000000  0.148612  0.183018  1
  Tc  Tc11  1  0.000000  0.851388  0.816982  1
  B  B12  1  0.500000  0.556030  0.428390  1
  B  B13  1  0.500000  0.443970  0.571610  1
  B  B14  1  0.500000  0.056030  0.071610  1
  B  B15  1  0.500000  0.943970  0.928390  1
  B  B16  1  0.500000  0.746925  0.420775  1
  B  B17  1  0.500000  0.253075  0.579225  1
  B  B18  1  0.500000  0.246925  0.079225  1
  B  B19  1  0.500000  0.753075  0.920775  1
  B  B20  1  0.500000  0.804728  0.275047  1
  B  B21  1  0.500000  0.195272  0.724953  1
  B  B22  1  0.500000  0.304728  0.224953  1
  B  B23  1  0.500000  0.695272  0.775047  1
  B  B24  1  0.500000  0.643884  0.187831  1
  B  B25  1  0.500000  0.356116  0.812169  1
  B  B26  1  0.500000  0.143884  0.312169  1
  B  B27  1  0.500000  0.856116  0.687831  1
  B  B28  1  0.500000  0.992066  0.221716  1
  B  B29  1  0.500000  0.007934  0.778284  1
  B  B30  1  0.500000  0.492066  0.278284  1
  B  B31  1  0.500000  0.507934  0.721716  1
  B  B32  1  0.500000  0.635618  0.037077  1
  B  B33  1  0.500000  0.364382  0.962923  1
  B  B34  1  0.500000  0.135618  0.462923  1
  B  B35  1  0.500000  0.864382  0.537077  1
