# generated using pymatgen
data_La16Cd4FeTc2Ni
_symmetry_space_group_name_H-M   'P 1'
_cell_length_a   9.99407942
_cell_length_b   10.05920991
_cell_length_c   10.14146600
_cell_angle_alpha   59.73083380
_cell_angle_beta   59.51244754
_cell_angle_gamma   59.05445974
_symmetry_Int_Tables_number   1
_chemical_formula_structural   La16Cd4FeTc2Ni
_chemical_formula_sum   'La16 Cd4 Fe1 Tc2 Ni1'
_cell_volume   711.56929026
_cell_formula_units_Z   1
loop_
 _symmetry_equiv_pos_site_id
 _symmetry_equiv_pos_as_xyz
  1  'x, y, z'
loop_
 _atom_site_type_symbol
 _atom_site_label
 _atom_site_symmetry_multiplicity
 _atom_site_fract_x
 _atom_site_fract_y
 _atom_site_fract_z
 _atom_site_occupancy
  La  La0  1  0.593241  0.598713  0.592891  1
  La  La1  1  0.593240  0.598716  0.215159  1
  La  La2  1  0.598396  0.211160  0.595214  1
  La  La3  1  0.213145  0.599299  0.593773  1
  La  La4  1  0.064895  0.438908  0.438408  1
  La  La5  1  0.439534  0.058213  0.065068  1
  La  La6  1  0.439531  0.058217  0.437181  1
  La  La7  1  0.064894  0.438915  0.057782  1
  La  La8  1  0.440254  0.438706  0.060527  1
  La  La9  1  0.073098  0.051825  0.437540  1
  La  La10  1  0.188629  0.807689  0.811287  1
  La  La11  1  0.806310  0.189897  0.191699  1
  La  La12  1  0.806313  0.189889  0.812100  1
  La  La13  1  0.188636  0.807688  0.192391  1
  La  La14  1  0.813069  0.813572  0.186690  1
  La  La15  1  0.196782  0.197382  0.802915  1
  Cd  Cd16  1  0.827550  0.828599  0.829769  1
  Cd  Cd17  1  0.827551  0.828599  0.514091  1
  Cd  Cd18  1  0.827672  0.513844  0.829244  1
  Cd  Cd19  1  0.513682  0.827857  0.829232  1
  Fe  Fe20  1  0.383640  0.844277  0.386040  1
  Tc  Tc21  1  0.384198  0.384288  0.386834  1
  Tc  Tc22  1  0.384201  0.384286  0.844678  1
  Ni  Ni23  1  0.831547  0.389465  0.389491  1
