# generated using pymatgen
data_TbHo2Tm5Pt4
_symmetry_space_group_name_H-M   'P 1'
_cell_length_a   4.74889200
_cell_length_b   7.10587322
_cell_length_c   8.70936733
_cell_angle_alpha   90.00161964
_cell_angle_beta   90.00000000
_cell_angle_gamma   90.00000000
_symmetry_Int_Tables_number   1
_chemical_formula_structural   TbHo2Tm5Pt4
_chemical_formula_sum   'Tb1 Ho2 Tm5 Pt4'
_cell_volume   293.89781354
_cell_formula_units_Z   1
loop_
 _symmetry_equiv_pos_site_id
 _symmetry_equiv_pos_as_xyz
  1  'x, y, z'
loop_
 _atom_site_type_symbol
 _atom_site_label
 _atom_site_symmetry_multiplicity
 _atom_site_fract_x
 _atom_site_fract_y
 _atom_site_fract_z
 _atom_site_occupancy
  Tb  Tb0  1  0.250000  0.991428  0.329634  1
  Ho  Ho1  1  0.250000  0.490970  0.168628  1
  Ho  Ho2  1  0.750000  0.008680  0.670432  1
  Tm  Tm3  1  0.750000  0.642587  0.421105  1
  Tm  Tm4  1  0.250000  0.357255  0.581160  1
  Tm  Tm5  1  0.750000  0.143921  0.078181  1
  Tm  Tm6  1  0.250000  0.855476  0.919940  1
  Tm  Tm7  1  0.750000  0.508940  0.832440  1
  Pt  Pt8  1  0.750000  0.243441  0.408125  1
  Pt  Pt9  1  0.250000  0.756418  0.592452  1
  Pt  Pt10  1  0.750000  0.742955  0.090617  1
  Pt  Pt11  1  0.250000  0.257931  0.907286  1
