# generated using pymatgen
data_Dy2Y17InIr12
_symmetry_space_group_name_H-M   'P 1'
_cell_length_a   10.91673300
_cell_length_b   10.91673300
_cell_length_c   6.34162300
_cell_angle_alpha   90.00000000
_cell_angle_beta   90.00000000
_cell_angle_gamma   90.00000000
_symmetry_Int_Tables_number   1
_chemical_formula_structural   Dy2Y17InIr12
_chemical_formula_sum   'Dy2 Y17 In1 Ir12'
_cell_volume   755.76329767
_cell_formula_units_Z   1
loop_
 _symmetry_equiv_pos_site_id
 _symmetry_equiv_pos_as_xyz
  1  'x, y, z'
loop_
 _atom_site_type_symbol
 _atom_site_label
 _atom_site_symmetry_multiplicity
 _atom_site_fract_x
 _atom_site_fract_y
 _atom_site_fract_z
 _atom_site_occupancy
  Dy  Dy0  1  0.500000  0.500000  0.000000  1
  Dy  Dy1  1  0.500000  0.500000  0.500000  1
  Y  Y2  1  0.283978  0.085016  0.380478  1
  Y  Y3  1  0.291072  0.911363  0.880808  1
  Y  Y4  1  0.708928  0.088637  0.880808  1
  Y  Y5  1  0.716022  0.914984  0.380478  1
  Y  Y6  1  0.588535  0.791810  0.881623  1
  Y  Y7  1  0.587967  0.208100  0.378178  1
  Y  Y8  1  0.412033  0.791900  0.378178  1
  Y  Y9  1  0.411465  0.208190  0.881623  1
  Y  Y10  1  0.208100  0.412033  0.621822  1
  Y  Y11  1  0.208190  0.588535  0.118377  1
  Y  Y12  1  0.791810  0.411465  0.118377  1
  Y  Y13  1  0.791900  0.587967  0.621822  1
  Y  Y14  1  0.911363  0.708928  0.119192  1
  Y  Y15  1  0.914984  0.283978  0.619522  1
  Y  Y16  1  0.085016  0.716022  0.619522  1
  Y  Y17  1  0.088637  0.291072  0.119192  1
  Y  Y18  1  0.000000  0.000000  0.000000  1
  In  In19  1  0.000000  0.000000  0.500000  1
  Ir  Ir20  1  0.846118  0.155507  0.246214  1
  Ir  Ir21  1  0.844493  0.846118  0.753786  1
  Ir  Ir22  1  0.155507  0.153882  0.753786  1
  Ir  Ir23  1  0.153882  0.844493  0.246214  1
  Ir  Ir24  1  0.653914  0.346933  0.747319  1
  Ir  Ir25  1  0.653067  0.653914  0.252681  1
  Ir  Ir26  1  0.346933  0.346086  0.252681  1
  Ir  Ir27  1  0.346086  0.653067  0.747319  1
  Ir  Ir28  1  0.500000  0.000000  0.126860  1
  Ir  Ir29  1  0.500000  0.000000  0.621959  1
  Ir  Ir30  1  0.000000  0.500000  0.873140  1
  Ir  Ir31  1  0.000000  0.500000  0.378041  1
