# generated using pymatgen
data_Lu4Th4B24Mo3Ru
_symmetry_space_group_name_H-M   'P 1'
_cell_length_a   3.75017900
_cell_length_b   9.22883191
_cell_length_c   11.67875440
_cell_angle_alpha   89.92638772
_cell_angle_beta   90.00000000
_cell_angle_gamma   90.00000000
_symmetry_Int_Tables_number   1
_chemical_formula_structural   Lu4Th4B24Mo3Ru
_chemical_formula_sum   'Lu4 Th4 B24 Mo3 Ru1'
_cell_volume   404.19868912
_cell_formula_units_Z   1
loop_
 _symmetry_equiv_pos_site_id
 _symmetry_equiv_pos_as_xyz
  1  'x, y, z'
loop_
 _atom_site_type_symbol
 _atom_site_label
 _atom_site_symmetry_multiplicity
 _atom_site_fract_x
 _atom_site_fract_y
 _atom_site_fract_z
 _atom_site_occupancy
  Lu  Lu0  1  0.000000  0.944643  0.372811  1
  Lu  Lu1  1  0.000000  0.056046  0.627822  1
  Lu  Lu2  1  0.000000  0.445454  0.127445  1
  Lu  Lu3  1  0.000000  0.555546  0.871608  1
  Th  Th4  1  0.000000  0.320997  0.413945  1
  Th  Th5  1  0.000000  0.676757  0.583529  1
  Th  Th6  1  0.000000  0.821817  0.087241  1
  Th  Th7  1  0.000000  0.180375  0.915636  1
  B  B8  1  0.500000  0.555022  0.430551  1
  B  B9  1  0.500000  0.444867  0.569502  1
  B  B10  1  0.500000  0.054959  0.068424  1
  B  B11  1  0.500000  0.942561  0.929409  1
  B  B12  1  0.500000  0.752523  0.417344  1
  B  B13  1  0.500000  0.246923  0.583565  1
  B  B14  1  0.500000  0.252871  0.082475  1
  B  B15  1  0.500000  0.748590  0.916030  1
  B  B16  1  0.500000  0.793932  0.265873  1
  B  B17  1  0.500000  0.205794  0.735268  1
  B  B18  1  0.500000  0.293340  0.234160  1
  B  B19  1  0.500000  0.708778  0.766092  1
  B  B20  1  0.500000  0.630025  0.183938  1
  B  B21  1  0.500000  0.370588  0.816388  1
  B  B22  1  0.500000  0.128867  0.315347  1
  B  B23  1  0.500000  0.870521  0.685044  1
  B  B24  1  0.500000  0.982221  0.214689  1
  B  B25  1  0.500000  0.014226  0.785902  1
  B  B26  1  0.500000  0.482644  0.284569  1
  B  B27  1  0.500000  0.517816  0.715030  1
  B  B28  1  0.500000  0.600819  0.025900  1
  B  B29  1  0.500000  0.401818  0.972483  1
  B  B30  1  0.500000  0.098636  0.473731  1
  B  B31  1  0.500000  0.900639  0.528474  1
  Mo  Mo32  1  0.000000  0.640128  0.318936  1
  Mo  Mo33  1  0.000000  0.359565  0.681909  1
  Mo  Mo34  1  0.000000  0.139641  0.180135  1
  Ru  Ru35  1  0.000000  0.860047  0.818795  1
