# generated using pymatgen
data_Li10(In3Pd)3
_symmetry_space_group_name_H-M   'P 1'
_cell_length_a   7.26718880
_cell_length_b   7.26719001
_cell_length_c   9.81838810
_cell_angle_alpha   62.64655160
_cell_angle_beta   62.64654728
_cell_angle_gamma   77.19138184
_symmetry_Int_Tables_number   1
_chemical_formula_structural   Li10(In3Pd)3
_chemical_formula_sum   'Li10 In9 Pd3'
_cell_volume   409.02032445
_cell_formula_units_Z   1
loop_
 _symmetry_equiv_pos_site_id
 _symmetry_equiv_pos_as_xyz
  1  'x, y, z'
loop_
 _atom_site_type_symbol
 _atom_site_label
 _atom_site_symmetry_multiplicity
 _atom_site_fract_x
 _atom_site_fract_y
 _atom_site_fract_z
 _atom_site_occupancy
  Li  Li0  1  0.542868  0.060732  0.158145  1
  Li  Li1  1  0.544447  0.544447  0.680145  1
  Li  Li2  1  0.060732  0.542868  0.158145  1
  Li  Li3  1  0.455553  0.455553  0.319855  1
  Li  Li4  1  0.275160  0.724840  0.500000  1
  Li  Li5  1  0.258363  0.258363  0.978009  1
  Li  Li6  1  0.939268  0.457132  0.841855  1
  Li  Li7  1  0.741637  0.741637  0.021991  1
  Li  Li8  1  0.457132  0.939268  0.841855  1
  Li  Li9  1  0.724840  0.275160  0.500000  1
  In  In10  1  0.224743  0.825996  0.200776  1
  In  In11  1  0.169030  0.169030  0.399648  1
  In  In12  1  0.261189  0.261189  0.666106  1
  In  In13  1  0.825996  0.224743  0.200776  1
  In  In14  1  0.738811  0.738811  0.333894  1
  In  In15  1  0.500000  0.500000  0.000000  1
  In  In16  1  0.775257  0.174004  0.799224  1
  In  In17  1  0.174004  0.775257  0.799224  1
  In  In18  1  0.830970  0.830970  0.600352  1
  Pd  Pd19  1  0.500000  0.000000  0.500000  1
  Pd  Pd20  1  0.000000  0.000000  0.000000  1
  Pd  Pd21  1  0.000000  0.500000  0.500000  1
