# generated using pymatgen
data_Ho4Lu6Sn3Pb5
_symmetry_space_group_name_H-M   'P 1'
_cell_length_a   8.05332500
_cell_length_b   15.37054900
_cell_length_c   8.11297400
_cell_angle_alpha   90.00000000
_cell_angle_beta   90.00000000
_cell_angle_gamma   90.00000000
_symmetry_Int_Tables_number   1
_chemical_formula_structural   Ho4Lu6Sn3Pb5
_chemical_formula_sum   'Ho8 Lu12 Sn6 Pb10'
_cell_volume   1004.25658882
_cell_formula_units_Z   2
loop_
 _symmetry_equiv_pos_site_id
 _symmetry_equiv_pos_as_xyz
  1  'x, y, z'
loop_
 _atom_site_type_symbol
 _atom_site_label
 _atom_site_symmetry_multiplicity
 _atom_site_fract_x
 _atom_site_fract_y
 _atom_site_fract_z
 _atom_site_occupancy
  Ho  Ho0  1  0.464290  0.601997  0.676582  1
  Ho  Ho1  1  0.964290  0.898003  0.823418  1
  Ho  Ho2  1  0.535588  0.099800  0.324798  1
  Ho  Ho3  1  0.035588  0.400200  0.175202  1
  Ho  Ho4  1  0.535588  0.400200  0.324798  1
  Ho  Ho5  1  0.035588  0.099800  0.175202  1
  Ho  Ho6  1  0.464290  0.898003  0.676582  1
  Ho  Ho7  1  0.964290  0.601997  0.823418  1
  Lu  Lu8  1  0.623396  0.623902  0.158915  1
  Lu  Lu9  1  0.123396  0.876098  0.341085  1
  Lu  Lu10  1  0.376363  0.123063  0.839650  1
  Lu  Lu11  1  0.876363  0.376937  0.660350  1
  Lu  Lu12  1  0.376363  0.376937  0.839650  1
  Lu  Lu13  1  0.876363  0.123063  0.660350  1
  Lu  Lu14  1  0.623396  0.876098  0.158915  1
  Lu  Lu15  1  0.123396  0.623902  0.341085  1
  Lu  Lu16  1  0.791813  0.750000  0.494884  1
  Lu  Lu17  1  0.291813  0.750000  0.005116  1
  Lu  Lu18  1  0.208987  0.250000  0.508606  1
  Lu  Lu19  1  0.708987  0.250000  0.991394  1
  Sn  Sn20  1  0.427897  0.750000  0.374350  1
  Sn  Sn21  1  0.927897  0.750000  0.125650  1
  Sn  Sn22  1  0.571512  0.250000  0.626965  1
  Sn  Sn23  1  0.071512  0.250000  0.873035  1
  Sn  Sn24  1  0.655256  0.750000  0.849796  1
  Sn  Sn25  1  0.155256  0.750000  0.650204  1
  Pb  Pb26  1  0.716372  0.457713  0.965349  1
  Pb  Pb27  1  0.216372  0.042287  0.534651  1
  Pb  Pb28  1  0.283649  0.957837  0.034893  1
  Pb  Pb29  1  0.783649  0.542163  0.465107  1
  Pb  Pb30  1  0.283649  0.542163  0.034893  1
  Pb  Pb31  1  0.783649  0.957837  0.465107  1
  Pb  Pb32  1  0.716372  0.042287  0.965349  1
  Pb  Pb33  1  0.216372  0.457713  0.534651  1
  Pb  Pb34  1  0.345220  0.250000  0.152085  1
  Pb  Pb35  1  0.845220  0.250000  0.347915  1
