# generated using pymatgen
data_Sn4RuAu
_symmetry_space_group_name_H-M   'P 1'
_cell_length_a   6.76639000
_cell_length_b   6.76639000
_cell_length_c   6.00059800
_cell_angle_alpha   90.00000000
_cell_angle_beta   90.00000000
_cell_angle_gamma   90.00000000
_symmetry_Int_Tables_number   1
_chemical_formula_structural   Sn4RuAu
_chemical_formula_sum   'Sn8 Ru2 Au2'
_cell_volume   274.73158064
_cell_formula_units_Z   2
loop_
 _symmetry_equiv_pos_site_id
 _symmetry_equiv_pos_as_xyz
  1  'x, y, z'
loop_
 _atom_site_type_symbol
 _atom_site_label
 _atom_site_symmetry_multiplicity
 _atom_site_fract_x
 _atom_site_fract_y
 _atom_site_fract_z
 _atom_site_occupancy
  Sn  Sn0  1  0.368284  0.180821  0.000000  1
  Sn  Sn1  1  0.631716  0.819179  0.000000  1
  Sn  Sn2  1  0.180821  0.631716  0.000000  1
  Sn  Sn3  1  0.368284  0.819179  0.500000  1
  Sn  Sn4  1  0.819179  0.368284  0.000000  1
  Sn  Sn5  1  0.631716  0.180821  0.500000  1
  Sn  Sn6  1  0.180821  0.368284  0.500000  1
  Sn  Sn7  1  0.819179  0.631716  0.500000  1
  Ru  Ru8  1  0.500000  0.500000  0.250000  1
  Ru  Ru9  1  0.500000  0.500000  0.750000  1
  Au  Au10  1  0.000000  0.000000  0.000000  1
  Au  Au11  1  0.000000  0.000000  0.500000  1
