# generated using pymatgen
data_Tm2Mn2I
_symmetry_space_group_name_H-M   'P 1'
_cell_length_a   3.84574600
_cell_length_b   3.84574623
_cell_length_c   17.39727000
_cell_angle_alpha   90.00000000
_cell_angle_beta   90.00000000
_cell_angle_gamma   119.99999801
_symmetry_Int_Tables_number   1
_chemical_formula_structural   Tm2Mn2I
_chemical_formula_sum   'Tm4 Mn4 I2'
_cell_volume   222.82964286
_cell_formula_units_Z   2
loop_
 _symmetry_equiv_pos_site_id
 _symmetry_equiv_pos_as_xyz
  1  'x, y, z'
loop_
 _atom_site_type_symbol
 _atom_site_label
 _atom_site_symmetry_multiplicity
 _atom_site_fract_x
 _atom_site_fract_y
 _atom_site_fract_z
 _atom_site_occupancy
  Tm  Tm0  1  0.000000  0.000000  0.108917  1
  Tm  Tm1  1  0.000000  0.000000  0.391083  1
  Tm  Tm2  1  0.000000  0.000000  0.891083  1
  Tm  Tm3  1  0.000000  0.000000  0.608917  1
  Mn  Mn4  1  0.333333  0.666667  0.008889  1
  Mn  Mn5  1  0.666667  0.333333  0.991111  1
  Mn  Mn6  1  0.333333  0.666667  0.491111  1
  Mn  Mn7  1  0.666667  0.333333  0.508889  1
  I  I8  1  0.333333  0.666667  0.750000  1
  I  I9  1  0.666667  0.333333  0.250000  1
