# generated using pymatgen
data_Nb12Al9Pd3C4
_symmetry_space_group_name_H-M   'P 1'
_cell_length_a   8.39025974
_cell_length_b   8.40904357
_cell_length_c   8.39026000
_cell_angle_alpha   60.07386386
_cell_angle_beta   59.99999896
_cell_angle_gamma   60.07386647
_symmetry_Int_Tables_number   1
_chemical_formula_structural   Nb12Al9Pd3C4
_chemical_formula_sum   'Nb12 Al9 Pd3 C4'
_cell_volume   419.05053750
_cell_formula_units_Z   1
loop_
 _symmetry_equiv_pos_site_id
 _symmetry_equiv_pos_as_xyz
  1  'x, y, z'
loop_
 _atom_site_type_symbol
 _atom_site_label
 _atom_site_symmetry_multiplicity
 _atom_site_fract_x
 _atom_site_fract_y
 _atom_site_fract_z
 _atom_site_occupancy
  Nb  Nb0  1  0.818174  0.821430  0.180198  1
  Nb  Nb1  1  0.193091  0.181684  0.812613  1
  Nb  Nb2  1  0.812613  0.181684  0.812613  1
  Nb  Nb3  1  0.180198  0.821430  0.180198  1
  Nb  Nb4  1  0.180198  0.821430  0.818174  1
  Nb  Nb5  1  0.812613  0.181684  0.193091  1
  Nb  Nb6  1  0.431826  0.428570  0.069802  1
  Nb  Nb7  1  0.056909  0.068316  0.437387  1
  Nb  Nb8  1  0.437387  0.068316  0.437387  1
  Nb  Nb9  1  0.069802  0.428570  0.069802  1
  Nb  Nb10  1  0.069802  0.428570  0.431826  1
  Nb  Nb11  1  0.437387  0.068316  0.056909  1
  Al  Al12  1  0.625000  0.125000  0.625000  1
  Al  Al13  1  0.754148  0.424431  0.410711  1
  Al  Al14  1  0.413024  0.760931  0.413024  1
  Al  Al15  1  0.410711  0.424431  0.754148  1
  Al  Al16  1  0.410711  0.424431  0.410711  1
  Al  Al17  1  0.495852  0.825569  0.839289  1
  Al  Al18  1  0.836976  0.489069  0.836976  1
  Al  Al19  1  0.839289  0.825569  0.495852  1
  Al  Al20  1  0.839289  0.825569  0.839289  1
  Pd  Pd21  1  0.125000  0.625000  0.625000  1
  Pd  Pd22  1  0.625000  0.625000  0.125000  1
  Pd  Pd23  1  0.625000  0.625000  0.625000  1
  C  C24  1  0.625000  0.125000  0.125000  1
  C  C25  1  0.125000  0.625000  0.125000  1
  C  C26  1  0.125000  0.125000  0.625000  1
  C  C27  1  0.125000  0.125000  0.125000  1
