# generated using pymatgen
data_Rb3V2Cl9
_symmetry_space_group_name_H-M   'P 1'
_cell_length_a   7.19986800
_cell_length_b   7.19986835
_cell_length_c   18.05725200
_cell_angle_alpha   90.00000000
_cell_angle_beta   90.00000000
_cell_angle_gamma   119.99999838
_symmetry_Int_Tables_number   1
_chemical_formula_structural   Rb3V2Cl9
_chemical_formula_sum   'Rb6 V4 Cl18'
_cell_volume   810.64626795
_cell_formula_units_Z   2
loop_
 _symmetry_equiv_pos_site_id
 _symmetry_equiv_pos_as_xyz
  1  'x, y, z'
loop_
 _atom_site_type_symbol
 _atom_site_label
 _atom_site_symmetry_multiplicity
 _atom_site_fract_x
 _atom_site_fract_y
 _atom_site_fract_z
 _atom_site_occupancy
  Rb  Rb0  1  0.000000  0.000000  0.250000  1
  Rb  Rb1  1  0.000000  0.000000  0.750000  1
  Rb  Rb2  1  0.333333  0.666667  0.432253  1
  Rb  Rb3  1  0.666667  0.333333  0.567747  1
  Rb  Rb4  1  0.666667  0.333333  0.932253  1
  Rb  Rb5  1  0.333333  0.666667  0.067747  1
  V  V6  1  0.333333  0.666667  0.663808  1
  V  V7  1  0.666667  0.333333  0.336192  1
  V  V8  1  0.666667  0.333333  0.163808  1
  V  V9  1  0.333333  0.666667  0.836192  1
  Cl  Cl10  1  0.514201  0.485799  0.250000  1
  Cl  Cl11  1  0.514201  0.028401  0.250000  1
  Cl  Cl12  1  0.971599  0.485799  0.250000  1
  Cl  Cl13  1  0.485799  0.514201  0.750000  1
  Cl  Cl14  1  0.485799  0.971599  0.750000  1
  Cl  Cl15  1  0.028401  0.514201  0.750000  1
  Cl  Cl16  1  0.823392  0.176608  0.406012  1
  Cl  Cl17  1  0.823392  0.646783  0.406012  1
  Cl  Cl18  1  0.353217  0.176608  0.406012  1
  Cl  Cl19  1  0.176608  0.823392  0.593988  1
  Cl  Cl20  1  0.176608  0.353217  0.593988  1
  Cl  Cl21  1  0.646783  0.823392  0.593988  1
  Cl  Cl22  1  0.176608  0.823392  0.906012  1
  Cl  Cl23  1  0.176608  0.353217  0.906012  1
  Cl  Cl24  1  0.646783  0.823392  0.906012  1
  Cl  Cl25  1  0.823392  0.176608  0.093988  1
  Cl  Cl26  1  0.823392  0.646783  0.093988  1
  Cl  Cl27  1  0.353217  0.176608  0.093988  1
