# generated using pymatgen
data_Mn3V15(Si6Mo)2
_symmetry_space_group_name_H-M   'P 1'
_cell_length_a   7.01080704
_cell_length_b   7.01160883
_cell_length_c   13.24315219
_cell_angle_alpha   89.99174854
_cell_angle_beta   89.99527082
_cell_angle_gamma   140.68353415
_symmetry_Int_Tables_number   1
_chemical_formula_structural   Mn3V15(Si6Mo)2
_chemical_formula_sum   'Mn3 V15 Si12 Mo2'
_cell_volume   412.47195444
_cell_formula_units_Z   1
loop_
 _symmetry_equiv_pos_site_id
 _symmetry_equiv_pos_as_xyz
  1  'x, y, z'
loop_
 _atom_site_type_symbol
 _atom_site_label
 _atom_site_symmetry_multiplicity
 _atom_site_fract_x
 _atom_site_fract_y
 _atom_site_fract_z
 _atom_site_occupancy
  Mn  Mn0  1  0.503878  0.502371  0.000829  1
  Mn  Mn1  1  0.499530  0.498472  0.500539  1
  Mn  Mn2  1  0.999662  0.998042  0.000786  1
  V  V3  1  0.421139  0.069026  0.599471  1
  V  V4  1  0.929747  0.574518  0.096890  1
  V  V5  1  0.850783  0.654314  0.677736  1
  V  V6  1  0.347681  0.153538  0.176368  1
  V  V7  1  0.652597  0.849768  0.321632  1
  V  V8  1  0.153460  0.347824  0.822652  1
  V  V9  1  0.654276  0.852129  0.676483  1
  V  V10  1  0.152941  0.347965  0.175641  1
  V  V11  1  0.852198  0.654692  0.323118  1
  V  V12  1  0.348150  0.153160  0.823849  1
  V  V13  1  0.421438  0.069136  0.400687  1
  V  V14  1  0.929773  0.574247  0.902601  1
  V  V15  1  0.069847  0.420698  0.600711  1
  V  V16  1  0.575395  0.928771  0.098723  1
  V  V17  1  0.999083  0.997647  0.500423  1
  Si  Si18  1  0.248408  0.749400  0.749359  1
  Si  Si19  1  0.747496  0.251049  0.247443  1
  Si  Si20  1  0.749246  0.252734  0.749404  1
  Si  Si21  1  0.250510  0.751888  0.247435  1
  Si  Si22  1  0.255572  0.254880  0.663289  1
  Si  Si23  1  0.753028  0.751789  0.160672  1
  Si  Si24  1  0.257526  0.253331  0.336471  1
  Si  Si25  1  0.754714  0.750929  0.839731  1
  Si  Si26  1  0.577020  0.903795  0.500626  1
  Si  Si27  1  0.092126  0.410236  0.000494  1
  Si  Si28  1  0.901872  0.577356  0.501889  1
  Si  Si29  1  0.409026  0.092738  0.001517  1
  Mo  Mo30  1  0.068837  0.423042  0.400129  1
  Mo  Mo31  1  0.573042  0.930513  0.902403  1
