# generated using pymatgen
data_HoTmNbOs3
_symmetry_space_group_name_H-M   'P 1'
_cell_length_a   5.52135900
_cell_length_b   5.52135778
_cell_length_c   8.55296300
_cell_angle_alpha   90.00051769
_cell_angle_beta   89.99947932
_cell_angle_gamma   120.00031339
_symmetry_Int_Tables_number   1
_chemical_formula_structural   HoTmNbOs3
_chemical_formula_sum   'Ho2 Tm2 Nb2 Os6'
_cell_volume   225.80717107
_cell_formula_units_Z   2
loop_
 _symmetry_equiv_pos_site_id
 _symmetry_equiv_pos_as_xyz
  1  'x, y, z'
loop_
 _atom_site_type_symbol
 _atom_site_label
 _atom_site_symmetry_multiplicity
 _atom_site_fract_x
 _atom_site_fract_y
 _atom_site_fract_z
 _atom_site_occupancy
  Ho  Ho0  1  0.666670  0.333330  0.566034  1
  Ho  Ho1  1  0.333330  0.666670  0.433966  1
  Tm  Tm2  1  0.333330  0.666670  0.065512  1
  Tm  Tm3  1  0.666670  0.333330  0.934488  1
  Nb  Nb4  1  0.000000  0.000000  0.500000  1
  Nb  Nb5  1  0.000000  0.000000  0.000000  1
  Os  Os6  1  0.174135  0.348253  0.750662  1
  Os  Os7  1  0.174119  0.825881  0.750663  1
  Os  Os8  1  0.651747  0.825865  0.750662  1
  Os  Os9  1  0.825865  0.651747  0.249338  1
  Os  Os10  1  0.825881  0.174119  0.249337  1
  Os  Os11  1  0.348253  0.174135  0.249338  1
