# generated using pymatgen
data_IrOs3Ru2
_symmetry_space_group_name_H-M   'P 1'
_cell_length_a   4.76734908
_cell_length_b   4.76642196
_cell_length_c   4.33950700
_cell_angle_alpha   90.00000000
_cell_angle_beta   90.00000000
_cell_angle_gamma   120.02756924
_symmetry_Int_Tables_number   1
_chemical_formula_structural   IrOs3Ru2
_chemical_formula_sum   'Ir1 Os3 Ru2'
_cell_volume   85.37284398
_cell_formula_units_Z   1
loop_
 _symmetry_equiv_pos_site_id
 _symmetry_equiv_pos_as_xyz
  1  'x, y, z'
loop_
 _atom_site_type_symbol
 _atom_site_label
 _atom_site_symmetry_multiplicity
 _atom_site_fract_x
 _atom_site_fract_y
 _atom_site_fract_z
 _atom_site_occupancy
  Ir  Ir0  1  0.999798  0.000864  0.000000  1
  Os  Os1  1  0.665204  0.331937  0.000000  1
  Os  Os2  1  0.664674  0.000537  0.500000  1
  Os  Os3  1  0.336149  0.335043  0.500000  1
  Ru  Ru4  1  0.334393  0.666667  0.000000  1
  Ru  Ru5  1  0.999783  0.664951  0.500000  1
