# generated using pymatgen
data_La3PrNd4(CdPd)2
_symmetry_space_group_name_H-M   'P 1'
_cell_length_a   10.09631925
_cell_length_b   10.11103713
_cell_length_c   10.10644379
_cell_angle_alpha   59.91871192
_cell_angle_beta   60.06321980
_cell_angle_gamma   60.01806225
_symmetry_Int_Tables_number   1
_chemical_formula_structural   La3PrNd4(CdPd)2
_chemical_formula_sum   'La6 Pr2 Nd8 Cd4 Pd4'
_cell_volume   729.52584424
_cell_formula_units_Z   2
loop_
 _symmetry_equiv_pos_site_id
 _symmetry_equiv_pos_as_xyz
  1  'x, y, z'
loop_
 _atom_site_type_symbol
 _atom_site_label
 _atom_site_symmetry_multiplicity
 _atom_site_fract_x
 _atom_site_fract_y
 _atom_site_fract_z
 _atom_site_occupancy
  La  La0  1  0.350023  0.352833  0.353198  1
  La  La1  1  0.352833  0.350023  0.943946  1
  La  La2  1  0.353198  0.943946  0.350023  1
  La  La3  1  0.943946  0.353198  0.352833  1
  La  La4  1  0.809824  0.190176  0.190176  1
  La  La5  1  0.190176  0.809824  0.809824  1
  Pr  Pr6  1  0.566416  0.566416  0.933584  1
  Pr  Pr7  1  0.933584  0.933584  0.566416  1
  Nd  Nd8  1  0.192187  0.807813  0.192187  1
  Nd  Nd9  1  0.807813  0.192187  0.807813  1
  Nd  Nd10  1  0.192278  0.192278  0.807722  1
  Nd  Nd11  1  0.807722  0.807722  0.192278  1
  Nd  Nd12  1  0.933912  0.566088  0.566088  1
  Nd  Nd13  1  0.566088  0.933912  0.933912  1
  Nd  Nd14  1  0.565555  0.934445  0.565555  1
  Nd  Nd15  1  0.934445  0.565555  0.934445  1
  Cd  Cd16  1  0.583280  0.580634  0.579924  1
  Cd  Cd17  1  0.580634  0.583280  0.256161  1
  Cd  Cd18  1  0.579924  0.256161  0.583280  1
  Cd  Cd19  1  0.256161  0.579924  0.580634  1
  Pd  Pd20  1  0.142748  0.143617  0.142813  1
  Pd  Pd21  1  0.143617  0.142748  0.570823  1
  Pd  Pd22  1  0.142813  0.570823  0.142748  1
  Pd  Pd23  1  0.570823  0.142813  0.143617  1
