# generated using pymatgen
data_Zr10GaGeSb4
_symmetry_space_group_name_H-M   'P 1'
_cell_length_a   5.52716909
_cell_length_b   8.35993317
_cell_length_c   8.35993280
_cell_angle_alpha   96.27380462
_cell_angle_beta   109.30367738
_cell_angle_gamma   70.69631180
_symmetry_Int_Tables_number   1
_chemical_formula_structural   Zr10GaGeSb4
_chemical_formula_sum   'Zr10 Ga1 Ge1 Sb4'
_cell_volume   344.07222119
_cell_formula_units_Z   1
loop_
 _symmetry_equiv_pos_site_id
 _symmetry_equiv_pos_as_xyz
  1  'x, y, z'
loop_
 _atom_site_type_symbol
 _atom_site_label
 _atom_site_symmetry_multiplicity
 _atom_site_fract_x
 _atom_site_fract_y
 _atom_site_fract_z
 _atom_site_occupancy
  Zr  Zr0  1  0.424674  0.863233  0.712517  1
  Zr  Zr1  1  0.575389  0.136767  0.287483  1
  Zr  Zr2  1  0.924611  0.287483  0.136767  1
  Zr  Zr3  1  0.075326  0.712517  0.863233  1
  Zr  Zr4  1  0.712156  0.712517  0.136767  1
  Zr  Zr5  1  0.287906  0.287483  0.863233  1
  Zr  Zr6  1  0.787844  0.136767  0.712517  1
  Zr  Zr7  1  0.212094  0.863233  0.287483  1
  Zr  Zr8  1  0.250000  0.500000  0.500000  1
  Zr  Zr9  1  0.750000  0.500000  0.500000  1
  Ga  Ga10  1  0.750000  0.000000  0.000000  1
  Ge  Ge11  1  0.250000  0.000000  0.000000  1
  Sb  Sb12  1  0.336178  0.500000  0.172356  1
  Sb  Sb13  1  0.663822  0.500000  0.827644  1
  Sb  Sb14  1  0.836178  0.827644  0.500000  1
  Sb  Sb15  1  0.163822  0.172356  0.500000  1
