# generated using pymatgen
data_LaSm2Y3Zn4Pd13
_symmetry_space_group_name_H-M   'P 1'
_cell_length_a   8.33017894
_cell_length_b   8.32961527
_cell_length_c   8.32817852
_cell_angle_alpha   109.42736521
_cell_angle_beta   109.48653801
_cell_angle_gamma   109.49353022
_symmetry_Int_Tables_number   1
_chemical_formula_structural   LaSm2Y3Zn4Pd13
_chemical_formula_sum   'La1 Sm2 Y3 Zn4 Pd13'
_cell_volume   444.87771938
_cell_formula_units_Z   1
loop_
 _symmetry_equiv_pos_site_id
 _symmetry_equiv_pos_as_xyz
  1  'x, y, z'
loop_
 _atom_site_type_symbol
 _atom_site_label
 _atom_site_symmetry_multiplicity
 _atom_site_fract_x
 _atom_site_fract_y
 _atom_site_fract_z
 _atom_site_occupancy
  La  La0  1  0.000000  0.701991  0.701572  1
  Sm  Sm1  1  0.300616  0.301400  0.000997  1
  Sm  Sm2  1  0.699384  0.000784  0.700381  1
  Y  Y3  1  0.695309  0.696051  0.000440  1
  Y  Y4  1  0.304691  0.000742  0.305132  1
  Y  Y5  1  0.000000  0.304325  0.304032  1
  Zn  Zn6  1  0.000000  0.000567  0.488021  1
  Zn  Zn7  1  0.000000  0.499869  0.000915  1
  Zn  Zn8  1  0.506273  0.000590  0.000898  1
  Zn  Zn9  1  0.493727  0.494316  0.494623  1
  Pd  Pd10  1  0.332332  0.332577  0.664429  1
  Pd  Pd11  1  0.667668  0.000245  0.332097  1
  Pd  Pd12  1  0.000000  0.668546  0.329842  1
  Pd  Pd13  1  0.667648  0.333523  0.000744  1
  Pd  Pd14  1  0.332352  0.665876  0.333095  1
  Pd  Pd15  1  0.000000  0.331723  0.666748  1
  Pd  Pd16  1  0.334511  0.666862  0.000903  1
  Pd  Pd17  1  0.334608  0.000360  0.665188  1
  Pd  Pd18  1  0.663076  0.330528  0.331051  1
  Pd  Pd19  1  0.665392  0.665752  0.330580  1
  Pd  Pd20  1  0.665489  0.332350  0.666393  1
  Pd  Pd21  1  0.336924  0.667453  0.667976  1
  Pd  Pd22  1  0.000000  0.003570  0.013946  1
