# generated using pymatgen
data_CaSmRh4
_symmetry_space_group_name_H-M   'P 1'
_cell_length_a   5.38171123
_cell_length_b   5.38171101
_cell_length_c   5.38171100
_cell_angle_alpha   60.00000620
_cell_angle_beta   60.00000758
_cell_angle_gamma   60.00000722
_symmetry_Int_Tables_number   1
_chemical_formula_structural   CaSmRh4
_chemical_formula_sum   'Ca1 Sm1 Rh4'
_cell_volume   110.21639642
_cell_formula_units_Z   1
loop_
 _symmetry_equiv_pos_site_id
 _symmetry_equiv_pos_as_xyz
  1  'x, y, z'
loop_
 _atom_site_type_symbol
 _atom_site_label
 _atom_site_symmetry_multiplicity
 _atom_site_fract_x
 _atom_site_fract_y
 _atom_site_fract_z
 _atom_site_occupancy
  Ca  Ca0  1  0.250000  0.250000  0.250000  1
  Sm  Sm1  1  0.000000  0.000000  0.000000  1
  Rh  Rh2  1  0.624975  0.624975  0.125076  1
  Rh  Rh3  1  0.624975  0.125076  0.624975  1
  Rh  Rh4  1  0.125076  0.624975  0.624975  1
  Rh  Rh5  1  0.624975  0.624975  0.624975  1
