# generated using pymatgen
data_Tb8YHo11Pt16
_symmetry_space_group_name_H-M   'P 1'
_cell_length_a   7.48589310
_cell_length_b   7.56365323
_cell_length_c   14.75890502
_cell_angle_alpha   89.98775616
_cell_angle_beta   90.00932240
_cell_angle_gamma   90.01066305
_symmetry_Int_Tables_number   1
_chemical_formula_structural   Tb8YHo11Pt16
_chemical_formula_sum   'Tb8 Y1 Ho11 Pt16'
_cell_volume   835.65948194
_cell_formula_units_Z   1
loop_
 _symmetry_equiv_pos_site_id
 _symmetry_equiv_pos_as_xyz
  1  'x, y, z'
loop_
 _atom_site_type_symbol
 _atom_site_label
 _atom_site_symmetry_multiplicity
 _atom_site_fract_x
 _atom_site_fract_y
 _atom_site_fract_z
 _atom_site_occupancy
  Tb  Tb0  1  0.656266  0.832232  0.877963  1
  Tb  Tb1  1  0.997969  0.820014  0.406819  1
  Tb  Tb2  1  0.497767  0.679932  0.093306  1
  Tb  Tb3  1  0.502053  0.320058  0.593021  1
  Tb  Tb4  1  0.002259  0.180281  0.906996  1
  Tb  Tb5  1  0.002014  0.179899  0.593081  1
  Tb  Tb6  1  0.501929  0.320080  0.906983  1
  Tb  Tb7  1  0.497942  0.679950  0.406833  1
  Y  Y8  1  0.998005  0.819947  0.093107  1
  Ho  Ho9  1  0.681271  0.988427  0.249986  1
  Ho  Ho10  1  0.181200  0.511521  0.249994  1
  Ho  Ho11  1  0.818875  0.488199  0.749832  1
  Ho  Ho12  1  0.318569  0.011811  0.749881  1
  Ho  Ho13  1  0.656293  0.832299  0.622210  1
  Ho  Ho14  1  0.156371  0.667733  0.877759  1
  Ho  Ho15  1  0.843766  0.332240  0.377710  1
  Ho  Ho16  1  0.343621  0.167720  0.122265  1
  Ho  Ho17  1  0.343680  0.167734  0.377725  1
  Ho  Ho18  1  0.843826  0.332278  0.122376  1
  Ho  Ho19  1  0.156306  0.667752  0.622191  1
  Pt  Pt20  1  0.816202  0.641744  0.250037  1
  Pt  Pt21  1  0.316228  0.858235  0.250003  1
  Pt  Pt22  1  0.683814  0.142551  0.749542  1
  Pt  Pt23  1  0.183570  0.358094  0.749991  1
  Pt  Pt24  1  0.546646  0.385694  0.250022  1
  Pt  Pt25  1  0.046701  0.114413  0.250039  1
  Pt  Pt26  1  0.954319  0.886017  0.749445  1
  Pt  Pt27  1  0.452780  0.613368  0.749484  1
  Pt  Pt28  1  0.817395  0.532925  0.542210  1
  Pt  Pt29  1  0.316216  0.967554  0.958107  1
  Pt  Pt30  1  0.682601  0.032897  0.457754  1
  Pt  Pt31  1  0.182686  0.467038  0.042227  1
  Pt  Pt32  1  0.182574  0.467102  0.457755  1
  Pt  Pt33  1  0.682486  0.033828  0.043035  1
  Pt  Pt34  1  0.317416  0.967089  0.542201  1
  Pt  Pt35  1  0.818382  0.531350  0.958111  1
