# generated using pymatgen
data_SrDy(PPd)2
_symmetry_space_group_name_H-M   'P 1'
_cell_length_a   4.13575900
_cell_length_b   8.23561249
_cell_length_c   7.28670572
_cell_angle_alpha   90.58925083
_cell_angle_beta   90.00000000
_cell_angle_gamma   90.00000000
_symmetry_Int_Tables_number   1
_chemical_formula_structural   SrDy(PPd)2
_chemical_formula_sum   'Sr2 Dy2 P4 Pd4'
_cell_volume   248.17577678
_cell_formula_units_Z   2
loop_
 _symmetry_equiv_pos_site_id
 _symmetry_equiv_pos_as_xyz
  1  'x, y, z'
loop_
 _atom_site_type_symbol
 _atom_site_label
 _atom_site_symmetry_multiplicity
 _atom_site_fract_x
 _atom_site_fract_y
 _atom_site_fract_z
 _atom_site_occupancy
  Sr  Sr0  1  0.250000  0.499913  0.249886  1
  Sr  Sr1  1  0.750000  0.500087  0.750114  1
  Dy  Dy2  1  0.750000  0.000068  0.749323  1
  Dy  Dy3  1  0.250000  0.999932  0.250677  1
  P  P4  1  0.250000  0.774771  0.916115  1
  P  P5  1  0.750000  0.225229  0.083885  1
  P  P6  1  0.750000  0.774417  0.416628  1
  P  P7  1  0.250000  0.225583  0.583372  1
  Pd  Pd8  1  0.250000  0.768384  0.586460  1
  Pd  Pd9  1  0.750000  0.231616  0.413540  1
  Pd  Pd10  1  0.750000  0.768857  0.086353  1
  Pd  Pd11  1  0.250000  0.231143  0.913647  1
