# generated using pymatgen
data_TbDy2In3SnPt2
_symmetry_space_group_name_H-M   'P 1'
_cell_length_a   7.62023507
_cell_length_b   7.62360503
_cell_length_c   4.16638900
_cell_angle_alpha   90.00000000
_cell_angle_beta   90.00000000
_cell_angle_gamma   120.00123727
_symmetry_Int_Tables_number   1
_chemical_formula_structural   TbDy2In3SnPt2
_chemical_formula_sum   'Tb1 Dy2 In3 Sn1 Pt2'
_cell_volume   209.61086482
_cell_formula_units_Z   1
loop_
 _symmetry_equiv_pos_site_id
 _symmetry_equiv_pos_as_xyz
  1  'x, y, z'
loop_
 _atom_site_type_symbol
 _atom_site_label
 _atom_site_symmetry_multiplicity
 _atom_site_fract_x
 _atom_site_fract_y
 _atom_site_fract_z
 _atom_site_occupancy
  Tb  Tb0  1  0.606572  0.020225  0.500000  1
  Dy  Dy1  1  0.413604  0.393144  0.500000  1
  Dy  Dy2  1  0.979493  0.586389  0.500000  1
  In  In3  1  0.756096  0.744640  0.000000  1
  In  In4  1  0.988796  0.244030  0.000000  1
  In  In5  1  0.255230  0.011389  0.000000  1
  Sn  Sn6  1  0.333153  0.666404  0.000000  1
  Pt  Pt7  1  0.666765  0.333777  0.000000  1
  Pt  Pt8  1  0.000290  0.000002  0.500000  1
