# generated using pymatgen
data_Y12Co2Ni3Bi
_symmetry_space_group_name_H-M   'P 1'
_cell_length_a   8.38846430
_cell_length_b   8.38846409
_cell_length_c   8.38846359
_cell_angle_alpha   109.34238747
_cell_angle_beta   111.14177555
_cell_angle_gamma   107.94539864
_symmetry_Int_Tables_number   1
_chemical_formula_structural   Y12Co2Ni3Bi
_chemical_formula_sum   'Y12 Co2 Ni3 Bi1'
_cell_volume   454.03040933
_cell_formula_units_Z   1
loop_
 _symmetry_equiv_pos_site_id
 _symmetry_equiv_pos_as_xyz
  1  'x, y, z'
loop_
 _atom_site_type_symbol
 _atom_site_label
 _atom_site_symmetry_multiplicity
 _atom_site_fract_x
 _atom_site_fract_y
 _atom_site_fract_z
 _atom_site_occupancy
  Y  Y0  1  0.290867  0.181466  0.472333  1
  Y  Y1  1  0.709133  0.818534  0.527667  1
  Y  Y2  1  0.290867  0.818534  0.109402  1
  Y  Y3  1  0.709133  0.181466  0.890598  1
  Y  Y4  1  0.624295  0.315138  0.309157  1
  Y  Y5  1  0.375705  0.684862  0.690843  1
  Y  Y6  1  0.005982  0.315138  0.690843  1
  Y  Y7  1  0.994018  0.684862  0.309157  1
  Y  Y8  1  0.208885  0.403265  0.194380  1
  Y  Y9  1  0.791115  0.596735  0.805620  1
  Y  Y10  1  0.208885  0.014506  0.805620  1
  Y  Y11  1  0.791115  0.985494  0.194380  1
  Co  Co12  1  0.387447  0.887447  0.500000  1
  Co  Co13  1  0.612553  0.112553  0.500000  1
  Ni  Ni14  1  0.000000  0.368954  0.368954  1
  Ni  Ni15  1  0.000000  0.631046  0.631046  1
  Ni  Ni16  1  0.000000  0.000000  0.000000  1
  Bi  Bi17  1  0.500000  0.500000  0.000000  1
