# generated using pymatgen
data_ErTm3(TcB6)2
_symmetry_space_group_name_H-M   'P 1'
_cell_length_a   3.64692200
_cell_length_b   9.10030100
_cell_length_c   11.46386900
_cell_angle_alpha   89.99921214
_cell_angle_beta   90.00005641
_cell_angle_gamma   90.00000000
_symmetry_Int_Tables_number   1
_chemical_formula_structural   ErTm3(TcB6)2
_chemical_formula_sum   'Er2 Tm6 Tc4 B24'
_cell_volume   380.46389231
_cell_formula_units_Z   2
loop_
 _symmetry_equiv_pos_site_id
 _symmetry_equiv_pos_as_xyz
  1  'x, y, z'
loop_
 _atom_site_type_symbol
 _atom_site_label
 _atom_site_symmetry_multiplicity
 _atom_site_fract_x
 _atom_site_fract_y
 _atom_site_fract_z
 _atom_site_occupancy
  Er  Er0  1  0.500006  0.323752  0.414145  1
  Er  Er1  1  0.499994  0.676248  0.585855  1
  Tm  Tm2  1  0.499996  0.176143  0.914191  1
  Tm  Tm3  1  0.500004  0.823857  0.085809  1
  Tm  Tm4  1  0.500001  0.443166  0.130298  1
  Tm  Tm5  1  0.499999  0.556834  0.869702  1
  Tm  Tm6  1  0.499999  0.056818  0.630587  1
  Tm  Tm7  1  0.500001  0.943182  0.369413  1
  Tc  Tc8  1  0.499999  0.139170  0.179573  1
  Tc  Tc9  1  0.500001  0.860830  0.820427  1
  Tc  Tc10  1  0.500001  0.360508  0.680090  1
  Tc  Tc11  1  0.499999  0.639492  0.319910  1
  B  B12  1  0.000002  0.099616  0.472285  1
  B  B13  1  0.999998  0.900384  0.527715  1
  B  B14  1  0.999997  0.399964  0.972202  1
  B  B15  1  0.000003  0.600036  0.027798  1
  B  B16  1  0.000000  0.130705  0.315073  1
  B  B17  1  0.000000  0.869295  0.684927  1
  B  B18  1  0.000000  0.369052  0.815472  1
  B  B19  1  0.000000  0.630948  0.184528  1
  B  B20  1  0.999998  0.053296  0.066585  1
  B  B21  1  0.000002  0.946704  0.933415  1
  B  B22  1  0.000001  0.446523  0.566948  1
  B  B23  1  0.999999  0.553477  0.433052  1
  B  B24  1  0.000003  0.481842  0.287933  1
  B  B25  1  0.999997  0.518158  0.712067  1
  B  B26  1  0.999999  0.018383  0.788361  1
  B  B27  1  0.000001  0.981617  0.211639  1
  B  B28  1  0.999996  0.249882  0.080579  1
  B  B29  1  0.000004  0.750118  0.919421  1
  B  B30  1  0.000003  0.249969  0.581057  1
  B  B31  1  0.999997  0.750031  0.418943  1
  B  B32  1  0.000001  0.292895  0.234908  1
  B  B33  1  0.999999  0.707105  0.765092  1
  B  B34  1  0.999998  0.206938  0.735399  1
  B  B35  1  0.000002  0.793062  0.264601  1
