# generated using pymatgen
data_Sc7Co6Sn22Au
_symmetry_space_group_name_H-M   'P 1'
_cell_length_a   9.49991800
_cell_length_b   9.49991672
_cell_length_c   9.76108700
_cell_angle_alpha   90.00000000
_cell_angle_beta   90.00000000
_cell_angle_gamma   119.99999052
_symmetry_Int_Tables_number   1
_chemical_formula_structural   Sc7Co6Sn22Au
_chemical_formula_sum   'Sc7 Co6 Sn22 Au1'
_cell_volume   762.90157517
_cell_formula_units_Z   1
loop_
 _symmetry_equiv_pos_site_id
 _symmetry_equiv_pos_as_xyz
  1  'x, y, z'
loop_
 _atom_site_type_symbol
 _atom_site_label
 _atom_site_symmetry_multiplicity
 _atom_site_fract_x
 _atom_site_fract_y
 _atom_site_fract_z
 _atom_site_occupancy
  Sc  Sc0  1  0.000000  0.000000  0.000000  1
  Sc  Sc1  1  0.517797  0.482203  0.690978  1
  Sc  Sc2  1  0.517797  0.035591  0.690978  1
  Sc  Sc3  1  0.964409  0.482203  0.690978  1
  Sc  Sc4  1  0.035591  0.517797  0.309022  1
  Sc  Sc5  1  0.482203  0.964409  0.309022  1
  Sc  Sc6  1  0.482203  0.517797  0.309022  1
  Co  Co7  1  0.169713  0.830287  0.800868  1
  Co  Co8  1  0.169713  0.339424  0.800868  1
  Co  Co9  1  0.660576  0.830287  0.800868  1
  Co  Co10  1  0.339424  0.169713  0.199132  1
  Co  Co11  1  0.830287  0.660576  0.199132  1
  Co  Co12  1  0.830287  0.169713  0.199132  1
  Sn  Sn13  1  0.666667  0.333333  0.180213  1
  Sn  Sn14  1  0.666667  0.333333  0.862875  1
  Sn  Sn15  1  0.333333  0.666667  0.137125  1
  Sn  Sn16  1  0.346262  0.346262  0.000000  1
  Sn  Sn17  1  0.000000  0.653738  0.000000  1
  Sn  Sn18  1  0.653738  0.000000  0.000000  1
  Sn  Sn19  1  0.653738  0.653738  0.000000  1
  Sn  Sn20  1  0.333333  0.666667  0.819787  1
  Sn  Sn21  1  0.437245  0.218624  0.456448  1
  Sn  Sn22  1  0.218624  0.781376  0.543552  1
  Sn  Sn23  1  0.218624  0.437245  0.543552  1
  Sn  Sn24  1  0.562755  0.781376  0.543552  1
  Sn  Sn25  1  0.116410  0.883590  0.277399  1
  Sn  Sn26  1  0.781376  0.562755  0.456448  1
  Sn  Sn27  1  0.781376  0.218624  0.456448  1
  Sn  Sn28  1  0.346262  0.000000  0.000000  1
  Sn  Sn29  1  0.116410  0.232821  0.277399  1
  Sn  Sn30  1  0.767179  0.883590  0.277399  1
  Sn  Sn31  1  0.232821  0.116410  0.722601  1
  Sn  Sn32  1  0.883590  0.767179  0.722601  1
  Sn  Sn33  1  0.883590  0.116410  0.722601  1
  Sn  Sn34  1  0.000000  0.346262  0.000000  1
  Au  Au35  1  0.000000  0.000000  0.500000  1
