# generated using pymatgen
data_ZrZnNi3Au
_symmetry_space_group_name_H-M   'P 1'
_cell_length_a   4.93636123
_cell_length_b   4.88413986
_cell_length_c   4.93636100
_cell_angle_alpha   59.64567048
_cell_angle_beta   59.99999481
_cell_angle_gamma   59.64566831
_symmetry_Int_Tables_number   1
_chemical_formula_structural   ZrZnNi3Au
_chemical_formula_sum   'Zr1 Zn1 Ni3 Au1'
_cell_volume   83.70281950
_cell_formula_units_Z   1
loop_
 _symmetry_equiv_pos_site_id
 _symmetry_equiv_pos_as_xyz
  1  'x, y, z'
loop_
 _atom_site_type_symbol
 _atom_site_label
 _atom_site_symmetry_multiplicity
 _atom_site_fract_x
 _atom_site_fract_y
 _atom_site_fract_z
 _atom_site_occupancy
  Zr  Zr0  1  0.995045  0.014865  0.995045  1
  Zn  Zn1  1  0.376974  0.869077  0.376974  1
  Ni  Ni2  1  0.376395  0.371110  0.876101  1
  Ni  Ni3  1  0.876101  0.371110  0.376395  1
  Ni  Ni4  1  0.376395  0.371110  0.376395  1
  Au  Au5  1  0.749090  0.752729  0.749090  1
