# generated using pymatgen
data_PaNbBr10
_symmetry_space_group_name_H-M   'P 1'
_cell_length_a   7.27652625
_cell_length_b   7.87315730
_cell_length_c   10.53150152
_cell_angle_alpha   109.59734899
_cell_angle_beta   91.17364949
_cell_angle_gamma   115.80949295
_symmetry_Int_Tables_number   1
_chemical_formula_structural   PaNbBr10
_chemical_formula_sum   'Pa1 Nb1 Br10'
_cell_volume   501.73358996
_cell_formula_units_Z   1
loop_
 _symmetry_equiv_pos_site_id
 _symmetry_equiv_pos_as_xyz
  1  'x, y, z'
loop_
 _atom_site_type_symbol
 _atom_site_label
 _atom_site_symmetry_multiplicity
 _atom_site_fract_x
 _atom_site_fract_y
 _atom_site_fract_z
 _atom_site_occupancy
  Pa  Pa0  1  0.098758  0.203640  0.205563  1
  Nb  Nb1  1  0.892864  0.779317  0.777829  1
  Br  Br2  1  0.765293  0.815544  0.034046  1
  Br  Br3  1  0.884729  0.382104  0.151044  1
  Br  Br4  1  0.306081  0.014239  0.251329  1
  Br  Br5  1  0.434596  0.567267  0.327853  1
  Br  Br6  1  0.931404  0.183846  0.427090  1
  Br  Br7  1  0.055296  0.809255  0.582288  1
  Br  Br8  1  0.583634  0.450556  0.672646  1
  Br  Br9  1  0.715908  0.982946  0.765541  1
  Br  Br10  1  0.104942  0.645213  0.857602  1
  Br  Br11  1  0.226494  0.166075  0.947168  1
