# generated using pymatgen
data_HoErReB6
_symmetry_space_group_name_H-M   'P 1'
_cell_length_a   3.66250900
_cell_length_b   9.13650600
_cell_length_c   11.51266000
_cell_angle_alpha   90.00000000
_cell_angle_beta   90.00000000
_cell_angle_gamma   90.00000000
_symmetry_Int_Tables_number   1
_chemical_formula_structural   HoErReB6
_chemical_formula_sum   'Ho4 Er4 Re4 B24'
_cell_volume   385.24279341
_cell_formula_units_Z   4
loop_
 _symmetry_equiv_pos_site_id
 _symmetry_equiv_pos_as_xyz
  1  'x, y, z'
loop_
 _atom_site_type_symbol
 _atom_site_label
 _atom_site_symmetry_multiplicity
 _atom_site_fract_x
 _atom_site_fract_y
 _atom_site_fract_z
 _atom_site_occupancy
  Ho  Ho0  1  0.000000  0.323478  0.413865  1
  Ho  Ho1  1  0.000000  0.676522  0.586135  1
  Ho  Ho2  1  0.000000  0.823478  0.086135  1
  Ho  Ho3  1  0.000000  0.176522  0.913865  1
  Er  Er4  1  0.000000  0.943576  0.370346  1
  Er  Er5  1  0.000000  0.056424  0.629654  1
  Er  Er6  1  0.000000  0.443576  0.129654  1
  Er  Er7  1  0.000000  0.556424  0.870346  1
  Re  Re8  1  0.000000  0.639009  0.320760  1
  Re  Re9  1  0.000000  0.360991  0.679240  1
  Re  Re10  1  0.000000  0.139009  0.179240  1
  Re  Re11  1  0.000000  0.860991  0.820760  1
  B  B12  1  0.500000  0.553566  0.433024  1
  B  B13  1  0.500000  0.446434  0.566976  1
  B  B14  1  0.500000  0.053566  0.066976  1
  B  B15  1  0.500000  0.946434  0.933024  1
  B  B16  1  0.500000  0.749671  0.418948  1
  B  B17  1  0.500000  0.250329  0.581052  1
  B  B18  1  0.500000  0.249671  0.081052  1
  B  B19  1  0.500000  0.750329  0.918948  1
  B  B20  1  0.500000  0.792763  0.265724  1
  B  B21  1  0.500000  0.207237  0.734276  1
  B  B22  1  0.500000  0.292763  0.234276  1
  B  B23  1  0.500000  0.707237  0.765724  1
  B  B24  1  0.500000  0.630990  0.185513  1
  B  B25  1  0.500000  0.369010  0.814487  1
  B  B26  1  0.500000  0.130990  0.314487  1
  B  B27  1  0.500000  0.869010  0.685513  1
  B  B28  1  0.500000  0.982312  0.212062  1
  B  B29  1  0.500000  0.017688  0.787938  1
  B  B30  1  0.500000  0.482312  0.287938  1
  B  B31  1  0.500000  0.517688  0.712062  1
  B  B32  1  0.500000  0.599985  0.027977  1
  B  B33  1  0.500000  0.400015  0.972023  1
  B  B34  1  0.500000  0.099985  0.472023  1
  B  B35  1  0.500000  0.900015  0.527977  1
