# generated using pymatgen
data_Pr3Y2P12Pd3Ru16
_symmetry_space_group_name_H-M   'P 1'
_cell_length_a   12.68289800
_cell_length_b   12.68289899
_cell_length_c   4.00705400
_cell_angle_alpha   90.00000000
_cell_angle_beta   90.00000000
_cell_angle_gamma   119.99999743
_symmetry_Int_Tables_number   1
_chemical_formula_structural   Pr3Y2P12Pd3Ru16
_chemical_formula_sum   'Pr3 Y2 P12 Pd3 Ru16'
_cell_volume   558.20390623
_cell_formula_units_Z   1
loop_
 _symmetry_equiv_pos_site_id
 _symmetry_equiv_pos_as_xyz
  1  'x, y, z'
loop_
 _atom_site_type_symbol
 _atom_site_label
 _atom_site_symmetry_multiplicity
 _atom_site_fract_x
 _atom_site_fract_y
 _atom_site_fract_z
 _atom_site_occupancy
  Pr  Pr0  1  0.000000  0.182452  0.500000  1
  Pr  Pr1  1  0.817548  0.817548  0.500000  1
  Pr  Pr2  1  0.182452  0.000000  0.500000  1
  Y  Y3  1  0.666667  0.333333  0.000000  1
  Y  Y4  1  0.333333  0.666667  0.000000  1
  P  P5  1  0.000000  0.809705  0.000000  1
  P  P6  1  0.190295  0.190295  0.000000  1
  P  P7  1  0.809705  0.000000  0.000000  1
  P  P8  1  0.700037  0.181253  0.500000  1
  P  P9  1  0.818747  0.518785  0.500000  1
  P  P10  1  0.481215  0.299963  0.500000  1
  P  P11  1  0.181253  0.700037  0.500000  1
  P  P12  1  0.518785  0.818747  0.500000  1
  P  P13  1  0.299963  0.481215  0.500000  1
  P  P14  1  0.000000  0.368922  0.000000  1
  P  P15  1  0.631078  0.631078  0.000000  1
  P  P16  1  0.368922  0.000000  0.000000  1
  Pd  Pd17  1  0.000000  0.553290  0.000000  1
  Pd  Pd18  1  0.446710  0.446710  0.000000  1
  Pd  Pd19  1  0.553290  0.000000  0.000000  1
  Ru  Ru20  1  0.000000  0.708613  0.500000  1
  Ru  Ru21  1  0.291387  0.291387  0.500000  1
  Ru  Ru22  1  0.708613  0.000000  0.500000  1
  Ru  Ru23  1  0.804225  0.186801  0.000000  1
  Ru  Ru24  1  0.813199  0.617425  0.000000  1
  Ru  Ru25  1  0.382575  0.195775  0.000000  1
  Ru  Ru26  1  0.186801  0.804225  0.000000  1
  Ru  Ru27  1  0.617425  0.813199  0.000000  1
  Ru  Ru28  1  0.195775  0.382575  0.000000  1
  Ru  Ru29  1  0.876134  0.370407  0.500000  1
  Ru  Ru30  1  0.629593  0.505727  0.500000  1
  Ru  Ru31  1  0.494273  0.123866  0.500000  1
  Ru  Ru32  1  0.370407  0.876134  0.500000  1
  Ru  Ru33  1  0.505727  0.629593  0.500000  1
  Ru  Ru34  1  0.123866  0.494273  0.500000  1
  Ru  Ru35  1  0.000000  0.000000  0.000000  1
