# generated using pymatgen
data_Sm4Er4Sc12Si15Pt
_symmetry_space_group_name_H-M   'P 1'
_cell_length_a   7.12147723
_cell_length_b   7.46598461
_cell_length_c   14.04385110
_cell_angle_alpha   90.01747837
_cell_angle_beta   89.93966398
_cell_angle_gamma   90.15965852
_symmetry_Int_Tables_number   1
_chemical_formula_structural   Sm4Er4Sc12Si15Pt
_chemical_formula_sum   'Sm4 Er4 Sc12 Si15 Pt1'
_cell_volume   746.69191756
_cell_formula_units_Z   1
loop_
 _symmetry_equiv_pos_site_id
 _symmetry_equiv_pos_as_xyz
  1  'x, y, z'
loop_
 _atom_site_type_symbol
 _atom_site_label
 _atom_site_symmetry_multiplicity
 _atom_site_fract_x
 _atom_site_fract_y
 _atom_site_fract_z
 _atom_site_occupancy
  Sm  Sm0  1  0.512011  0.324577  0.095606  1
  Sm  Sm1  1  0.011630  0.175923  0.404476  1
  Sm  Sm2  1  0.511647  0.324948  0.402919  1
  Sm  Sm3  1  0.488634  0.675003  0.596160  1
  Er  Er4  1  0.012510  0.177763  0.096716  1
  Er  Er5  1  0.989958  0.822228  0.904635  1
  Er  Er6  1  0.487412  0.677740  0.903008  1
  Er  Er7  1  0.989753  0.822331  0.596606  1
  Sc  Sc8  1  0.157898  0.502088  0.750628  1
  Sc  Sc9  1  0.838902  0.499012  0.249527  1
  Sc  Sc10  1  0.339096  0.003199  0.249370  1
  Sc  Sc11  1  0.665998  0.999236  0.750463  1
  Sc  Sc12  1  0.323352  0.172917  0.625866  1
  Sc  Sc13  1  0.672778  0.825998  0.373676  1
  Sc  Sc14  1  0.170657  0.677327  0.373729  1
  Sc  Sc15  1  0.671866  0.825523  0.125253  1
  Sc  Sc16  1  0.829773  0.323751  0.626102  1
  Sc  Sc17  1  0.322548  0.173306  0.875046  1
  Sc  Sc18  1  0.830908  0.322811  0.875010  1
  Sc  Sc19  1  0.171002  0.677667  0.125332  1
  Si  Si20  1  0.969358  0.882735  0.248940  1
  Si  Si21  1  0.467950  0.619946  0.249467  1
  Si  Si22  1  0.531092  0.385545  0.751201  1
  Si  Si23  1  0.285697  0.869527  0.751422  1
  Si  Si24  1  0.715183  0.126205  0.248309  1
  Si  Si25  1  0.210679  0.374430  0.248586  1
  Si  Si26  1  0.781675  0.625523  0.751743  1
  Si  Si27  1  0.155208  0.468235  0.539082  1
  Si  Si28  1  0.845255  0.539425  0.461610  1
  Si  Si29  1  0.346797  0.963575  0.461174  1
  Si  Si30  1  0.845938  0.537059  0.038775  1
  Si  Si31  1  0.658683  0.033342  0.539454  1
  Si  Si32  1  0.158244  0.467577  0.961127  1
  Si  Si33  1  0.658507  0.030753  0.960067  1
  Si  Si34  1  0.343715  0.963103  0.038600  1
  Pt  Pt35  1  0.027685  0.109673  0.750317  1
