# generated using pymatgen
data_Er12InSi4Au
_symmetry_space_group_name_H-M   'P 1'
_cell_length_a   8.40513331
_cell_length_b   8.40513251
_cell_length_c   8.40513336
_cell_angle_alpha   112.34156995
_cell_angle_beta   111.25943930
_cell_angle_gamma   104.90879774
_symmetry_Int_Tables_number   1
_chemical_formula_structural   Er12InSi4Au
_chemical_formula_sum   'Er12 In1 Si4 Au1'
_cell_volume   454.90544471
_cell_formula_units_Z   1
loop_
 _symmetry_equiv_pos_site_id
 _symmetry_equiv_pos_as_xyz
  1  'x, y, z'
loop_
 _atom_site_type_symbol
 _atom_site_label
 _atom_site_symmetry_multiplicity
 _atom_site_fract_x
 _atom_site_fract_y
 _atom_site_fract_z
 _atom_site_occupancy
  Er  Er0  1  0.184710  0.276600  0.461311  1
  Er  Er1  1  0.815290  0.723400  0.538689  1
  Er  Er2  1  0.184710  0.723400  0.908110  1
  Er  Er3  1  0.815290  0.276600  0.091890  1
  Er  Er4  1  0.320938  0.618151  0.297214  1
  Er  Er5  1  0.679062  0.381849  0.702786  1
  Er  Er6  1  0.320938  0.023724  0.702786  1
  Er  Er7  1  0.679062  0.976276  0.297214  1
  Er  Er8  1  0.429597  0.231697  0.197900  1
  Er  Er9  1  0.570403  0.768303  0.802100  1
  Er  Er10  1  0.033797  0.231697  0.802100  1
  Er  Er11  1  0.966203  0.768303  0.197900  1
  In  In12  1  0.500000  0.500000  0.000000  1
  Si  Si13  1  0.117175  0.617175  0.500000  1
  Si  Si14  1  0.882825  0.382825  0.500000  1
  Si  Si15  1  0.366477  0.000000  0.366477  1
  Si  Si16  1  0.633523  0.000000  0.633523  1
  Au  Au17  1  0.000000  0.000000  0.000000  1
