# generated using pymatgen
data_Nd8Sc12Si15P
_symmetry_space_group_name_H-M   'P 1'
_cell_length_a   7.22114800
_cell_length_b   7.50830810
_cell_length_c   14.16916600
_cell_angle_alpha   90.00000000
_cell_angle_beta   90.00000000
_cell_angle_gamma   90.28374442
_symmetry_Int_Tables_number   1
_chemical_formula_structural   Nd8Sc12Si15P
_chemical_formula_sum   'Nd8 Sc12 Si15 P1'
_cell_volume   768.22298083
_cell_formula_units_Z   1
loop_
 _symmetry_equiv_pos_site_id
 _symmetry_equiv_pos_as_xyz
  1  'x, y, z'
loop_
 _atom_site_type_symbol
 _atom_site_label
 _atom_site_symmetry_multiplicity
 _atom_site_fract_x
 _atom_site_fract_y
 _atom_site_fract_z
 _atom_site_occupancy
  Nd  Nd0  1  0.012207  0.172880  0.402532  1
  Nd  Nd1  1  0.512132  0.327284  0.402657  1
  Nd  Nd2  1  0.488619  0.673306  0.900846  1
  Nd  Nd3  1  0.488619  0.673306  0.599154  1
  Nd  Nd4  1  0.991825  0.828584  0.601029  1
  Nd  Nd5  1  0.991825  0.828584  0.898971  1
  Nd  Nd6  1  0.512132  0.327284  0.097343  1
  Nd  Nd7  1  0.012207  0.172880  0.097468  1
  Sc  Sc8  1  0.326667  0.170591  0.627626  1
  Sc  Sc9  1  0.670789  0.823820  0.374864  1
  Sc  Sc10  1  0.657893  0.000250  0.750000  1
  Sc  Sc11  1  0.169833  0.676453  0.375403  1
  Sc  Sc12  1  0.827523  0.325980  0.875383  1
  Sc  Sc13  1  0.827523  0.325980  0.624617  1
  Sc  Sc14  1  0.839631  0.500618  0.250000  1
  Sc  Sc15  1  0.340581  0.998758  0.250000  1
  Sc  Sc16  1  0.326667  0.170591  0.872374  1
  Sc  Sc17  1  0.169833  0.676453  0.124597  1
  Sc  Sc18  1  0.670789  0.823820  0.125136  1
  Sc  Sc19  1  0.158763  0.497604  0.750000  1
  Si  Si20  1  0.465382  0.623315  0.250000  1
  Si  Si21  1  0.023096  0.134631  0.750000  1
  Si  Si22  1  0.531716  0.373587  0.750000  1
  Si  Si23  1  0.153898  0.463234  0.540573  1
  Si  Si24  1  0.966561  0.876319  0.250000  1
  Si  Si25  1  0.712355  0.118361  0.250000  1
  Si  Si26  1  0.847627  0.538258  0.038883  1
  Si  Si27  1  0.348128  0.963784  0.039040  1
  Si  Si28  1  0.153898  0.463234  0.959427  1
  Si  Si29  1  0.652308  0.035561  0.540597  1
  Si  Si30  1  0.348128  0.963784  0.460960  1
  Si  Si31  1  0.847627  0.538258  0.461117  1
  Si  Si32  1  0.789610  0.620451  0.750000  1
  Si  Si33  1  0.212362  0.382013  0.250000  1
  Si  Si34  1  0.652308  0.035561  0.959403  1
  P  P35  1  0.298941  0.874625  0.750000  1
