# generated using pymatgen
data_Lu12ZnFe3Ag
_symmetry_space_group_name_H-M   'P 1'
_cell_length_a   8.05526796
_cell_length_b   8.05526764
_cell_length_c   8.05526800
_cell_angle_alpha   107.93118086
_cell_angle_beta   109.68546755
_cell_angle_gamma   110.80994059
_symmetry_Int_Tables_number   1
_chemical_formula_structural   Lu12ZnFe3Ag
_chemical_formula_sum   'Lu12 Zn1 Fe3 Ag1'
_cell_volume   402.10586141
_cell_formula_units_Z   1
loop_
 _symmetry_equiv_pos_site_id
 _symmetry_equiv_pos_as_xyz
  1  'x, y, z'
loop_
 _atom_site_type_symbol
 _atom_site_label
 _atom_site_symmetry_multiplicity
 _atom_site_fract_x
 _atom_site_fract_y
 _atom_site_fract_z
 _atom_site_occupancy
  Lu  Lu0  1  0.308706  0.309527  0.618234  1
  Lu  Lu1  1  0.691294  0.690473  0.381766  1
  Lu  Lu2  1  0.691294  0.309527  0.000821  1
  Lu  Lu3  1  0.308706  0.690473  0.999179  1
  Lu  Lu4  1  0.187076  0.424377  0.237298  1
  Lu  Lu5  1  0.812924  0.575623  0.762702  1
  Lu  Lu6  1  0.187076  0.949777  0.762702  1
  Lu  Lu7  1  0.945477  0.192283  0.753194  1
  Lu  Lu8  1  0.812924  0.050223  0.237298  1
  Lu  Lu9  1  0.054523  0.807717  0.246806  1
  Lu  Lu10  1  0.439089  0.192283  0.246806  1
  Lu  Lu11  1  0.560911  0.807717  0.753194  1
  Zn  Zn12  1  0.000000  0.500000  0.500000  1
  Fe  Fe13  1  0.380533  0.380533  0.000000  1
  Fe  Fe14  1  0.619467  0.619467  0.000000  1
  Fe  Fe15  1  0.000000  0.000000  0.000000  1
  Ag  Ag16  1  0.500000  0.000000  0.500000  1
