# generated using pymatgen
data_Dy3HoSn6Ir7
_symmetry_space_group_name_H-M   'P 1'
_cell_length_a   7.59468188
_cell_length_b   7.59468094
_cell_length_c   7.59713900
_cell_angle_alpha   109.47777976
_cell_angle_beta   109.47777725
_cell_angle_gamma   109.46466196
_symmetry_Int_Tables_number   1
_chemical_formula_structural   Dy3HoSn6Ir7
_chemical_formula_sum   'Dy3 Ho1 Sn6 Ir7'
_cell_volume   337.29674286
_cell_formula_units_Z   1
loop_
 _symmetry_equiv_pos_site_id
 _symmetry_equiv_pos_as_xyz
  1  'x, y, z'
loop_
 _atom_site_type_symbol
 _atom_site_label
 _atom_site_symmetry_multiplicity
 _atom_site_fract_x
 _atom_site_fract_y
 _atom_site_fract_z
 _atom_site_occupancy
  Dy  Dy0  1  0.000000  0.500000  0.000000  1
  Dy  Dy1  1  0.500000  0.000000  0.000000  1
  Dy  Dy2  1  0.500000  0.500000  0.500000  1
  Ho  Ho3  1  0.000000  0.000000  0.500000  1
  Sn  Sn4  1  0.686500  0.686500  0.000095  1
  Sn  Sn5  1  0.313500  0.000000  0.313595  1
  Sn  Sn6  1  0.000000  0.313500  0.313595  1
  Sn  Sn7  1  0.313500  0.313500  0.999905  1
  Sn  Sn8  1  0.686500  0.000000  0.686405  1
  Sn  Sn9  1  0.000000  0.686500  0.686405  1
  Ir  Ir10  1  0.750061  0.249939  0.500000  1
  Ir  Ir11  1  0.750061  0.500122  0.250061  1
  Ir  Ir12  1  0.499878  0.249939  0.749939  1
  Ir  Ir13  1  0.249939  0.499878  0.749939  1
  Ir  Ir14  1  0.249939  0.750061  0.500000  1
  Ir  Ir15  1  0.500122  0.750061  0.250061  1
  Ir  Ir16  1  0.000000  0.000000  0.000000  1
