# generated using pymatgen
data_Na5U3InBr18
_symmetry_space_group_name_H-M   'P 1'
_cell_length_a   7.26226216
_cell_length_b   8.12673855
_cell_length_c   18.15651900
_cell_angle_alpha   95.35019881
_cell_angle_beta   90.01214986
_cell_angle_gamma   116.62342983
_symmetry_Int_Tables_number   1
_chemical_formula_structural   Na5U3InBr18
_chemical_formula_sum   'Na5 U3 In1 Br18'
_cell_volume   952.71743283
_cell_formula_units_Z   1
loop_
 _symmetry_equiv_pos_site_id
 _symmetry_equiv_pos_as_xyz
  1  'x, y, z'
loop_
 _atom_site_type_symbol
 _atom_site_label
 _atom_site_symmetry_multiplicity
 _atom_site_fract_x
 _atom_site_fract_y
 _atom_site_fract_z
 _atom_site_occupancy
  Na  Na0  1  0.782612  0.562654  0.553113  1
  Na  Na1  1  0.905760  0.804611  0.775718  1
  Na  Na2  1  0.108727  0.213703  0.223255  1
  Na  Na3  1  0.214919  0.437247  0.442317  1
  Na  Na4  1  0.535257  0.075147  0.114533  1
  U  U5  1  0.001147  0.000247  0.001958  1
  U  U6  1  0.339908  0.680177  0.662980  1
  U  U7  1  0.662817  0.327685  0.333506  1
  In  In8  1  0.663720  0.313284  0.845999  1
  Br  Br9  1  0.672797  0.995961  0.728645  1
  Br  Br10  1  0.809051  0.230620  0.993392  1
  Br  Br11  1  0.187911  0.131655  0.868694  1
  Br  Br12  1  0.148196  0.596357  0.795346  1
  Br  Br13  1  0.557902  0.474385  0.691744  1
  Br  Br14  1  0.977716  0.644381  0.410080  1
  Br  Br15  1  0.679598  0.711651  0.916478  1
  Br  Br16  1  0.127796  0.885627  0.636551  1
  Br  Br17  1  0.537201  0.765254  0.530254  1
  Br  Br18  1  0.458347  0.231717  0.465355  1
  Br  Br19  1  0.872191  0.119261  0.359603  1
  Br  Br20  1  0.323928  0.302122  0.082108  1
  Br  Br21  1  0.025656  0.363472  0.588615  1
  Br  Br22  1  0.454233  0.536075  0.307235  1
  Br  Br23  1  0.867726  0.421612  0.203085  1
  Br  Br24  1  0.791584  0.884630  0.131769  1
  Br  Br25  1  0.200163  0.787214  0.016074  1
  Br  Br26  1  0.346470  0.009922  0.258256  1
