# generated using pymatgen
data_LiSmTlPt3
_symmetry_space_group_name_H-M   'P 1'
_cell_length_a   5.50659918
_cell_length_b   5.50659952
_cell_length_c   5.21922600
_cell_angle_alpha   58.16126267
_cell_angle_beta   58.16127271
_cell_angle_gamma   59.99999630
_symmetry_Int_Tables_number   1
_chemical_formula_structural   LiSmTlPt3
_chemical_formula_sum   'Li1 Sm1 Tl1 Pt3'
_cell_volume   108.69547299
_cell_formula_units_Z   1
loop_
 _symmetry_equiv_pos_site_id
 _symmetry_equiv_pos_as_xyz
  1  'x, y, z'
loop_
 _atom_site_type_symbol
 _atom_site_label
 _atom_site_symmetry_multiplicity
 _atom_site_fract_x
 _atom_site_fract_y
 _atom_site_fract_z
 _atom_site_occupancy
  Li  Li0  1  0.621479  0.621479  0.135562  1
  Sm  Sm1  1  0.005570  0.005570  0.983289  1
  Tl  Tl2  1  0.253624  0.253624  0.239126  1
  Pt  Pt3  1  0.623666  0.121994  0.630674  1
  Pt  Pt4  1  0.121994  0.623666  0.630674  1
  Pt  Pt5  1  0.623666  0.623666  0.630674  1
