# generated using pymatgen
data_Cs4V2SnS8
_symmetry_space_group_name_H-M   'P 1'
_cell_length_a   9.43315692
_cell_length_b   9.63649447
_cell_length_c   11.61701000
_cell_angle_alpha   106.10276548
_cell_angle_beta   103.23348797
_cell_angle_gamma   93.86011959
_symmetry_Int_Tables_number   1
_chemical_formula_structural   Cs4V2SnS8
_chemical_formula_sum   'Cs8 V4 Sn2 S16'
_cell_volume   977.93330765
_cell_formula_units_Z   2
loop_
 _symmetry_equiv_pos_site_id
 _symmetry_equiv_pos_as_xyz
  1  'x, y, z'
loop_
 _atom_site_type_symbol
 _atom_site_label
 _atom_site_symmetry_multiplicity
 _atom_site_fract_x
 _atom_site_fract_y
 _atom_site_fract_z
 _atom_site_occupancy
  Cs  Cs0  1  0.935325  0.522918  0.254622  1
  Cs  Cs1  1  0.064675  0.477082  0.745378  1
  Cs  Cs2  1  0.762534  0.993047  0.469679  1
  Cs  Cs3  1  0.237466  0.006953  0.530321  1
  Cs  Cs4  1  0.600372  0.746449  0.018288  1
  Cs  Cs5  1  0.399628  0.253551  0.981712  1
  Cs  Cs6  1  0.615034  0.684580  0.619295  1
  Cs  Cs7  1  0.384966  0.315420  0.380705  1
  V  V8  1  0.949894  0.113822  0.236676  1
  V  V9  1  0.050106  0.886178  0.763324  1
  V  V10  1  0.374910  0.681783  0.259662  1
  V  V11  1  0.625090  0.318217  0.740338  1
  Sn  Sn12  1  0.848722  0.139990  0.921309  1
  Sn  Sn13  1  0.151278  0.860010  0.078691  1
  S  S14  1  0.961485  0.886587  0.230417  1
  S  S15  1  0.038515  0.113413  0.769583  1
  S  S16  1  0.598558  0.087059  0.733786  1
  S  S17  1  0.401442  0.912941  0.266214  1
  S  S18  1  0.291116  0.659474  0.410344  1
  S  S19  1  0.708884  0.340526  0.589656  1
  S  S20  1  0.789025  0.418394  0.915195  1
  S  S21  1  0.210975  0.581606  0.084805  1
  S  S22  1  0.020748  0.256583  0.421016  1
  S  S23  1  0.979252  0.743417  0.578984  1
  S  S24  1  0.097221  0.158274  0.127039  1
  S  S25  1  0.902779  0.841726  0.872961  1
  S  S26  1  0.735509  0.139765  0.135921  1
  S  S27  1  0.264491  0.860235  0.864079  1
  S  S28  1  0.575283  0.588472  0.265464  1
  S  S29  1  0.424717  0.411528  0.734536  1
