# generated using pymatgen
data_LaPrAl3Si(AgAu)2
_symmetry_space_group_name_H-M   'P 1'
_cell_length_a   4.40428300
_cell_length_b   4.40428300
_cell_length_c   10.64064000
_cell_angle_alpha   90.00000000
_cell_angle_beta   90.00000000
_cell_angle_gamma   90.00000000
_symmetry_Int_Tables_number   1
_chemical_formula_structural   LaPrAl3Si(AgAu)2
_chemical_formula_sum   'La1 Pr1 Al3 Si1 Ag2 Au2'
_cell_volume   206.40403557
_cell_formula_units_Z   1
loop_
 _symmetry_equiv_pos_site_id
 _symmetry_equiv_pos_as_xyz
  1  'x, y, z'
loop_
 _atom_site_type_symbol
 _atom_site_label
 _atom_site_symmetry_multiplicity
 _atom_site_fract_x
 _atom_site_fract_y
 _atom_site_fract_z
 _atom_site_occupancy
  La  La0  1  0.500000  0.000000  0.758989  1
  Pr  Pr1  1  0.000000  0.500000  0.248789  1
  Al  Al2  1  0.000000  0.000000  0.498137  1
  Al  Al3  1  0.500000  0.500000  0.498137  1
  Al  Al4  1  0.500000  0.000000  0.137734  1
  Si  Si5  1  0.000000  0.500000  0.861423  1
  Ag  Ag6  1  0.000000  0.000000  0.998138  1
  Ag  Ag7  1  0.500000  0.500000  0.998138  1
  Au  Au8  1  0.000000  0.500000  0.629097  1
  Au  Au9  1  0.500000  0.000000  0.371419  1
