# generated using pymatgen
data_Sr6AlTc3O14
_symmetry_space_group_name_H-M   'P 1'
_cell_length_a   10.70298845
_cell_length_b   10.70298845
_cell_length_c   5.54868000
_cell_angle_alpha   90.00000000
_cell_angle_beta   90.00000000
_cell_angle_gamma   149.85822139
_symmetry_Int_Tables_number   1
_chemical_formula_structural   Sr6AlTc3O14
_chemical_formula_sum   'Sr6 Al1 Tc3 O14'
_cell_volume   319.17279375
_cell_formula_units_Z   1
loop_
 _symmetry_equiv_pos_site_id
 _symmetry_equiv_pos_as_xyz
  1  'x, y, z'
loop_
 _atom_site_type_symbol
 _atom_site_label
 _atom_site_symmetry_multiplicity
 _atom_site_fract_x
 _atom_site_fract_y
 _atom_site_fract_z
 _atom_site_occupancy
  Sr  Sr0  1  0.494053  0.505947  0.000000  1
  Sr  Sr1  1  0.994424  0.005576  0.500000  1
  Sr  Sr2  1  0.816644  0.183356  0.500000  1
  Sr  Sr3  1  0.316986  0.683014  0.000000  1
  Sr  Sr4  1  0.686848  0.313152  0.000000  1
  Sr  Sr5  1  0.189755  0.810245  0.500000  1
  Al  Al6  1  0.400397  0.599603  0.500000  1
  Tc  Tc7  1  0.902881  0.097119  0.000000  1
  Tc  Tc8  1  0.097196  0.902804  0.000000  1
  Tc  Tc9  1  0.595617  0.404383  0.500000  1
  O  O10  1  0.805444  0.194556  0.000000  1
  O  O11  1  0.307505  0.692495  0.500000  1
  O  O12  1  0.696073  0.303927  0.500000  1
  O  O13  1  0.196311  0.803689  0.000000  1
  O  O14  1  0.497044  0.502956  0.500000  1
  O  O15  1  0.999583  0.000417  0.000000  1
  O  O16  1  0.649082  0.841224  0.745297  1
  O  O17  1  0.158776  0.350918  0.254703  1
  O  O18  1  0.158776  0.350918  0.745297  1
  O  O19  1  0.649082  0.841224  0.254703  1
  O  O20  1  0.846671  0.652911  0.749910  1
  O  O21  1  0.347088  0.153328  0.250090  1
  O  O22  1  0.347088  0.153328  0.749910  1
  O  O23  1  0.846671  0.652911  0.250090  1
