# generated using pymatgen
data_Pr16Nd3HoSi16
_symmetry_space_group_name_H-M   'P 1'
_cell_length_a   7.89449111
_cell_length_b   7.89449111
_cell_length_c   15.37590959
_cell_angle_alpha   90.03721648
_cell_angle_beta   89.96278352
_cell_angle_gamma   89.95238120
_symmetry_Int_Tables_number   1
_chemical_formula_structural   Pr16Nd3HoSi16
_chemical_formula_sum   'Pr16 Nd3 Ho1 Si16'
_cell_volume   958.27192147
_cell_formula_units_Z   1
loop_
 _symmetry_equiv_pos_site_id
 _symmetry_equiv_pos_as_xyz
  1  'x, y, z'
loop_
 _atom_site_type_symbol
 _atom_site_label
 _atom_site_symmetry_multiplicity
 _atom_site_fract_x
 _atom_site_fract_y
 _atom_site_fract_z
 _atom_site_occupancy
  Pr  Pr0  1  0.478894  0.374437  0.128012  1
  Pr  Pr1  1  0.978728  0.125485  0.622337  1
  Pr  Pr2  1  0.874182  0.020836  0.876670  1
  Pr  Pr3  1  0.125485  0.978728  0.377663  1
  Pr  Pr4  1  0.520966  0.626767  0.626528  1
  Pr  Pr5  1  0.374437  0.478894  0.871988  1
  Pr  Pr6  1  0.626767  0.520966  0.373472  1
  Pr  Pr7  1  0.020836  0.874182  0.123330  1
  Pr  Pr8  1  0.620592  0.987045  0.446858  1
  Pr  Pr9  1  0.379446  0.011581  0.946627  1
  Pr  Pr10  1  0.987045  0.620592  0.553142  1
  Pr  Pr11  1  0.488132  0.880385  0.196887  1
  Pr  Pr12  1  0.511060  0.120891  0.695899  1
  Pr  Pr13  1  0.880385  0.488132  0.803113  1
  Pr  Pr14  1  0.120891  0.511060  0.304101  1
  Pr  Pr15  1  0.011581  0.379446  0.053373  1
  Nd  Nd16  1  0.191288  0.808548  0.749816  1
  Nd  Nd17  1  0.808548  0.191288  0.250184  1
  Nd  Nd18  1  0.691721  0.691721  0.000000  1
  Ho  Ho19  1  0.311945  0.311945  0.500000  1
  Si  Si20  1  0.288536  0.924526  0.559880  1
  Si  Si21  1  0.712701  0.079745  0.060905  1
  Si  Si22  1  0.924526  0.288536  0.440120  1
  Si  Si23  1  0.417009  0.215288  0.314541  1
  Si  Si24  1  0.579095  0.786877  0.810401  1
  Si  Si25  1  0.215288  0.417009  0.685459  1
  Si  Si26  1  0.786877  0.579095  0.189599  1
  Si  Si27  1  0.079745  0.712701  0.939095  1
  Si  Si28  1  0.806839  0.830150  0.704618  1
  Si  Si29  1  0.193235  0.169351  0.206130  1
  Si  Si30  1  0.830150  0.806839  0.295382  1
  Si  Si31  1  0.328182  0.689638  0.456163  1
  Si  Si32  1  0.668833  0.307064  0.954700  1
  Si  Si33  1  0.689638  0.328182  0.543837  1
  Si  Si34  1  0.307064  0.668833  0.045300  1
  Si  Si35  1  0.169351  0.193235  0.793870  1
