# generated using pymatgen
data_Er20Ir5Ru5Pt2
_symmetry_space_group_name_H-M   'P 1'
_cell_length_a   10.75624937
_cell_length_b   10.75624985
_cell_length_c   6.38629239
_cell_angle_alpha   89.93917103
_cell_angle_beta   89.93917086
_cell_angle_gamma   89.77628141
_symmetry_Int_Tables_number   1
_chemical_formula_structural   Er20Ir5Ru5Pt2
_chemical_formula_sum   'Er20 Ir5 Ru5 Pt2'
_cell_volume   738.86780616
_cell_formula_units_Z   1
loop_
 _symmetry_equiv_pos_site_id
 _symmetry_equiv_pos_as_xyz
  1  'x, y, z'
loop_
 _atom_site_type_symbol
 _atom_site_label
 _atom_site_symmetry_multiplicity
 _atom_site_fract_x
 _atom_site_fract_y
 _atom_site_fract_z
 _atom_site_occupancy
  Er  Er0  1  0.294855  0.089147  0.379121  1
  Er  Er1  1  0.294995  0.914621  0.872781  1
  Er  Er2  1  0.706956  0.083404  0.876790  1
  Er  Er3  1  0.707963  0.913846  0.376172  1
  Er  Er4  1  0.586379  0.792721  0.877767  1
  Er  Er5  1  0.586152  0.205309  0.372959  1
  Er  Er6  1  0.417243  0.794185  0.376379  1
  Er  Er7  1  0.410716  0.205323  0.878439  1
  Er  Er8  1  0.207279  0.413621  0.622233  1
  Er  Er9  1  0.205815  0.582757  0.123621  1
  Er  Er10  1  0.794691  0.413848  0.127041  1
  Er  Er11  1  0.794677  0.589284  0.621561  1
  Er  Er12  1  0.910853  0.705145  0.120879  1
  Er  Er13  1  0.916596  0.293044  0.623210  1
  Er  Er14  1  0.085379  0.705005  0.627219  1
  Er  Er15  1  0.086154  0.292037  0.123828  1
  Er  Er16  1  0.998700  0.002376  0.500557  1
  Er  Er17  1  0.997624  0.001300  0.999443  1
  Er  Er18  1  0.498255  0.501293  0.000973  1
  Er  Er19  1  0.498707  0.501745  0.499027  1
  Ir  Ir20  1  0.848075  0.847278  0.749268  1
  Ir  Ir21  1  0.152722  0.151925  0.750732  1
  Ir  Ir22  1  0.652114  0.651630  0.249826  1
  Ir  Ir23  1  0.348370  0.347886  0.250174  1
  Ir  Ir24  1  0.346776  0.653224  0.750000  1
  Ru  Ru25  1  0.847349  0.152651  0.250000  1
  Ru  Ru26  1  0.500176  0.000615  0.123201  1
  Ru  Ru27  1  0.499782  0.000561  0.623485  1
  Ru  Ru28  1  0.999439  0.500218  0.876515  1
  Ru  Ru29  1  0.999385  0.499824  0.376799  1
  Pt  Pt30  1  0.153395  0.846605  0.250000  1
  Pt  Pt31  1  0.652429  0.347571  0.750000  1
