# generated using pymatgen
data_Pr4ThAuSe4
_symmetry_space_group_name_H-M   'P 1'
_cell_length_a   7.40682448
_cell_length_b   7.40682374
_cell_length_c   7.40682400
_cell_angle_alpha   99.53907245
_cell_angle_beta   99.53907149
_cell_angle_gamma   131.95600210
_symmetry_Int_Tables_number   1
_chemical_formula_structural   Pr4ThAuSe4
_chemical_formula_sum   'Pr4 Th1 Au1 Se4'
_cell_volume   276.01041494
_cell_formula_units_Z   1
loop_
 _symmetry_equiv_pos_site_id
 _symmetry_equiv_pos_as_xyz
  1  'x, y, z'
loop_
 _atom_site_type_symbol
 _atom_site_label
 _atom_site_symmetry_multiplicity
 _atom_site_fract_x
 _atom_site_fract_y
 _atom_site_fract_z
 _atom_site_occupancy
  Pr  Pr0  1  0.400117  0.801525  0.201642  1
  Pr  Pr1  1  0.599883  0.198475  0.798358  1
  Pr  Pr2  1  0.198475  0.400117  0.598590  1
  Pr  Pr3  1  0.801525  0.599883  0.401410  1
  Th  Th4  1  0.000000  0.000000  0.000000  1
  Au  Au5  1  0.500000  0.500000  0.000000  1
  Se  Se6  1  0.098493  0.701884  0.800376  1
  Se  Se7  1  0.701884  0.901507  0.603390  1
  Se  Se8  1  0.298116  0.098493  0.396610  1
  Se  Se9  1  0.901507  0.298116  0.199624  1
