# generated using pymatgen
data_Tb(PPt4)2
_symmetry_space_group_name_H-M   'P 1'
_cell_length_a   6.34386610
_cell_length_b   6.34386632
_cell_length_c   9.42183523
_cell_angle_alpha   125.19486866
_cell_angle_beta   125.19486932
_cell_angle_gamma   37.32717679
_symmetry_Int_Tables_number   1
_chemical_formula_structural   Tb(PPt4)2
_chemical_formula_sum   'Tb1 P2 Pt8'
_cell_volume   182.48093646
_cell_formula_units_Z   1
loop_
 _symmetry_equiv_pos_site_id
 _symmetry_equiv_pos_as_xyz
  1  'x, y, z'
loop_
 _atom_site_type_symbol
 _atom_site_label
 _atom_site_symmetry_multiplicity
 _atom_site_fract_x
 _atom_site_fract_y
 _atom_site_fract_z
 _atom_site_occupancy
  Tb  Tb0  1  0.500000  0.500000  0.500000  1
  P  P1  1  0.058525  0.058525  0.290378  1
  P  P2  1  0.941475  0.941475  0.709623  1
  Pt  Pt3  1  0.474896  0.474896  0.130622  1
  Pt  Pt4  1  0.166321  0.166321  0.151995  1
  Pt  Pt5  1  0.823249  0.823249  0.156522  1
  Pt  Pt6  1  0.776035  0.776035  0.413803  1
  Pt  Pt7  1  0.223966  0.223966  0.586197  1
  Pt  Pt8  1  0.176750  0.176750  0.843477  1
  Pt  Pt9  1  0.833679  0.833679  0.848006  1
  Pt  Pt10  1  0.525104  0.525104  0.869377  1
