# generated using pymatgen
data_DyEr4(Tl2Pt)2
_symmetry_space_group_name_H-M   'P 1'
_cell_length_a   3.62632500
_cell_length_b   8.08477800
_cell_length_c   18.15057000
_cell_angle_alpha   90.00000000
_cell_angle_beta   90.00000000
_cell_angle_gamma   90.00000000
_symmetry_Int_Tables_number   1
_chemical_formula_structural   DyEr4(Tl2Pt)2
_chemical_formula_sum   'Dy2 Er8 Tl8 Pt4'
_cell_volume   532.13900262
_cell_formula_units_Z   2
loop_
 _symmetry_equiv_pos_site_id
 _symmetry_equiv_pos_as_xyz
  1  'x, y, z'
loop_
 _atom_site_type_symbol
 _atom_site_label
 _atom_site_symmetry_multiplicity
 _atom_site_fract_x
 _atom_site_fract_y
 _atom_site_fract_z
 _atom_site_occupancy
  Dy  Dy0  1  0.000000  0.000000  0.000000  1
  Dy  Dy1  1  0.000000  0.500000  0.500000  1
  Er  Er2  1  0.000000  0.116027  0.413807  1
  Er  Er3  1  0.000000  0.883973  0.586193  1
  Er  Er4  1  0.000000  0.383973  0.913807  1
  Er  Er5  1  0.000000  0.616027  0.086193  1
  Er  Er6  1  0.000000  0.243273  0.220116  1
  Er  Er7  1  0.000000  0.756727  0.779884  1
  Er  Er8  1  0.000000  0.256727  0.720116  1
  Er  Er9  1  0.000000  0.743273  0.279884  1
  Tl  Tl10  1  0.500000  0.421316  0.352328  1
  Tl  Tl11  1  0.500000  0.578684  0.647672  1
  Tl  Tl12  1  0.500000  0.078684  0.852328  1
  Tl  Tl13  1  0.500000  0.921316  0.147672  1
  Tl  Tl14  1  0.500000  0.293328  0.065317  1
  Tl  Tl15  1  0.500000  0.706672  0.934683  1
  Tl  Tl16  1  0.500000  0.206672  0.565317  1
  Tl  Tl17  1  0.500000  0.793328  0.434683  1
  Pt  Pt18  1  0.500000  0.026561  0.303667  1
  Pt  Pt19  1  0.500000  0.973439  0.696333  1
  Pt  Pt20  1  0.500000  0.473439  0.803667  1
  Pt  Pt21  1  0.500000  0.526561  0.196333  1
