# generated using pymatgen
data_Tb9Sm(In2Pt)4
_symmetry_space_group_name_H-M   'P 1'
_cell_length_a   3.64397500
_cell_length_b   8.17088563
_cell_length_c   18.36684600
_cell_angle_alpha   89.89924884
_cell_angle_beta   90.00000000
_cell_angle_gamma   90.00000000
_symmetry_Int_Tables_number   1
_chemical_formula_structural   Tb9Sm(In2Pt)4
_chemical_formula_sum   'Tb9 Sm1 In8 Pt4'
_cell_volume   546.86286535
_cell_formula_units_Z   1
loop_
 _symmetry_equiv_pos_site_id
 _symmetry_equiv_pos_as_xyz
  1  'x, y, z'
loop_
 _atom_site_type_symbol
 _atom_site_label
 _atom_site_symmetry_multiplicity
 _atom_site_fract_x
 _atom_site_fract_y
 _atom_site_fract_z
 _atom_site_occupancy
  Tb  Tb0  1  0.000000  0.116986  0.415030  1
  Tb  Tb1  1  0.000000  0.883014  0.584970  1
  Tb  Tb2  1  0.000000  0.382028  0.914590  1
  Tb  Tb3  1  0.000000  0.617972  0.085410  1
  Tb  Tb4  1  0.000000  0.243566  0.220893  1
  Tb  Tb5  1  0.000000  0.756434  0.779107  1
  Tb  Tb6  1  0.000000  0.256407  0.720262  1
  Tb  Tb7  1  0.000000  0.743593  0.279738  1
  Tb  Tb8  1  0.000000  0.500000  0.500000  1
  Sm  Sm9  1  0.000000  0.000000  0.000000  1
  In  In10  1  0.500000  0.425826  0.351724  1
  In  In11  1  0.500000  0.574174  0.648276  1
  In  In12  1  0.500000  0.074359  0.850367  1
  In  In13  1  0.500000  0.925641  0.149633  1
  In  In14  1  0.500000  0.294586  0.068293  1
  In  In15  1  0.500000  0.705414  0.931707  1
  In  In16  1  0.500000  0.208086  0.567507  1
  In  In17  1  0.500000  0.791914  0.432493  1
  Pt  Pt18  1  0.500000  0.024835  0.303472  1
  Pt  Pt19  1  0.500000  0.975165  0.696528  1
  Pt  Pt20  1  0.500000  0.475309  0.802744  1
  Pt  Pt21  1  0.500000  0.524691  0.197256  1
