# generated using pymatgen
data_Tb5Nb3(Co4As3)4
_symmetry_space_group_name_H-M   'P 1'
_cell_length_a   12.63404100
_cell_length_b   12.63404222
_cell_length_c   3.83362100
_cell_angle_alpha   90.00000000
_cell_angle_beta   90.00000000
_cell_angle_gamma   120.00000466
_symmetry_Int_Tables_number   1
_chemical_formula_structural   Tb5Nb3(Co4As3)4
_chemical_formula_sum   'Tb5 Nb3 Co16 As12'
_cell_volume   529.93718253
_cell_formula_units_Z   1
loop_
 _symmetry_equiv_pos_site_id
 _symmetry_equiv_pos_as_xyz
  1  'x, y, z'
loop_
 _atom_site_type_symbol
 _atom_site_label
 _atom_site_symmetry_multiplicity
 _atom_site_fract_x
 _atom_site_fract_y
 _atom_site_fract_z
 _atom_site_occupancy
  Tb  Tb0  1  0.184281  0.184281  0.500000  1
  Tb  Tb1  1  0.815719  0.000000  0.500000  1
  Tb  Tb2  1  0.000000  0.815719  0.500000  1
  Tb  Tb3  1  0.333333  0.666667  0.000000  1
  Tb  Tb4  1  0.666667  0.333333  0.000000  1
  Nb  Nb5  1  0.558940  0.558940  0.000000  1
  Nb  Nb6  1  0.441060  0.000000  0.000000  1
  Nb  Nb7  1  0.000000  0.441060  0.000000  1
  Co  Co8  1  0.718505  0.718505  0.500000  1
  Co  Co9  1  0.281495  0.000000  0.500000  1
  Co  Co10  1  0.000000  0.281495  0.500000  1
  Co  Co11  1  0.176618  0.374782  0.000000  1
  Co  Co12  1  0.625218  0.801835  0.000000  1
  Co  Co13  1  0.198165  0.823382  0.000000  1
  Co  Co14  1  0.801835  0.625218  0.000000  1
  Co  Co15  1  0.823382  0.198165  0.000000  1
  Co  Co16  1  0.374782  0.176618  0.000000  1
  Co  Co17  1  0.355558  0.480167  0.500000  1
  Co  Co18  1  0.519833  0.875390  0.500000  1
  Co  Co19  1  0.124610  0.644442  0.500000  1
  Co  Co20  1  0.875390  0.519833  0.500000  1
  Co  Co21  1  0.644442  0.124610  0.500000  1
  Co  Co22  1  0.480167  0.355558  0.500000  1
  Co  Co23  1  0.000000  0.000000  0.000000  1
  As  As24  1  0.822187  0.822187  0.000000  1
  As  As25  1  0.177813  0.000000  0.000000  1
  As  As26  1  0.000000  0.177813  0.000000  1
  As  As27  1  0.169436  0.481950  0.500000  1
  As  As28  1  0.518050  0.687488  0.500000  1
  As  As29  1  0.312512  0.830564  0.500000  1
  As  As30  1  0.687488  0.518050  0.500000  1
  As  As31  1  0.830564  0.312512  0.500000  1
  As  As32  1  0.481950  0.169436  0.500000  1
  As  As33  1  0.356952  0.356952  0.000000  1
  As  As34  1  0.643048  0.000000  0.000000  1
  As  As35  1  0.000000  0.643048  0.000000  1
