# generated using pymatgen
data_Ce3Ho7Si5As
_symmetry_space_group_name_H-M   'P 1'
_cell_length_a   8.41676500
_cell_length_b   8.43387910
_cell_length_c   6.29866100
_cell_angle_alpha   90.00000000
_cell_angle_beta   90.00000000
_cell_angle_gamma   119.93290092
_symmetry_Int_Tables_number   1
_chemical_formula_structural   Ce3Ho7Si5As
_chemical_formula_sum   'Ce3 Ho7 Si5 As1'
_cell_volume   387.47588952
_cell_formula_units_Z   1
loop_
 _symmetry_equiv_pos_site_id
 _symmetry_equiv_pos_as_xyz
  1  'x, y, z'
loop_
 _atom_site_type_symbol
 _atom_site_label
 _atom_site_symmetry_multiplicity
 _atom_site_fract_x
 _atom_site_fract_y
 _atom_site_fract_z
 _atom_site_occupancy
  Ce  Ce0  1  0.996838  0.762477  0.750000  1
  Ce  Ce1  1  0.767712  0.000000  0.750000  1
  Ce  Ce2  1  0.234360  0.237523  0.750000  1
  Ho  Ho3  1  0.000362  0.249872  0.250000  1
  Ho  Ho4  1  0.750490  0.750128  0.250000  1
  Ho  Ho5  1  0.249314  0.000000  0.250000  1
  Ho  Ho6  1  0.332661  0.664071  0.499556  1
  Ho  Ho7  1  0.668592  0.335929  0.000444  1
  Ho  Ho8  1  0.668592  0.335929  0.499556  1
  Ho  Ho9  1  0.332661  0.664071  0.000444  1
  Si  Si10  1  0.391780  0.391127  0.250000  1
  Si  Si11  1  0.000653  0.608873  0.250000  1
  Si  Si12  1  0.999538  0.400676  0.750000  1
  Si  Si13  1  0.598862  0.599324  0.750000  1
  Si  Si14  1  0.608708  0.000000  0.250000  1
  As  As15  1  0.398875  0.000000  0.750000  1
