# generated using pymatgen
data_Yb6Ho2Si12PdPt3
_symmetry_space_group_name_H-M   'P 1'
_cell_length_a   8.20173900
_cell_length_b   8.20173846
_cell_length_c   8.15528400
_cell_angle_alpha   90.00000000
_cell_angle_beta   90.00000000
_cell_angle_gamma   119.99999812
_symmetry_Int_Tables_number   1
_chemical_formula_structural   Yb6Ho2Si12PdPt3
_chemical_formula_sum   'Yb6 Ho2 Si12 Pd1 Pt3'
_cell_volume   475.09623716
_cell_formula_units_Z   1
loop_
 _symmetry_equiv_pos_site_id
 _symmetry_equiv_pos_as_xyz
  1  'x, y, z'
loop_
 _atom_site_type_symbol
 _atom_site_label
 _atom_site_symmetry_multiplicity
 _atom_site_fract_x
 _atom_site_fract_y
 _atom_site_fract_z
 _atom_site_occupancy
  Yb  Yb0  1  0.501922  0.003844  0.249929  1
  Yb  Yb1  1  0.499004  0.998008  0.750032  1
  Yb  Yb2  1  0.996156  0.498078  0.249929  1
  Yb  Yb3  1  0.001992  0.500996  0.750032  1
  Yb  Yb4  1  0.501922  0.498078  0.249929  1
  Yb  Yb5  1  0.499004  0.500996  0.750032  1
  Ho  Ho6  1  0.000000  0.000000  0.250509  1
  Ho  Ho7  1  0.000000  0.000000  0.749537  1
  Si  Si8  1  0.164838  0.329676  0.001677  1
  Si  Si9  1  0.835389  0.670779  0.998227  1
  Si  Si10  1  0.670324  0.835162  0.001677  1
  Si  Si11  1  0.835444  0.670891  0.501702  1
  Si  Si12  1  0.329221  0.164611  0.998227  1
  Si  Si13  1  0.164089  0.328178  0.498499  1
  Si  Si14  1  0.164838  0.835162  0.001677  1
  Si  Si15  1  0.329109  0.164556  0.501702  1
  Si  Si16  1  0.835389  0.164611  0.998227  1
  Si  Si17  1  0.671822  0.835911  0.498499  1
  Si  Si18  1  0.835444  0.164556  0.501702  1
  Si  Si19  1  0.164089  0.835911  0.498499  1
  Pd  Pd20  1  0.333333  0.666667  0.497982  1
  Pt  Pt21  1  0.333333  0.666667  0.001818  1
  Pt  Pt22  1  0.666667  0.333333  0.997919  1
  Pt  Pt23  1  0.666667  0.333333  0.502040  1
