# generated using pymatgen
data_Hf20(ZnSn3)3
_symmetry_space_group_name_H-M   'P 1'
_cell_length_a   5.56606700
_cell_length_b   8.29965137
_cell_length_c   15.64900100
_cell_angle_alpha   90.00000000
_cell_angle_beta   90.00000000
_cell_angle_gamma   109.59196078
_symmetry_Int_Tables_number   1
_chemical_formula_structural   Hf20(ZnSn3)3
_chemical_formula_sum   'Hf20 Zn3 Sn9'
_cell_volume   681.07349853
_cell_formula_units_Z   1
loop_
 _symmetry_equiv_pos_site_id
 _symmetry_equiv_pos_as_xyz
  1  'x, y, z'
loop_
 _atom_site_type_symbol
 _atom_site_label
 _atom_site_symmetry_multiplicity
 _atom_site_fract_x
 _atom_site_fract_y
 _atom_site_fract_z
 _atom_site_occupancy
  Hf  Hf0  1  0.430855  0.859591  0.356294  1
  Hf  Hf1  1  0.920041  0.854969  0.849990  1
  Hf  Hf2  1  0.065072  0.145031  0.150010  1
  Hf  Hf3  1  0.571265  0.140409  0.643706  1
  Hf  Hf4  1  0.654804  0.297192  0.073927  1
  Hf  Hf5  1  0.145436  0.290549  0.569332  1
  Hf  Hf6  1  0.854888  0.709451  0.430668  1
  Hf  Hf7  1  0.357613  0.702808  0.926073  1
  Hf  Hf8  1  0.845196  0.702808  0.073927  1
  Hf  Hf9  1  0.354564  0.709451  0.569332  1
  Hf  Hf10  1  0.645112  0.290549  0.430668  1
  Hf  Hf11  1  0.142387  0.297192  0.926073  1
  Hf  Hf12  1  0.069145  0.140409  0.356294  1
  Hf  Hf13  1  0.579959  0.145031  0.849990  1
  Hf  Hf14  1  0.434928  0.854969  0.150010  1
  Hf  Hf15  1  0.928735  0.859591  0.643706  1
  Hf  Hf16  1  0.500475  0.500896  0.249089  1
  Hf  Hf17  1  0.999579  0.499104  0.750911  1
  Hf  Hf18  1  0.999525  0.499104  0.249089  1
  Hf  Hf19  1  0.500421  0.500896  0.750911  1
  Zn  Zn20  1  0.750000  0.000000  0.500000  1
  Zn  Zn21  1  0.750000  0.000000  0.000000  1
  Zn  Zn22  1  0.250000  0.000000  0.500000  1
  Sn  Sn23  1  0.918727  0.830744  0.251626  1
  Sn  Sn24  1  0.412017  0.830744  0.748374  1
  Sn  Sn25  1  0.581273  0.169256  0.251626  1
  Sn  Sn26  1  0.087983  0.169256  0.748374  1
  Sn  Sn27  1  0.250000  0.500000  0.084222  1
  Sn  Sn28  1  0.750000  0.500000  0.585476  1
  Sn  Sn29  1  0.250000  0.500000  0.414524  1
  Sn  Sn30  1  0.750000  0.500000  0.915778  1
  Sn  Sn31  1  0.250000  0.000000  0.000000  1
