# generated using pymatgen
data_Sr15(SnSb6)2
_symmetry_space_group_name_H-M   'P 1'
_cell_length_a   10.13465541
_cell_length_b   10.13465628
_cell_length_c   10.13465570
_cell_angle_alpha   88.58437986
_cell_angle_beta   88.58438490
_cell_angle_gamma   88.58437844
_symmetry_Int_Tables_number   1
_chemical_formula_structural   Sr15(SnSb6)2
_chemical_formula_sum   'Sr15 Sn2 Sb12'
_cell_volume   1040.00545369
_cell_formula_units_Z   1
loop_
 _symmetry_equiv_pos_site_id
 _symmetry_equiv_pos_as_xyz
  1  'x, y, z'
loop_
 _atom_site_type_symbol
 _atom_site_label
 _atom_site_symmetry_multiplicity
 _atom_site_fract_x
 _atom_site_fract_y
 _atom_site_fract_z
 _atom_site_occupancy
  Sr  Sr0  1  0.410780  0.282904  0.772078  1
  Sr  Sr1  1  0.772078  0.410780  0.282904  1
  Sr  Sr2  1  0.282904  0.772078  0.410780  1
  Sr  Sr3  1  0.015324  0.525095  0.663236  1
  Sr  Sr4  1  0.663236  0.015324  0.525095  1
  Sr  Sr5  1  0.525095  0.663236  0.015324  1
  Sr  Sr6  1  0.175100  0.529731  0.027431  1
  Sr  Sr7  1  0.027431  0.175100  0.529731  1
  Sr  Sr8  1  0.529731  0.027431  0.175100  1
  Sr  Sr9  1  0.775343  0.288298  0.926542  1
  Sr  Sr10  1  0.926542  0.775343  0.288298  1
  Sr  Sr11  1  0.288298  0.926542  0.775343  1
  Sr  Sr12  1  0.167558  0.167558  0.167558  1
  Sr  Sr13  1  0.397181  0.397181  0.397181  1
  Sr  Sr14  1  0.948713  0.948713  0.948713  1
  Sn  Sn15  1  0.760264  0.760264  0.760264  1
  Sn  Sn16  1  0.600128  0.600128  0.600128  1
  Sb  Sb17  1  0.710417  0.338956  0.603561  1
  Sb  Sb18  1  0.603561  0.710417  0.338956  1
  Sb  Sb19  1  0.338956  0.603561  0.710417  1
  Sb  Sb20  1  0.611871  0.984650  0.858278  1
  Sb  Sb21  1  0.858278  0.611871  0.984650  1
  Sb  Sb22  1  0.984650  0.858278  0.611871  1
  Sb  Sb23  1  0.473070  0.343537  0.086233  1
  Sb  Sb24  1  0.086233  0.473070  0.343537  1
  Sb  Sb25  1  0.343537  0.086233  0.473070  1
  Sb  Sb26  1  0.094993  0.236171  0.847285  1
  Sb  Sb27  1  0.847285  0.094993  0.236171  1
  Sb  Sb28  1  0.236171  0.847285  0.094993  1
