# generated using pymatgen
data_Tb3YCo19P12Os
_symmetry_space_group_name_H-M   'P 1'
_cell_length_a   3.67416900
_cell_length_b   10.30560354
_cell_length_c   11.75800102
_cell_angle_alpha   89.86701310
_cell_angle_beta   90.00000000
_cell_angle_gamma   90.00000000
_symmetry_Int_Tables_number   1
_chemical_formula_structural   Tb3YCo19P12Os
_chemical_formula_sum   'Tb3 Y1 Co19 P12 Os1'
_cell_volume   445.20997167
_cell_formula_units_Z   1
loop_
 _symmetry_equiv_pos_site_id
 _symmetry_equiv_pos_as_xyz
  1  'x, y, z'
loop_
 _atom_site_type_symbol
 _atom_site_label
 _atom_site_symmetry_multiplicity
 _atom_site_fract_x
 _atom_site_fract_y
 _atom_site_fract_z
 _atom_site_occupancy
  Tb  Tb0  1  0.250000  0.916131  0.202311  1
  Tb  Tb1  1  0.750000  0.083591  0.797527  1
  Tb  Tb2  1  0.250000  0.581778  0.702163  1
  Y  Y3  1  0.750000  0.414214  0.295544  1
  Co  Co4  1  0.750000  0.215459  0.509395  1
  Co  Co5  1  0.750000  0.283848  0.008446  1
  Co  Co6  1  0.250000  0.716694  0.991895  1
  Co  Co7  1  0.250000  0.093486  0.988697  1
  Co  Co8  1  0.750000  0.906635  0.011302  1
  Co  Co9  1  0.750000  0.592095  0.510231  1
  Co  Co10  1  0.250000  0.406416  0.487806  1
  Co  Co11  1  0.250000  0.279687  0.677198  1
  Co  Co12  1  0.750000  0.721381  0.323312  1
  Co  Co13  1  0.750000  0.777530  0.823458  1
  Co  Co14  1  0.250000  0.221600  0.176052  1
  Co  Co15  1  0.250000  0.616582  0.198598  1
  Co  Co16  1  0.750000  0.383682  0.801981  1
  Co  Co17  1  0.750000  0.117224  0.300795  1
  Co  Co18  1  0.250000  0.885982  0.701350  1
  Co  Co19  1  0.250000  0.035388  0.432921  1
  Co  Co20  1  0.750000  0.966527  0.567935  1
  Co  Co21  1  0.750000  0.531854  0.068498  1
  Co  Co22  1  0.250000  0.468154  0.932452  1
  P  P23  1  0.250000  0.083304  0.612743  1
  P  P24  1  0.750000  0.921328  0.386197  1
  P  P25  1  0.750000  0.580764  0.888693  1
  P  P26  1  0.250000  0.418404  0.111609  1
  P  P27  1  0.250000  0.229801  0.368964  1
  P  P28  1  0.750000  0.771057  0.633450  1
  P  P29  1  0.750000  0.728248  0.129120  1
  P  P30  1  0.250000  0.271889  0.870269  1
  P  P31  1  0.250000  0.898545  0.893151  1
  P  P32  1  0.750000  0.102274  0.108000  1
  P  P33  1  0.750000  0.396848  0.608827  1
  P  P34  1  0.250000  0.595234  0.388733  1
  Os  Os35  1  0.250000  0.786368  0.490376  1
