# generated using pymatgen
data_NiSb3(SO4)8
_symmetry_space_group_name_H-M   'P 1'
_cell_length_a   9.14505600
_cell_length_b   9.30986000
_cell_length_c   13.77972700
_cell_angle_alpha   90.00000000
_cell_angle_beta   90.00000000
_cell_angle_gamma   90.00000000
_symmetry_Int_Tables_number   1
_chemical_formula_structural   NiSb3(SO4)8
_chemical_formula_sum   'Ni2 Sb6 S16 O64'
_cell_volume   1173.19480970
_cell_formula_units_Z   2
loop_
 _symmetry_equiv_pos_site_id
 _symmetry_equiv_pos_as_xyz
  1  'x, y, z'
loop_
 _atom_site_type_symbol
 _atom_site_label
 _atom_site_symmetry_multiplicity
 _atom_site_fract_x
 _atom_site_fract_y
 _atom_site_fract_z
 _atom_site_occupancy
  Ni  Ni0  1  0.893267  0.858258  0.125388  1
  Ni  Ni1  1  0.606733  0.858258  0.625388  1
  Sb  Sb2  1  0.391685  0.649237  0.127608  1
  Sb  Sb3  1  0.108315  0.649237  0.627608  1
  Sb  Sb4  1  0.896178  0.360029  0.375483  1
  Sb  Sb5  1  0.603822  0.360029  0.875483  1
  Sb  Sb6  1  0.396237  0.135681  0.374392  1
  Sb  Sb7  1  0.103763  0.135681  0.874392  1
  S  S8  1  0.929353  0.927312  0.721245  1
  S  S9  1  0.570647  0.927312  0.221245  1
  S  S10  1  0.058300  0.578698  0.220642  1
  S  S11  1  0.441700  0.578698  0.720642  1
  S  S12  1  0.568414  0.417768  0.280694  1
  S  S13  1  0.931586  0.417768  0.780694  1
  S  S14  1  0.433224  0.078383  0.780463  1
  S  S15  1  0.066776  0.078383  0.280463  1
  S  S16  1  0.321369  0.840349  0.485168  1
  S  S17  1  0.178631  0.840349  0.985168  1
  S  S18  1  0.810731  0.658878  0.486199  1
  S  S19  1  0.689269  0.658878  0.986199  1
  S  S20  1  0.307623  0.340299  0.011633  1
  S  S21  1  0.192377  0.340299  0.511633  1
  S  S22  1  0.809336  0.155363  0.012308  1
  S  S23  1  0.690664  0.155363  0.512308  1
  O  O24  1  0.304514  0.008246  0.474600  1
  O  O25  1  0.195486  0.008246  0.974600  1
  O  O26  1  0.025891  0.003181  0.366197  1
  O  O27  1  0.474109  0.003181  0.866197  1
  O  O28  1  0.530405  0.981691  0.326729  1
  O  O29  1  0.969595  0.981691  0.826729  1
  O  O30  1  0.770324  0.916427  0.723126  1
  O  O31  1  0.729676  0.916427  0.223126  1
  O  O32  1  0.272705  0.823049  0.077309  1
  O  O33  1  0.227295  0.823049  0.577309  1
  O  O34  1  0.027955  0.807754  0.011975  1
  O  O35  1  0.472045  0.807754  0.511975  1
  O  O36  1  0.992825  0.773780  0.727234  1
  O  O37  1  0.507175  0.773780  0.227234  1
  O  O38  1  0.266285  0.767775  0.401903  1
  O  O39  1  0.233715  0.767775  0.901903  1
  O  O40  1  0.768852  0.727654  0.398126  1
  O  O41  1  0.731148  0.727654  0.898126  1
  O  O42  1  0.003290  0.726041  0.219999  1
  O  O43  1  0.496710  0.726041  0.719999  1
  O  O44  1  0.972053  0.693567  0.507331  1
  O  O45  1  0.527947  0.693567  0.007331  1
  O  O46  1  0.772668  0.684883  0.074894  1
  O  O47  1  0.727332  0.684883  0.574894  1
  O  O48  1  0.226313  0.582233  0.230272  1
  O  O49  1  0.273687  0.582233  0.730272  1
  O  O50  1  0.479613  0.521408  0.826578  1
  O  O51  1  0.020387  0.521408  0.326578  1
  O  O52  1  0.520885  0.500186  0.361613  1
  O  O53  1  0.979115  0.500186  0.861613  1
  O  O54  1  0.804371  0.489842  0.475930  1
  O  O55  1  0.695629  0.489842  0.975930  1
  O  O56  1  0.295937  0.499722  0.018484  1
  O  O57  1  0.204063  0.499722  0.518484  1
  O  O58  1  0.491524  0.482960  0.646912  1
  O  O59  1  0.008476  0.482960  0.146912  1
  O  O60  1  0.533816  0.473883  0.181478  1
  O  O61  1  0.966184  0.473883  0.681478  1
  O  O62  1  0.735926  0.398135  0.274404  1
  O  O63  1  0.764074  0.398135  0.774404  1
  O  O64  1  0.278322  0.309301  0.417589  1
  O  O65  1  0.221678  0.309301  0.917589  1
  O  O66  1  0.466229  0.301046  0.985639  1
  O  O67  1  0.033771  0.301046  0.485639  1
  O  O68  1  0.504110  0.264493  0.277807  1
  O  O69  1  0.995890  0.264493  0.777807  1
  O  O70  1  0.263794  0.260044  0.094123  1
  O  O71  1  0.236206  0.260044  0.594123  1
  O  O72  1  0.766281  0.242859  0.091857  1
  O  O73  1  0.733719  0.242859  0.591857  1
  O  O74  1  0.494736  0.235972  0.779190  1
  O  O75  1  0.005264  0.235972  0.279190  1
  O  O76  1  0.533011  0.201339  0.481978  1
  O  O77  1  0.966989  0.201339  0.981978  1
  O  O78  1  0.779453  0.187342  0.417079  1
  O  O79  1  0.720547  0.187342  0.917079  1
  O  O80  1  0.262327  0.101503  0.773228  1
  O  O81  1  0.237673  0.101503  0.273228  1
  O  O82  1  0.470507  0.021112  0.685351  1
  O  O83  1  0.029493  0.021112  0.185351  1
  O  O84  1  0.996366  0.012253  0.647434  1
  O  O85  1  0.503634  0.012253  0.147434  1
  O  O86  1  0.802058  0.000060  0.022411  1
  O  O87  1  0.697942  0.000060  0.522411  1
