# generated using pymatgen
data_Cd2Ru3Rh(PbO7)2
_symmetry_space_group_name_H-M   'P 1'
_cell_length_a   7.35450288
_cell_length_b   7.28949182
_cell_length_c   7.31333779
_cell_angle_alpha   59.57080300
_cell_angle_beta   59.81362143
_cell_angle_gamma   59.70453786
_symmetry_Int_Tables_number   1
_chemical_formula_structural   Cd2Ru3Rh(PbO7)2
_chemical_formula_sum   'Cd2 Ru3 Rh1 Pb2 O14'
_cell_volume   275.32207354
_cell_formula_units_Z   1
loop_
 _symmetry_equiv_pos_site_id
 _symmetry_equiv_pos_as_xyz
  1  'x, y, z'
loop_
 _atom_site_type_symbol
 _atom_site_label
 _atom_site_symmetry_multiplicity
 _atom_site_fract_x
 _atom_site_fract_y
 _atom_site_fract_z
 _atom_site_occupancy
  Cd  Cd0  1  0.125000  0.625000  0.125000  1
  Cd  Cd1  1  0.125000  0.125000  0.625000  1
  Ru  Ru2  1  0.625000  0.625000  0.125000  1
  Ru  Ru3  1  0.125000  0.625000  0.625000  1
  Ru  Ru4  1  0.625000  0.625000  0.625000  1
  Rh  Rh5  1  0.625000  0.125000  0.625000  1
  Pb  Pb6  1  0.625000  0.125000  0.125000  1
  Pb  Pb7  1  0.125000  0.125000  0.125000  1
  O  O8  1  0.690938  0.698716  0.303504  1
  O  O9  1  0.933862  0.574346  0.557929  1
  O  O10  1  0.545380  0.953044  0.956196  1
  O  O11  1  0.955308  0.950692  0.543174  1
  O  O12  1  0.943157  0.551284  0.946496  1
  O  O13  1  0.550826  0.950692  0.543174  1
  O  O14  1  0.306843  0.698716  0.303504  1
  O  O15  1  0.316138  0.675654  0.692071  1
  O  O16  1  0.704620  0.296956  0.293804  1
  O  O17  1  0.699174  0.299308  0.706826  1
  O  O18  1  0.559062  0.551284  0.946496  1
  O  O19  1  0.294692  0.299308  0.706826  1
  O  O20  1  0.235075  0.266700  0.263151  1
  O  O21  1  0.014925  0.983300  0.986849  1
