# generated using pymatgen
data_Zr8Hg3Pd8Pb
_symmetry_space_group_name_H-M   'P 1'
_cell_length_a   7.59123300
_cell_length_b   7.59123300
_cell_length_c   6.82898700
_cell_angle_alpha   90.00000000
_cell_angle_beta   90.00000000
_cell_angle_gamma   90.00000000
_symmetry_Int_Tables_number   1
_chemical_formula_structural   Zr8Hg3Pd8Pb
_chemical_formula_sum   'Zr8 Hg3 Pd8 Pb1'
_cell_volume   393.53279412
_cell_formula_units_Z   1
loop_
 _symmetry_equiv_pos_site_id
 _symmetry_equiv_pos_as_xyz
  1  'x, y, z'
loop_
 _atom_site_type_symbol
 _atom_site_label
 _atom_site_symmetry_multiplicity
 _atom_site_fract_x
 _atom_site_fract_y
 _atom_site_fract_z
 _atom_site_occupancy
  Zr  Zr0  1  0.655204  0.656312  0.498454  1
  Zr  Zr1  1  0.813739  0.184108  0.498063  1
  Zr  Zr2  1  0.684108  0.686261  0.001937  1
  Zr  Zr3  1  0.843688  0.155204  0.001546  1
  Zr  Zr4  1  0.186261  0.815892  0.498063  1
  Zr  Zr5  1  0.315892  0.313739  0.001937  1
  Zr  Zr6  1  0.156312  0.844796  0.001546  1
  Zr  Zr7  1  0.344796  0.343688  0.498454  1
  Hg  Hg8  1  0.000000  0.500000  0.250000  1
  Hg  Hg9  1  0.500000  0.000000  0.750000  1
  Hg  Hg10  1  0.500000  0.000000  0.250000  1
  Pd  Pd11  1  0.627184  0.371315  0.220286  1
  Pd  Pd12  1  0.374614  0.629237  0.780842  1
  Pd  Pd13  1  0.870763  0.874614  0.719158  1
  Pd  Pd14  1  0.625386  0.370763  0.780842  1
  Pd  Pd15  1  0.372816  0.628685  0.220286  1
  Pd  Pd16  1  0.128685  0.127184  0.279714  1
  Pd  Pd17  1  0.871315  0.872816  0.279714  1
  Pd  Pd18  1  0.129237  0.125386  0.719158  1
  Pb  Pb19  1  0.000000  0.500000  0.750000  1
