# generated using pymatgen
data_Er8Ti8ReSi16W3
_symmetry_space_group_name_H-M   'P 1'
_cell_length_a   6.94559417
_cell_length_b   6.94559417
_cell_length_c   12.77312464
_cell_angle_alpha   89.95891106
_cell_angle_beta   90.04108894
_cell_angle_gamma   89.94777326
_symmetry_Int_Tables_number   1
_chemical_formula_structural   Er8Ti8ReSi16W3
_chemical_formula_sum   'Er8 Ti8 Re1 Si16 W3'
_cell_volume   616.19128813
_cell_formula_units_Z   1
loop_
 _symmetry_equiv_pos_site_id
 _symmetry_equiv_pos_as_xyz
  1  'x, y, z'
loop_
 _atom_site_type_symbol
 _atom_site_label
 _atom_site_symmetry_multiplicity
 _atom_site_fract_x
 _atom_site_fract_y
 _atom_site_fract_z
 _atom_site_occupancy
  Er  Er0  1  0.341402  0.000177  0.468549  1
  Er  Er1  1  0.499790  0.841081  0.717886  1
  Er  Er2  1  0.500570  0.158552  0.218379  1
  Er  Er3  1  0.841081  0.499790  0.282114  1
  Er  Er4  1  0.158552  0.500570  0.781621  1
  Er  Er5  1  0.658710  0.999614  0.968046  1
  Er  Er6  1  0.000177  0.341402  0.531451  1
  Er  Er7  1  0.999614  0.658710  0.031954  1
  Ti  Ti8  1  0.152856  0.007781  0.875845  1
  Ti  Ti9  1  0.492441  0.652434  0.126790  1
  Ti  Ti10  1  0.507263  0.346500  0.625808  1
  Ti  Ti11  1  0.652434  0.492441  0.873210  1
  Ti  Ti12  1  0.346500  0.507263  0.374192  1
  Ti  Ti13  1  0.848280  0.993440  0.376042  1
  Ti  Ti14  1  0.007781  0.152856  0.124155  1
  Ti  Ti15  1  0.993440  0.848280  0.623958  1
  Re  Re16  1  0.672222  0.672222  0.500000  1
  Si  Si17  1  0.201532  0.131267  0.683416  1
  Si  Si18  1  0.368782  0.701485  0.933699  1
  Si  Si19  1  0.630308  0.299762  0.433032  1
  Si  Si20  1  0.701485  0.368782  0.066301  1
  Si  Si21  1  0.299762  0.630308  0.566968  1
  Si  Si22  1  0.798803  0.868612  0.183506  1
  Si  Si23  1  0.131267  0.201532  0.316584  1
  Si  Si24  1  0.868612  0.798803  0.816494  1
  Si  Si25  1  0.292171  0.953195  0.065602  1
  Si  Si26  1  0.547399  0.791520  0.316565  1
  Si  Si27  1  0.453253  0.207541  0.815800  1
  Si  Si28  1  0.791520  0.547399  0.683435  1
  Si  Si29  1  0.207541  0.453253  0.184200  1
  Si  Si30  1  0.708629  0.046088  0.565584  1
  Si  Si31  1  0.953195  0.292171  0.934398  1
  Si  Si32  1  0.046088  0.708629  0.434416  1
  W  W33  1  0.327059  0.327059  0.000000  1
  W  W34  1  0.172507  0.826973  0.250389  1
  W  W35  1  0.826973  0.172507  0.749611  1
