# generated using pymatgen
data_Pr3Ga(SiRh3)2
_symmetry_space_group_name_H-M   'P 1'
_cell_length_a   5.69656600
_cell_length_b   5.69656425
_cell_length_c   15.36141100
_cell_angle_alpha   90.00000000
_cell_angle_beta   90.00000000
_cell_angle_gamma   119.99998696
_symmetry_Int_Tables_number   1
_chemical_formula_structural   Pr3Ga(SiRh3)2
_chemical_formula_sum   'Pr6 Ga2 Si4 Rh12'
_cell_volume   431.70584723
_cell_formula_units_Z   2
loop_
 _symmetry_equiv_pos_site_id
 _symmetry_equiv_pos_as_xyz
  1  'x, y, z'
loop_
 _atom_site_type_symbol
 _atom_site_label
 _atom_site_symmetry_multiplicity
 _atom_site_fract_x
 _atom_site_fract_y
 _atom_site_fract_z
 _atom_site_occupancy
  Pr  Pr0  1  0.333333  0.666667  0.538714  1
  Pr  Pr1  1  0.666667  0.333333  0.461286  1
  Pr  Pr2  1  0.666667  0.333333  0.038714  1
  Pr  Pr3  1  0.333333  0.666667  0.961286  1
  Pr  Pr4  1  0.333333  0.666667  0.750000  1
  Pr  Pr5  1  0.666667  0.333333  0.250000  1
  Ga  Ga6  1  0.000000  0.000000  0.000000  1
  Ga  Ga7  1  0.000000  0.000000  0.500000  1
  Si  Si8  1  0.000000  0.000000  0.250000  1
  Si  Si9  1  0.000000  0.000000  0.750000  1
  Si  Si10  1  0.333333  0.666667  0.250000  1
  Si  Si11  1  0.666667  0.333333  0.750000  1
  Rh  Rh12  1  0.166601  0.333201  0.136195  1
  Rh  Rh13  1  0.833399  0.666799  0.863805  1
  Rh  Rh14  1  0.666799  0.833399  0.136195  1
  Rh  Rh15  1  0.833399  0.666799  0.636195  1
  Rh  Rh16  1  0.333201  0.166601  0.863805  1
  Rh  Rh17  1  0.166601  0.333201  0.363805  1
  Rh  Rh18  1  0.166601  0.833399  0.136195  1
  Rh  Rh19  1  0.333201  0.166601  0.636195  1
  Rh  Rh20  1  0.833399  0.166601  0.863805  1
  Rh  Rh21  1  0.666799  0.833399  0.363805  1
  Rh  Rh22  1  0.833399  0.166601  0.636195  1
  Rh  Rh23  1  0.166601  0.833399  0.363805  1
