# generated using pymatgen
data_LaCeSn5Hg
_symmetry_space_group_name_H-M   'P 1'
_cell_length_a   4.76529300
_cell_length_b   4.76712300
_cell_length_c   9.43762200
_cell_angle_alpha   90.00000000
_cell_angle_beta   90.00000000
_cell_angle_gamma   90.00000000
_symmetry_Int_Tables_number   1
_chemical_formula_structural   LaCeSn5Hg
_chemical_formula_sum   'La1 Ce1 Sn5 Hg1'
_cell_volume   214.39198502
_cell_formula_units_Z   1
loop_
 _symmetry_equiv_pos_site_id
 _symmetry_equiv_pos_as_xyz
  1  'x, y, z'
loop_
 _atom_site_type_symbol
 _atom_site_label
 _atom_site_symmetry_multiplicity
 _atom_site_fract_x
 _atom_site_fract_y
 _atom_site_fract_z
 _atom_site_occupancy
  La  La0  1  0.000000  0.000000  0.500000  1
  Ce  Ce1  1  0.000000  0.000000  0.000000  1
  Sn  Sn2  1  0.500000  0.500000  0.000000  1
  Sn  Sn3  1  0.500000  0.000000  0.247950  1
  Sn  Sn4  1  0.500000  0.000000  0.752050  1
  Sn  Sn5  1  0.000000  0.500000  0.247906  1
  Sn  Sn6  1  0.000000  0.500000  0.752094  1
  Hg  Hg7  1  0.500000  0.500000  0.500000  1
