# generated using pymatgen
data_Y6FeCo15(ReP6)2
_symmetry_space_group_name_H-M   'P 1'
_cell_length_a   3.73014400
_cell_length_b   10.52542600
_cell_length_c   12.20205400
_cell_angle_alpha   90.00000000
_cell_angle_beta   90.00000000
_cell_angle_gamma   90.00000000
_symmetry_Int_Tables_number   1
_chemical_formula_structural   Y6FeCo15(ReP6)2
_chemical_formula_sum   'Y6 Fe1 Co15 Re2 P12'
_cell_volume   479.06916945
_cell_formula_units_Z   1
loop_
 _symmetry_equiv_pos_site_id
 _symmetry_equiv_pos_as_xyz
  1  'x, y, z'
loop_
 _atom_site_type_symbol
 _atom_site_label
 _atom_site_symmetry_multiplicity
 _atom_site_fract_x
 _atom_site_fract_y
 _atom_site_fract_z
 _atom_site_occupancy
  Y  Y0  1  0.000000  0.500000  0.524358  1
  Y  Y1  1  0.500000  0.000000  0.475305  1
  Y  Y2  1  0.500000  0.817548  0.204923  1
  Y  Y3  1  0.500000  0.182452  0.204923  1
  Y  Y4  1  0.000000  0.681059  0.795546  1
  Y  Y5  1  0.000000  0.318941  0.795546  1
  Fe  Fe6  1  0.000000  0.500000  0.988112  1
  Co  Co7  1  0.500000  0.500000  0.700690  1
  Co  Co8  1  0.000000  0.000000  0.298880  1
  Co  Co9  1  0.500000  0.000000  0.012228  1
  Co  Co10  1  0.500000  0.330970  0.989776  1
  Co  Co11  1  0.500000  0.669030  0.989776  1
  Co  Co12  1  0.000000  0.166948  0.010263  1
  Co  Co13  1  0.000000  0.833052  0.010263  1
  Co  Co14  1  0.500000  0.296504  0.431263  1
  Co  Co15  1  0.500000  0.703496  0.431263  1
  Co  Co16  1  0.000000  0.203495  0.569249  1
  Co  Co17  1  0.000000  0.796505  0.569249  1
  Co  Co18  1  0.500000  0.879555  0.708669  1
  Co  Co19  1  0.500000  0.120445  0.708669  1
  Co  Co20  1  0.000000  0.620897  0.291310  1
  Co  Co21  1  0.000000  0.379103  0.291310  1
  Re  Re22  1  0.500000  0.500000  0.155393  1
  Re  Re23  1  0.000000  0.000000  0.844189  1
  P  P24  1  0.500000  0.500000  0.881400  1
  P  P25  1  0.000000  0.000000  0.120434  1
  P  P26  1  0.500000  0.500000  0.347817  1
  P  P27  1  0.000000  0.000000  0.651476  1
  P  P28  1  0.500000  0.310870  0.616238  1
  P  P29  1  0.500000  0.689130  0.616238  1
  P  P30  1  0.000000  0.188836  0.383777  1
  P  P31  1  0.000000  0.811164  0.383777  1
  P  P32  1  0.500000  0.846168  0.892841  1
  P  P33  1  0.500000  0.153832  0.892841  1
  P  P34  1  0.000000  0.653055  0.106004  1
  P  P35  1  0.000000  0.346945  0.106004  1
