# generated using pymatgen
data_Eu2Br5
_symmetry_space_group_name_H-M   'P 1'
_cell_length_a   8.46658115
_cell_length_b   4.06875700
_cell_length_c   13.83290300
_cell_angle_alpha   90.00000000
_cell_angle_beta   87.41730419
_cell_angle_gamma   90.00000000
_symmetry_Int_Tables_number   1
_chemical_formula_structural   Eu2Br5
_chemical_formula_sum   'Eu4 Br10'
_cell_volume   476.03818410
_cell_formula_units_Z   2
loop_
 _symmetry_equiv_pos_site_id
 _symmetry_equiv_pos_as_xyz
  1  'x, y, z'
loop_
 _atom_site_type_symbol
 _atom_site_label
 _atom_site_symmetry_multiplicity
 _atom_site_fract_x
 _atom_site_fract_y
 _atom_site_fract_z
 _atom_site_occupancy
  Eu  Eu0  1  0.918011  0.249999  0.146646  1
  Eu  Eu1  1  0.567758  0.750000  0.350331  1
  Eu  Eu2  1  0.432242  0.249999  0.649669  1
  Eu  Eu3  1  0.081989  0.750000  0.853354  1
  Br  Br4  1  0.148362  0.750000  0.069424  1
  Br  Br5  1  0.655808  0.750000  0.130251  1
  Br  Br6  1  0.359983  0.249999  0.281061  1
  Br  Br7  1  0.932090  0.750000  0.309996  1
  Br  Br8  1  0.688276  0.249999  0.484209  1
  Br  Br9  1  0.311724  0.750000  0.515790  1
  Br  Br10  1  0.067911  0.249999  0.690004  1
  Br  Br11  1  0.640017  0.750000  0.718939  1
  Br  Br12  1  0.344193  0.249999  0.869748  1
  Br  Br13  1  0.851639  0.249999  0.930576  1
