# generated using pymatgen
data_NdBRh3Au
_symmetry_space_group_name_H-M   'P 1'
_cell_length_a   5.51210500
_cell_length_b   5.51210392
_cell_length_c   7.53518000
_cell_angle_alpha   90.00000000
_cell_angle_beta   90.00000000
_cell_angle_gamma   120.00000048
_symmetry_Int_Tables_number   1
_chemical_formula_structural   NdBRh3Au
_chemical_formula_sum   'Nd2 B2 Rh6 Au2'
_cell_volume   198.27097369
_cell_formula_units_Z   2
loop_
 _symmetry_equiv_pos_site_id
 _symmetry_equiv_pos_as_xyz
  1  'x, y, z'
loop_
 _atom_site_type_symbol
 _atom_site_label
 _atom_site_symmetry_multiplicity
 _atom_site_fract_x
 _atom_site_fract_y
 _atom_site_fract_z
 _atom_site_occupancy
  Nd  Nd0  1  0.000000  0.000000  0.500000  1
  Nd  Nd1  1  0.000000  0.000000  0.000000  1
  B  B2  1  0.333333  0.666667  0.000000  1
  B  B3  1  0.666667  0.333333  0.000000  1
  Rh  Rh4  1  0.500000  0.000000  0.192798  1
  Rh  Rh5  1  0.500000  0.000000  0.807202  1
  Rh  Rh6  1  0.000000  0.500000  0.192798  1
  Rh  Rh7  1  0.000000  0.500000  0.807202  1
  Rh  Rh8  1  0.500000  0.500000  0.192798  1
  Rh  Rh9  1  0.500000  0.500000  0.807202  1
  Au  Au10  1  0.333333  0.666667  0.500000  1
  Au  Au11  1  0.666667  0.333333  0.500000  1
