# generated using pymatgen
data_Er8Si12Pt3Rh
_symmetry_space_group_name_H-M   'P 1'
_cell_length_a   8.15109200
_cell_length_b   8.15109136
_cell_length_c   7.84496500
_cell_angle_alpha   90.00000000
_cell_angle_beta   90.00000000
_cell_angle_gamma   120.00000260
_symmetry_Int_Tables_number   1
_chemical_formula_structural   Er8Si12Pt3Rh
_chemical_formula_sum   'Er8 Si12 Pt3 Rh1'
_cell_volume   451.39130216
_cell_formula_units_Z   1
loop_
 _symmetry_equiv_pos_site_id
 _symmetry_equiv_pos_as_xyz
  1  'x, y, z'
loop_
 _atom_site_type_symbol
 _atom_site_label
 _atom_site_symmetry_multiplicity
 _atom_site_fract_x
 _atom_site_fract_y
 _atom_site_fract_z
 _atom_site_occupancy
  Er  Er0  1  0.000000  0.000000  0.251033  1
  Er  Er1  1  0.000000  0.000000  0.749544  1
  Er  Er2  1  0.488774  0.511226  0.251946  1
  Er  Er3  1  0.488774  0.977549  0.251946  1
  Er  Er4  1  0.022451  0.511226  0.251946  1
  Er  Er5  1  0.509685  0.490315  0.747750  1
  Er  Er6  1  0.980629  0.490315  0.747750  1
  Er  Er7  1  0.509685  0.019371  0.747750  1
  Si  Si8  1  0.835849  0.164151  0.497830  1
  Si  Si9  1  0.835849  0.671699  0.497830  1
  Si  Si10  1  0.328301  0.164151  0.497830  1
  Si  Si11  1  0.834901  0.165099  0.001399  1
  Si  Si12  1  0.834901  0.669803  0.001399  1
  Si  Si13  1  0.330197  0.165099  0.001399  1
  Si  Si14  1  0.165188  0.834812  0.998974  1
  Si  Si15  1  0.669624  0.834812  0.998974  1
  Si  Si16  1  0.165188  0.330376  0.998974  1
  Si  Si17  1  0.167597  0.832403  0.501798  1
  Si  Si18  1  0.664807  0.832403  0.501798  1
  Si  Si19  1  0.167597  0.335193  0.501798  1
  Pt  Pt20  1  0.666667  0.333333  0.466477  1
  Pt  Pt21  1  0.666667  0.333333  0.033468  1
  Pt  Pt22  1  0.333333  0.666667  0.961990  1
  Rh  Rh23  1  0.333333  0.666667  0.538398  1
