# generated using pymatgen
data_Yb3Al11Hg
_symmetry_space_group_name_H-M   'P 1'
_cell_length_a   8.72011784
_cell_length_b   8.72268849
_cell_length_c   8.72090882
_cell_angle_alpha   150.08480438
_cell_angle_beta   98.68503229
_cell_angle_gamma   88.97313637
_symmetry_Int_Tables_number   1
_chemical_formula_structural   Yb3Al11Hg
_chemical_formula_sum   'Yb3 Al11 Hg1'
_cell_volume   318.32420084
_cell_formula_units_Z   1
loop_
 _symmetry_equiv_pos_site_id
 _symmetry_equiv_pos_as_xyz
  1  'x, y, z'
loop_
 _atom_site_type_symbol
 _atom_site_label
 _atom_site_symmetry_multiplicity
 _atom_site_fract_x
 _atom_site_fract_y
 _atom_site_fract_z
 _atom_site_occupancy
  Yb  Yb0  1  0.999874  0.999968  0.999873  1
  Yb  Yb1  1  0.331622  0.332039  0.999901  1
  Yb  Yb2  1  0.667810  0.668226  0.999771  1
  Al  Al3  1  0.382845  0.000387  0.383143  1
  Al  Al4  1  0.253819  0.500237  0.753862  1
  Al  Al5  1  0.751396  0.499780  0.251395  1
  Al  Al6  1  0.592704  0.830746  0.762034  1
  Al  Al7  1  0.931312  0.169420  0.761899  1
  Al  Al8  1  0.281789  0.667529  0.613601  1
  Al  Al9  1  0.946037  0.331788  0.613590  1
  Al  Al10  1  0.057163  0.668326  0.389223  1
  Al  Al11  1  0.720842  0.332061  0.389097  1
  Al  Al12  1  0.074996  0.832520  0.242261  1
  Al  Al13  1  0.409573  0.167171  0.242248  1
  Hg  Hg14  1  0.609219  0.999802  0.609104  1
