# generated using pymatgen
data_Y4Hf3ScPt4
_symmetry_space_group_name_H-M   'P 1'
_cell_length_a   4.67929700
_cell_length_b   7.08826284
_cell_length_c   8.26831114
_cell_angle_alpha   90.98788478
_cell_angle_beta   90.00000000
_cell_angle_gamma   90.00000000
_symmetry_Int_Tables_number   1
_chemical_formula_structural   Y4Hf3ScPt4
_chemical_formula_sum   'Y4 Hf3 Sc1 Pt4'
_cell_volume   274.20330072
_cell_formula_units_Z   1
loop_
 _symmetry_equiv_pos_site_id
 _symmetry_equiv_pos_as_xyz
  1  'x, y, z'
loop_
 _atom_site_type_symbol
 _atom_site_label
 _atom_site_symmetry_multiplicity
 _atom_site_fract_x
 _atom_site_fract_y
 _atom_site_fract_z
 _atom_site_occupancy
  Y  Y0  1  0.250000  0.982723  0.323108  1
  Y  Y1  1  0.250000  0.476602  0.174051  1
  Y  Y2  1  0.750000  0.022115  0.681875  1
  Y  Y3  1  0.750000  0.518692  0.822448  1
  Hf  Hf4  1  0.250000  0.361064  0.575031  1
  Hf  Hf5  1  0.250000  0.853621  0.927614  1
  Hf  Hf6  1  0.750000  0.646860  0.423176  1
  Sc  Sc7  1  0.750000  0.141379  0.076194  1
  Pt  Pt8  1  0.250000  0.226708  0.891277  1
  Pt  Pt9  1  0.250000  0.731907  0.597526  1
  Pt  Pt10  1  0.750000  0.763753  0.099457  1
  Pt  Pt11  1  0.750000  0.274576  0.408242  1
