# generated using pymatgen
data_Cs2Eu2(SiO3)3
_symmetry_space_group_name_H-M   'P 1'
_cell_length_a   7.76081900
_cell_length_b   6.90066620
_cell_length_c   12.67338981
_cell_angle_alpha   60.70432413
_cell_angle_beta   90.00000000
_cell_angle_gamma   90.00000000
_symmetry_Int_Tables_number   1
_chemical_formula_structural   Cs2Eu2(SiO3)3
_chemical_formula_sum   'Cs4 Eu4 Si6 O18'
_cell_volume   591.91690594
_cell_formula_units_Z   2
loop_
 _symmetry_equiv_pos_site_id
 _symmetry_equiv_pos_as_xyz
  1  'x, y, z'
loop_
 _atom_site_type_symbol
 _atom_site_label
 _atom_site_symmetry_multiplicity
 _atom_site_fract_x
 _atom_site_fract_y
 _atom_site_fract_z
 _atom_site_occupancy
  Cs  Cs0  1  0.412096  0.436380  0.772928  1
  Cs  Cs1  1  0.587904  0.436380  0.272928  1
  Cs  Cs2  1  0.665732  0.819901  0.904625  1
  Cs  Cs3  1  0.334268  0.819901  0.404625  1
  Eu  Eu4  1  0.836571  0.873975  0.586840  1
  Eu  Eu5  1  0.163429  0.873975  0.086840  1
  Eu  Eu6  1  0.936594  0.343675  0.853711  1
  Eu  Eu7  1  0.063406  0.343675  0.353711  1
  Si  Si8  1  0.581745  0.113731  0.093977  1
  Si  Si9  1  0.418255  0.113731  0.593977  1
  Si  Si10  1  0.261905  0.429059  0.047691  1
  Si  Si11  1  0.738095  0.429059  0.547691  1
  Si  Si12  1  0.153336  0.873036  0.815959  1
  Si  Si13  1  0.846664  0.873036  0.315959  1
  O  O14  1  0.806414  0.468687  0.656861  1
  O  O15  1  0.193586  0.468687  0.156861  1
  O  O16  1  0.465296  0.332675  0.080210  1
  O  O17  1  0.534704  0.332675  0.580210  1
  O  O18  1  0.456568  0.903527  0.127019  1
  O  O19  1  0.543432  0.903527  0.627019  1
  O  O20  1  0.055030  0.998458  0.879660  1
  O  O21  1  0.944970  0.998458  0.379660  1
  O  O22  1  0.851579  0.274127  0.511500  1
  O  O23  1  0.148421  0.274127  0.011500  1
  O  O24  1  0.690521  0.199978  0.969760  1
  O  O25  1  0.309479  0.199978  0.469760  1
  O  O26  1  0.026044  0.750039  0.764454  1
  O  O27  1  0.973956  0.750039  0.264454  1
  O  O28  1  0.284676  0.682840  0.923797  1
  O  O29  1  0.715324  0.682840  0.423797  1
  O  O30  1  0.710715  0.053811  0.212447  1
  O  O31  1  0.289285  0.053811  0.712447  1
