# generated using pymatgen
data_Ce5Y7(SiOs)8
_symmetry_space_group_name_H-M   'P 1'
_cell_length_a   5.53546159
_cell_length_b   7.86849697
_cell_length_c   13.40767237
_cell_angle_alpha   90.05579382
_cell_angle_beta   90.03485217
_cell_angle_gamma   89.92187183
_symmetry_Int_Tables_number   1
_chemical_formula_structural   Ce5Y7(SiOs)8
_chemical_formula_sum   'Ce5 Y7 Si8 Os8'
_cell_volume   583.98046909
_cell_formula_units_Z   1
loop_
 _symmetry_equiv_pos_site_id
 _symmetry_equiv_pos_as_xyz
  1  'x, y, z'
loop_
 _atom_site_type_symbol
 _atom_site_label
 _atom_site_symmetry_multiplicity
 _atom_site_fract_x
 _atom_site_fract_y
 _atom_site_fract_z
 _atom_site_occupancy
  Ce  Ce0  1  0.346620  0.897131  0.899022  1
  Ce  Ce1  1  0.350028  0.593543  0.403293  1
  Ce  Ce2  1  0.648400  0.405082  0.902463  1
  Ce  Ce3  1  0.348729  0.907225  0.597156  1
  Ce  Ce4  1  0.653816  0.097558  0.099687  1
  Y  Y5  1  0.132621  0.252998  0.749280  1
  Y  Y6  1  0.869834  0.749438  0.250535  1
  Y  Y7  1  0.132399  0.248167  0.250464  1
  Y  Y8  1  0.866362  0.748720  0.748999  1
  Y  Y9  1  0.647775  0.390524  0.604296  1
  Y  Y10  1  0.351103  0.606486  0.106022  1
  Y  Y11  1  0.647675  0.110033  0.394502  1
  Si  Si12  1  0.086997  0.249627  0.499403  1
  Si  Si13  1  0.906079  0.747706  0.002954  1
  Si  Si14  1  0.899754  0.750686  0.499396  1
  Si  Si15  1  0.101188  0.250687  0.999683  1
  Si  Si16  1  0.648535  0.100678  0.751449  1
  Si  Si17  1  0.358877  0.897820  0.252363  1
  Si  Si18  1  0.645873  0.399773  0.247690  1
  Si  Si19  1  0.354406  0.601469  0.746694  1
  Os  Os20  1  0.849459  0.020416  0.591851  1
  Os  Os21  1  0.155655  0.978723  0.091378  1
  Os  Os22  1  0.847159  0.480177  0.407353  1
  Os  Os23  1  0.150804  0.523358  0.907343  1
  Os  Os24  1  0.153337  0.974529  0.411568  1
  Os  Os25  1  0.847939  0.020265  0.910977  1
  Os  Os26  1  0.152835  0.524831  0.586980  1
  Os  Os27  1  0.845741  0.472346  0.087201  1
