# generated using pymatgen
data_Ho3Er(B2Ir5)2
_symmetry_space_group_name_H-M   'P 1'
_cell_length_a   11.00279396
_cell_length_b   11.00279310
_cell_length_c   11.00279407
_cell_angle_alpha   28.75290014
_cell_angle_beta   28.75290854
_cell_angle_gamma   28.75290142
_symmetry_Int_Tables_number   1
_chemical_formula_structural   Ho3Er(B2Ir5)2
_chemical_formula_sum   'Ho3 Er1 B4 Ir10'
_cell_volume   272.52015681
_cell_formula_units_Z   1
loop_
 _symmetry_equiv_pos_site_id
 _symmetry_equiv_pos_as_xyz
  1  'x, y, z'
loop_
 _atom_site_type_symbol
 _atom_site_label
 _atom_site_symmetry_multiplicity
 _atom_site_fract_x
 _atom_site_fract_y
 _atom_site_fract_z
 _atom_site_occupancy
  Ho  Ho0  1  0.151871  0.151871  0.151871  1
  Ho  Ho1  1  0.950267  0.950267  0.950267  1
  Ho  Ho2  1  0.848106  0.848106  0.848106  1
  Er  Er3  1  0.049735  0.049735  0.049735  1
  B  B4  1  0.617317  0.617317  0.617317  1
  B  B5  1  0.716081  0.716081  0.716081  1
  B  B6  1  0.382697  0.382697  0.382697  1
  B  B7  1  0.283938  0.283938  0.283938  1
  Ir  Ir8  1  0.405433  0.899910  0.405433  1
  Ir  Ir9  1  0.899910  0.405433  0.405433  1
  Ir  Ir10  1  0.500051  0.500051  0.000062  1
  Ir  Ir11  1  0.500051  0.000062  0.500051  1
  Ir  Ir12  1  0.000062  0.500051  0.500051  1
  Ir  Ir13  1  0.499990  0.499990  0.499990  1
  Ir  Ir14  1  0.594499  0.100062  0.594499  1
  Ir  Ir15  1  0.594499  0.594499  0.100062  1
  Ir  Ir16  1  0.100062  0.594499  0.594499  1
  Ir  Ir17  1  0.405433  0.405433  0.899910  1
