# generated using pymatgen
data_Ho2Er10InCo4Ir
_symmetry_space_group_name_H-M   'P 1'
_cell_length_a   8.22925148
_cell_length_b   8.22925061
_cell_length_c   8.22850932
_cell_angle_alpha   111.18196091
_cell_angle_beta   110.80849654
_cell_angle_gamma   106.46848416
_symmetry_Int_Tables_number   1
_chemical_formula_structural   Ho2Er10InCo4Ir
_chemical_formula_sum   'Ho2 Er10 In1 Co4 Ir1'
_cell_volume   428.05899079
_cell_formula_units_Z   1
loop_
 _symmetry_equiv_pos_site_id
 _symmetry_equiv_pos_as_xyz
  1  'x, y, z'
loop_
 _atom_site_type_symbol
 _atom_site_label
 _atom_site_symmetry_multiplicity
 _atom_site_fract_x
 _atom_site_fract_y
 _atom_site_fract_z
 _atom_site_occupancy
  Ho  Ho0  1  0.183307  0.284537  0.467843  1
  Ho  Ho1  1  0.816693  0.715463  0.532157  1
  Er  Er2  1  0.183336  0.715664  0.899000  1
  Er  Er3  1  0.816664  0.284336  0.101000  1
  Er  Er4  1  0.315062  0.620777  0.305437  1
  Er  Er5  1  0.684938  0.379223  0.694563  1
  Er  Er6  1  0.315340  0.009624  0.694563  1
  Er  Er7  1  0.684660  0.990376  0.305437  1
  Er  Er8  1  0.413132  0.218280  0.194539  1
  Er  Er9  1  0.586868  0.781720  0.805461  1
  Er  Er10  1  0.023741  0.218593  0.805461  1
  Er  Er11  1  0.976259  0.781407  0.194539  1
  In  In12  1  0.500000  0.500000  0.000000  1
  Co  Co13  1  0.112163  0.612163  0.500000  1
  Co  Co14  1  0.887837  0.387837  0.500000  1
  Co  Co15  1  0.377272  0.999916  0.377189  1
  Co  Co16  1  0.622728  0.000084  0.622811  1
  Ir  Ir17  1  0.000000  0.000000  0.000000  1
