# generated using pymatgen
data_La2U(BiO3)4
_symmetry_space_group_name_H-M   'P 1'
_cell_length_a   7.01881306
_cell_length_b   6.95921324
_cell_length_c   6.79788504
_cell_angle_alpha   98.54759582
_cell_angle_beta   99.16440723
_cell_angle_gamma   101.71043750
_symmetry_Int_Tables_number   1
_chemical_formula_structural   La2U(BiO3)4
_chemical_formula_sum   'La2 U1 Bi4 O12'
_cell_volume   315.31009742
_cell_formula_units_Z   1
loop_
 _symmetry_equiv_pos_site_id
 _symmetry_equiv_pos_as_xyz
  1  'x, y, z'
loop_
 _atom_site_type_symbol
 _atom_site_label
 _atom_site_symmetry_multiplicity
 _atom_site_fract_x
 _atom_site_fract_y
 _atom_site_fract_z
 _atom_site_occupancy
  La  La0  1  0.861882  0.701956  0.394276  1
  La  La1  1  0.138118  0.298044  0.605724  1
  U  U2  1  0.000000  0.000000  0.000000  1
  Bi  Bi3  1  0.315495  0.595920  0.154141  1
  Bi  Bi4  1  0.585041  0.151869  0.314379  1
  Bi  Bi5  1  0.414959  0.848131  0.685621  1
  Bi  Bi6  1  0.684505  0.404080  0.845859  1
  O  O7  1  0.430788  0.179499  0.568162  1
  O  O8  1  0.904631  0.695912  0.033907  1
  O  O9  1  0.173992  0.580211  0.422929  1
  O  O10  1  0.826008  0.419789  0.577071  1
  O  O11  1  0.569212  0.820501  0.431838  1
  O  O12  1  0.554815  0.434820  0.200341  1
  O  O13  1  0.445185  0.565180  0.799659  1
  O  O14  1  0.958503  0.059237  0.298739  1
  O  O15  1  0.041497  0.940763  0.701261  1
  O  O16  1  0.711226  0.017541  0.897527  1
  O  O17  1  0.095369  0.304088  0.966093  1
  O  O18  1  0.288774  0.982459  0.102473  1
