# generated using pymatgen
data_LiFe3I8
_symmetry_space_group_name_H-M   'P 1'
_cell_length_a   7.32761233
_cell_length_b   8.36602306
_cell_length_c   12.35792852
_cell_angle_alpha   93.71435408
_cell_angle_beta   80.38337830
_cell_angle_gamma   70.73486421
_symmetry_Int_Tables_number   1
_chemical_formula_structural   LiFe3I8
_chemical_formula_sum   'Li1 Fe3 I8'
_cell_volume   699.22998812
_cell_formula_units_Z   1
loop_
 _symmetry_equiv_pos_site_id
 _symmetry_equiv_pos_as_xyz
  1  'x, y, z'
loop_
 _atom_site_type_symbol
 _atom_site_label
 _atom_site_symmetry_multiplicity
 _atom_site_fract_x
 _atom_site_fract_y
 _atom_site_fract_z
 _atom_site_occupancy
  Li  Li0  1  0.350716  0.476756  0.366584  1
  Fe  Fe1  1  0.706906  0.479682  0.858014  1
  Fe  Fe2  1  0.751252  0.473459  0.620203  1
  Fe  Fe3  1  0.539886  0.492266  0.092990  1
  I  I4  1  0.730947  0.214117  0.726364  1
  I  I5  1  0.835877  0.690409  0.748979  1
  I  I6  1  0.413983  0.618746  0.572967  1
  I  I7  1  0.336302  0.637558  0.947662  1
  I  I8  1  0.919104  0.379177  0.006763  1
  I  I9  1  0.034553  0.357384  0.450253  1
  I  I10  1  0.454939  0.241124  0.166336  1
  I  I11  1  0.456557  0.727230  0.255429  1
