# generated using pymatgen
data_Tm3TcB7
_symmetry_space_group_name_H-M   'P 1'
_cell_length_a   3.50043100
_cell_length_b   7.97792727
_cell_length_c   9.26780500
_cell_angle_alpha   90.00000000
_cell_angle_beta   90.00000000
_cell_angle_gamma   77.32725250
_symmetry_Int_Tables_number   1
_chemical_formula_structural   Tm3TcB7
_chemical_formula_sum   'Tm6 Tc2 B14'
_cell_volume   252.50944934
_cell_formula_units_Z   2
loop_
 _symmetry_equiv_pos_site_id
 _symmetry_equiv_pos_as_xyz
  1  'x, y, z'
loop_
 _atom_site_type_symbol
 _atom_site_label
 _atom_site_symmetry_multiplicity
 _atom_site_fract_x
 _atom_site_fract_y
 _atom_site_fract_z
 _atom_site_occupancy
  Tm  Tm0  1  0.105195  0.789610  0.058886  1
  Tm  Tm1  1  0.757669  0.484660  0.250000  1
  Tm  Tm2  1  0.105195  0.789610  0.441114  1
  Tm  Tm3  1  0.894804  0.210389  0.558886  1
  Tm  Tm4  1  0.242329  0.515341  0.750000  1
  Tm  Tm5  1  0.894804  0.210389  0.941115  1
  Tc  Tc6  1  0.947196  0.105606  0.250000  1
  Tc  Tc7  1  0.052803  0.894394  0.750000  1
  B  B8  1  0.272741  0.454517  0.033604  1
  B  B9  1  0.480251  0.039498  0.094982  1
  B  B10  1  0.367671  0.264659  0.150336  1
  B  B11  1  0.545386  0.909225  0.250000  1
  B  B12  1  0.367671  0.264659  0.349664  1
  B  B13  1  0.480251  0.039498  0.405018  1
  B  B14  1  0.272741  0.454517  0.466396  1
  B  B15  1  0.727257  0.545484  0.533604  1
  B  B16  1  0.519748  0.960502  0.594982  1
  B  B17  1  0.632328  0.735342  0.650336  1
  B  B18  1  0.454613  0.090775  0.750000  1
  B  B19  1  0.632328  0.735342  0.849663  1
  B  B20  1  0.519748  0.960502  0.905018  1
  B  B21  1  0.727257  0.545484  0.966396  1
