# generated using pymatgen
data_DyEr9Sn8
_symmetry_space_group_name_H-M   'P 1'
_cell_length_a   7.98926700
_cell_length_b   8.12260601
_cell_length_c   15.32432902
_cell_angle_alpha   89.99466246
_cell_angle_beta   90.00000000
_cell_angle_gamma   90.00000000
_symmetry_Int_Tables_number   1
_chemical_formula_structural   DyEr9Sn8
_chemical_formula_sum   'Dy2 Er18 Sn16'
_cell_volume   994.45191736
_cell_formula_units_Z   2
loop_
 _symmetry_equiv_pos_site_id
 _symmetry_equiv_pos_as_xyz
  1  'x, y, z'
loop_
 _atom_site_type_symbol
 _atom_site_label
 _atom_site_symmetry_multiplicity
 _atom_site_fract_x
 _atom_site_fract_y
 _atom_site_fract_z
 _atom_site_occupancy
  Dy  Dy0  1  0.521098  0.320726  0.597074  1
  Dy  Dy1  1  0.021098  0.179274  0.902926  1
  Er  Er2  1  0.367953  0.836997  0.877615  1
  Er  Er3  1  0.867953  0.663003  0.622385  1
  Er  Er4  1  0.632494  0.162597  0.376900  1
  Er  Er5  1  0.132494  0.337403  0.123100  1
  Er  Er6  1  0.632365  0.162854  0.123003  1
  Er  Er7  1  0.132365  0.337146  0.376997  1
  Er  Er8  1  0.367623  0.837252  0.622446  1
  Er  Er9  1  0.867623  0.662748  0.877554  1
  Er  Er10  1  0.521863  0.321229  0.902865  1
  Er  Er11  1  0.021863  0.178771  0.597135  1
  Er  Er12  1  0.478377  0.678752  0.402166  1
  Er  Er13  1  0.978377  0.821248  0.097834  1
  Er  Er14  1  0.478371  0.678571  0.097582  1
  Er  Er15  1  0.978371  0.821429  0.402418  1
  Er  Er16  1  0.199044  0.502676  0.750055  1
  Er  Er17  1  0.699044  0.997324  0.749945  1
  Er  Er18  1  0.800893  0.497159  0.250034  1
  Er  Er19  1  0.300893  0.002841  0.249966  1
  Sn  Sn20  1  0.293567  0.037183  0.041847  1
  Sn  Sn21  1  0.793567  0.462817  0.458153  1
  Sn  Sn22  1  0.709097  0.963776  0.541531  1
  Sn  Sn23  1  0.209097  0.536224  0.958469  1
  Sn  Sn24  1  0.705989  0.963232  0.958489  1
  Sn  Sn25  1  0.205989  0.536768  0.541511  1
  Sn  Sn26  1  0.291559  0.037642  0.458720  1
  Sn  Sn27  1  0.791559  0.462358  0.041280  1
  Sn  Sn28  1  0.565225  0.617969  0.750265  1
  Sn  Sn29  1  0.065225  0.882031  0.749735  1
  Sn  Sn30  1  0.434822  0.381414  0.249827  1
  Sn  Sn31  1  0.934822  0.118586  0.250173  1
  Sn  Sn32  1  0.331296  0.149419  0.750545  1
  Sn  Sn33  1  0.831296  0.350581  0.749455  1
  Sn  Sn34  1  0.668363  0.850887  0.249862  1
  Sn  Sn35  1  0.168363  0.649113  0.250138  1
