# generated using pymatgen
data_La16MgIn3RuRh3
_symmetry_space_group_name_H-M   'P 1'
_cell_length_a   10.13823522
_cell_length_b   10.16382406
_cell_length_c   10.17364165
_cell_angle_alpha   59.62970782
_cell_angle_beta   59.63693686
_cell_angle_gamma   59.71596509
_symmetry_Int_Tables_number   1
_chemical_formula_structural   La16MgIn3RuRh3
_chemical_formula_sum   'La16 Mg1 In3 Ru1 Rh3'
_cell_volume   735.56500888
_cell_formula_units_Z   1
loop_
 _symmetry_equiv_pos_site_id
 _symmetry_equiv_pos_as_xyz
  1  'x, y, z'
loop_
 _atom_site_type_symbol
 _atom_site_label
 _atom_site_symmetry_multiplicity
 _atom_site_fract_x
 _atom_site_fract_y
 _atom_site_fract_z
 _atom_site_occupancy
  La  La0  1  0.347442  0.345948  0.346024  1
  La  La1  1  0.348328  0.346042  0.957839  1
  La  La2  1  0.348308  0.957717  0.346229  1
  La  La3  1  0.956660  0.347197  0.347382  1
  La  La4  1  0.812360  0.191229  0.191260  1
  La  La5  1  0.186964  0.811636  0.811237  1
  La  La6  1  0.187813  0.815223  0.188509  1
  La  La7  1  0.805719  0.193811  0.806905  1
  La  La8  1  0.187783  0.188345  0.815438  1
  La  La9  1  0.805589  0.807135  0.193940  1
  La  La10  1  0.940575  0.562409  0.562157  1
  La  La11  1  0.558491  0.940011  0.940001  1
  La  La12  1  0.561593  0.940436  0.561868  1
  La  La13  1  0.938782  0.560266  0.939104  1
  La  La14  1  0.561603  0.562070  0.940328  1
  La  La15  1  0.938879  0.939320  0.560149  1
  Mg  Mg16  1  0.275483  0.573537  0.573870  1
  In  In17  1  0.580344  0.579775  0.579732  1
  In  In18  1  0.578773  0.580524  0.259498  1
  In  In19  1  0.578835  0.259449  0.580513  1
  Ru  Ru20  1  0.139982  0.137684  0.137759  1
  Rh  Rh21  1  0.141348  0.139450  0.578291  1
  Rh  Rh22  1  0.141243  0.578600  0.139747  1
  Rh  Rh23  1  0.577101  0.142187  0.142221  1
