# generated using pymatgen
data_Tb4Lu16InBi11
_symmetry_space_group_name_H-M   'P 1'
_cell_length_a   8.15868486
_cell_length_b   9.38094500
_cell_length_c   11.88905025
_cell_angle_alpha   90.00000000
_cell_angle_beta   90.24585517
_cell_angle_gamma   90.00000000
_symmetry_Int_Tables_number   1
_chemical_formula_structural   Tb4Lu16InBi11
_chemical_formula_sum   'Tb4 Lu16 In1 Bi11'
_cell_volume   909.93404033
_cell_formula_units_Z   1
loop_
 _symmetry_equiv_pos_site_id
 _symmetry_equiv_pos_as_xyz
  1  'x, y, z'
loop_
 _atom_site_type_symbol
 _atom_site_label
 _atom_site_symmetry_multiplicity
 _atom_site_fract_x
 _atom_site_fract_y
 _atom_site_fract_z
 _atom_site_occupancy
  Tb  Tb0  1  0.313311  0.250000  0.218855  1
  Tb  Tb1  1  0.812477  0.250000  0.282347  1
  Tb  Tb2  1  0.684447  0.750000  0.783337  1
  Tb  Tb3  1  0.187749  0.750000  0.719677  1
  Lu  Lu4  1  0.352697  0.750000  0.214462  1
  Lu  Lu5  1  0.853306  0.750000  0.282684  1
  Lu  Lu6  1  0.648006  0.250000  0.781444  1
  Lu  Lu7  1  0.148469  0.250000  0.717537  1
  Lu  Lu8  1  0.688747  0.569417  0.059043  1
  Lu  Lu9  1  0.192671  0.933465  0.439259  1
  Lu  Lu10  1  0.307375  0.060821  0.939911  1
  Lu  Lu11  1  0.807542  0.433065  0.560189  1
  Lu  Lu12  1  0.307375  0.439179  0.939911  1
  Lu  Lu13  1  0.807542  0.066935  0.560189  1
  Lu  Lu14  1  0.688747  0.930583  0.059043  1
  Lu  Lu15  1  0.192671  0.566535  0.439259  1
  Lu  Lu16  1  0.477474  0.250000  0.489859  1
  Lu  Lu17  1  0.977878  0.250000  0.010703  1
  Lu  Lu18  1  0.522429  0.750000  0.510184  1
  Lu  Lu19  1  0.029569  0.750000  0.989673  1
  In  In20  1  0.403799  0.750000  0.960486  1
  Bi  Bi21  1  0.902804  0.750000  0.540575  1
  Bi  Bi22  1  0.596422  0.250000  0.039905  1
  Bi  Bi23  1  0.096967  0.250000  0.459843  1
  Bi  Bi24  1  0.564961  0.993992  0.327052  1
  Bi  Bi25  1  0.063915  0.505218  0.174433  1
  Bi  Bi26  1  0.435199  0.494292  0.673257  1
  Bi  Bi27  1  0.935687  0.006417  0.826072  1
  Bi  Bi28  1  0.435199  0.005708  0.673257  1
  Bi  Bi29  1  0.935687  0.493583  0.826072  1
  Bi  Bi30  1  0.564961  0.506008  0.327052  1
  Bi  Bi31  1  0.063915  0.994782  0.174433  1
