# generated using pymatgen
data_Sm8Lu12Ga7Si9
_symmetry_space_group_name_H-M   'P 1'
_cell_length_a   7.40729315
_cell_length_b   7.69377112
_cell_length_c   14.76895714
_cell_angle_alpha   89.99007891
_cell_angle_beta   89.91465248
_cell_angle_gamma   90.01795005
_symmetry_Int_Tables_number   1
_chemical_formula_structural   Sm8Lu12Ga7Si9
_chemical_formula_sum   'Sm8 Lu12 Ga7 Si9'
_cell_volume   841.68214767
_cell_formula_units_Z   1
loop_
 _symmetry_equiv_pos_site_id
 _symmetry_equiv_pos_as_xyz
  1  'x, y, z'
loop_
 _atom_site_type_symbol
 _atom_site_label
 _atom_site_symmetry_multiplicity
 _atom_site_fract_x
 _atom_site_fract_y
 _atom_site_fract_z
 _atom_site_occupancy
  Sm  Sm0  1  0.016623  0.174814  0.098905  1
  Sm  Sm1  1  0.984215  0.821321  0.901451  1
  Sm  Sm2  1  0.483983  0.678302  0.901371  1
  Sm  Sm3  1  0.984739  0.822161  0.600084  1
  Sm  Sm4  1  0.515104  0.321649  0.099085  1
  Sm  Sm5  1  0.014851  0.177528  0.399598  1
  Sm  Sm6  1  0.515226  0.321862  0.399162  1
  Sm  Sm7  1  0.485394  0.677792  0.599978  1
  Lu  Lu8  1  0.161785  0.506189  0.750495  1
  Lu  Lu9  1  0.839116  0.494873  0.249456  1
  Lu  Lu10  1  0.338507  0.005818  0.248875  1
  Lu  Lu11  1  0.661027  0.994557  0.750048  1
  Lu  Lu12  1  0.327652  0.174876  0.624325  1
  Lu  Lu13  1  0.671500  0.825553  0.375071  1
  Lu  Lu14  1  0.171923  0.674991  0.375268  1
  Lu  Lu15  1  0.671379  0.823418  0.124711  1
  Lu  Lu16  1  0.827857  0.325450  0.624366  1
  Lu  Lu17  1  0.327389  0.175263  0.877004  1
  Lu  Lu18  1  0.826332  0.325453  0.876377  1
  Lu  Lu19  1  0.174081  0.676893  0.123358  1
  Ga  Ga20  1  0.157625  0.465545  0.539233  1
  Ga  Ga21  1  0.842834  0.534480  0.460288  1
  Ga  Ga22  1  0.342000  0.966209  0.460291  1
  Ga  Ga23  1  0.842835  0.535155  0.040291  1
  Ga  Ga24  1  0.658153  0.034939  0.539093  1
  Ga  Ga25  1  0.156088  0.464407  0.960670  1
  Ga  Ga26  1  0.656011  0.035275  0.961504  1
  Si  Si27  1  0.031509  0.110798  0.751343  1
  Si  Si28  1  0.968246  0.888167  0.249168  1
  Si  Si29  1  0.467221  0.610669  0.248945  1
  Si  Si30  1  0.532160  0.388825  0.750560  1
  Si  Si31  1  0.278257  0.878367  0.751111  1
  Si  Si32  1  0.722011  0.121995  0.248690  1
  Si  Si33  1  0.220594  0.377189  0.248971  1
  Si  Si34  1  0.778463  0.622792  0.750843  1
  Si  Si35  1  0.347308  0.966426  0.040011  1
