# generated using pymatgen
data_Pr4Al13Ga5Ir6
_symmetry_space_group_name_H-M   'P 1'
_cell_length_a   7.61040123
_cell_length_b   7.60798181
_cell_length_c   9.73644600
_cell_angle_alpha   90.00000000
_cell_angle_beta   90.00000000
_cell_angle_gamma   119.46798888
_symmetry_Int_Tables_number   1
_chemical_formula_structural   Pr4Al13Ga5Ir6
_chemical_formula_sum   'Pr4 Al13 Ga5 Ir6'
_cell_volume   490.80778722
_cell_formula_units_Z   1
loop_
 _symmetry_equiv_pos_site_id
 _symmetry_equiv_pos_as_xyz
  1  'x, y, z'
loop_
 _atom_site_type_symbol
 _atom_site_label
 _atom_site_symmetry_multiplicity
 _atom_site_fract_x
 _atom_site_fract_y
 _atom_site_fract_z
 _atom_site_occupancy
  Pr  Pr0  1  0.995312  0.669551  0.250000  1
  Pr  Pr1  1  0.000819  0.327125  0.750000  1
  Pr  Pr2  1  0.669331  0.996182  0.250000  1
  Pr  Pr3  1  0.331051  0.006806  0.750000  1
  Al  Al4  1  0.003802  0.335047  0.070355  1
  Al  Al5  1  0.997649  0.665255  0.929214  1
  Al  Al6  1  0.997649  0.665255  0.570786  1
  Al  Al7  1  0.334850  0.003430  0.429721  1
  Al  Al8  1  0.003802  0.335047  0.429645  1
  Al  Al9  1  0.664439  0.996147  0.571175  1
  Al  Al10  1  0.664439  0.996147  0.928825  1
  Al  Al11  1  0.334850  0.003430  0.070279  1
  Al  Al12  1  0.334701  0.335286  0.550131  1
  Al  Al13  1  0.665259  0.665246  0.452867  1
  Al  Al14  1  0.665259  0.665246  0.047133  1
  Al  Al15  1  0.334701  0.335286  0.949869  1
  Al  Al16  1  0.454229  0.661465  0.750000  1
  Ga  Ga17  1  0.130787  0.130816  0.250000  1
  Ga  Ga18  1  0.867951  0.867248  0.750000  1
  Ga  Ga19  1  0.338369  0.544156  0.250000  1
  Ga  Ga20  1  0.661986  0.456960  0.750000  1
  Ga  Ga21  1  0.544452  0.338997  0.250000  1
  Ir  Ir22  1  0.671188  0.329071  0.000372  1
  Ir  Ir23  1  0.330637  0.670701  0.997335  1
  Ir  Ir24  1  0.330637  0.670701  0.502665  1
  Ir  Ir25  1  0.671188  0.329071  0.499628  1
  Ir  Ir26  1  0.000332  0.000167  0.000119  1
  Ir  Ir27  1  0.000332  0.000167  0.499881  1
