# generated using pymatgen
data_Sc6ReAs2
_symmetry_space_group_name_H-M   'P 1'
_cell_length_a   4.00025400
_cell_length_b   7.32957335
_cell_length_c   7.32957301
_cell_angle_alpha   119.99825215
_cell_angle_beta   90.00000000
_cell_angle_gamma   90.00000000
_symmetry_Int_Tables_number   1
_chemical_formula_structural   Sc6ReAs2
_chemical_formula_sum   'Sc6 Re1 As2'
_cell_volume   186.11578971
_cell_formula_units_Z   1
loop_
 _symmetry_equiv_pos_site_id
 _symmetry_equiv_pos_as_xyz
  1  'x, y, z'
loop_
 _atom_site_type_symbol
 _atom_site_label
 _atom_site_symmetry_multiplicity
 _atom_site_fract_x
 _atom_site_fract_y
 _atom_site_fract_z
 _atom_site_occupancy
  Sc  Sc0  1  0.500001  0.244764  0.000006  1
  Sc  Sc1  1  0.000000  0.595928  0.999993  1
  Sc  Sc2  1  0.500001  0.000006  0.244764  1
  Sc  Sc3  1  0.000000  0.404078  0.404078  1
  Sc  Sc4  1  0.000000  0.999993  0.595928  1
  Sc  Sc5  1  0.500001  0.755264  0.755264  1
  Re  Re6  1  0.000000  0.000043  0.000043  1
  As  As7  1  0.500001  0.666660  0.333315  1
  As  As8  1  0.500001  0.333315  0.666660  1
