# generated using pymatgen
data_TbHo3C2Cl3
_symmetry_space_group_name_H-M   'P 1'
_cell_length_a   3.64523000
_cell_length_b   10.46089600
_cell_length_c   19.65486100
_cell_angle_alpha   90.00000000
_cell_angle_beta   90.00000000
_cell_angle_gamma   90.00000000
_symmetry_Int_Tables_number   1
_chemical_formula_structural   TbHo3C2Cl3
_chemical_formula_sum   'Tb4 Ho12 C8 Cl12'
_cell_volume   749.48646981
_cell_formula_units_Z   4
loop_
 _symmetry_equiv_pos_site_id
 _symmetry_equiv_pos_as_xyz
  1  'x, y, z'
loop_
 _atom_site_type_symbol
 _atom_site_label
 _atom_site_symmetry_multiplicity
 _atom_site_fract_x
 _atom_site_fract_y
 _atom_site_fract_z
 _atom_site_occupancy
  Tb  Tb0  1  0.250000  0.138573  0.572965  1
  Tb  Tb1  1  0.250000  0.638573  0.927035  1
  Tb  Tb2  1  0.750000  0.861427  0.427035  1
  Tb  Tb3  1  0.750000  0.361427  0.072965  1
  Ho  Ho4  1  0.250000  0.637711  0.756080  1
  Ho  Ho5  1  0.250000  0.137711  0.743920  1
  Ho  Ho6  1  0.750000  0.362289  0.243920  1
  Ho  Ho7  1  0.750000  0.862289  0.256080  1
  Ho  Ho8  1  0.250000  0.100142  0.331289  1
  Ho  Ho9  1  0.250000  0.600142  0.168711  1
  Ho  Ho10  1  0.750000  0.899858  0.668711  1
  Ho  Ho11  1  0.750000  0.399858  0.831289  1
  Ho  Ho12  1  0.250000  0.124510  0.164842  1
  Ho  Ho13  1  0.250000  0.624510  0.335158  1
  Ho  Ho14  1  0.750000  0.875490  0.835158  1
  Ho  Ho15  1  0.750000  0.375490  0.664842  1
  C  C16  1  0.250000  0.863756  0.347129  1
  C  C17  1  0.250000  0.363756  0.152871  1
  C  C18  1  0.750000  0.136244  0.652871  1
  C  C19  1  0.750000  0.636244  0.847129  1
  C  C20  1  0.250000  0.388202  0.749754  1
  C  C21  1  0.250000  0.888202  0.750246  1
  C  C22  1  0.750000  0.611798  0.250246  1
  C  C23  1  0.750000  0.111798  0.249754  1
  Cl  Cl24  1  0.250000  0.375943  0.951146  1
  Cl  Cl25  1  0.250000  0.875943  0.548854  1
  Cl  Cl26  1  0.750000  0.624057  0.048854  1
  Cl  Cl27  1  0.750000  0.124057  0.451146  1
  Cl  Cl28  1  0.250000  0.889615  0.944471  1
  Cl  Cl29  1  0.250000  0.389615  0.555529  1
  Cl  Cl30  1  0.750000  0.110385  0.055529  1
  Cl  Cl31  1  0.750000  0.610385  0.444471  1
  Cl  Cl32  1  0.250000  0.360526  0.353861  1
  Cl  Cl33  1  0.250000  0.860526  0.146139  1
  Cl  Cl34  1  0.750000  0.639474  0.646139  1
  Cl  Cl35  1  0.750000  0.139474  0.853861  1
