# generated using pymatgen
data_LaNd2Sn2BiRh3
_symmetry_space_group_name_H-M   'P 1'
_cell_length_a   7.63758666
_cell_length_b   7.65976537
_cell_length_c   4.12797200
_cell_angle_alpha   90.00000000
_cell_angle_beta   90.00000000
_cell_angle_gamma   119.53243199
_symmetry_Int_Tables_number   1
_chemical_formula_structural   LaNd2Sn2BiRh3
_chemical_formula_sum   'La1 Nd2 Sn2 Bi1 Rh3'
_cell_volume   210.11930722
_cell_formula_units_Z   1
loop_
 _symmetry_equiv_pos_site_id
 _symmetry_equiv_pos_as_xyz
  1  'x, y, z'
loop_
 _atom_site_type_symbol
 _atom_site_label
 _atom_site_symmetry_multiplicity
 _atom_site_fract_x
 _atom_site_fract_y
 _atom_site_fract_z
 _atom_site_occupancy
  La  La0  1  0.004985  0.588804  0.000000  1
  Nd  Nd1  1  0.404969  0.404676  0.000000  1
  Nd  Nd2  1  0.590319  0.004871  0.000000  1
  Sn  Sn3  1  0.002461  0.254413  0.500000  1
  Sn  Sn4  1  0.257784  0.004298  0.500000  1
  Bi  Bi5  1  0.743578  0.745330  0.500000  1
  Rh  Rh6  1  0.009087  0.009918  0.000000  1
  Rh  Rh7  1  0.663792  0.324060  0.500000  1
  Rh  Rh8  1  0.323025  0.663631  0.500000  1
