# generated using pymatgen
data_Sm2Fe3Co9P7
_symmetry_space_group_name_H-M   'P 1'
_cell_length_a   9.04369900
_cell_length_b   9.04369968
_cell_length_c   3.64248700
_cell_angle_alpha   90.00000000
_cell_angle_beta   90.00000000
_cell_angle_gamma   120.00000848
_symmetry_Int_Tables_number   1
_chemical_formula_structural   Sm2Fe3Co9P7
_chemical_formula_sum   'Sm2 Fe3 Co9 P7'
_cell_volume   258.00067163
_cell_formula_units_Z   1
loop_
 _symmetry_equiv_pos_site_id
 _symmetry_equiv_pos_as_xyz
  1  'x, y, z'
loop_
 _atom_site_type_symbol
 _atom_site_label
 _atom_site_symmetry_multiplicity
 _atom_site_fract_x
 _atom_site_fract_y
 _atom_site_fract_z
 _atom_site_occupancy
  Sm  Sm0  1  0.333333  0.666667  0.000000  1
  Sm  Sm1  1  0.666667  0.333333  0.500000  1
  Fe  Fe2  1  0.216326  0.121903  0.500000  1
  Fe  Fe3  1  0.878097  0.094424  0.500000  1
  Fe  Fe4  1  0.905576  0.783674  0.500000  1
  Co  Co5  1  0.430037  0.371143  0.000000  1
  Co  Co6  1  0.628857  0.058895  0.000000  1
  Co  Co7  1  0.941105  0.569963  0.000000  1
  Co  Co8  1  0.155066  0.882399  0.000000  1
  Co  Co9  1  0.117601  0.272667  0.000000  1
  Co  Co10  1  0.727333  0.844934  0.000000  1
  Co  Co11  1  0.383265  0.951167  0.500000  1
  Co  Co12  1  0.048833  0.432097  0.500000  1
  Co  Co13  1  0.567903  0.616735  0.500000  1
  P  P14  1  0.406474  0.109660  0.000000  1
  P  P15  1  0.890340  0.296814  0.000000  1
  P  P16  1  0.703186  0.593526  0.000000  1
  P  P17  1  0.108313  0.709499  0.500000  1
  P  P18  1  0.290501  0.398813  0.500000  1
  P  P19  1  0.601187  0.891687  0.500000  1
  P  P20  1  0.000000  0.000000  0.000000  1
