# generated using pymatgen
data_Er12Th4Mg3CdOs4
_symmetry_space_group_name_H-M   'P 1'
_cell_length_a   9.71369048
_cell_length_b   9.74438585
_cell_length_c   9.74438600
_cell_angle_alpha   59.99999949
_cell_angle_beta   59.89541199
_cell_angle_gamma   59.89541597
_symmetry_Int_Tables_number   1
_chemical_formula_structural   Er12Th4Mg3CdOs4
_chemical_formula_sum   'Er12 Th4 Mg3 Cd1 Os4'
_cell_volume   651.16321819
_cell_formula_units_Z   1
loop_
 _symmetry_equiv_pos_site_id
 _symmetry_equiv_pos_as_xyz
  1  'x, y, z'
loop_
 _atom_site_type_symbol
 _atom_site_label
 _atom_site_symmetry_multiplicity
 _atom_site_fract_x
 _atom_site_fract_y
 _atom_site_fract_z
 _atom_site_occupancy
  Er  Er0  1  0.063902  0.436217  0.436217  1
  Er  Er1  1  0.436904  0.062987  0.062987  1
  Er  Er2  1  0.436904  0.062987  0.437122  1
  Er  Er3  1  0.063902  0.436217  0.063663  1
  Er  Er4  1  0.436904  0.437122  0.062987  1
  Er  Er5  1  0.063902  0.063663  0.436217  1
  Er  Er6  1  0.188415  0.813643  0.813643  1
  Er  Er7  1  0.813933  0.186250  0.186250  1
  Er  Er8  1  0.813933  0.186250  0.813567  1
  Er  Er9  1  0.188415  0.813643  0.184300  1
  Er  Er10  1  0.813933  0.813567  0.186250  1
  Er  Er11  1  0.188415  0.184300  0.813643  1
  Th  Th12  1  0.597116  0.597490  0.597490  1
  Th  Th13  1  0.597116  0.597490  0.207903  1
  Th  Th14  1  0.597116  0.207903  0.597490  1
  Th  Th15  1  0.209827  0.596724  0.596724  1
  Mg  Mg16  1  0.827397  0.829886  0.829886  1
  Mg  Mg17  1  0.827397  0.829886  0.512833  1
  Mg  Mg18  1  0.827397  0.512833  0.829886  1
  Cd  Cd19  1  0.504312  0.831896  0.831896  1
  Os  Os20  1  0.392765  0.391817  0.391817  1
  Os  Os21  1  0.392765  0.391817  0.823599  1
  Os  Os22  1  0.392765  0.823599  0.391817  1
  Os  Os23  1  0.824561  0.391812  0.391812  1
