# generated using pymatgen
data_K3Nb2Cu3Te8
_symmetry_space_group_name_H-M   'P 1'
_cell_length_a   6.03774335
_cell_length_b   13.37624971
_cell_length_c   14.90571741
_cell_angle_alpha   69.64661690
_cell_angle_beta   78.31498390
_cell_angle_gamma   76.95660464
_symmetry_Int_Tables_number   1
_chemical_formula_structural   K3Nb2Cu3Te8
_chemical_formula_sum   'K6 Nb4 Cu6 Te16'
_cell_volume   1089.35509554
_cell_formula_units_Z   2
loop_
 _symmetry_equiv_pos_site_id
 _symmetry_equiv_pos_as_xyz
  1  'x, y, z'
loop_
 _atom_site_type_symbol
 _atom_site_label
 _atom_site_symmetry_multiplicity
 _atom_site_fract_x
 _atom_site_fract_y
 _atom_site_fract_z
 _atom_site_occupancy
  K  K0  1  0.731710  0.710090  0.904828  1
  K  K1  1  0.346628  0.789910  0.595172  1
  K  K2  1  0.268290  0.289910  0.095172  1
  K  K3  1  0.653372  0.210090  0.404828  1
  K  K4  1  0.000000  0.500000  0.500000  1
  K  K5  1  0.000000  0.000000  0.000000  1
  Nb  Nb6  1  0.157640  0.467936  0.777757  1
  Nb  Nb7  1  0.403332  0.032064  0.722243  1
  Nb  Nb8  1  0.842360  0.532064  0.222243  1
  Nb  Nb9  1  0.596668  0.967936  0.277757  1
  Cu  Cu10  1  0.274602  0.250000  0.750000  1
  Cu  Cu11  1  0.725398  0.750000  0.250000  1
  Cu  Cu12  1  0.902887  0.034267  0.721659  1
  Cu  Cu13  1  0.658814  0.465733  0.778341  1
  Cu  Cu14  1  0.097113  0.965733  0.278341  1
  Cu  Cu15  1  0.341186  0.534267  0.221659  1
  Te  Te16  1  0.940943  0.302590  0.877465  1
  Te  Te17  1  0.120999  0.197410  0.622535  1
  Te  Te18  1  0.059057  0.697410  0.122535  1
  Te  Te19  1  0.879001  0.802590  0.377465  1
  Te  Te20  1  0.498452  0.409815  0.652722  1
  Te  Te21  1  0.560989  0.090185  0.847278  1
  Te  Te22  1  0.501548  0.590185  0.347278  1
  Te  Te23  1  0.439011  0.909815  0.152722  1
  Te  Te24  1  0.869643  0.633772  0.683214  1
  Te  Te25  1  0.186630  0.866228  0.816786  1
  Te  Te26  1  0.130357  0.366228  0.316786  1
  Te  Te27  1  0.813370  0.133772  0.183214  1
  Te  Te28  1  0.745331  0.968475  0.603685  1
  Te  Te29  1  0.317491  0.531525  0.896315  1
  Te  Te30  1  0.254669  0.031525  0.396315  1
  Te  Te31  1  0.682509  0.468475  0.103685  1
