# generated using pymatgen
data_MgV4ZnO12
_symmetry_space_group_name_H-M   'P 1'
_cell_length_a   6.84213627
_cell_length_b   6.84213664
_cell_length_c   5.91487201
_cell_angle_alpha   74.69519710
_cell_angle_beta   74.69519297
_cell_angle_gamma   83.95747662
_symmetry_Int_Tables_number   1
_chemical_formula_structural   MgV4ZnO12
_chemical_formula_sum   'Mg1 V4 Zn1 O12'
_cell_volume   257.42276247
_cell_formula_units_Z   1
loop_
 _symmetry_equiv_pos_site_id
 _symmetry_equiv_pos_as_xyz
  1  'x, y, z'
loop_
 _atom_site_type_symbol
 _atom_site_label
 _atom_site_symmetry_multiplicity
 _atom_site_fract_x
 _atom_site_fract_y
 _atom_site_fract_z
 _atom_site_occupancy
  Mg  Mg0  1  0.914528  0.085472  0.000000  1
  V  V1  1  0.793081  0.613962  0.003278  1
  V  V2  1  0.614505  0.793736  0.502287  1
  V  V3  1  0.386038  0.206919  0.996722  1
  V  V4  1  0.206264  0.385495  0.497713  1
  Zn  Zn5  1  0.087777  0.912223  0.500000  1
  O  O6  1  0.961329  0.806038  0.887739  1
  O  O7  1  0.909946  0.384795  0.020089  1
  O  O8  1  0.807265  0.961818  0.385949  1
  O  O9  1  0.631320  0.650963  0.799068  1
  O  O10  1  0.615205  0.090054  0.979911  1
  O  O11  1  0.648657  0.630321  0.300333  1
  O  O12  1  0.349037  0.368680  0.200932  1
  O  O13  1  0.385065  0.911837  0.521743  1
  O  O14  1  0.369679  0.351343  0.699667  1
  O  O15  1  0.193962  0.038671  0.112261  1
  O  O16  1  0.088163  0.614935  0.478257  1
  O  O17  1  0.038182  0.192735  0.614051  1
