# generated using pymatgen
data_Lu10In3Ni
_symmetry_space_group_name_H-M   'P 1'
_cell_length_a   9.46847000
_cell_length_b   9.46846989
_cell_length_c   9.51405400
_cell_angle_alpha   90.00000000
_cell_angle_beta   90.00000000
_cell_angle_gamma   119.99999341
_symmetry_Int_Tables_number   1
_chemical_formula_structural   Lu10In3Ni
_chemical_formula_sum   'Lu20 In6 Ni2'
_cell_volume   738.67922065
_cell_formula_units_Z   2
loop_
 _symmetry_equiv_pos_site_id
 _symmetry_equiv_pos_as_xyz
  1  'x, y, z'
loop_
 _atom_site_type_symbol
 _atom_site_label
 _atom_site_symmetry_multiplicity
 _atom_site_fract_x
 _atom_site_fract_y
 _atom_site_fract_z
 _atom_site_occupancy
  Lu  Lu0  1  0.000000  0.000000  0.500000  1
  Lu  Lu1  1  0.000000  0.000000  0.000000  1
  Lu  Lu2  1  0.542725  0.457275  0.250000  1
  Lu  Lu3  1  0.542725  0.085451  0.250000  1
  Lu  Lu4  1  0.914549  0.457275  0.250000  1
  Lu  Lu5  1  0.457275  0.542725  0.750000  1
  Lu  Lu6  1  0.457275  0.914549  0.750000  1
  Lu  Lu7  1  0.085451  0.542725  0.750000  1
  Lu  Lu8  1  0.211061  0.788939  0.438219  1
  Lu  Lu9  1  0.211061  0.422124  0.438219  1
  Lu  Lu10  1  0.577876  0.788939  0.438219  1
  Lu  Lu11  1  0.788939  0.211061  0.561781  1
  Lu  Lu12  1  0.788939  0.577876  0.561781  1
  Lu  Lu13  1  0.422124  0.211061  0.561781  1
  Lu  Lu14  1  0.788939  0.211061  0.938219  1
  Lu  Lu15  1  0.788939  0.577876  0.938219  1
  Lu  Lu16  1  0.422124  0.211061  0.938219  1
  Lu  Lu17  1  0.211061  0.788939  0.061781  1
  Lu  Lu18  1  0.211061  0.422124  0.061781  1
  Lu  Lu19  1  0.577876  0.788939  0.061781  1
  In  In20  1  0.883537  0.116463  0.250000  1
  In  In21  1  0.883537  0.767075  0.250000  1
  In  In22  1  0.232925  0.116463  0.250000  1
  In  In23  1  0.116463  0.883537  0.750000  1
  In  In24  1  0.116463  0.232925  0.750000  1
  In  In25  1  0.767075  0.883537  0.750000  1
  Ni  Ni26  1  0.333333  0.666667  0.250000  1
  Ni  Ni27  1  0.666667  0.333333  0.750000  1
