# generated using pymatgen
data_Cs4ErPaBr12
_symmetry_space_group_name_H-M   'P 1'
_cell_length_a   8.12048600
_cell_length_b   8.12048600
_cell_length_c   11.68341500
_cell_angle_alpha   90.00000000
_cell_angle_beta   90.00000000
_cell_angle_gamma   90.00000000
_symmetry_Int_Tables_number   1
_chemical_formula_structural   Cs4ErPaBr12
_chemical_formula_sum   'Cs4 Er1 Pa1 Br12'
_cell_volume   770.43117372
_cell_formula_units_Z   1
loop_
 _symmetry_equiv_pos_site_id
 _symmetry_equiv_pos_as_xyz
  1  'x, y, z'
loop_
 _atom_site_type_symbol
 _atom_site_label
 _atom_site_symmetry_multiplicity
 _atom_site_fract_x
 _atom_site_fract_y
 _atom_site_fract_z
 _atom_site_occupancy
  Cs  Cs0  1  0.500000  0.000000  0.790583  1
  Cs  Cs1  1  0.000000  0.500000  0.209417  1
  Cs  Cs2  1  0.500000  0.000000  0.209417  1
  Cs  Cs3  1  0.000000  0.500000  0.790583  1
  Er  Er4  1  0.000000  0.000000  0.000000  1
  Pa  Pa5  1  0.500000  0.500000  0.500000  1
  Br  Br6  1  0.000000  0.000000  0.761593  1
  Br  Br7  1  0.500000  0.500000  0.265466  1
  Br  Br8  1  0.736550  0.736550  0.500000  1
  Br  Br9  1  0.243189  0.243189  0.000000  1
  Br  Br10  1  0.736550  0.263450  0.500000  1
  Br  Br11  1  0.243189  0.756811  0.000000  1
  Br  Br12  1  0.000000  0.000000  0.238407  1
  Br  Br13  1  0.500000  0.500000  0.734534  1
  Br  Br14  1  0.263450  0.263450  0.500000  1
  Br  Br15  1  0.756811  0.756811  0.000000  1
  Br  Br16  1  0.263450  0.736550  0.500000  1
  Br  Br17  1  0.756811  0.243189  0.000000  1
