# generated using pymatgen
data_ZrSc3(SnRh5)2
_symmetry_space_group_name_H-M   'P 1'
_cell_length_a   5.60291970
_cell_length_b   5.60291860
_cell_length_c   8.29196100
_cell_angle_alpha   90.00010658
_cell_angle_beta   90.00010650
_cell_angle_gamma   96.49678442
_symmetry_Int_Tables_number   1
_chemical_formula_structural   ZrSc3(SnRh5)2
_chemical_formula_sum   'Zr1 Sc3 Sn2 Rh10'
_cell_volume   258.63543109
_cell_formula_units_Z   1
loop_
 _symmetry_equiv_pos_site_id
 _symmetry_equiv_pos_as_xyz
  1  'x, y, z'
loop_
 _atom_site_type_symbol
 _atom_site_label
 _atom_site_symmetry_multiplicity
 _atom_site_fract_x
 _atom_site_fract_y
 _atom_site_fract_z
 _atom_site_occupancy
  Zr  Zr0  1  0.781081  0.218919  0.000000  1
  Sc  Sc1  1  0.780093  0.219907  0.500000  1
  Sc  Sc2  1  0.219584  0.780416  0.000000  1
  Sc  Sc3  1  0.220469  0.779531  0.500000  1
  Sn  Sn4  1  0.499992  0.502953  0.748182  1
  Sn  Sn5  1  0.497047  0.500008  0.251818  1
  Rh  Rh6  1  0.730846  0.729756  0.000705  1
  Rh  Rh7  1  0.733514  0.732495  0.499220  1
  Rh  Rh8  1  0.270244  0.269154  0.999295  1
  Rh  Rh9  1  0.267505  0.266486  0.500780  1
  Rh  Rh10  1  0.499649  0.000402  0.750290  1
  Rh  Rh11  1  0.499674  0.999181  0.249718  1
  Rh  Rh12  1  0.000236  0.000351  0.249826  1
  Rh  Rh13  1  0.999649  0.999764  0.750174  1
  Rh  Rh14  1  0.000819  0.500326  0.750282  1
  Rh  Rh15  1  0.999598  0.500351  0.249710  1
