# generated using pymatgen
data_Dy2Tm2B12MoOs
_symmetry_space_group_name_H-M   'P 1'
_cell_length_a   3.63557900
_cell_length_b   9.16314429
_cell_length_c   11.56045497
_cell_angle_alpha   89.82830712
_cell_angle_beta   90.00000000
_cell_angle_gamma   90.00000000
_symmetry_Int_Tables_number   1
_chemical_formula_structural   Dy2Tm2B12MoOs
_chemical_formula_sum   'Dy4 Tm4 B24 Mo2 Os2'
_cell_volume   385.11557954
_cell_formula_units_Z   2
loop_
 _symmetry_equiv_pos_site_id
 _symmetry_equiv_pos_as_xyz
  1  'x, y, z'
loop_
 _atom_site_type_symbol
 _atom_site_label
 _atom_site_symmetry_multiplicity
 _atom_site_fract_x
 _atom_site_fract_y
 _atom_site_fract_z
 _atom_site_occupancy
  Dy  Dy0  1  0.000000  0.321937  0.414152  1
  Dy  Dy1  1  0.000000  0.678063  0.585848  1
  Dy  Dy2  1  0.000000  0.821919  0.085995  1
  Dy  Dy3  1  0.000000  0.178081  0.914005  1
  Tm  Tm4  1  0.000000  0.944420  0.371425  1
  Tm  Tm5  1  0.000000  0.055580  0.628576  1
  Tm  Tm6  1  0.000000  0.442725  0.128319  1
  Tm  Tm7  1  0.000000  0.557275  0.871680  1
  B  B8  1  0.500000  0.552009  0.433761  1
  B  B9  1  0.500000  0.447991  0.566239  1
  B  B10  1  0.500000  0.054131  0.067408  1
  B  B11  1  0.500000  0.945869  0.932592  1
  B  B12  1  0.500000  0.751264  0.420572  1
  B  B13  1  0.500000  0.248736  0.579428  1
  B  B14  1  0.500000  0.249367  0.081613  1
  B  B15  1  0.500000  0.750633  0.918387  1
  B  B16  1  0.500000  0.795314  0.264458  1
  B  B17  1  0.500000  0.204686  0.735542  1
  B  B18  1  0.500000  0.290979  0.233750  1
  B  B19  1  0.500000  0.709020  0.766250  1
  B  B20  1  0.500000  0.631394  0.182592  1
  B  B21  1  0.500000  0.368606  0.817408  1
  B  B22  1  0.500000  0.130286  0.313654  1
  B  B23  1  0.500000  0.869714  0.686346  1
  B  B24  1  0.500000  0.983255  0.212282  1
  B  B25  1  0.500000  0.016745  0.787718  1
  B  B26  1  0.500000  0.478928  0.286520  1
  B  B27  1  0.500000  0.521072  0.713480  1
  B  B28  1  0.500000  0.601528  0.027509  1
  B  B29  1  0.500000  0.398472  0.972491  1
  B  B30  1  0.500000  0.101397  0.471148  1
  B  B31  1  0.500000  0.898603  0.528852  1
  Mo  Mo32  1  0.000000  0.639695  0.318689  1
  Mo  Mo33  1  0.000000  0.360305  0.681311  1
  Os  Os34  1  0.000000  0.138296  0.178362  1
  Os  Os35  1  0.000000  0.861704  0.821638  1
