# generated using pymatgen
data_Tm12FeRh3
_symmetry_space_group_name_H-M   'P 1'
_cell_length_a   7.09456082
_cell_length_b   9.11382500
_cell_length_c   6.25460741
_cell_angle_alpha   90.00000000
_cell_angle_beta   89.82146472
_cell_angle_gamma   90.00000000
_symmetry_Int_Tables_number   1
_chemical_formula_structural   Tm12FeRh3
_chemical_formula_sum   'Tm12 Fe1 Rh3'
_cell_volume   404.41210622
_cell_formula_units_Z   1
loop_
 _symmetry_equiv_pos_site_id
 _symmetry_equiv_pos_as_xyz
  1  'x, y, z'
loop_
 _atom_site_type_symbol
 _atom_site_label
 _atom_site_symmetry_multiplicity
 _atom_site_fract_x
 _atom_site_fract_y
 _atom_site_fract_z
 _atom_site_occupancy
  Tm  Tm0  1  0.464801  0.250000  0.131197  1
  Tm  Tm1  1  0.171325  0.566642  0.172812  1
  Tm  Tm2  1  0.171325  0.933358  0.172812  1
  Tm  Tm3  1  0.683893  0.566144  0.320965  1
  Tm  Tm4  1  0.683893  0.933856  0.320965  1
  Tm  Tm5  1  0.964710  0.250000  0.371623  1
  Tm  Tm6  1  0.034045  0.750000  0.635708  1
  Tm  Tm7  1  0.321613  0.060834  0.672776  1
  Tm  Tm8  1  0.321613  0.439166  0.672776  1
  Tm  Tm9  1  0.821721  0.058605  0.829827  1
  Tm  Tm10  1  0.821721  0.441395  0.829827  1
  Tm  Tm11  1  0.540612  0.750000  0.875672  1
  Fe  Fe12  1  0.884345  0.750000  0.035850  1
  Rh  Rh13  1  0.386496  0.750000  0.456905  1
  Rh  Rh14  1  0.613244  0.250000  0.547667  1
  Rh  Rh15  1  0.114644  0.250000  0.952632  1
