# generated using pymatgen
data_Sc20Cd5Ni2Hg
_symmetry_space_group_name_H-M   'P 1'
_cell_length_a   9.02148734
_cell_length_b   9.02148834
_cell_length_c   8.98641700
_cell_angle_alpha   90.00000000
_cell_angle_beta   90.00000000
_cell_angle_gamma   119.95618266
_symmetry_Int_Tables_number   1
_chemical_formula_structural   Sc20Cd5Ni2Hg
_chemical_formula_sum   'Sc20 Cd5 Ni2 Hg1'
_cell_volume   633.67288064
_cell_formula_units_Z   1
loop_
 _symmetry_equiv_pos_site_id
 _symmetry_equiv_pos_as_xyz
  1  'x, y, z'
loop_
 _atom_site_type_symbol
 _atom_site_label
 _atom_site_symmetry_multiplicity
 _atom_site_fract_x
 _atom_site_fract_y
 _atom_site_fract_z
 _atom_site_occupancy
  Sc  Sc0  1  0.998528  0.001472  0.496904  1
  Sc  Sc1  1  0.998528  0.001472  0.003096  1
  Sc  Sc2  1  0.543059  0.456941  0.250000  1
  Sc  Sc3  1  0.544525  0.084212  0.250000  1
  Sc  Sc4  1  0.915788  0.455475  0.250000  1
  Sc  Sc5  1  0.457685  0.542315  0.750000  1
  Sc  Sc6  1  0.457180  0.914733  0.750000  1
  Sc  Sc7  1  0.085267  0.542820  0.750000  1
  Sc  Sc8  1  0.211234  0.788766  0.438040  1
  Sc  Sc9  1  0.211904  0.422899  0.437831  1
  Sc  Sc10  1  0.577101  0.788096  0.437831  1
  Sc  Sc11  1  0.788509  0.211491  0.562685  1
  Sc  Sc12  1  0.788865  0.577324  0.562061  1
  Sc  Sc13  1  0.422676  0.211135  0.562061  1
  Sc  Sc14  1  0.788509  0.211491  0.937315  1
  Sc  Sc15  1  0.788865  0.577324  0.937939  1
  Sc  Sc16  1  0.422676  0.211135  0.937939  1
  Sc  Sc17  1  0.211234  0.788766  0.061960  1
  Sc  Sc18  1  0.211904  0.422899  0.062169  1
  Sc  Sc19  1  0.577101  0.788096  0.062169  1
  Cd  Cd20  1  0.883223  0.764120  0.250000  1
  Cd  Cd21  1  0.235880  0.116777  0.250000  1
  Cd  Cd22  1  0.115672  0.884328  0.750000  1
  Cd  Cd23  1  0.116099  0.232743  0.750000  1
  Cd  Cd24  1  0.767257  0.883901  0.750000  1
  Ni  Ni25  1  0.333263  0.666737  0.250000  1
  Ni  Ni26  1  0.666311  0.333689  0.750000  1
  Hg  Hg27  1  0.881156  0.118844  0.250000  1
