# generated using pymatgen
data_Tb10Ho2GaCo4Hg
_symmetry_space_group_name_H-M   'P 1'
_cell_length_a   8.31606098
_cell_length_b   8.31600428
_cell_length_c   8.31606152
_cell_angle_alpha   112.16507611
_cell_angle_beta   109.45775070
_cell_angle_gamma   106.83500528
_symmetry_Int_Tables_number   1
_chemical_formula_structural   Tb10Ho2GaCo4Hg
_chemical_formula_sum   'Tb10 Ho2 Ga1 Co4 Hg1'
_cell_volume   441.75928654
_cell_formula_units_Z   1
loop_
 _symmetry_equiv_pos_site_id
 _symmetry_equiv_pos_as_xyz
  1  'x, y, z'
loop_
 _atom_site_type_symbol
 _atom_site_label
 _atom_site_symmetry_multiplicity
 _atom_site_fract_x
 _atom_site_fract_y
 _atom_site_fract_z
 _atom_site_occupancy
  Tb  Tb0  1  0.961152  0.263185  0.698067  1
  Tb  Tb1  1  0.038846  0.736916  0.302032  1
  Tb  Tb2  1  0.674530  0.861049  0.186518  1
  Tb  Tb3  1  0.325467  0.511980  0.186513  1
  Tb  Tb4  1  0.326339  0.139640  0.813302  1
  Tb  Tb5  1  0.673658  0.486954  0.813297  1
  Tb  Tb6  1  0.565118  0.263185  0.302033  1
  Tb  Tb7  1  0.434884  0.736916  0.698070  1
  Tb  Tb8  1  0.179869  0.780610  0.960472  1
  Tb  Tb9  1  0.820138  0.780610  0.600742  1
  Ho  Ho10  1  0.179113  0.219800  0.398923  1
  Ho  Ho11  1  0.820876  0.219800  0.040687  1
  Ga  Ga12  1  0.999998  0.498829  0.498832  1
  Co  Co13  1  0.113365  0.114221  0.000856  1
  Co  Co14  1  0.886647  0.887501  0.000853  1
  Co  Co15  1  0.664208  0.499406  0.163611  1
  Co  Co16  1  0.335795  0.499406  0.835198  1
  Hg  Hg17  1  0.499997  0.999991  0.499995  1
