# generated using pymatgen
data_Zn9Pd10Au
_symmetry_space_group_name_H-M   'P 1'
_cell_length_a   7.42972573
_cell_length_b   7.42972295
_cell_length_c   7.42971455
_cell_angle_alpha   101.91643037
_cell_angle_beta   101.91641520
_cell_angle_gamma   125.94669678
_symmetry_Int_Tables_number   1
_chemical_formula_structural   Zn9Pd10Au
_chemical_formula_sum   'Zn9 Pd10 Au1'
_cell_volume   295.76438285
_cell_formula_units_Z   1
loop_
 _symmetry_equiv_pos_site_id
 _symmetry_equiv_pos_as_xyz
  1  'x, y, z'
loop_
 _atom_site_type_symbol
 _atom_site_label
 _atom_site_symmetry_multiplicity
 _atom_site_fract_x
 _atom_site_fract_y
 _atom_site_fract_z
 _atom_site_occupancy
  Zn  Zn0  1  0.211710  0.406648  0.618357  1
  Zn  Zn1  1  0.788290  0.593352  0.381643  1
  Zn  Zn2  1  0.593353  0.211710  0.805062  1
  Zn  Zn3  1  0.406647  0.788290  0.194938  1
  Zn  Zn4  1  0.307659  0.104510  0.412169  1
  Zn  Zn5  1  0.692341  0.895490  0.587831  1
  Zn  Zn6  1  0.895490  0.307659  0.203148  1
  Zn  Zn7  1  0.104510  0.692341  0.796852  1
  Zn  Zn8  1  0.000000  0.000000  0.000000  1
  Pd  Pd9  1  0.331814  0.435948  0.307258  1
  Pd  Pd10  1  0.668186  0.564052  0.692742  1
  Pd  Pd11  1  0.128690  0.024556  0.692742  1
  Pd  Pd12  1  0.024557  0.331814  0.895866  1
  Pd  Pd13  1  0.871310  0.975444  0.307258  1
  Pd  Pd14  1  0.975443  0.668186  0.104134  1
  Pd  Pd15  1  0.435948  0.128690  0.104134  1
  Pd  Pd16  1  0.564052  0.871310  0.895866  1
  Pd  Pd17  1  0.250000  0.750000  0.500000  1
  Pd  Pd18  1  0.750000  0.250000  0.500000  1
  Au  Au19  1  0.500000  0.500000  0.000000  1
