# generated using pymatgen
data_IrRh7S16
_symmetry_space_group_name_H-M   'P 1'
_cell_length_a   3.58655400
_cell_length_b   5.70339247
_cell_length_c   20.03146267
_cell_angle_alpha   89.95344128
_cell_angle_beta   90.00000000
_cell_angle_gamma   90.00000000
_symmetry_Int_Tables_number   1
_chemical_formula_structural   IrRh7S16
_chemical_formula_sum   'Ir1 Rh7 S16'
_cell_volume   409.75395140
_cell_formula_units_Z   1
loop_
 _symmetry_equiv_pos_site_id
 _symmetry_equiv_pos_as_xyz
  1  'x, y, z'
loop_
 _atom_site_type_symbol
 _atom_site_label
 _atom_site_symmetry_multiplicity
 _atom_site_fract_x
 _atom_site_fract_y
 _atom_site_fract_z
 _atom_site_occupancy
  Ir  Ir0  1  0.250000  0.576657  0.077089  1
  Rh  Rh1  1  0.250000  0.946171  0.803898  1
  Rh  Rh2  1  0.750000  0.054551  0.196219  1
  Rh  Rh3  1  0.750000  0.445818  0.695849  1
  Rh  Rh4  1  0.250000  0.555450  0.304302  1
  Rh  Rh5  1  0.250000  0.921649  0.576444  1
  Rh  Rh6  1  0.750000  0.078127  0.423491  1
  Rh  Rh7  1  0.750000  0.421001  0.923493  1
  S  S8  1  0.250000  0.221499  0.492504  1
  S  S9  1  0.750000  0.778228  0.507493  1
  S  S10  1  0.750000  0.721708  0.007706  1
  S  S11  1  0.250000  0.278211  0.992736  1
  S  S12  1  0.250000  0.171581  0.266150  1
  S  S13  1  0.750000  0.830169  0.733575  1
  S  S14  1  0.750000  0.672649  0.234668  1
  S  S15  1  0.250000  0.330192  0.766175  1
  S  S16  1  0.250000  0.941153  0.356351  1
  S  S17  1  0.750000  0.059348  0.643812  1
  S  S18  1  0.750000  0.440345  0.141864  1
  S  S19  1  0.250000  0.558774  0.856002  1
  S  S20  1  0.250000  0.542905  0.622483  1
  S  S21  1  0.750000  0.456999  0.377578  1
  S  S22  1  0.750000  0.043187  0.877115  1
  S  S23  1  0.250000  0.953627  0.123006  1
