# generated using pymatgen
data_Tb11Pr5Cd4Ir3Pt
_symmetry_space_group_name_H-M   'P 1'
_cell_length_a   9.78911908
_cell_length_b   9.78918894
_cell_length_c   9.78918841
_cell_angle_alpha   60.14420733
_cell_angle_beta   60.11330090
_cell_angle_gamma   60.11329952
_symmetry_Int_Tables_number   1
_chemical_formula_structural   Tb11Pr5Cd4Ir3Pt
_chemical_formula_sum   'Tb11 Pr5 Cd4 Ir3 Pt1'
_cell_volume   665.17563720
_cell_formula_units_Z   1
loop_
 _symmetry_equiv_pos_site_id
 _symmetry_equiv_pos_as_xyz
  1  'x, y, z'
loop_
 _atom_site_type_symbol
 _atom_site_label
 _atom_site_symmetry_multiplicity
 _atom_site_fract_x
 _atom_site_fract_y
 _atom_site_fract_z
 _atom_site_occupancy
  Tb  Tb0  1  0.347235  0.347106  0.347106  1
  Tb  Tb1  1  0.350470  0.352935  0.952910  1
  Tb  Tb2  1  0.350470  0.952910  0.352935  1
  Tb  Tb3  1  0.950939  0.351717  0.351717  1
  Tb  Tb4  1  0.807762  0.188424  0.188424  1
  Tb  Tb5  1  0.185372  0.812445  0.812445  1
  Tb  Tb6  1  0.187889  0.807147  0.190215  1
  Tb  Tb7  1  0.812252  0.186550  0.811208  1
  Tb  Tb8  1  0.187889  0.190215  0.807147  1
  Tb  Tb9  1  0.812252  0.811208  0.186550  1
  Tb  Tb10  1  0.944232  0.556707  0.556707  1
  Pr  Pr11  1  0.558479  0.941942  0.941942  1
  Pr  Pr12  1  0.562698  0.939480  0.559639  1
  Pr  Pr13  1  0.941283  0.559813  0.938010  1
  Pr  Pr14  1  0.562698  0.559639  0.939480  1
  Pr  Pr15  1  0.941283  0.938010  0.559813  1
  Cd  Cd16  1  0.582313  0.579156  0.579156  1
  Cd  Cd17  1  0.578691  0.579489  0.261946  1
  Cd  Cd18  1  0.578691  0.261946  0.579489  1
  Cd  Cd19  1  0.259461  0.578982  0.578982  1
  Ir  Ir20  1  0.139886  0.145121  0.574961  1
  Ir  Ir21  1  0.139886  0.574961  0.145121  1
  Ir  Ir22  1  0.575019  0.141598  0.141598  1
  Pt  Pt23  1  0.142849  0.142500  0.142500  1
