# generated using pymatgen
data_HfNb9(Ga3C)2
_symmetry_space_group_name_H-M   'P 1'
_cell_length_a   7.82415700
_cell_length_b   7.80505384
_cell_length_c   5.41007400
_cell_angle_alpha   90.00000000
_cell_angle_beta   90.00000000
_cell_angle_gamma   120.08100121
_symmetry_Int_Tables_number   1
_chemical_formula_structural   HfNb9(Ga3C)2
_chemical_formula_sum   'Hf1 Nb9 Ga6 C2'
_cell_volume   285.88557143
_cell_formula_units_Z   1
loop_
 _symmetry_equiv_pos_site_id
 _symmetry_equiv_pos_as_xyz
  1  'x, y, z'
loop_
 _atom_site_type_symbol
 _atom_site_label
 _atom_site_symmetry_multiplicity
 _atom_site_fract_x
 _atom_site_fract_y
 _atom_site_fract_z
 _atom_site_occupancy
  Hf  Hf0  1  0.235108  0.000000  0.250000  1
  Nb  Nb1  1  0.767075  0.000000  0.750000  1
  Nb  Nb2  1  0.000675  0.230309  0.250000  1
  Nb  Nb3  1  0.998432  0.768511  0.750000  1
  Nb  Nb4  1  0.770366  0.769691  0.250000  1
  Nb  Nb5  1  0.229921  0.231489  0.750000  1
  Nb  Nb6  1  0.333268  0.666774  0.000157  1
  Nb  Nb7  1  0.666495  0.333226  0.000157  1
  Nb  Nb8  1  0.666495  0.333226  0.499843  1
  Nb  Nb9  1  0.333268  0.666774  0.499843  1
  Ga  Ga10  1  0.597829  0.000000  0.250000  1
  Ga  Ga11  1  0.405653  0.000000  0.750000  1
  Ga  Ga12  1  0.999246  0.589871  0.250000  1
  Ga  Ga13  1  0.999827  0.407484  0.750000  1
  Ga  Ga14  1  0.409375  0.410129  0.250000  1
  Ga  Ga15  1  0.592342  0.592516  0.750000  1
  C  C16  1  0.997312  0.000000  0.997511  1
  C  C17  1  0.997312  0.000000  0.502489  1
