# generated using pymatgen
data_Ca7CeAs6
_symmetry_space_group_name_H-M   'P 1'
_cell_length_a   7.77920118
_cell_length_b   7.77920097
_cell_length_c   7.77920181
_cell_angle_alpha   109.64689940
_cell_angle_beta   109.64689876
_cell_angle_gamma   109.64688791
_symmetry_Int_Tables_number   1
_chemical_formula_structural   Ca7CeAs6
_chemical_formula_sum   'Ca7 Ce1 As6'
_cell_volume   360.01941215
_cell_formula_units_Z   1
loop_
 _symmetry_equiv_pos_site_id
 _symmetry_equiv_pos_as_xyz
  1  'x, y, z'
loop_
 _atom_site_type_symbol
 _atom_site_label
 _atom_site_symmetry_multiplicity
 _atom_site_fract_x
 _atom_site_fract_y
 _atom_site_fract_z
 _atom_site_occupancy
  Ca  Ca0  1  0.137422  0.137422  0.137422  1
  Ca  Ca1  1  0.494933  0.003730  0.869218  1
  Ca  Ca2  1  0.869218  0.494933  0.003730  1
  Ca  Ca3  1  0.003730  0.869218  0.494933  1
  Ca  Ca4  1  0.361278  0.499018  0.999318  1
  Ca  Ca5  1  0.999318  0.361278  0.499018  1
  Ca  Ca6  1  0.499018  0.999318  0.361278  1
  Ce  Ce7  1  0.642223  0.642223  0.642223  1
  As  As8  1  0.626872  0.382546  0.259939  1
  As  As9  1  0.259939  0.626872  0.382546  1
  As  As10  1  0.744986  0.867221  0.111296  1
  As  As11  1  0.111296  0.744986  0.867221  1
  As  As12  1  0.382546  0.259939  0.626872  1
  As  As13  1  0.867221  0.111296  0.744986  1
