# generated using pymatgen
data_Ce8Fe3Si12Os
_symmetry_space_group_name_H-M   'P 1'
_cell_length_a   8.14026300
_cell_length_b   8.14026314
_cell_length_c   8.10600600
_cell_angle_alpha   90.00000000
_cell_angle_beta   90.00000000
_cell_angle_gamma   119.99999537
_symmetry_Int_Tables_number   1
_chemical_formula_structural   Ce8Fe3Si12Os
_chemical_formula_sum   'Ce8 Fe3 Si12 Os1'
_cell_volume   465.17295094
_cell_formula_units_Z   1
loop_
 _symmetry_equiv_pos_site_id
 _symmetry_equiv_pos_as_xyz
  1  'x, y, z'
loop_
 _atom_site_type_symbol
 _atom_site_label
 _atom_site_symmetry_multiplicity
 _atom_site_fract_x
 _atom_site_fract_y
 _atom_site_fract_z
 _atom_site_occupancy
  Ce  Ce0  1  0.000000  0.000000  0.251050  1
  Ce  Ce1  1  0.000000  0.000000  0.749167  1
  Ce  Ce2  1  0.499316  0.500684  0.250640  1
  Ce  Ce3  1  0.499316  0.998632  0.250640  1
  Ce  Ce4  1  0.001368  0.500684  0.250640  1
  Ce  Ce5  1  0.500247  0.499753  0.749937  1
  Ce  Ce6  1  0.500247  0.000494  0.749937  1
  Ce  Ce7  1  0.999506  0.499753  0.749937  1
  Fe  Fe8  1  0.333333  0.666667  0.490525  1
  Fe  Fe9  1  0.666667  0.333333  0.522912  1
  Fe  Fe10  1  0.666667  0.333333  0.979213  1
  Si  Si11  1  0.169316  0.830684  0.501913  1
  Si  Si12  1  0.169316  0.338632  0.501913  1
  Si  Si13  1  0.661368  0.830684  0.501913  1
  Si  Si14  1  0.830478  0.169522  0.497323  1
  Si  Si15  1  0.830478  0.660954  0.497323  1
  Si  Si16  1  0.339046  0.169522  0.497323  1
  Si  Si17  1  0.829580  0.170420  0.003146  1
  Si  Si18  1  0.829580  0.659159  0.003146  1
  Si  Si19  1  0.340841  0.170420  0.003146  1
  Si  Si20  1  0.164264  0.835736  0.998290  1
  Si  Si21  1  0.164264  0.328530  0.998290  1
  Si  Si22  1  0.671470  0.835736  0.998290  1
  Os  Os23  1  0.333333  0.666667  0.003389  1
