# generated using pymatgen
data_Dy5Y(B7Os)2
_symmetry_space_group_name_H-M   'P 1'
_cell_length_a   8.05618103
_cell_length_b   8.05618061
_cell_length_c   9.32938800
_cell_angle_alpha   90.00000000
_cell_angle_beta   90.00000000
_cell_angle_gamma   154.75644328
_symmetry_Int_Tables_number   1
_chemical_formula_structural   Dy5Y(B7Os)2
_chemical_formula_sum   'Dy5 Y1 B14 Os2'
_cell_volume   258.22424915
_cell_formula_units_Z   1
loop_
 _symmetry_equiv_pos_site_id
 _symmetry_equiv_pos_as_xyz
  1  'x, y, z'
loop_
 _atom_site_type_symbol
 _atom_site_label
 _atom_site_symmetry_multiplicity
 _atom_site_fract_x
 _atom_site_fract_y
 _atom_site_fract_z
 _atom_site_occupancy
  Dy  Dy0  1  0.894041  0.105959  0.439889  1
  Dy  Dy1  1  0.106034  0.893966  0.560141  1
  Dy  Dy2  1  0.894041  0.105959  0.060111  1
  Dy  Dy3  1  0.106034  0.893966  0.939859  1
  Dy  Dy4  1  0.755810  0.244190  0.750000  1
  Y  Y5  1  0.244480  0.755520  0.250000  1
  B  B6  1  0.727187  0.272813  0.466248  1
  B  B7  1  0.272760  0.727240  0.534147  1
  B  B8  1  0.727187  0.272813  0.033752  1
  B  B9  1  0.272760  0.727240  0.965853  1
  B  B10  1  0.631897  0.368103  0.150532  1
  B  B11  1  0.367983  0.632017  0.849360  1
  B  B12  1  0.631897  0.368103  0.349468  1
  B  B13  1  0.367983  0.632017  0.650640  1
  B  B14  1  0.520804  0.479196  0.096113  1
  B  B15  1  0.479184  0.520816  0.903819  1
  B  B16  1  0.520804  0.479196  0.403887  1
  B  B17  1  0.479184  0.520816  0.596181  1
  B  B18  1  0.457034  0.542966  0.250000  1
  B  B19  1  0.542955  0.457045  0.750000  1
  Os  Os20  1  0.053899  0.946101  0.250000  1
  Os  Os21  1  0.946045  0.053955  0.750000  1
