# generated using pymatgen
data_YLu5CuRh17
_symmetry_space_group_name_H-M   'P 1'
_cell_length_a   5.23294216
_cell_length_b   5.23314089
_cell_length_c   17.34043400
_cell_angle_alpha   90.00000000
_cell_angle_beta   90.00000000
_cell_angle_gamma   120.00067552
_symmetry_Int_Tables_number   1
_chemical_formula_structural   YLu5CuRh17
_chemical_formula_sum   'Y1 Lu5 Cu1 Rh17'
_cell_volume   411.24061544
_cell_formula_units_Z   1
loop_
 _symmetry_equiv_pos_site_id
 _symmetry_equiv_pos_as_xyz
  1  'x, y, z'
loop_
 _atom_site_type_symbol
 _atom_site_label
 _atom_site_symmetry_multiplicity
 _atom_site_fract_x
 _atom_site_fract_y
 _atom_site_fract_z
 _atom_site_occupancy
  Y  Y0  1  0.666655  0.333335  0.250000  1
  Lu  Lu1  1  0.333333  0.666673  0.957767  1
  Lu  Lu2  1  0.666673  0.333333  0.041066  1
  Lu  Lu3  1  0.666673  0.333333  0.458934  1
  Lu  Lu4  1  0.333333  0.666673  0.542233  1
  Lu  Lu5  1  0.333393  0.666589  0.750000  1
  Cu  Cu6  1  0.333349  0.666697  0.250000  1
  Rh  Rh7  1  0.169098  0.830858  0.374383  1
  Rh  Rh8  1  0.169103  0.338221  0.374381  1
  Rh  Rh9  1  0.661760  0.830847  0.374384  1
  Rh  Rh10  1  0.832509  0.167510  0.623847  1
  Rh  Rh11  1  0.832519  0.665064  0.623866  1
  Rh  Rh12  1  0.334963  0.167514  0.623856  1
  Rh  Rh13  1  0.832509  0.167510  0.876153  1
  Rh  Rh14  1  0.832519  0.665064  0.876134  1
  Rh  Rh15  1  0.334963  0.167514  0.876144  1
  Rh  Rh16  1  0.169098  0.830858  0.125617  1
  Rh  Rh17  1  0.169103  0.338221  0.125619  1
  Rh  Rh18  1  0.661760  0.830847  0.125616  1
  Rh  Rh19  1  0.666690  0.333279  0.750000  1
  Rh  Rh20  1  0.999970  0.999968  0.250000  1
  Rh  Rh21  1  0.000040  0.000084  0.750000  1
  Rh  Rh22  1  0.999993  0.000004  0.497548  1
  Rh  Rh23  1  0.999993  0.000004  0.002452  1
