# generated using pymatgen
data_AgS2IO8
_symmetry_space_group_name_H-M   'P 1'
_cell_length_a   8.94850800
_cell_length_b   4.99479968
_cell_length_c   9.62829586
_cell_angle_alpha   64.67214587
_cell_angle_beta   90.00000000
_cell_angle_gamma   90.00000000
_symmetry_Int_Tables_number   1
_chemical_formula_structural   AgS2IO8
_chemical_formula_sum   'Ag2 S4 I2 O16'
_cell_volume   388.97917945
_cell_formula_units_Z   2
loop_
 _symmetry_equiv_pos_site_id
 _symmetry_equiv_pos_as_xyz
  1  'x, y, z'
loop_
 _atom_site_type_symbol
 _atom_site_label
 _atom_site_symmetry_multiplicity
 _atom_site_fract_x
 _atom_site_fract_y
 _atom_site_fract_z
 _atom_site_occupancy
  Ag  Ag0  1  0.000000  0.000000  0.500000  1
  Ag  Ag1  1  0.500000  0.000000  0.000000  1
  S  S2  1  0.213541  0.608101  0.886860  1
  S  S3  1  0.286459  0.608101  0.386860  1
  S  S4  1  0.786459  0.391899  0.113140  1
  S  S5  1  0.713541  0.391899  0.613140  1
  I  I6  1  0.000000  0.000000  0.000000  1
  I  I7  1  0.500000  0.000000  0.500000  1
  O  O8  1  0.357073  0.641633  0.528227  1
  O  O9  1  0.642927  0.358367  0.471773  1
  O  O10  1  0.142927  0.641633  0.028227  1
  O  O11  1  0.210507  0.269452  0.939917  1
  O  O12  1  0.710507  0.730548  0.560083  1
  O  O13  1  0.621773  0.238212  0.747969  1
  O  O14  1  0.789493  0.730548  0.060083  1
  O  O15  1  0.857073  0.358367  0.971773  1
  O  O16  1  0.369892  0.692444  0.876921  1
  O  O17  1  0.378227  0.761788  0.252031  1
  O  O18  1  0.878227  0.238212  0.247969  1
  O  O19  1  0.130108  0.692444  0.376921  1
  O  O20  1  0.289493  0.269452  0.439917  1
  O  O21  1  0.630108  0.307556  0.123079  1
  O  O22  1  0.121773  0.761788  0.752031  1
  O  O23  1  0.869892  0.307556  0.623079  1
