# generated using pymatgen
data_K8Hf6BBr20
_symmetry_space_group_name_H-M   'P 1'
_cell_length_a   11.70101677
_cell_length_b   11.70101625
_cell_length_c   11.70101700
_cell_angle_alpha   60.00000072
_cell_angle_beta   60.00000219
_cell_angle_gamma   60.00000326
_symmetry_Int_Tables_number   1
_chemical_formula_structural   K8Hf6BBr20
_chemical_formula_sum   'K8 Hf6 B1 Br20'
_cell_volume   1132.80672172
_cell_formula_units_Z   1
loop_
 _symmetry_equiv_pos_site_id
 _symmetry_equiv_pos_as_xyz
  1  'x, y, z'
loop_
 _atom_site_type_symbol
 _atom_site_label
 _atom_site_symmetry_multiplicity
 _atom_site_fract_x
 _atom_site_fract_y
 _atom_site_fract_z
 _atom_site_occupancy
  K  K0  1  0.360563  0.360563  0.360563  1
  K  K1  1  0.639437  0.639437  0.639437  1
  K  K2  1  0.360563  0.360563  0.918313  1
  K  K3  1  0.360563  0.918313  0.360563  1
  K  K4  1  0.639437  0.639437  0.081687  1
  K  K5  1  0.639437  0.081687  0.639437  1
  K  K6  1  0.918313  0.360563  0.360563  1
  K  K7  1  0.081687  0.639437  0.639437  1
  Hf  Hf8  1  0.862082  0.137918  0.137918  1
  Hf  Hf9  1  0.137918  0.862082  0.862082  1
  Hf  Hf10  1  0.137918  0.862082  0.137918  1
  Hf  Hf11  1  0.862082  0.137918  0.862082  1
  Hf  Hf12  1  0.137918  0.137918  0.862082  1
  Hf  Hf13  1  0.862082  0.862082  0.137918  1
  B  B14  1  0.000000  0.000000  0.000000  1
  Br  Br15  1  0.324778  0.000000  0.000000  1
  Br  Br16  1  0.675222  0.000000  0.000000  1
  Br  Br17  1  0.000000  0.324778  0.675222  1
  Br  Br18  1  0.000000  0.675222  0.324778  1
  Br  Br19  1  0.000000  0.324778  0.000000  1
  Br  Br20  1  0.675222  0.000000  0.324778  1
  Br  Br21  1  0.000000  0.675222  0.000000  1
  Br  Br22  1  0.324778  0.000000  0.675222  1
  Br  Br23  1  0.000000  0.000000  0.324778  1
  Br  Br24  1  0.000000  0.000000  0.675222  1
  Br  Br25  1  0.675222  0.324778  0.000000  1
  Br  Br26  1  0.324778  0.675222  0.000000  1
  Br  Br27  1  0.686199  0.313801  0.313801  1
  Br  Br28  1  0.313801  0.686199  0.686199  1
  Br  Br29  1  0.313801  0.686199  0.313801  1
  Br  Br30  1  0.686199  0.313801  0.686199  1
  Br  Br31  1  0.313801  0.313801  0.686199  1
  Br  Br32  1  0.686199  0.686199  0.313801  1
  Br  Br33  1  0.250000  0.250000  0.250000  1
  Br  Br34  1  0.750000  0.750000  0.750000  1
