# generated using pymatgen
data_Ca4Sn5AsRh7
_symmetry_space_group_name_H-M   'P 1'
_cell_length_a   7.58937166
_cell_length_b   7.58937207
_cell_length_c   7.58937165
_cell_angle_alpha   109.71288063
_cell_angle_beta   108.98897204
_cell_angle_gamma   109.71288825
_symmetry_Int_Tables_number   1
_chemical_formula_structural   Ca4Sn5AsRh7
_chemical_formula_sum   'Ca4 Sn5 As1 Rh7'
_cell_volume   336.49027304
_cell_formula_units_Z   1
loop_
 _symmetry_equiv_pos_site_id
 _symmetry_equiv_pos_as_xyz
  1  'x, y, z'
loop_
 _atom_site_type_symbol
 _atom_site_label
 _atom_site_symmetry_multiplicity
 _atom_site_fract_x
 _atom_site_fract_y
 _atom_site_fract_z
 _atom_site_occupancy
  Ca  Ca0  1  0.481167  0.473205  0.481167  1
  Ca  Ca1  1  0.007963  0.526795  0.007963  1
  Ca  Ca2  1  0.481167  0.000000  0.007963  1
  Ca  Ca3  1  0.007963  0.000000  0.481167  1
  Sn  Sn4  1  0.699772  0.000000  0.699772  1
  Sn  Sn5  1  0.670551  0.680967  0.989585  1
  Sn  Sn6  1  0.308617  0.319033  0.989585  1
  Sn  Sn7  1  0.989585  0.680967  0.670551  1
  Sn  Sn8  1  0.989585  0.319033  0.308617  1
  As  As9  1  0.344020  0.000000  0.344020  1
  Rh  Rh10  1  0.503521  0.755301  0.258822  1
  Rh  Rh11  1  0.748219  0.244699  0.503521  1
  Rh  Rh12  1  0.258822  0.755301  0.503521  1
  Rh  Rh13  1  0.241357  0.500000  0.741357  1
  Rh  Rh14  1  0.022811  0.000000  0.022811  1
  Rh  Rh15  1  0.503521  0.244699  0.748219  1
  Rh  Rh16  1  0.741357  0.500000  0.241357  1
