# generated using pymatgen
data_YbLuMgPd5
_symmetry_space_group_name_H-M   'P 1'
_cell_length_a   4.20558100
_cell_length_b   5.65265651
_cell_length_c   11.19401600
_cell_angle_alpha   89.59601304
_cell_angle_beta   90.00000000
_cell_angle_gamma   90.00000000
_symmetry_Int_Tables_number   1
_chemical_formula_structural   YbLuMgPd5
_chemical_formula_sum   'Yb2 Lu2 Mg2 Pd10'
_cell_volume   266.10542326
_cell_formula_units_Z   2
loop_
 _symmetry_equiv_pos_site_id
 _symmetry_equiv_pos_as_xyz
  1  'x, y, z'
loop_
 _atom_site_type_symbol
 _atom_site_label
 _atom_site_symmetry_multiplicity
 _atom_site_fract_x
 _atom_site_fract_y
 _atom_site_fract_z
 _atom_site_occupancy
  Yb  Yb0  1  0.500000  0.316758  0.638247  1
  Yb  Yb1  1  0.500000  0.683242  0.361753  1
  Lu  Lu2  1  0.500000  0.183455  0.141258  1
  Lu  Lu3  1  0.500000  0.816545  0.858742  1
  Mg  Mg4  1  0.000000  0.000000  0.500000  1
  Mg  Mg5  1  0.000000  0.500000  0.000000  1
  Pd  Pd6  1  0.500000  0.192132  0.388181  1
  Pd  Pd7  1  0.500000  0.807868  0.611819  1
  Pd  Pd8  1  0.500000  0.306653  0.890485  1
  Pd  Pd9  1  0.500000  0.693347  0.109515  1
  Pd  Pd10  1  0.000000  0.432042  0.246974  1
  Pd  Pd11  1  0.000000  0.567958  0.753026  1
  Pd  Pd12  1  0.000000  0.069179  0.748555  1
  Pd  Pd13  1  0.000000  0.930821  0.251445  1
  Pd  Pd14  1  0.000000  0.000000  0.000000  1
  Pd  Pd15  1  0.000000  0.500000  0.500000  1
