# generated using pymatgen
data_La10Sn(HgRu2)3
_symmetry_space_group_name_H-M   'P 1'
_cell_length_a   8.83427678
_cell_length_b   8.74746477
_cell_length_c   8.74746491
_cell_angle_alpha   109.26932141
_cell_angle_beta   109.67237819
_cell_angle_gamma   109.67237898
_symmetry_Int_Tables_number   1
_chemical_formula_structural   La10Sn(HgRu2)3
_chemical_formula_sum   'La10 Sn1 Hg3 Ru6'
_cell_volume   519.07403200
_cell_formula_units_Z   1
loop_
 _symmetry_equiv_pos_site_id
 _symmetry_equiv_pos_as_xyz
  1  'x, y, z'
loop_
 _atom_site_type_symbol
 _atom_site_label
 _atom_site_symmetry_multiplicity
 _atom_site_fract_x
 _atom_site_fract_y
 _atom_site_fract_z
 _atom_site_occupancy
  La  La0  1  0.792009  0.000000  0.000000  1
  La  La1  1  0.248553  0.310355  0.062205  1
  La  La2  1  0.710822  0.710425  0.209864  1
  La  La3  1  0.186348  0.937795  0.248150  1
  La  La4  1  0.000397  0.499440  0.289576  1
  La  La5  1  0.751730  0.187992  0.440288  1
  La  La6  1  0.500959  0.790138  0.500562  1
  La  La7  1  0.938198  0.751850  0.689645  1
  La  La8  1  0.311441  0.559712  0.747704  1
  La  La9  1  0.563737  0.252296  0.812007  1
  Sn  Sn10  1  0.409100  0.000000  0.000000  1
  Hg  Hg11  1  0.499751  0.412293  0.499055  1
  Hg  Hg12  1  0.087458  0.086761  0.587707  1
  Hg  Hg13  1  0.000696  0.500945  0.913239  1
  Ru  Ru14  1  0.394517  0.757274  0.138743  1
  Ru  Ru15  1  0.637242  0.381469  0.242726  1
  Ru  Ru16  1  0.107292  0.252583  0.358023  1
  Ru  Ru17  1  0.255773  0.861257  0.618532  1
  Ru  Ru18  1  0.854708  0.105440  0.747417  1
  Ru  Ru19  1  0.749269  0.641977  0.894560  1
