# generated using pymatgen
data_TmGa3Pt2
_symmetry_space_group_name_H-M   'P 1'
_cell_length_a   7.14139600
_cell_length_b   7.14139619
_cell_length_c   7.29035200
_cell_angle_alpha   90.00000000
_cell_angle_beta   90.00000000
_cell_angle_gamma   120.00000837
_symmetry_Int_Tables_number   1
_chemical_formula_structural   TmGa3Pt2
_chemical_formula_sum   'Tm3 Ga9 Pt6'
_cell_volume   321.99218901
_cell_formula_units_Z   3
loop_
 _symmetry_equiv_pos_site_id
 _symmetry_equiv_pos_as_xyz
  1  'x, y, z'
loop_
 _atom_site_type_symbol
 _atom_site_label
 _atom_site_symmetry_multiplicity
 _atom_site_fract_x
 _atom_site_fract_y
 _atom_site_fract_z
 _atom_site_occupancy
  Tm  Tm0  1  0.591616  0.999991  0.750000  1
  Tm  Tm1  1  0.408375  0.408384  0.750000  1
  Tm  Tm2  1  0.000009  0.591625  0.750000  1
  Ga  Ga3  1  0.379516  0.379474  0.250000  1
  Ga  Ga4  1  0.999957  0.620484  0.250000  1
  Ga  Ga5  1  0.620526  0.000043  0.250000  1
  Ga  Ga6  1  0.269366  0.999983  0.011466  1
  Ga  Ga7  1  0.269366  0.999983  0.488534  1
  Ga  Ga8  1  0.000017  0.269382  0.488534  1
  Ga  Ga9  1  0.000017  0.269382  0.011466  1
  Ga  Ga10  1  0.730618  0.730634  0.011466  1
  Ga  Ga11  1  0.730618  0.730634  0.488534  1
  Pt  Pt12  1  0.666667  0.333333  0.457341  1
  Pt  Pt13  1  0.000000  0.000000  0.750000  1
  Pt  Pt14  1  0.666667  0.333333  0.042659  1
  Pt  Pt15  1  0.333333  0.666667  0.042692  1
  Pt  Pt16  1  0.333333  0.666667  0.457308  1
  Pt  Pt17  1  0.000000  0.000000  0.250000  1
