# generated using pymatgen
data_DyHo2Ga2Co9B4
_symmetry_space_group_name_H-M   'P 1'
_cell_length_a   5.12928501
_cell_length_b   5.12672676
_cell_length_c   9.53970600
_cell_angle_alpha   89.99991599
_cell_angle_beta   90.00005933
_cell_angle_gamma   120.01688483
_symmetry_Int_Tables_number   1
_chemical_formula_structural   DyHo2Ga2Co9B4
_chemical_formula_sum   'Dy1 Ho2 Ga2 Co9 B4'
_cell_volume   217.21444776
_cell_formula_units_Z   1
loop_
 _symmetry_equiv_pos_site_id
 _symmetry_equiv_pos_as_xyz
  1  'x, y, z'
loop_
 _atom_site_type_symbol
 _atom_site_label
 _atom_site_symmetry_multiplicity
 _atom_site_fract_x
 _atom_site_fract_y
 _atom_site_fract_z
 _atom_site_occupancy
  Dy  Dy0  1  0.999987  0.999999  0.000009  1
  Ho  Ho1  1  0.999997  0.000000  0.340452  1
  Ho  Ho2  1  0.999999  0.999998  0.659502  1
  Ga  Ga3  1  0.333479  0.666815  0.000046  1
  Ga  Ga4  1  0.666501  0.333186  0.000046  1
  Co  Co5  1  0.499997  0.000000  0.499986  1
  Co  Co6  1  0.499995  0.500000  0.499986  1
  Co  Co7  1  0.999996  0.499999  0.499985  1
  Co  Co8  1  0.499992  0.999999  0.208012  1
  Co  Co9  1  0.499992  0.500001  0.208005  1
  Co  Co10  1  0.999994  0.500001  0.207952  1
  Co  Co11  1  0.499999  0.000001  0.792004  1
  Co  Co12  1  0.499998  0.500002  0.792006  1
  Co  Co13  1  0.999997  0.499998  0.792055  1
  B  B14  1  0.333318  0.666700  0.349373  1
  B  B15  1  0.666666  0.333299  0.349374  1
  B  B16  1  0.666647  0.333300  0.650604  1
  B  B17  1  0.333345  0.666700  0.650604  1
