# generated using pymatgen
data_Lu5SiBi2
_symmetry_space_group_name_H-M   'P 1'
_cell_length_a   11.80047800
_cell_length_b   9.02704300
_cell_length_c   7.89723400
_cell_angle_alpha   90.00000000
_cell_angle_beta   90.00000000
_cell_angle_gamma   90.00000000
_symmetry_Int_Tables_number   1
_chemical_formula_structural   Lu5SiBi2
_chemical_formula_sum   'Lu20 Si4 Bi8'
_cell_volume   841.24039259
_cell_formula_units_Z   4
loop_
 _symmetry_equiv_pos_site_id
 _symmetry_equiv_pos_as_xyz
  1  'x, y, z'
loop_
 _atom_site_type_symbol
 _atom_site_label
 _atom_site_symmetry_multiplicity
 _atom_site_fract_x
 _atom_site_fract_y
 _atom_site_fract_z
 _atom_site_occupancy
  Lu  Lu0  1  0.062986  0.554090  0.819802  1
  Lu  Lu1  1  0.562986  0.945910  0.680198  1
  Lu  Lu2  1  0.937014  0.054090  0.180198  1
  Lu  Lu3  1  0.437014  0.445910  0.319802  1
  Lu  Lu4  1  0.937014  0.445910  0.180198  1
  Lu  Lu5  1  0.437014  0.054090  0.319802  1
  Lu  Lu6  1  0.062986  0.945910  0.819802  1
  Lu  Lu7  1  0.562986  0.554090  0.680198  1
  Lu  Lu8  1  0.001495  0.750000  0.460111  1
  Lu  Lu9  1  0.501495  0.750000  0.039889  1
  Lu  Lu10  1  0.998505  0.250000  0.539889  1
  Lu  Lu11  1  0.498505  0.250000  0.960111  1
  Lu  Lu12  1  0.211619  0.750000  0.164392  1
  Lu  Lu13  1  0.711619  0.750000  0.335608  1
  Lu  Lu14  1  0.788381  0.250000  0.835608  1
  Lu  Lu15  1  0.288381  0.250000  0.664392  1
  Lu  Lu16  1  0.294853  0.750000  0.636236  1
  Lu  Lu17  1  0.794853  0.750000  0.863764  1
  Lu  Lu18  1  0.705147  0.250000  0.363764  1
  Lu  Lu19  1  0.205147  0.250000  0.136236  1
  Si  Si20  1  0.479294  0.750000  0.412898  1
  Si  Si21  1  0.979294  0.750000  0.087102  1
  Si  Si22  1  0.520706  0.250000  0.587102  1
  Si  Si23  1  0.020706  0.250000  0.912898  1
  Bi  Bi24  1  0.325825  0.511081  0.931137  1
  Bi  Bi25  1  0.825825  0.988919  0.568863  1
  Bi  Bi26  1  0.674175  0.011081  0.068863  1
  Bi  Bi27  1  0.174175  0.488919  0.431137  1
  Bi  Bi28  1  0.674175  0.488919  0.068863  1
  Bi  Bi29  1  0.174175  0.011081  0.431137  1
  Bi  Bi30  1  0.325825  0.988919  0.931137  1
  Bi  Bi31  1  0.825825  0.511081  0.568863  1
