# generated using pymatgen
data_ErTh2Sn2Rh3Pb
_symmetry_space_group_name_H-M   'P 1'
_cell_length_a   7.61191747
_cell_length_b   7.61191613
_cell_length_c   4.05078100
_cell_angle_alpha   90.00000000
_cell_angle_beta   90.00000000
_cell_angle_gamma   120.05821725
_symmetry_Int_Tables_number   1
_chemical_formula_structural   ErTh2Sn2Rh3Pb
_chemical_formula_sum   'Er1 Th2 Sn2 Rh3 Pb1'
_cell_volume   203.14324697
_cell_formula_units_Z   1
loop_
 _symmetry_equiv_pos_site_id
 _symmetry_equiv_pos_as_xyz
  1  'x, y, z'
loop_
 _atom_site_type_symbol
 _atom_site_label
 _atom_site_symmetry_multiplicity
 _atom_site_fract_x
 _atom_site_fract_y
 _atom_site_fract_z
 _atom_site_occupancy
  Er  Er0  1  0.403538  0.403538  0.500000  1
  Th  Th1  1  0.588046  0.003094  0.500000  1
  Th  Th2  1  0.003094  0.588046  0.500000  1
  Sn  Sn3  1  0.255474  0.011528  0.000000  1
  Sn  Sn4  1  0.011528  0.255474  0.000000  1
  Rh  Rh5  1  0.673975  0.324467  0.000000  1
  Rh  Rh6  1  0.324467  0.673975  0.000000  1
  Rh  Rh7  1  0.004790  0.004790  0.500000  1
  Pb  Pb8  1  0.735087  0.735087  0.000000  1
