# generated using pymatgen
data_Pr5Y2Ho13Pt16
_symmetry_space_group_name_H-M   'P 1'
_cell_length_a   7.58141179
_cell_length_b   7.67982569
_cell_length_c   14.79046100
_cell_angle_alpha   90.00681149
_cell_angle_beta   90.04918358
_cell_angle_gamma   89.93055875
_symmetry_Int_Tables_number   1
_chemical_formula_structural   Pr5Y2Ho13Pt16
_chemical_formula_sum   'Pr5 Y2 Ho13 Pt16'
_cell_volume   861.15767834
_cell_formula_units_Z   1
loop_
 _symmetry_equiv_pos_site_id
 _symmetry_equiv_pos_as_xyz
  1  'x, y, z'
loop_
 _atom_site_type_symbol
 _atom_site_label
 _atom_site_symmetry_multiplicity
 _atom_site_fract_x
 _atom_site_fract_y
 _atom_site_fract_z
 _atom_site_occupancy
  Pr  Pr0  1  0.499022  0.679634  0.094930  1
  Pr  Pr1  1  0.500330  0.325482  0.593487  1
  Pr  Pr2  1  0.000837  0.175121  0.907541  1
  Pr  Pr3  1  0.000074  0.174285  0.592388  1
  Pr  Pr4  1  0.501205  0.323160  0.905287  1
  Y  Y5  1  0.497825  0.680761  0.403685  1
  Y  Y6  1  0.998281  0.821185  0.098035  1
  Ho  Ho7  1  0.680794  0.991061  0.251693  1
  Ho  Ho8  1  0.180511  0.509919  0.251661  1
  Ho  Ho9  1  0.821390  0.491576  0.749311  1
  Ho  Ho10  1  0.320358  0.008185  0.749408  1
  Ho  Ho11  1  0.655093  0.831334  0.620597  1
  Ho  Ho12  1  0.154411  0.668688  0.878539  1
  Ho  Ho13  1  0.841021  0.333721  0.377046  1
  Ho  Ho14  1  0.340466  0.166093  0.124356  1
  Ho  Ho15  1  0.339819  0.165222  0.377416  1
  Ho  Ho16  1  0.842689  0.332464  0.125285  1
  Ho  Ho17  1  0.155268  0.668014  0.620727  1
  Ho  Ho18  1  0.658073  0.833440  0.877180  1
  Ho  Ho19  1  0.997836  0.818012  0.403498  1
  Pt  Pt20  1  0.817891  0.642097  0.252548  1
  Pt  Pt21  1  0.311742  0.860797  0.252920  1
  Pt  Pt22  1  0.687679  0.136791  0.749087  1
  Pt  Pt23  1  0.186667  0.363252  0.749367  1
  Pt  Pt24  1  0.547311  0.380112  0.252015  1
  Pt  Pt25  1  0.045029  0.117101  0.251093  1
  Pt  Pt26  1  0.952871  0.873994  0.749053  1
  Pt  Pt27  1  0.452554  0.626216  0.749641  1
  Pt  Pt28  1  0.821905  0.541875  0.538781  1
  Pt  Pt29  1  0.321380  0.961908  0.958819  1
  Pt  Pt30  1  0.684611  0.025118  0.452647  1
  Pt  Pt31  1  0.174265  0.469391  0.046716  1
  Pt  Pt32  1  0.181349  0.475023  0.452339  1
  Pt  Pt33  1  0.684682  0.032321  0.045445  1
  Pt  Pt34  1  0.322208  0.957740  0.539058  1
  Pt  Pt35  1  0.822555  0.538913  0.958397  1
