# generated using pymatgen
data_MgTa2Nb(Pd3Rh)3
_symmetry_space_group_name_H-M   'P 1'
_cell_length_a   5.61278800
_cell_length_b   5.61278751
_cell_length_c   9.07477800
_cell_angle_alpha   90.00000000
_cell_angle_beta   90.00000000
_cell_angle_gamma   119.99999113
_symmetry_Int_Tables_number   1
_chemical_formula_structural   MgTa2Nb(Pd3Rh)3
_chemical_formula_sum   'Mg1 Ta2 Nb1 Pd9 Rh3'
_cell_volume   247.58476633
_cell_formula_units_Z   1
loop_
 _symmetry_equiv_pos_site_id
 _symmetry_equiv_pos_as_xyz
  1  'x, y, z'
loop_
 _atom_site_type_symbol
 _atom_site_label
 _atom_site_symmetry_multiplicity
 _atom_site_fract_x
 _atom_site_fract_y
 _atom_site_fract_z
 _atom_site_occupancy
  Mg  Mg0  1  0.333333  0.666667  0.999948  1
  Ta  Ta1  1  0.666667  0.333333  0.500173  1
  Ta  Ta2  1  0.000000  0.000000  0.261072  1
  Nb  Nb3  1  0.000000  0.000000  0.738600  1
  Pd  Pd4  1  0.833167  0.166833  0.000342  1
  Pd  Pd5  1  0.833167  0.666335  0.000342  1
  Pd  Pd6  1  0.333665  0.166833  0.000342  1
  Pd  Pd7  1  0.997118  0.498560  0.747398  1
  Pd  Pd8  1  0.501440  0.498560  0.747398  1
  Pd  Pd9  1  0.501440  0.002882  0.747398  1
  Pd  Pd10  1  0.997175  0.498589  0.252610  1
  Pd  Pd11  1  0.501411  0.498589  0.252610  1
  Pd  Pd12  1  0.501411  0.002825  0.252610  1
  Rh  Rh13  1  0.167195  0.832805  0.499719  1
  Rh  Rh14  1  0.167195  0.334392  0.499719  1
  Rh  Rh15  1  0.665608  0.832805  0.499719  1
