# generated using pymatgen
data_Dy4MoOsC4
_symmetry_space_group_name_H-M   'P 1'
_cell_length_a   5.10843700
_cell_length_b   6.59153302
_cell_length_c   9.92582208
_cell_angle_alpha   89.20020152
_cell_angle_beta   90.00000000
_cell_angle_gamma   90.00000000
_symmetry_Int_Tables_number   1
_chemical_formula_structural   Dy4MoOsC4
_chemical_formula_sum   'Dy8 Mo2 Os2 C8'
_cell_volume   334.19399805
_cell_formula_units_Z   2
loop_
 _symmetry_equiv_pos_site_id
 _symmetry_equiv_pos_as_xyz
  1  'x, y, z'
loop_
 _atom_site_type_symbol
 _atom_site_label
 _atom_site_symmetry_multiplicity
 _atom_site_fract_x
 _atom_site_fract_y
 _atom_site_fract_z
 _atom_site_occupancy
  Dy  Dy0  1  0.250000  0.680088  0.556914  1
  Dy  Dy1  1  0.750000  0.319912  0.443086  1
  Dy  Dy2  1  0.750000  0.823450  0.057414  1
  Dy  Dy3  1  0.250000  0.176550  0.942586  1
  Dy  Dy4  1  0.250000  0.537535  0.218379  1
  Dy  Dy5  1  0.750000  0.462465  0.781621  1
  Dy  Dy6  1  0.750000  0.969107  0.716517  1
  Dy  Dy7  1  0.250000  0.030893  0.283483  1
  Mo  Mo8  1  0.250000  0.717689  0.866544  1
  Mo  Mo9  1  0.750000  0.282311  0.133456  1
  Os  Os10  1  0.750000  0.778732  0.365730  1
  Os  Os11  1  0.250000  0.221268  0.634270  1
  C  C12  1  0.250000  0.450786  0.756925  1
  C  C13  1  0.750000  0.549214  0.243075  1
  C  C14  1  0.750000  0.044508  0.260494  1
  C  C15  1  0.250000  0.955492  0.739506  1
  C  C16  1  0.250000  0.822778  0.051108  1
  C  C17  1  0.750000  0.177222  0.948892  1
  C  C18  1  0.750000  0.678596  0.547876  1
  C  C19  1  0.250000  0.321404  0.452124  1
