# generated using pymatgen
data_Na4Yb(SiSe3)2
_symmetry_space_group_name_H-M   'P 1'
_cell_length_a   7.30123070
_cell_length_b   7.30123102
_cell_length_c   7.13946100
_cell_angle_alpha   80.98289607
_cell_angle_beta   80.98288807
_cell_angle_gamma   114.56885500
_symmetry_Int_Tables_number   1
_chemical_formula_structural   Na4Yb(SiSe3)2
_chemical_formula_sum   'Na4 Yb1 Si2 Se6'
_cell_volume   331.25922970
_cell_formula_units_Z   1
loop_
 _symmetry_equiv_pos_site_id
 _symmetry_equiv_pos_as_xyz
  1  'x, y, z'
loop_
 _atom_site_type_symbol
 _atom_site_label
 _atom_site_symmetry_multiplicity
 _atom_site_fract_x
 _atom_site_fract_y
 _atom_site_fract_z
 _atom_site_occupancy
  Na  Na0  1  0.512461  0.487539  0.500000  1
  Na  Na1  1  0.356287  0.643713  0.000000  1
  Na  Na2  1  0.684186  0.315814  0.000000  1
  Na  Na3  1  0.048201  0.951799  0.000000  1
  Yb  Yb4  1  0.870479  0.129521  0.500000  1
  Si  Si5  1  0.353190  0.957840  0.444984  1
  Si  Si6  1  0.042160  0.646810  0.555016  1
  Se  Se7  1  0.276818  0.196787  0.262998  1
  Se  Se8  1  0.803213  0.723182  0.737002  1
  Se  Se9  1  0.454514  0.053126  0.718006  1
  Se  Se10  1  0.946874  0.545486  0.281994  1
  Se  Se11  1  0.604830  0.910053  0.250853  1
  Se  Se12  1  0.089947  0.395170  0.749147  1
