# generated using pymatgen
data_Ac12Ni(OsBr4)3
_symmetry_space_group_name_H-M   'P 1'
_cell_length_a   11.01118235
_cell_length_b   11.01118291
_cell_length_c   11.00707217
_cell_angle_alpha   109.40461735
_cell_angle_beta   109.40461525
_cell_angle_gamma   109.49123670
_symmetry_Int_Tables_number   1
_chemical_formula_structural   Ac12Ni(OsBr4)3
_chemical_formula_sum   'Ac12 Ni1 Os3 Br12'
_cell_volume   1028.78071419
_cell_formula_units_Z   1
loop_
 _symmetry_equiv_pos_site_id
 _symmetry_equiv_pos_as_xyz
  1  'x, y, z'
loop_
 _atom_site_type_symbol
 _atom_site_label
 _atom_site_symmetry_multiplicity
 _atom_site_fract_x
 _atom_site_fract_y
 _atom_site_fract_z
 _atom_site_occupancy
  Ac  Ac0  1  0.392226  0.607774  0.000000  1
  Ac  Ac1  1  0.609213  0.390787  0.000000  1
  Ac  Ac2  1  0.643779  0.139746  0.284432  1
  Ac  Ac3  1  0.860254  0.356221  0.715568  1
  Ac  Ac4  1  0.408151  0.393833  0.264895  1
  Ac  Ac5  1  0.125516  0.141336  0.732529  1
  Ac  Ac6  1  0.124872  0.358902  0.514565  1
  Ac  Ac7  1  0.840360  0.609896  0.482375  1
  Ac  Ac8  1  0.606167  0.591849  0.735105  1
  Ac  Ac9  1  0.858664  0.874484  0.267471  1
  Ac  Ac10  1  0.641098  0.875128  0.485435  1
  Ac  Ac11  1  0.390104  0.159640  0.517625  1
  Ni  Ni12  1  0.624608  0.375392  0.500000  1
  Os  Os13  1  0.624845  0.622565  0.252723  1
  Os  Os14  1  0.377435  0.375155  0.747277  1
  Os  Os15  1  0.872917  0.127083  0.500000  1
  Br  Br16  1  0.369082  0.630918  0.500000  1
  Br  Br17  1  0.130683  0.869317  0.500000  1
  Br  Br18  1  0.119763  0.119892  0.239527  1
  Br  Br19  1  0.880108  0.880237  0.760473  1
  Br  Br20  1  0.883663  0.629433  0.003255  1
  Br  Br21  1  0.627279  0.881780  0.996459  1
  Br  Br22  1  0.623149  0.119425  0.753959  1
  Br  Br23  1  0.366359  0.869656  0.246877  1
  Br  Br24  1  0.370567  0.116337  0.996745  1
  Br  Br25  1  0.118220  0.372721  0.003541  1
  Br  Br26  1  0.880575  0.376851  0.246041  1
  Br  Br27  1  0.130344  0.633641  0.753123  1
