# generated using pymatgen
data_Li3Pd3O8
_symmetry_space_group_name_H-M   'P 1'
_cell_length_a   6.09474309
_cell_length_b   6.09613257
_cell_length_c   10.24641161
_cell_angle_alpha   90.00120845
_cell_angle_beta   72.69959891
_cell_angle_gamma   120.00710817
_symmetry_Int_Tables_number   1
_chemical_formula_structural   Li3Pd3O8
_chemical_formula_sum   'Li6 Pd6 O16'
_cell_volume   309.62384141
_cell_formula_units_Z   2
loop_
 _symmetry_equiv_pos_site_id
 _symmetry_equiv_pos_as_xyz
  1  'x, y, z'
loop_
 _atom_site_type_symbol
 _atom_site_label
 _atom_site_symmetry_multiplicity
 _atom_site_fract_x
 _atom_site_fract_y
 _atom_site_fract_z
 _atom_site_occupancy
  Li  Li0  1  0.987471  0.993740  0.019127  1
  Li  Li1  1  0.987359  0.493673  0.519299  1
  Li  Li2  1  0.762847  0.881434  0.355436  1
  Li  Li3  1  0.762774  0.381380  0.855567  1
  Li  Li4  1  0.374952  0.687475  0.937541  1
  Li  Li5  1  0.374917  0.187458  0.437563  1
  Pd  Pd6  1  0.374916  0.437437  0.187646  1
  Pd  Pd7  1  0.374920  0.937497  0.187646  1
  Pd  Pd8  1  0.874899  0.437457  0.187679  1
  Pd  Pd9  1  0.374924  0.937393  0.687640  1
  Pd  Pd10  1  0.374953  0.437518  0.687620  1
  Pd  Pd11  1  0.874872  0.937422  0.687661  1
  O  O12  1  0.614035  0.807008  0.579001  1
  O  O13  1  0.614096  0.307054  0.078886  1
  O  O14  1  0.135772  0.567892  0.296231  1
  O  O15  1  0.135729  0.067854  0.796316  1
  O  O16  1  0.158368  0.579197  0.800237  1
  O  O17  1  0.158460  0.079239  0.300176  1
  O  O18  1  0.620500  0.579157  0.800272  1
  O  O19  1  0.620507  0.079226  0.300202  1
  O  O20  1  0.620509  0.041329  0.800266  1
  O  O21  1  0.620506  0.541294  0.300203  1
  O  O22  1  0.129356  0.333224  0.074570  1
  O  O23  1  0.129351  0.833278  0.574665  1
  O  O24  1  0.129353  0.796142  0.074571  1
  O  O25  1  0.129338  0.296052  0.574669  1
  O  O26  1  0.592230  0.796121  0.074613  1
  O  O27  1  0.592084  0.296052  0.574702  1
