# generated using pymatgen
data_La6Pr4Al4(OsRu)3
_symmetry_space_group_name_H-M   'P 1'
_cell_length_a   8.67139047
_cell_length_b   8.65634610
_cell_length_c   8.67139084
_cell_angle_alpha   109.20137156
_cell_angle_beta   109.95429759
_cell_angle_gamma   109.32857279
_symmetry_Int_Tables_number   1
_chemical_formula_structural   La6Pr4Al4(OsRu)3
_chemical_formula_sum   'La6 Pr4 Al4 Os3 Ru3'
_cell_volume   500.60503694
_cell_formula_units_Z   1
loop_
 _symmetry_equiv_pos_site_id
 _symmetry_equiv_pos_as_xyz
  1  'x, y, z'
loop_
 _atom_site_type_symbol
 _atom_site_label
 _atom_site_symmetry_multiplicity
 _atom_site_fract_x
 _atom_site_fract_y
 _atom_site_fract_z
 _atom_site_occupancy
  La  La0  1  0.248151  0.684324  0.435824  1
  La  La1  1  0.751501  0.815676  0.063827  1
  La  La2  1  0.437706  0.250000  0.687706  1
  La  La3  1  0.684689  0.436002  0.250534  1
  La  La4  1  0.063059  0.750000  0.813059  1
  La  La5  1  0.814531  0.063998  0.748687  1
  Pr  Pr6  1  0.214407  0.215055  0.215292  1
  Pr  Pr7  1  0.499485  0.999301  0.285169  1
  Pr  Pr8  1  0.285868  0.500699  0.000183  1
  Pr  Pr9  1  0.000237  0.284945  0.499352  1
  Al  Al10  1  0.588014  0.587166  0.588818  1
  Al  Al11  1  0.499896  0.000851  0.912236  1
  Al  Al12  1  0.911384  0.499149  0.999046  1
  Al  Al13  1  0.001652  0.912834  0.500848  1
  Os  Os14  1  0.250032  0.115115  0.864563  1
  Os  Os15  1  0.749449  0.384885  0.634917  1
  Os  Os16  1  0.863693  0.250000  0.113694  1
  Ru  Ru17  1  0.112435  0.862795  0.249895  1
  Ru  Ru18  1  0.636715  0.750000  0.386715  1
  Ru  Ru19  1  0.387099  0.637204  0.749639  1
