# generated using pymatgen
data_Ac4PrU5O19
_symmetry_space_group_name_H-M   'P 1'
_cell_length_a   6.88459973
_cell_length_b   7.79420636
_cell_length_c   8.73737500
_cell_angle_alpha   101.29643411
_cell_angle_beta   97.70221494
_cell_angle_gamma   107.17680234
_symmetry_Int_Tables_number   1
_chemical_formula_structural   Ac4PrU5O19
_chemical_formula_sum   'Ac4 Pr1 U5 O19'
_cell_volume   429.94755123
_cell_formula_units_Z   1
loop_
 _symmetry_equiv_pos_site_id
 _symmetry_equiv_pos_as_xyz
  1  'x, y, z'
loop_
 _atom_site_type_symbol
 _atom_site_label
 _atom_site_symmetry_multiplicity
 _atom_site_fract_x
 _atom_site_fract_y
 _atom_site_fract_z
 _atom_site_occupancy
  Ac  Ac0  1  0.799505  0.099914  0.600848  1
  Ac  Ac1  1  0.387613  0.295236  0.796381  1
  Ac  Ac2  1  0.605903  0.703298  0.206033  1
  Ac  Ac3  1  0.000384  0.503188  0.999257  1
  Pr  Pr4  1  0.208002  0.914184  0.386685  1
  U  U5  1  0.782662  0.598897  0.600228  1
  U  U6  1  0.601391  0.201178  0.195212  1
  U  U7  1  0.999661  0.004909  0.001609  1
  U  U8  1  0.410415  0.808924  0.812819  1
  U  U9  1  0.199385  0.388468  0.389834  1
  O  O10  1  0.341698  0.051697  0.955945  1
  O  O11  1  0.424176  0.982478  0.649256  1
  O  O12  1  0.039073  0.208735  0.863579  1
  O  O13  1  0.731898  0.392441  0.732800  1
  O  O14  1  0.149041  0.182189  0.526338  1
  O  O15  1  0.361283  0.600251  0.947370  1
  O  O16  1  0.952659  0.264786  0.166217  1
  O  O17  1  0.905793  0.397268  0.465058  1
  O  O18  1  0.745918  0.854053  0.764425  1
  O  O19  1  0.546830  0.452735  0.365918  1
  O  O20  1  0.402089  0.555710  0.628943  1
  O  O21  1  0.256453  0.136360  0.233411  1
  O  O22  1  0.065251  0.717564  0.790192  1
  O  O23  1  0.642699  0.404479  0.060798  1
  O  O24  1  0.875045  0.800036  0.468285  1
  O  O25  1  0.244834  0.617924  0.281340  1
  O  O26  1  0.960054  0.795588  0.132663  1
  O  O27  1  0.562432  0.005391  0.341530  1
  O  O28  1  0.661769  0.949761  0.045264  1
