# generated using pymatgen
data_CsTi2RhS6
_symmetry_space_group_name_H-M   'P 1'
_cell_length_a   9.40268221
_cell_length_b   9.40268105
_cell_length_c   9.40268069
_cell_angle_alpha   36.62644900
_cell_angle_beta   36.62645939
_cell_angle_gamma   36.62645417
_symmetry_Int_Tables_number   1
_chemical_formula_structural   CsTi2RhS6
_chemical_formula_sum   'Cs1 Ti2 Rh1 S6'
_cell_volume   264.93573270
_cell_formula_units_Z   1
loop_
 _symmetry_equiv_pos_site_id
 _symmetry_equiv_pos_as_xyz
  1  'x, y, z'
loop_
 _atom_site_type_symbol
 _atom_site_label
 _atom_site_symmetry_multiplicity
 _atom_site_fract_x
 _atom_site_fract_y
 _atom_site_fract_z
 _atom_site_occupancy
  Cs  Cs0  1  0.000135  0.000135  0.000135  1
  Ti  Ti1  1  0.500585  0.500585  0.500585  1
  Ti  Ti2  1  0.833435  0.833435  0.833435  1
  Rh  Rh3  1  0.166199  0.166199  0.166199  1
  S  S4  1  0.549862  0.221740  0.890314  1
  S  S5  1  0.890314  0.549862  0.221740  1
  S  S6  1  0.221740  0.890314  0.549862  1
  S  S7  1  0.778209  0.112864  0.446657  1
  S  S8  1  0.112864  0.446657  0.778209  1
  S  S9  1  0.446657  0.778209  0.112864  1
