# generated using pymatgen
data_Pr10GaSi4Au
_symmetry_space_group_name_H-M   'P 1'
_cell_length_a   7.80720400
_cell_length_b   9.20849230
_cell_length_c   7.80720400
_cell_angle_alpha   115.08189574
_cell_angle_beta   90.00000000
_cell_angle_gamma   115.08189574
_symmetry_Int_Tables_number   1
_chemical_formula_structural   Pr10GaSi4Au
_chemical_formula_sum   'Pr10 Ga1 Si4 Au1'
_cell_volume   449.23272840
_cell_formula_units_Z   1
loop_
 _symmetry_equiv_pos_site_id
 _symmetry_equiv_pos_as_xyz
  1  'x, y, z'
loop_
 _atom_site_type_symbol
 _atom_site_label
 _atom_site_symmetry_multiplicity
 _atom_site_fract_x
 _atom_site_fract_y
 _atom_site_fract_z
 _atom_site_occupancy
  Pr  Pr0  1  0.975810  0.951621  0.975810  1
  Pr  Pr1  1  0.524190  0.048379  0.524190  1
  Pr  Pr2  1  0.528159  0.718326  0.673765  1
  Pr  Pr3  1  0.190168  0.718326  0.044562  1
  Pr  Pr4  1  0.673765  0.718326  0.190168  1
  Pr  Pr5  1  0.044562  0.718326  0.528159  1
  Pr  Pr6  1  0.455438  0.281674  0.309832  1
  Pr  Pr7  1  0.826235  0.281674  0.971841  1
  Pr  Pr8  1  0.309832  0.281674  0.826235  1
  Pr  Pr9  1  0.971841  0.281674  0.455438  1
  Ga  Ga10  1  0.750000  0.500000  0.750000  1
  Si  Si11  1  0.886002  0.000000  0.613998  1
  Si  Si12  1  0.113998  0.000000  0.386002  1
  Si  Si13  1  0.613998  0.000000  0.113998  1
  Si  Si14  1  0.386002  0.000000  0.886002  1
  Au  Au15  1  0.250000  0.500000  0.250000  1
