# generated using pymatgen
data_Nd4Ho3Er(B6Os)4
_symmetry_space_group_name_H-M   'P 1'
_cell_length_a   3.69892000
_cell_length_b   9.22409111
_cell_length_c   11.65506500
_cell_angle_alpha   90.01006667
_cell_angle_beta   90.00000000
_cell_angle_gamma   90.00000000
_symmetry_Int_Tables_number   1
_chemical_formula_structural   Nd4Ho3Er(B6Os)4
_chemical_formula_sum   'Nd4 Ho3 Er1 B24 Os4'
_cell_volume   397.66119723
_cell_formula_units_Z   1
loop_
 _symmetry_equiv_pos_site_id
 _symmetry_equiv_pos_as_xyz
  1  'x, y, z'
loop_
 _atom_site_type_symbol
 _atom_site_label
 _atom_site_symmetry_multiplicity
 _atom_site_fract_x
 _atom_site_fract_y
 _atom_site_fract_z
 _atom_site_occupancy
  Nd  Nd0  1  0.000000  0.322532  0.414298  1
  Nd  Nd1  1  0.000000  0.677512  0.585790  1
  Nd  Nd2  1  0.000000  0.822386  0.085679  1
  Nd  Nd3  1  0.000000  0.177599  0.914191  1
  Ho  Ho4  1  0.000000  0.944216  0.372442  1
  Ho  Ho5  1  0.000000  0.055835  0.627682  1
  Ho  Ho6  1  0.000000  0.444248  0.127355  1
  Er  Er7  1  0.000000  0.555835  0.872384  1
  B  B8  1  0.500000  0.556117  0.430370  1
  B  B9  1  0.500000  0.444002  0.569761  1
  B  B10  1  0.500000  0.056055  0.069552  1
  B  B11  1  0.500000  0.943658  0.930379  1
  B  B12  1  0.500000  0.749395  0.417313  1
  B  B13  1  0.500000  0.250718  0.582779  1
  B  B14  1  0.500000  0.249453  0.082591  1
  B  B15  1  0.500000  0.750122  0.917331  1
  B  B16  1  0.500000  0.790413  0.266976  1
  B  B17  1  0.500000  0.209782  0.733090  1
  B  B18  1  0.500000  0.290477  0.232921  1
  B  B19  1  0.500000  0.709177  0.767100  1
  B  B20  1  0.500000  0.630703  0.185369  1
  B  B21  1  0.500000  0.369602  0.814744  1
  B  B22  1  0.500000  0.130814  0.314521  1
  B  B23  1  0.500000  0.869082  0.685536  1
  B  B24  1  0.500000  0.985624  0.214105  1
  B  B25  1  0.500000  0.014239  0.785938  1
  B  B26  1  0.500000  0.485561  0.285806  1
  B  B27  1  0.500000  0.514710  0.714429  1
  B  B28  1  0.500000  0.602449  0.027713  1
  B  B29  1  0.500000  0.397840  0.971620  1
  B  B30  1  0.500000  0.102861  0.471884  1
  B  B31  1  0.500000  0.897167  0.528217  1
  Os  Os32  1  0.000000  0.639211  0.319523  1
  Os  Os33  1  0.000000  0.360996  0.680624  1
  Os  Os34  1  0.000000  0.139201  0.180331  1
  Os  Os35  1  0.000000  0.860406  0.819654  1
