# generated using pymatgen
data_TbYb3Sb6Rh7
_symmetry_space_group_name_H-M   'P 1'
_cell_length_a   7.58713881
_cell_length_b   7.58713975
_cell_length_c   7.59639900
_cell_angle_alpha   109.49594404
_cell_angle_beta   109.49594656
_cell_angle_gamma   109.44648467
_symmetry_Int_Tables_number   1
_chemical_formula_structural   TbYb3Sb6Rh7
_chemical_formula_sum   'Tb1 Yb3 Sb6 Rh7'
_cell_volume   336.51883838
_cell_formula_units_Z   1
loop_
 _symmetry_equiv_pos_site_id
 _symmetry_equiv_pos_as_xyz
  1  'x, y, z'
loop_
 _atom_site_type_symbol
 _atom_site_label
 _atom_site_symmetry_multiplicity
 _atom_site_fract_x
 _atom_site_fract_y
 _atom_site_fract_z
 _atom_site_occupancy
  Tb  Tb0  1  0.000000  0.000000  0.500000  1
  Yb  Yb1  1  0.500000  0.000000  0.000000  1
  Yb  Yb2  1  0.000000  0.500000  0.000000  1
  Yb  Yb3  1  0.500000  0.500000  0.500000  1
  Sb  Sb4  1  0.319328  0.000000  0.315955  1
  Sb  Sb5  1  0.000000  0.680672  0.684045  1
  Sb  Sb6  1  0.680672  0.680672  0.996627  1
  Sb  Sb7  1  0.680672  0.000000  0.684045  1
  Sb  Sb8  1  0.000000  0.319328  0.315955  1
  Sb  Sb9  1  0.319328  0.319328  0.003373  1
  Rh  Rh10  1  0.249020  0.498040  0.749020  1
  Rh  Rh11  1  0.498040  0.249020  0.749020  1
  Rh  Rh12  1  0.750980  0.249020  0.500000  1
  Rh  Rh13  1  0.501960  0.750980  0.250980  1
  Rh  Rh14  1  0.000000  0.000000  0.000000  1
  Rh  Rh15  1  0.249020  0.750980  0.500000  1
  Rh  Rh16  1  0.750980  0.501960  0.250980  1
