# generated using pymatgen
data_PrSm2(BN2)2
_symmetry_space_group_name_H-M   'P 1'
_cell_length_a   3.53953245
_cell_length_b   6.27155029
_cell_length_c   6.46138181
_cell_angle_alpha   119.03280789
_cell_angle_beta   105.89641716
_cell_angle_gamma   89.99999647
_symmetry_Int_Tables_number   1
_chemical_formula_structural   PrSm2(BN2)2
_chemical_formula_sum   'Pr1 Sm2 B2 N4'
_cell_volume   119.09639059
_cell_formula_units_Z   1
loop_
 _symmetry_equiv_pos_site_id
 _symmetry_equiv_pos_as_xyz
  1  'x, y, z'
loop_
 _atom_site_type_symbol
 _atom_site_label
 _atom_site_symmetry_multiplicity
 _atom_site_fract_x
 _atom_site_fract_y
 _atom_site_fract_z
 _atom_site_occupancy
  Pr  Pr0  1  0.000000  0.000000  0.000000  1
  Sm  Sm1  1  0.201787  0.701787  0.403574  1
  Sm  Sm2  1  0.798213  0.298213  0.596426  1
  B  B3  1  0.500000  0.357194  0.000000  1
  B  B4  1  0.500000  0.642807  0.000000  1
  N  N5  1  0.621053  0.366453  0.242106  1
  N  N6  1  0.621053  0.875654  0.242106  1
  N  N7  1  0.378947  0.124347  0.757894  1
  N  N8  1  0.378947  0.633547  0.757894  1
