# generated using pymatgen
data_Lu6Fe17P12Pt
_symmetry_space_group_name_H-M   'P 1'
_cell_length_a   3.67701100
_cell_length_b   10.50390200
_cell_length_c   12.18308600
_cell_angle_alpha   90.00000000
_cell_angle_beta   90.00000000
_cell_angle_gamma   90.00000000
_symmetry_Int_Tables_number   1
_chemical_formula_structural   Lu6Fe17P12Pt
_chemical_formula_sum   'Lu6 Fe17 P12 Pt1'
_cell_volume   470.54688220
_cell_formula_units_Z   1
loop_
 _symmetry_equiv_pos_site_id
 _symmetry_equiv_pos_as_xyz
  1  'x, y, z'
loop_
 _atom_site_type_symbol
 _atom_site_label
 _atom_site_symmetry_multiplicity
 _atom_site_fract_x
 _atom_site_fract_y
 _atom_site_fract_z
 _atom_site_occupancy
  Lu  Lu0  1  0.000000  0.500000  0.526012  1
  Lu  Lu1  1  0.500000  0.000000  0.482201  1
  Lu  Lu2  1  0.500000  0.813109  0.204368  1
  Lu  Lu3  1  0.500000  0.186891  0.204368  1
  Lu  Lu4  1  0.000000  0.678892  0.792410  1
  Lu  Lu5  1  0.000000  0.321108  0.792410  1
  Fe  Fe6  1  0.500000  0.500000  0.154257  1
  Fe  Fe7  1  0.000000  0.000000  0.846133  1
  Fe  Fe8  1  0.500000  0.500000  0.699311  1
  Fe  Fe9  1  0.000000  0.500000  0.988775  1
  Fe  Fe10  1  0.500000  0.000000  0.008387  1
  Fe  Fe11  1  0.500000  0.328617  0.996149  1
  Fe  Fe12  1  0.500000  0.671383  0.996149  1
  Fe  Fe13  1  0.000000  0.174724  0.002312  1
  Fe  Fe14  1  0.000000  0.825276  0.002312  1
  Fe  Fe15  1  0.500000  0.301938  0.432051  1
  Fe  Fe16  1  0.500000  0.698062  0.432051  1
  Fe  Fe17  1  0.000000  0.200426  0.570940  1
  Fe  Fe18  1  0.000000  0.799574  0.570940  1
  Fe  Fe19  1  0.500000  0.881750  0.708667  1
  Fe  Fe20  1  0.500000  0.118250  0.708667  1
  Fe  Fe21  1  0.000000  0.617055  0.291145  1
  Fe  Fe22  1  0.000000  0.382945  0.291145  1
  P  P23  1  0.500000  0.500000  0.881734  1
  P  P24  1  0.000000  0.000000  0.106233  1
  P  P25  1  0.500000  0.500000  0.342993  1
  P  P26  1  0.000000  0.000000  0.659213  1
  P  P27  1  0.500000  0.307607  0.615971  1
  P  P28  1  0.500000  0.692393  0.615971  1
  P  P29  1  0.000000  0.203055  0.388988  1
  P  P30  1  0.000000  0.796945  0.388988  1
  P  P31  1  0.500000  0.849419  0.886790  1
  P  P32  1  0.500000  0.150581  0.886790  1
  P  P33  1  0.000000  0.647814  0.112282  1
  P  P34  1  0.000000  0.352186  0.112282  1
  Pt  Pt35  1  0.000000  0.000000  0.300604  1
