# generated using pymatgen
data_Zr8In3HgAu8
_symmetry_space_group_name_H-M   'P 1'
_cell_length_a   7.64674100
_cell_length_b   7.64674100
_cell_length_c   7.10488700
_cell_angle_alpha   90.00000000
_cell_angle_beta   90.00000000
_cell_angle_gamma   90.00000000
_symmetry_Int_Tables_number   1
_chemical_formula_structural   Zr8In3HgAu8
_chemical_formula_sum   'Zr8 In3 Hg1 Au8'
_cell_volume   415.44155607
_cell_formula_units_Z   1
loop_
 _symmetry_equiv_pos_site_id
 _symmetry_equiv_pos_as_xyz
  1  'x, y, z'
loop_
 _atom_site_type_symbol
 _atom_site_label
 _atom_site_symmetry_multiplicity
 _atom_site_fract_x
 _atom_site_fract_y
 _atom_site_fract_z
 _atom_site_occupancy
  Zr  Zr0  1  0.145843  0.146652  0.000550  1
  Zr  Zr1  1  0.854157  0.853348  0.000550  1
  Zr  Zr2  1  0.646652  0.354157  0.499450  1
  Zr  Zr3  1  0.353348  0.645843  0.499450  1
  Zr  Zr4  1  0.694590  0.301261  0.000978  1
  Zr  Zr5  1  0.305410  0.698739  0.000978  1
  Zr  Zr6  1  0.801261  0.805410  0.499022  1
  Zr  Zr7  1  0.198739  0.194590  0.499022  1
  In  In8  1  0.500000  0.000000  0.750000  1
  In  In9  1  0.000000  0.500000  0.250000  1
  In  In10  1  0.000000  0.500000  0.750000  1
  Hg  Hg11  1  0.500000  0.000000  0.250000  1
  Au  Au12  1  0.369669  0.372269  0.204117  1
  Au  Au13  1  0.629678  0.628921  0.794506  1
  Au  Au14  1  0.630331  0.627731  0.204117  1
  Au  Au15  1  0.871079  0.129678  0.705494  1
  Au  Au16  1  0.872269  0.130331  0.295883  1
  Au  Au17  1  0.370322  0.371079  0.794506  1
  Au  Au18  1  0.127731  0.869669  0.295883  1
  Au  Au19  1  0.128921  0.870322  0.705494  1
