# generated using pymatgen
data_Pr7OsI12
_symmetry_space_group_name_H-M   'P 1'
_cell_length_a   10.09866410
_cell_length_b   10.09866382
_cell_length_c   10.09866452
_cell_angle_alpha   107.28666459
_cell_angle_beta   107.28665838
_cell_angle_gamma   107.28666374
_symmetry_Int_Tables_number   1
_chemical_formula_structural   Pr7OsI12
_chemical_formula_sum   'Pr7 Os1 I12'
_cell_volume   850.90793055
_cell_formula_units_Z   1
loop_
 _symmetry_equiv_pos_site_id
 _symmetry_equiv_pos_as_xyz
  1  'x, y, z'
loop_
 _atom_site_type_symbol
 _atom_site_label
 _atom_site_symmetry_multiplicity
 _atom_site_fract_x
 _atom_site_fract_y
 _atom_site_fract_z
 _atom_site_occupancy
  Pr  Pr0  1  0.805934  0.530169  0.600792  1
  Pr  Pr1  1  0.530169  0.600792  0.805934  1
  Pr  Pr2  1  0.194066  0.469831  0.399208  1
  Pr  Pr3  1  0.469831  0.399208  0.194066  1
  Pr  Pr4  1  0.000000  0.000000  0.000000  1
  Pr  Pr5  1  0.600792  0.805934  0.530169  1
  Pr  Pr6  1  0.399208  0.194066  0.469831  1
  Os  Os7  1  0.500000  0.500000  0.500000  1
  I  I8  1  0.728779  0.184854  0.575384  1
  I  I9  1  0.970886  0.890984  0.657686  1
  I  I10  1  0.575384  0.728779  0.184854  1
  I  I11  1  0.109016  0.342314  0.029114  1
  I  I12  1  0.657686  0.970886  0.890984  1
  I  I13  1  0.890984  0.657686  0.970886  1
  I  I14  1  0.029114  0.109016  0.342314  1
  I  I15  1  0.815146  0.424616  0.271221  1
  I  I16  1  0.342314  0.029114  0.109016  1
  I  I17  1  0.271221  0.815146  0.424616  1
  I  I18  1  0.184854  0.575384  0.728779  1
  I  I19  1  0.424616  0.271221  0.815146  1
