# generated using pymatgen
data_K2LaCeB24
_symmetry_space_group_name_H-M   'P 1'
_cell_length_a   4.18611800
_cell_length_b   5.91321200
_cell_length_c   11.82214000
_cell_angle_alpha   90.00000000
_cell_angle_beta   90.00000000
_cell_angle_gamma   90.00000000
_symmetry_Int_Tables_number   1
_chemical_formula_structural   K2LaCeB24
_chemical_formula_sum   'K2 La1 Ce1 B24'
_cell_volume   292.63819800
_cell_formula_units_Z   1
loop_
 _symmetry_equiv_pos_site_id
 _symmetry_equiv_pos_as_xyz
  1  'x, y, z'
loop_
 _atom_site_type_symbol
 _atom_site_label
 _atom_site_symmetry_multiplicity
 _atom_site_fract_x
 _atom_site_fract_y
 _atom_site_fract_z
 _atom_site_occupancy
  K  K0  1  0.000000  0.500000  0.249911  1
  K  K1  1  0.000000  0.500000  0.750089  1
  La  La2  1  0.000000  0.000000  0.000000  1
  Ce  Ce3  1  0.000000  0.000000  0.500000  1
  B  B4  1  0.201966  0.500000  0.500000  1
  B  B5  1  0.202207  0.000000  0.748832  1
  B  B6  1  0.202560  0.500000  0.000000  1
  B  B7  1  0.202207  0.000000  0.251168  1
  B  B8  1  0.500000  0.648332  0.574786  1
  B  B9  1  0.500000  0.149634  0.823464  1
  B  B10  1  0.500000  0.648248  0.074962  1
  B  B11  1  0.500000  0.149775  0.324886  1
  B  B12  1  0.500000  0.351668  0.574786  1
  B  B13  1  0.500000  0.850366  0.823464  1
  B  B14  1  0.500000  0.351752  0.074962  1
  B  B15  1  0.500000  0.850225  0.324886  1
  B  B16  1  0.500000  0.351668  0.425214  1
  B  B17  1  0.500000  0.850225  0.675114  1
  B  B18  1  0.500000  0.351752  0.925038  1
  B  B19  1  0.500000  0.850366  0.176536  1
  B  B20  1  0.500000  0.648332  0.425214  1
  B  B21  1  0.500000  0.149775  0.675114  1
  B  B22  1  0.500000  0.648248  0.925038  1
  B  B23  1  0.500000  0.149634  0.176536  1
  B  B24  1  0.798034  0.500000  0.500000  1
  B  B25  1  0.797793  0.000000  0.748832  1
  B  B26  1  0.797440  0.500000  0.000000  1
  B  B27  1  0.797793  0.000000  0.251168  1
