# generated using pymatgen
data_Tm12Co3NiBiOs
_symmetry_space_group_name_H-M   'P 1'
_cell_length_a   8.20389833
_cell_length_b   8.20401262
_cell_length_c   8.20389728
_cell_angle_alpha   110.04172379
_cell_angle_beta   111.54343047
_cell_angle_gamma   106.86277735
_symmetry_Int_Tables_number   1
_chemical_formula_structural   Tm12Co3NiBiOs
_chemical_formula_sum   'Tm12 Co3 Ni1 Bi1 Os1'
_cell_volume   424.32416700
_cell_formula_units_Z   1
loop_
 _symmetry_equiv_pos_site_id
 _symmetry_equiv_pos_as_xyz
  1  'x, y, z'
loop_
 _atom_site_type_symbol
 _atom_site_label
 _atom_site_symmetry_multiplicity
 _atom_site_fract_x
 _atom_site_fract_y
 _atom_site_fract_z
 _atom_site_occupancy
  Tm  Tm0  1  0.280763  0.177656  0.458430  1
  Tm  Tm1  1  0.721740  0.819662  0.541438  1
  Tm  Tm2  1  0.278225  0.819662  0.097921  1
  Tm  Tm3  1  0.719225  0.177656  0.896894  1
  Tm  Tm4  1  0.626746  0.318136  0.312836  1
  Tm  Tm5  1  0.373255  0.686145  0.691301  1
  Tm  Tm6  1  0.005301  0.318136  0.691390  1
  Tm  Tm7  1  0.994844  0.686145  0.312890  1
  Tm  Tm8  1  0.219299  0.414408  0.195110  1
  Tm  Tm9  1  0.781770  0.586729  0.804956  1
  Tm  Tm10  1  0.218205  0.023150  0.804945  1
  Tm  Tm11  1  0.780738  0.975840  0.195102  1
  Co  Co12  1  0.000005  0.640246  0.640240  1
  Co  Co13  1  0.386901  0.885446  0.498544  1
  Co  Co14  1  0.612978  0.111601  0.498623  1
  Ni  Ni15  1  0.999987  0.359703  0.359716  1
  Bi  Bi16  1  0.500007  0.499153  0.999146  1
  Os  Os17  1  0.000011  0.000527  0.000517  1
