# generated using pymatgen
data_Yb3Zn3N
_symmetry_space_group_name_H-M   'P 1'
_cell_length_a   9.08845669
_cell_length_b   9.08845704
_cell_length_c   9.08845600
_cell_angle_alpha   59.99999650
_cell_angle_beta   59.99999524
_cell_angle_gamma   60.00000018
_symmetry_Int_Tables_number   1
_chemical_formula_structural   Yb3Zn3N
_chemical_formula_sum   'Yb12 Zn12 N4'
_cell_volume   530.82990982
_cell_formula_units_Z   4
loop_
 _symmetry_equiv_pos_site_id
 _symmetry_equiv_pos_as_xyz
  1  'x, y, z'
loop_
 _atom_site_type_symbol
 _atom_site_label
 _atom_site_symmetry_multiplicity
 _atom_site_fract_x
 _atom_site_fract_y
 _atom_site_fract_z
 _atom_site_occupancy
  Yb  Yb0  1  0.803651  0.196349  0.196349  1
  Yb  Yb1  1  0.196349  0.803651  0.196349  1
  Yb  Yb2  1  0.803651  0.803651  0.196349  1
  Yb  Yb3  1  0.196349  0.803651  0.803651  1
  Yb  Yb4  1  0.803651  0.196349  0.803651  1
  Yb  Yb5  1  0.196349  0.196349  0.803651  1
  Yb  Yb6  1  0.446349  0.053651  0.053651  1
  Yb  Yb7  1  0.053651  0.446349  0.053651  1
  Yb  Yb8  1  0.446349  0.446349  0.053651  1
  Yb  Yb9  1  0.053651  0.446349  0.446349  1
  Yb  Yb10  1  0.446349  0.053651  0.446349  1
  Yb  Yb11  1  0.053651  0.053651  0.446349  1
  Zn  Zn12  1  0.425182  0.425182  0.724454  1
  Zn  Zn13  1  0.425182  0.425182  0.425182  1
  Zn  Zn14  1  0.724454  0.425182  0.425182  1
  Zn  Zn15  1  0.425182  0.724454  0.425182  1
  Zn  Zn16  1  0.824818  0.824818  0.525546  1
  Zn  Zn17  1  0.824818  0.824818  0.824818  1
  Zn  Zn18  1  0.525546  0.824818  0.824818  1
  Zn  Zn19  1  0.824818  0.525546  0.824818  1
  Zn  Zn20  1  0.625000  0.625000  0.125000  1
  Zn  Zn21  1  0.625000  0.625000  0.625000  1
  Zn  Zn22  1  0.125000  0.625000  0.625000  1
  Zn  Zn23  1  0.625000  0.125000  0.625000  1
  N  N24  1  0.125000  0.125000  0.625000  1
  N  N25  1  0.125000  0.125000  0.125000  1
  N  N26  1  0.625000  0.125000  0.125000  1
  N  N27  1  0.125000  0.625000  0.125000  1
