# generated using pymatgen
data_NpUCl28
_symmetry_space_group_name_H-M   'P 1'
_cell_length_a   15.61776368
_cell_length_b   16.05339633
_cell_length_c   9.72562688
_cell_angle_alpha   69.68999246
_cell_angle_beta   74.57675572
_cell_angle_gamma   35.85002727
_symmetry_Int_Tables_number   1
_chemical_formula_structural   NpUCl28
_chemical_formula_sum   'Np1 U1 Cl28'
_cell_volume   1338.76944099
_cell_formula_units_Z   1
loop_
 _symmetry_equiv_pos_site_id
 _symmetry_equiv_pos_as_xyz
  1  'x, y, z'
loop_
 _atom_site_type_symbol
 _atom_site_label
 _atom_site_symmetry_multiplicity
 _atom_site_fract_x
 _atom_site_fract_y
 _atom_site_fract_z
 _atom_site_occupancy
  Np  Np0  1  0.877249  0.877249  0.122751  1
  U  U1  1  0.127588  0.127588  0.372412  1
  Cl  Cl2  1  0.620736  0.849593  0.570211  1
  Cl  Cl3  1  0.677881  0.291877  0.628737  1
  Cl  Cl4  1  0.849593  0.620736  0.959459  1
  Cl  Cl5  1  0.291877  0.677881  0.401506  1
  Cl  Cl6  1  0.066048  0.067363  0.252459  1
  Cl  Cl7  1  0.185115  0.191430  0.492688  1
  Cl  Cl8  1  0.191430  0.185115  0.130767  1
  Cl  Cl9  1  0.913684  0.841988  0.378482  1
  Cl  Cl10  1  0.142222  0.464903  0.807327  1
  Cl  Cl11  1  0.637454  0.993838  0.179424  1
  Cl  Cl12  1  0.308132  0.347349  0.936538  1
  Cl  Cl13  1  0.744769  0.646026  0.583837  1
  Cl  Cl14  1  0.839432  0.313805  0.905922  1
  Cl  Cl15  1  0.443914  0.662571  0.107179  1
  Cl  Cl16  1  0.347349  0.308132  0.407980  1
  Cl  Cl17  1  0.383150  0.870938  0.410371  1
  Cl  Cl18  1  0.662571  0.443914  0.786337  1
  Cl  Cl19  1  0.993838  0.637454  0.189284  1
  Cl  Cl20  1  0.666165  0.222746  0.507087  1
  Cl  Cl21  1  0.464903  0.142222  0.585546  1
  Cl  Cl22  1  0.115481  0.762458  0.059890  1
  Cl  Cl23  1  0.646026  0.744769  0.025369  1
  Cl  Cl24  1  0.762458  0.115481  0.062169  1
  Cl  Cl25  1  0.067363  0.066048  0.614132  1
  Cl  Cl26  1  0.313805  0.839432  0.940842  1
  Cl  Cl27  1  0.870938  0.383150  0.335543  1
  Cl  Cl28  1  0.222746  0.666165  0.604003  1
  Cl  Cl29  1  0.841988  0.913684  0.865846  1
