# generated using pymatgen
data_Hf5PaRh10
_symmetry_space_group_name_H-M   'P 1'
_cell_length_a   5.67931256
_cell_length_b   11.09514273
_cell_length_c   4.30384800
_cell_angle_alpha   90.00000000
_cell_angle_beta   90.00000000
_cell_angle_gamma   90.34170798
_symmetry_Int_Tables_number   1
_chemical_formula_structural   Hf5PaRh10
_chemical_formula_sum   'Hf5 Pa1 Rh10'
_cell_volume   271.19261902
_cell_formula_units_Z   1
loop_
 _symmetry_equiv_pos_site_id
 _symmetry_equiv_pos_as_xyz
  1  'x, y, z'
loop_
 _atom_site_type_symbol
 _atom_site_label
 _atom_site_symmetry_multiplicity
 _atom_site_fract_x
 _atom_site_fract_y
 _atom_site_fract_z
 _atom_site_occupancy
  Hf  Hf0  1  0.988645  0.992280  0.000000  1
  Hf  Hf1  1  0.501067  0.503324  0.000000  1
  Hf  Hf2  1  0.845159  0.360150  0.500000  1
  Hf  Hf3  1  0.156433  0.646025  0.500000  1
  Hf  Hf4  1  0.655639  0.848379  0.500000  1
  Pa  Pa5  1  0.343394  0.146829  0.500000  1
  Rh  Rh6  1  0.503216  0.994873  0.000000  1
  Rh  Rh7  1  0.096385  0.246138  0.000000  1
  Rh  Rh8  1  0.598521  0.258162  0.000000  1
  Rh  Rh9  1  0.000901  0.502489  0.000000  1
  Rh  Rh10  1  0.398207  0.740786  0.000000  1
  Rh  Rh11  1  0.899140  0.756907  0.000000  1
  Rh  Rh12  1  0.822988  0.108485  0.500000  1
  Rh  Rh13  1  0.321069  0.395244  0.500000  1
  Rh  Rh14  1  0.684380  0.607181  0.500000  1
  Rh  Rh15  1  0.184861  0.892745  0.500000  1
