# generated using pymatgen
data_Tm(ReO4)3
_symmetry_space_group_name_H-M   'P 1'
_cell_length_a   10.19803000
_cell_length_b   10.19802996
_cell_length_c   6.11768600
_cell_angle_alpha   90.00000000
_cell_angle_beta   90.00000000
_cell_angle_gamma   120.00000014
_symmetry_Int_Tables_number   1
_chemical_formula_structural   Tm(ReO4)3
_chemical_formula_sum   'Tm2 Re6 O24'
_cell_volume   550.99845629
_cell_formula_units_Z   2
loop_
 _symmetry_equiv_pos_site_id
 _symmetry_equiv_pos_as_xyz
  1  'x, y, z'
loop_
 _atom_site_type_symbol
 _atom_site_label
 _atom_site_symmetry_multiplicity
 _atom_site_fract_x
 _atom_site_fract_y
 _atom_site_fract_z
 _atom_site_occupancy
  Tm  Tm0  1  0.666667  0.333333  0.750000  1
  Tm  Tm1  1  0.333333  0.666667  0.250000  1
  Re  Re2  1  0.092046  0.396571  0.750000  1
  Re  Re3  1  0.396571  0.304526  0.250000  1
  Re  Re4  1  0.603429  0.695474  0.750000  1
  Re  Re5  1  0.907954  0.603429  0.250000  1
  Re  Re6  1  0.304526  0.907954  0.750000  1
  Re  Re7  1  0.695474  0.092046  0.250000  1
  O  O8  1  0.487031  0.648249  0.515958  1
  O  O9  1  0.351751  0.838782  0.515958  1
  O  O10  1  0.843291  0.730820  0.250000  1
  O  O11  1  0.112471  0.843291  0.750000  1
  O  O12  1  0.269180  0.112471  0.250000  1
  O  O13  1  0.156709  0.269180  0.750000  1
  O  O14  1  0.512969  0.351751  0.015958  1
  O  O15  1  0.887529  0.156709  0.250000  1
  O  O16  1  0.106488  0.700170  0.250000  1
  O  O17  1  0.161218  0.512969  0.984042  1
  O  O18  1  0.161218  0.512969  0.515958  1
  O  O19  1  0.893512  0.299830  0.750000  1
  O  O20  1  0.299830  0.406318  0.250000  1
  O  O21  1  0.700170  0.593682  0.750000  1
  O  O22  1  0.838782  0.487031  0.484042  1
  O  O23  1  0.406318  0.106488  0.750000  1
  O  O24  1  0.648249  0.161218  0.015958  1
  O  O25  1  0.487031  0.648249  0.984042  1
  O  O26  1  0.351751  0.838782  0.984042  1
  O  O27  1  0.648249  0.161218  0.484042  1
  O  O28  1  0.512969  0.351751  0.484042  1
  O  O29  1  0.838782  0.487031  0.015958  1
  O  O30  1  0.730820  0.887529  0.750000  1
  O  O31  1  0.593682  0.893512  0.250000  1
