# generated using pymatgen
data_K3Rb3Mo2F12
_symmetry_space_group_name_H-M   'P 1'
_cell_length_a   6.57177802
_cell_length_b   6.35939015
_cell_length_c   11.04781800
_cell_angle_alpha   55.20910887
_cell_angle_beta   89.99566693
_cell_angle_gamma   89.92546855
_symmetry_Int_Tables_number   1
_chemical_formula_structural   K3Rb3Mo2F12
_chemical_formula_sum   'K3 Rb3 Mo2 F12'
_cell_volume   379.17911922
_cell_formula_units_Z   1
loop_
 _symmetry_equiv_pos_site_id
 _symmetry_equiv_pos_as_xyz
  1  'x, y, z'
loop_
 _atom_site_type_symbol
 _atom_site_label
 _atom_site_symmetry_multiplicity
 _atom_site_fract_x
 _atom_site_fract_y
 _atom_site_fract_z
 _atom_site_occupancy
  K  K0  1  0.501254  0.501817  0.000666  1
  K  K1  1  0.998039  0.497626  0.499904  1
  K  K2  1  0.450799  0.732740  0.252709  1
  Rb  Rb3  1  0.044642  0.735600  0.751499  1
  Rb  Rb4  1  0.955613  0.261364  0.248698  1
  Rb  Rb5  1  0.541824  0.265324  0.749188  1
  Mo  Mo6  1  0.499415  0.001992  0.496297  1
  Mo  Mo7  1  0.000538  0.998213  0.003299  1
  F  F8  1  0.760879  0.773103  0.547900  1
  F  F9  1  0.241717  0.236329  0.445322  1
  F  F10  1  0.259985  0.230339  0.949907  1
  F  F11  1  0.736981  0.769699  0.059135  1
  F  F12  1  0.470548  0.863153  0.720138  1
  F  F13  1  0.528342  0.126040  0.275350  1
  F  F14  1  0.963812  0.138543  0.779740  1
  F  F15  1  0.046804  0.857199  0.225375  1
  F  F16  1  0.314857  0.698084  0.536738  1
  F  F17  1  0.679265  0.312066  0.453242  1
  F  F18  1  0.819183  0.302566  0.966636  1
  F  F19  1  0.185502  0.698199  0.038255  1
