# generated using pymatgen
data_Hf(Ti5Bi6)3
_symmetry_space_group_name_H-M   'P 1'
_cell_length_a   10.34139800
_cell_length_b   10.34139800
_cell_length_c   7.44991400
_cell_angle_alpha   90.00000000
_cell_angle_beta   90.00000000
_cell_angle_gamma   90.00000000
_symmetry_Int_Tables_number   1
_chemical_formula_structural   Hf(Ti5Bi6)3
_chemical_formula_sum   'Hf1 Ti15 Bi18'
_cell_volume   796.72742160
_cell_formula_units_Z   1
loop_
 _symmetry_equiv_pos_site_id
 _symmetry_equiv_pos_as_xyz
  1  'x, y, z'
loop_
 _atom_site_type_symbol
 _atom_site_label
 _atom_site_symmetry_multiplicity
 _atom_site_fract_x
 _atom_site_fract_y
 _atom_site_fract_z
 _atom_site_occupancy
  Hf  Hf0  1  0.250000  0.250000  0.078390  1
  Ti  Ti1  1  0.000420  0.000420  0.000399  1
  Ti  Ti2  1  0.499580  0.000420  0.000399  1
  Ti  Ti3  1  0.000420  0.499580  0.000399  1
  Ti  Ti4  1  0.499580  0.499580  0.000399  1
  Ti  Ti5  1  0.608546  0.250000  0.146258  1
  Ti  Ti6  1  0.891454  0.250000  0.146258  1
  Ti  Ti7  1  0.250000  0.608546  0.146258  1
  Ti  Ti8  1  0.250000  0.891454  0.146258  1
  Ti  Ti9  1  0.750000  0.750000  0.425142  1
  Ti  Ti10  1  0.250000  0.250000  0.573249  1
  Ti  Ti11  1  0.750000  0.108972  0.853618  1
  Ti  Ti12  1  0.750000  0.391028  0.853618  1
  Ti  Ti13  1  0.108972  0.750000  0.853618  1
  Ti  Ti14  1  0.391028  0.750000  0.853618  1
  Ti  Ti15  1  0.750000  0.750000  0.920766  1
  Bi  Bi16  1  0.750000  0.513353  0.193059  1
  Bi  Bi17  1  0.513353  0.750000  0.193059  1
  Bi  Bi18  1  0.986647  0.750000  0.193059  1
  Bi  Bi19  1  0.750000  0.986647  0.193059  1
  Bi  Bi20  1  0.082529  0.082529  0.349838  1
  Bi  Bi21  1  0.417471  0.082529  0.349838  1
  Bi  Bi22  1  0.082529  0.417471  0.349838  1
  Bi  Bi23  1  0.417471  0.417471  0.349838  1
  Bi  Bi24  1  0.750000  0.250000  0.498675  1
  Bi  Bi25  1  0.250000  0.750000  0.498675  1
  Bi  Bi26  1  0.585154  0.585154  0.654418  1
  Bi  Bi27  1  0.914846  0.585154  0.654418  1
  Bi  Bi28  1  0.585154  0.914846  0.654418  1
  Bi  Bi29  1  0.914846  0.914846  0.654418  1
  Bi  Bi30  1  0.250000  0.011168  0.803685  1
  Bi  Bi31  1  0.011168  0.250000  0.803685  1
  Bi  Bi32  1  0.488833  0.250000  0.803685  1
  Bi  Bi33  1  0.250000  0.488833  0.803685  1
