# generated using pymatgen
data_Pa2Zn11Cd
_symmetry_space_group_name_H-M   'P 1'
_cell_length_a   4.42139508
_cell_length_b   8.00664975
_cell_length_c   8.00664952
_cell_angle_alpha   68.66077600
_cell_angle_beta   73.97195949
_cell_angle_gamma   73.97196405
_symmetry_Int_Tables_number   1
_chemical_formula_structural   Pa2Zn11Cd
_chemical_formula_sum   'Pa2 Zn11 Cd1'
_cell_volume   248.81379242
_cell_formula_units_Z   1
loop_
 _symmetry_equiv_pos_site_id
 _symmetry_equiv_pos_as_xyz
  1  'x, y, z'
loop_
 _atom_site_type_symbol
 _atom_site_label
 _atom_site_symmetry_multiplicity
 _atom_site_fract_x
 _atom_site_fract_y
 _atom_site_fract_z
 _atom_site_occupancy
  Pa  Pa0  1  0.710250  0.289750  0.289750  1
  Pa  Pa1  1  0.289750  0.710250  0.710250  1
  Zn  Zn2  1  0.000000  0.500000  0.500000  1
  Zn  Zn3  1  0.500000  0.332978  0.667022  1
  Zn  Zn4  1  0.500000  0.667022  0.332978  1
  Zn  Zn5  1  0.652994  0.987659  0.706354  1
  Zn  Zn6  1  0.347006  0.012341  0.293646  1
  Zn  Zn7  1  0.652994  0.706354  0.987659  1
  Zn  Zn8  1  0.347006  0.293646  0.012341  1
  Zn  Zn9  1  0.864687  0.853733  0.416894  1
  Zn  Zn10  1  0.135313  0.146267  0.583106  1
  Zn  Zn11  1  0.864687  0.416894  0.853733  1
  Zn  Zn12  1  0.135313  0.583106  0.146267  1
  Cd  Cd13  1  0.000000  0.000000  0.000000  1
