# generated using pymatgen
data_HoErNi9P7Ir3
_symmetry_space_group_name_H-M   'P 1'
_cell_length_a   9.14040300
_cell_length_b   9.14040431
_cell_length_c   3.80613800
_cell_angle_alpha   90.00000000
_cell_angle_beta   90.00000000
_cell_angle_gamma   119.99999164
_symmetry_Int_Tables_number   1
_chemical_formula_structural   HoErNi9P7Ir3
_chemical_formula_sum   'Ho1 Er1 Ni9 P7 Ir3'
_cell_volume   275.38859443
_cell_formula_units_Z   1
loop_
 _symmetry_equiv_pos_site_id
 _symmetry_equiv_pos_as_xyz
  1  'x, y, z'
loop_
 _atom_site_type_symbol
 _atom_site_label
 _atom_site_symmetry_multiplicity
 _atom_site_fract_x
 _atom_site_fract_y
 _atom_site_fract_z
 _atom_site_occupancy
  Ho  Ho0  1  0.000000  0.000000  0.000000  1
  Er  Er1  1  0.333333  0.666667  0.500000  1
  Ni  Ni2  1  0.099381  0.396282  0.000000  1
  Ni  Ni3  1  0.296901  0.900619  0.000000  1
  Ni  Ni4  1  0.603718  0.703099  0.000000  1
  Ni  Ni5  1  0.821358  0.606472  0.000000  1
  Ni  Ni6  1  0.785114  0.178642  0.000000  1
  Ni  Ni7  1  0.393528  0.214886  0.000000  1
  Ni  Ni8  1  0.861714  0.407835  0.500000  1
  Ni  Ni9  1  0.546121  0.138286  0.500000  1
  Ni  Ni10  1  0.592165  0.453879  0.500000  1
  P  P11  1  0.079711  0.626411  0.000000  1
  P  P12  1  0.546700  0.920289  0.000000  1
  P  P13  1  0.373589  0.453300  0.000000  1
  P  P14  1  0.774547  0.732037  0.500000  1
  P  P15  1  0.957490  0.225453  0.500000  1
  P  P16  1  0.267963  0.042510  0.500000  1
  P  P17  1  0.666667  0.333333  0.000000  1
  Ir  Ir18  1  0.050546  0.762015  0.500000  1
  Ir  Ir19  1  0.711469  0.949454  0.500000  1
  Ir  Ir20  1  0.237985  0.288531  0.500000  1
