# generated using pymatgen
data_Mg2Si2PtRh
_symmetry_space_group_name_H-M   'P 1'
_cell_length_a   6.56213900
_cell_length_b   4.06486600
_cell_length_c   7.14590300
_cell_angle_alpha   90.00000000
_cell_angle_beta   90.00000000
_cell_angle_gamma   90.00000000
_symmetry_Int_Tables_number   1
_chemical_formula_structural   Mg2Si2PtRh
_chemical_formula_sum   'Mg4 Si4 Pt2 Rh2'
_cell_volume   190.61135805
_cell_formula_units_Z   2
loop_
 _symmetry_equiv_pos_site_id
 _symmetry_equiv_pos_as_xyz
  1  'x, y, z'
loop_
 _atom_site_type_symbol
 _atom_site_label
 _atom_site_symmetry_multiplicity
 _atom_site_fract_x
 _atom_site_fract_y
 _atom_site_fract_z
 _atom_site_occupancy
  Mg  Mg0  1  0.990816  0.750000  0.175128  1
  Mg  Mg1  1  0.490816  0.750000  0.324872  1
  Mg  Mg2  1  0.509424  0.249999  0.674128  1
  Mg  Mg3  1  0.009424  0.249999  0.825873  1
  Si  Si4  1  0.290931  0.249999  0.122222  1
  Si  Si5  1  0.790931  0.249999  0.377778  1
  Si  Si6  1  0.204117  0.750000  0.634847  1
  Si  Si7  1  0.704117  0.750000  0.865154  1
  Pt  Pt8  1  0.661153  0.249999  0.055305  1
  Pt  Pt9  1  0.161153  0.249999  0.444695  1
  Rh  Rh10  1  0.843560  0.750000  0.552294  1
  Rh  Rh11  1  0.343560  0.750000  0.947708  1
