# generated using pymatgen
data_CsRb3(Lu3S5)4
_symmetry_space_group_name_H-M   'P 1'
_cell_length_a   3.85962100
_cell_length_b   11.54557507
_cell_length_c   20.65531000
_cell_angle_alpha   90.19088083
_cell_angle_beta   90.00000000
_cell_angle_gamma   90.00000000
_symmetry_Int_Tables_number   1
_chemical_formula_structural   CsRb3(Lu3S5)4
_chemical_formula_sum   'Cs1 Rb3 Lu12 S20'
_cell_volume   920.42739757
_cell_formula_units_Z   1
loop_
 _symmetry_equiv_pos_site_id
 _symmetry_equiv_pos_as_xyz
  1  'x, y, z'
loop_
 _atom_site_type_symbol
 _atom_site_label
 _atom_site_symmetry_multiplicity
 _atom_site_fract_x
 _atom_site_fract_y
 _atom_site_fract_z
 _atom_site_occupancy
  Cs  Cs0  1  0.250000  0.643894  0.590289  1
  Rb  Rb1  1  0.250000  0.850273  0.094050  1
  Rb  Rb2  1  0.750000  0.149670  0.906139  1
  Rb  Rb3  1  0.750000  0.350097  0.405613  1
  Lu  Lu4  1  0.750000  0.800482  0.827162  1
  Lu  Lu5  1  0.250000  0.200039  0.173279  1
  Lu  Lu6  1  0.250000  0.298160  0.674369  1
  Lu  Lu7  1  0.750000  0.700319  0.325980  1
  Lu  Lu8  1  0.250000  0.957427  0.698933  1
  Lu  Lu9  1  0.750000  0.043347  0.301368  1
  Lu  Lu10  1  0.750000  0.456081  0.802445  1
  Lu  Lu11  1  0.250000  0.543156  0.198184  1
  Lu  Lu12  1  0.750000  0.390159  0.053400  1
  Lu  Lu13  1  0.250000  0.609907  0.946845  1
  Lu  Lu14  1  0.250000  0.891922  0.446091  1
  Lu  Lu15  1  0.750000  0.110508  0.553284  1
  S  S16  1  0.250000  0.949508  0.569196  1
  S  S17  1  0.750000  0.053108  0.430524  1
  S  S18  1  0.750000  0.448254  0.931084  1
  S  S19  1  0.250000  0.551782  0.069356  1
  S  S20  1  0.750000  0.766904  0.954565  1
  S  S21  1  0.250000  0.233152  0.045864  1
  S  S22  1  0.250000  0.267702  0.546286  1
  S  S23  1  0.750000  0.735469  0.452510  1
  S  S24  1  0.250000  0.953914  0.827203  1
  S  S25  1  0.750000  0.046656  0.173221  1
  S  S26  1  0.750000  0.450189  0.675066  1
  S  S27  1  0.250000  0.546753  0.326448  1
  S  S28  1  0.750000  0.126862  0.684302  1
  S  S29  1  0.250000  0.873325  0.315364  1
  S  S30  1  0.250000  0.627225  0.816069  1
  S  S31  1  0.750000  0.372787  0.184179  1
  S  S32  1  0.750000  0.694992  0.198063  1
  S  S33  1  0.250000  0.304255  0.802450  1
  S  S34  1  0.250000  0.195232  0.301545  1
  S  S35  1  0.750000  0.806489  0.699270  1
