# generated using pymatgen
data_Nd2Y2SiI5
_symmetry_space_group_name_H-M   'P 1'
_cell_length_a   9.93682238
_cell_length_b   9.93682196
_cell_length_c   9.01270600
_cell_angle_alpha   77.89036610
_cell_angle_beta   77.89036662
_cell_angle_gamma   24.91323699
_symmetry_Int_Tables_number   1
_chemical_formula_structural   Nd2Y2SiI5
_chemical_formula_sum   'Nd2 Y2 Si1 I5'
_cell_volume   366.12042034
_cell_formula_units_Z   1
loop_
 _symmetry_equiv_pos_site_id
 _symmetry_equiv_pos_as_xyz
  1  'x, y, z'
loop_
 _atom_site_type_symbol
 _atom_site_label
 _atom_site_symmetry_multiplicity
 _atom_site_fract_x
 _atom_site_fract_y
 _atom_site_fract_z
 _atom_site_occupancy
  Nd  Nd0  1  0.501025  0.501025  0.213985  1
  Nd  Nd1  1  0.498975  0.498975  0.786015  1
  Y  Y2  1  0.856790  0.856790  0.073495  1
  Y  Y3  1  0.143210  0.143210  0.926505  1
  Si  Si4  1  0.000000  0.000000  0.000000  1
  I  I5  1  0.674837  0.674837  0.159146  1
  I  I6  1  0.325163  0.325163  0.840854  1
  I  I7  1  0.668114  0.668114  0.671779  1
  I  I8  1  0.331886  0.331886  0.328221  1
  I  I9  1  0.000000  0.000000  0.500000  1
