# generated using pymatgen
data_Yb2AlPbF9
_symmetry_space_group_name_H-M   'P 1'
_cell_length_a   5.34427728
_cell_length_b   5.34902150
_cell_length_c   12.18641077
_cell_angle_alpha   91.81736707
_cell_angle_beta   100.73851148
_cell_angle_gamma   91.44778751
_symmetry_Int_Tables_number   1
_chemical_formula_structural   Yb2AlPbF9
_chemical_formula_sum   'Yb4 Al2 Pb2 F18'
_cell_volume   341.92340131
_cell_formula_units_Z   2
loop_
 _symmetry_equiv_pos_site_id
 _symmetry_equiv_pos_as_xyz
  1  'x, y, z'
loop_
 _atom_site_type_symbol
 _atom_site_label
 _atom_site_symmetry_multiplicity
 _atom_site_fract_x
 _atom_site_fract_y
 _atom_site_fract_z
 _atom_site_occupancy
  Yb  Yb0  1  0.960379  0.241120  0.388450  1
  Yb  Yb1  1  0.039621  0.758880  0.611550  1
  Yb  Yb2  1  0.549272  0.266123  0.611098  1
  Yb  Yb3  1  0.450728  0.733877  0.388902  1
  Al  Al4  1  0.798487  0.792834  0.184759  1
  Al  Al5  1  0.201513  0.207166  0.815241  1
  Pb  Pb6  1  0.722442  0.722090  0.893265  1
  Pb  Pb7  1  0.277558  0.277910  0.106735  1
  F  F8  1  0.151931  0.948593  0.902880  1
  F  F9  1  0.848069  0.051407  0.097120  1
  F  F10  1  0.258576  0.452616  0.720708  1
  F  F11  1  0.741424  0.547384  0.279292  1
  F  F12  1  0.630369  0.002082  0.270490  1
  F  F13  1  0.369631  0.997918  0.729510  1
  F  F14  1  0.960137  0.592393  0.099835  1
  F  F15  1  0.039863  0.407607  0.900165  1
  F  F16  1  0.089194  0.893058  0.283197  1
  F  F17  1  0.910806  0.106942  0.716803  1
  F  F18  1  0.497493  0.704453  0.093814  1
  F  F19  1  0.502507  0.295547  0.906186  1
  F  F20  1  0.748437  0.992539  0.499412  1
  F  F21  1  0.251563  0.007461  0.500588  1
  F  F22  1  0.749635  0.488666  0.494637  1
  F  F23  1  0.250365  0.511334  0.505363  1
  F  F24  1  0.745974  0.609386  0.705379  1
  F  F25  1  0.254026  0.390614  0.294621  1
