# generated using pymatgen
data_ZrTa3(SnRh5)2
_symmetry_space_group_name_H-M   'P 1'
_cell_length_a   5.61301988
_cell_length_b   5.61301971
_cell_length_c   8.18230304
_cell_angle_alpha   90.00779764
_cell_angle_beta   90.00779987
_cell_angle_gamma   97.38044006
_symmetry_Int_Tables_number   1
_chemical_formula_structural   ZrTa3(SnRh5)2
_chemical_formula_sum   'Zr1 Ta3 Sn2 Rh10'
_cell_volume   255.65577797
_cell_formula_units_Z   1
loop_
 _symmetry_equiv_pos_site_id
 _symmetry_equiv_pos_as_xyz
  1  'x, y, z'
loop_
 _atom_site_type_symbol
 _atom_site_label
 _atom_site_symmetry_multiplicity
 _atom_site_fract_x
 _atom_site_fract_y
 _atom_site_fract_z
 _atom_site_occupancy
  Zr  Zr0  1  0.782504  0.217496  0.000000  1
  Ta  Ta1  1  0.788526  0.211474  0.500000  1
  Ta  Ta2  1  0.209084  0.790916  0.000000  1
  Ta  Ta3  1  0.211489  0.788511  0.500000  1
  Sn  Sn4  1  0.500992  0.502077  0.748954  1
  Sn  Sn5  1  0.497923  0.499008  0.251046  1
  Rh  Rh6  1  0.732806  0.728656  0.000725  1
  Rh  Rh7  1  0.730869  0.731949  0.499358  1
  Rh  Rh8  1  0.271344  0.267194  0.999275  1
  Rh  Rh9  1  0.268051  0.269131  0.500642  1
  Rh  Rh10  1  0.496797  0.996526  0.745350  1
  Rh  Rh11  1  0.496622  0.995432  0.254554  1
  Rh  Rh12  1  0.002751  0.997799  0.254519  1
  Rh  Rh13  1  0.002201  0.997249  0.745481  1
  Rh  Rh14  1  0.004568  0.503378  0.745446  1
  Rh  Rh15  1  0.003474  0.503203  0.254650  1
