# generated using pymatgen
data_MoP6WO18
_symmetry_space_group_name_H-M   'P 1'
_cell_length_a   5.32186118
_cell_length_b   7.08796580
_cell_length_c   10.91019100
_cell_angle_alpha   98.26368339
_cell_angle_beta   92.48165524
_cell_angle_gamma   92.24293560
_symmetry_Int_Tables_number   1
_chemical_formula_structural   MoP6WO18
_chemical_formula_sum   'Mo1 P6 W1 O18'
_cell_volume   406.46171491
_cell_formula_units_Z   1
loop_
 _symmetry_equiv_pos_site_id
 _symmetry_equiv_pos_as_xyz
  1  'x, y, z'
loop_
 _atom_site_type_symbol
 _atom_site_label
 _atom_site_symmetry_multiplicity
 _atom_site_fract_x
 _atom_site_fract_y
 _atom_site_fract_z
 _atom_site_occupancy
  Mo  Mo0  1  0.000000  0.000000  0.000000  1
  P  P1  1  0.519075  0.960392  0.182399  1
  P  P2  1  0.248020  0.315544  0.229203  1
  P  P3  1  0.504705  0.328740  0.644797  1
  P  P4  1  0.480925  0.039608  0.817601  1
  P  P5  1  0.751980  0.684456  0.770797  1
  P  P6  1  0.495295  0.671260  0.355203  1
  W  W7  1  0.000000  0.500000  0.500000  1
  O  O8  1  0.486454  0.181524  0.233438  1
  O  O9  1  0.111184  0.273031  0.104416  1
  O  O10  1  0.322922  0.887479  0.081441  1
  O  O11  1  0.229214  0.355324  0.622361  1
  O  O12  1  0.672991  0.331504  0.537922  1
  O  O13  1  0.210474  0.066954  0.846228  1
  O  O14  1  0.611380  0.478634  0.763863  1
  O  O15  1  0.888816  0.726969  0.895584  1
  O  O16  1  0.540043  0.130696  0.694941  1
  O  O17  1  0.770786  0.644676  0.377639  1
  O  O18  1  0.898277  0.696283  0.657305  1
  O  O19  1  0.789526  0.933046  0.153772  1
  O  O20  1  0.513546  0.818476  0.766562  1
  O  O21  1  0.677078  0.112521  0.918559  1
  O  O22  1  0.459957  0.869304  0.305059  1
  O  O23  1  0.101723  0.303717  0.342695  1
  O  O24  1  0.388620  0.521366  0.236137  1
  O  O25  1  0.327009  0.668496  0.462078  1
