# generated using pymatgen
data_Dy5Co17Re2(Si3P)3
_symmetry_space_group_name_H-M   'P 1'
_cell_length_a   12.22243017
_cell_length_b   12.16158506
_cell_length_c   3.73034500
_cell_angle_alpha   90.00000000
_cell_angle_beta   90.00000000
_cell_angle_gamma   119.83545643
_symmetry_Int_Tables_number   1
_chemical_formula_structural   Dy5Co17Re2(Si3P)3
_chemical_formula_sum   'Dy5 Co17 Re2 Si9 P3'
_cell_volume   480.99999742
_cell_formula_units_Z   1
loop_
 _symmetry_equiv_pos_site_id
 _symmetry_equiv_pos_as_xyz
  1  'x, y, z'
loop_
 _atom_site_type_symbol
 _atom_site_label
 _atom_site_symmetry_multiplicity
 _atom_site_fract_x
 _atom_site_fract_y
 _atom_site_fract_z
 _atom_site_occupancy
  Dy  Dy0  1  0.664321  0.330968  0.000000  1
  Dy  Dy1  1  0.335679  0.666648  0.000000  1
  Dy  Dy2  1  0.183478  0.182974  0.500000  1
  Dy  Dy3  1  0.816522  0.999495  0.500000  1
  Dy  Dy4  1  0.000000  0.815311  0.500000  1
  Co  Co5  1  0.000000  0.442677  0.000000  1
  Co  Co6  1  0.826531  0.199861  0.000000  1
  Co  Co7  1  0.804358  0.626617  0.000000  1
  Co  Co8  1  0.368955  0.174389  0.000000  1
  Co  Co9  1  0.195642  0.822259  0.000000  1
  Co  Co10  1  0.631045  0.805434  0.000000  1
  Co  Co11  1  0.173469  0.373331  0.000000  1
  Co  Co12  1  0.646738  0.125542  0.500000  1
  Co  Co13  1  0.877855  0.521125  0.500000  1
  Co  Co14  1  0.476898  0.353954  0.500000  1
  Co  Co15  1  0.122145  0.643270  0.500000  1
  Co  Co16  1  0.523102  0.877056  0.500000  1
  Co  Co17  1  0.353262  0.478805  0.500000  1
  Co  Co18  1  0.725156  0.722914  0.500000  1
  Co  Co19  1  0.274844  0.997758  0.500000  1
  Co  Co20  1  0.000000  0.278928  0.500000  1
  Co  Co21  1  0.000000  0.001871  0.000000  1
  Re  Re22  1  0.560985  0.560504  0.000000  1
  Re  Re23  1  0.439015  0.999519  0.000000  1
  Si  Si24  1  0.363072  0.365878  0.000000  1
  Si  Si25  1  0.636928  0.002805  0.000000  1
  Si  Si26  1  0.000000  0.630413  0.000000  1
  Si  Si27  1  0.840211  0.317889  0.500000  1
  Si  Si28  1  0.684046  0.519870  0.500000  1
  Si  Si29  1  0.476206  0.161610  0.500000  1
  Si  Si30  1  0.315954  0.835824  0.500000  1
  Si  Si31  1  0.523794  0.685404  0.500000  1
  Si  Si32  1  0.159789  0.477678  0.500000  1
  P  P33  1  0.821121  0.819565  0.000000  1
  P  P34  1  0.178879  0.998444  0.000000  1
  P  P35  1  0.000000  0.183406  0.000000  1
