# generated using pymatgen
data_ErLu7InPb3Au8
_symmetry_space_group_name_H-M   'P 1'
_cell_length_a   8.02474540
_cell_length_b   8.02830940
_cell_length_c   7.20563200
_cell_angle_alpha   89.99789373
_cell_angle_beta   90.00063364
_cell_angle_gamma   90.15559364
_symmetry_Int_Tables_number   1
_chemical_formula_structural   ErLu7InPb3Au8
_chemical_formula_sum   'Er1 Lu7 In1 Pb3 Au8'
_cell_volume   464.22213065
_cell_formula_units_Z   1
loop_
 _symmetry_equiv_pos_site_id
 _symmetry_equiv_pos_as_xyz
  1  'x, y, z'
loop_
 _atom_site_type_symbol
 _atom_site_label
 _atom_site_symmetry_multiplicity
 _atom_site_fract_x
 _atom_site_fract_y
 _atom_site_fract_z
 _atom_site_occupancy
  Er  Er0  1  0.847798  0.157001  0.497742  1
  Lu  Lu1  1  0.152071  0.842853  0.497525  1
  Lu  Lu2  1  0.343126  0.348445  0.002413  1
  Lu  Lu3  1  0.656796  0.651733  0.002444  1
  Lu  Lu4  1  0.681712  0.678017  0.498497  1
  Lu  Lu5  1  0.318327  0.321964  0.498478  1
  Lu  Lu6  1  0.178247  0.818147  0.001513  1
  Lu  Lu7  1  0.821882  0.181716  0.001469  1
  In  In8  1  0.000039  0.500066  0.249996  1
  Pb  Pb9  1  0.499928  0.999931  0.249981  1
  Pb  Pb10  1  0.000010  0.500024  0.749967  1
  Pb  Pb11  1  0.499993  0.999996  0.750020  1
  Au  Au12  1  0.631138  0.376085  0.275359  1
  Au  Au13  1  0.367711  0.625088  0.276423  1
  Au  Au14  1  0.128966  0.126138  0.778022  1
  Au  Au15  1  0.872109  0.872759  0.778040  1
  Au  Au16  1  0.373385  0.628357  0.722784  1
  Au  Au17  1  0.625555  0.372707  0.723785  1
  Au  Au18  1  0.875472  0.867212  0.222887  1
  Au  Au19  1  0.125738  0.131761  0.222656  1
