# generated using pymatgen
data_Dy5Ho(TmAu2)2
_symmetry_space_group_name_H-M   'P 1'
_cell_length_a   4.93164000
_cell_length_b   7.11644732
_cell_length_c   8.94164502
_cell_angle_alpha   90.05017260
_cell_angle_beta   90.00000000
_cell_angle_gamma   90.00000000
_symmetry_Int_Tables_number   1
_chemical_formula_structural   Dy5Ho(TmAu2)2
_chemical_formula_sum   'Dy5 Ho1 Tm2 Au4'
_cell_volume   313.81367406
_cell_formula_units_Z   1
loop_
 _symmetry_equiv_pos_site_id
 _symmetry_equiv_pos_as_xyz
  1  'x, y, z'
loop_
 _atom_site_type_symbol
 _atom_site_label
 _atom_site_symmetry_multiplicity
 _atom_site_fract_x
 _atom_site_fract_y
 _atom_site_fract_z
 _atom_site_occupancy
  Dy  Dy0  1  0.250000  0.486827  0.176700  1
  Dy  Dy1  1  0.750000  0.513482  0.823324  1
  Dy  Dy2  1  0.250000  0.987333  0.323246  1
  Dy  Dy3  1  0.750000  0.013683  0.676891  1
  Dy  Dy4  1  0.750000  0.648401  0.419671  1
  Ho  Ho5  1  0.750000  0.148443  0.080005  1
  Tm  Tm6  1  0.250000  0.351700  0.580755  1
  Tm  Tm7  1  0.250000  0.851724  0.919558  1
  Au  Au8  1  0.250000  0.256093  0.900046  1
  Au  Au9  1  0.750000  0.743409  0.098010  1
  Au  Au10  1  0.250000  0.756388  0.600476  1
  Au  Au11  1  0.750000  0.242515  0.401316  1
