# generated using pymatgen
data_Ce5Nb3(Fe4P3)4
_symmetry_space_group_name_H-M   'P 1'
_cell_length_a   12.24457500
_cell_length_b   12.24457611
_cell_length_c   3.76135600
_cell_angle_alpha   90.00000000
_cell_angle_beta   90.00000000
_cell_angle_gamma   119.99999971
_symmetry_Int_Tables_number   1
_chemical_formula_structural   Ce5Nb3(Fe4P3)4
_chemical_formula_sum   'Ce5 Nb3 Fe16 P12'
_cell_volume   488.38525505
_cell_formula_units_Z   1
loop_
 _symmetry_equiv_pos_site_id
 _symmetry_equiv_pos_as_xyz
  1  'x, y, z'
loop_
 _atom_site_type_symbol
 _atom_site_label
 _atom_site_symmetry_multiplicity
 _atom_site_fract_x
 _atom_site_fract_y
 _atom_site_fract_z
 _atom_site_occupancy
  Ce  Ce0  1  0.822578  0.000000  0.500000  1
  Ce  Ce1  1  0.000000  0.822578  0.500000  1
  Ce  Ce2  1  0.177422  0.177422  0.500000  1
  Ce  Ce3  1  0.333333  0.666667  0.000000  1
  Ce  Ce4  1  0.666667  0.333333  0.000000  1
  Nb  Nb5  1  0.437809  0.000000  0.000000  1
  Nb  Nb6  1  0.000000  0.437809  0.000000  1
  Nb  Nb7  1  0.562191  0.562191  0.000000  1
  Fe  Fe8  1  0.280716  0.000000  0.500000  1
  Fe  Fe9  1  0.000000  0.280716  0.500000  1
  Fe  Fe10  1  0.719284  0.719284  0.500000  1
  Fe  Fe11  1  0.620785  0.803435  0.000000  1
  Fe  Fe12  1  0.196565  0.817350  0.000000  1
  Fe  Fe13  1  0.182650  0.379215  0.000000  1
  Fe  Fe14  1  0.379215  0.182650  0.000000  1
  Fe  Fe15  1  0.803435  0.620785  0.000000  1
  Fe  Fe16  1  0.817350  0.196565  0.000000  1
  Fe  Fe17  1  0.522439  0.879946  0.500000  1
  Fe  Fe18  1  0.120054  0.642493  0.500000  1
  Fe  Fe19  1  0.357507  0.477561  0.500000  1
  Fe  Fe20  1  0.477561  0.357507  0.500000  1
  Fe  Fe21  1  0.879946  0.522439  0.500000  1
  Fe  Fe22  1  0.642493  0.120054  0.500000  1
  Fe  Fe23  1  0.000000  0.000000  0.000000  1
  P  P24  1  0.185723  0.000000  0.000000  1
  P  P25  1  0.000000  0.185723  0.000000  1
  P  P26  1  0.814277  0.814277  0.000000  1
  P  P27  1  0.525170  0.692788  0.500000  1
  P  P28  1  0.307212  0.832382  0.500000  1
  P  P29  1  0.167618  0.474830  0.500000  1
  P  P30  1  0.474830  0.167618  0.500000  1
  P  P31  1  0.692788  0.525170  0.500000  1
  P  P32  1  0.832382  0.307212  0.500000  1
  P  P33  1  0.644554  0.000000  0.000000  1
  P  P34  1  0.000000  0.644554  0.000000  1
  P  P35  1  0.355446  0.355446  0.000000  1
