# generated using pymatgen
data_ErTh4Np3N12
_symmetry_space_group_name_H-M   'P 1'
_cell_length_a   5.88392093
_cell_length_b   6.02213683
_cell_length_c   8.46646235
_cell_angle_alpha   90.38610879
_cell_angle_beta   90.03557053
_cell_angle_gamma   89.57920945
_symmetry_Int_Tables_number   1
_chemical_formula_structural   ErTh4Np3N12
_chemical_formula_sum   'Er1 Th4 Np3 N12'
_cell_volume   299.98378721
_cell_formula_units_Z   1
loop_
 _symmetry_equiv_pos_site_id
 _symmetry_equiv_pos_as_xyz
  1  'x, y, z'
loop_
 _atom_site_type_symbol
 _atom_site_label
 _atom_site_symmetry_multiplicity
 _atom_site_fract_x
 _atom_site_fract_y
 _atom_site_fract_z
 _atom_site_occupancy
  Er  Er0  1  0.000000  0.500000  0.000000  1
  Th  Th1  1  0.508758  0.545709  0.246380  1
  Th  Th2  1  0.984055  0.052395  0.246579  1
  Th  Th3  1  0.491242  0.454291  0.753620  1
  Th  Th4  1  0.015945  0.947605  0.753421  1
  Np  Np5  1  0.500000  0.000000  0.500000  1
  Np  Np6  1  0.000000  0.500000  0.500000  1
  Np  Np7  1  0.500000  0.000000  0.000000  1
  N  N8  1  0.375025  0.950014  0.254680  1
  N  N9  1  0.117762  0.451623  0.264932  1
  N  N10  1  0.624975  0.049986  0.745320  1
  N  N11  1  0.882238  0.548377  0.735068  1
  N  N12  1  0.788971  0.820425  0.059036  1
  N  N13  1  0.706081  0.307771  0.435086  1
  N  N14  1  0.209001  0.189439  0.567099  1
  N  N15  1  0.316003  0.705057  0.934495  1
  N  N16  1  0.211029  0.179575  0.940964  1
  N  N17  1  0.293919  0.692229  0.564914  1
  N  N18  1  0.790999  0.810561  0.432901  1
  N  N19  1  0.683997  0.294943  0.065505  1
