# generated using pymatgen
data_Tm4OsCl4
_symmetry_space_group_name_H-M   'P 1'
_cell_length_a   8.47757539
_cell_length_b   8.47757522
_cell_length_c   6.42632097
_cell_angle_alpha   89.77537273
_cell_angle_beta   89.77537287
_cell_angle_gamma   89.39525915
_symmetry_Int_Tables_number   1
_chemical_formula_structural   Tm4OsCl4
_chemical_formula_sum   'Tm8 Os2 Cl8'
_cell_volume   461.82233120
_cell_formula_units_Z   2
loop_
 _symmetry_equiv_pos_site_id
 _symmetry_equiv_pos_as_xyz
  1  'x, y, z'
loop_
 _atom_site_type_symbol
 _atom_site_label
 _atom_site_symmetry_multiplicity
 _atom_site_fract_x
 _atom_site_fract_y
 _atom_site_fract_z
 _atom_site_occupancy
  Tm  Tm0  1  0.104903  0.741767  0.987918  1
  Tm  Tm1  1  0.258233  0.895097  0.512082  1
  Tm  Tm2  1  0.895097  0.258233  0.012082  1
  Tm  Tm3  1  0.741767  0.104903  0.487918  1
  Tm  Tm4  1  0.742921  0.896100  0.008222  1
  Tm  Tm5  1  0.103900  0.257079  0.491778  1
  Tm  Tm6  1  0.257079  0.103900  0.991778  1
  Tm  Tm7  1  0.896100  0.742921  0.508222  1
  Os  Os8  1  0.006794  0.993206  0.250000  1
  Os  Os9  1  0.993206  0.006794  0.750000  1
  Cl  Cl10  1  0.422365  0.820139  0.898702  1
  Cl  Cl11  1  0.179861  0.577635  0.601298  1
  Cl  Cl12  1  0.577635  0.179861  0.101298  1
  Cl  Cl13  1  0.820139  0.422365  0.398702  1
  Cl  Cl14  1  0.810695  0.580650  0.899010  1
  Cl  Cl15  1  0.419350  0.189305  0.600990  1
  Cl  Cl16  1  0.189305  0.419350  0.100990  1
  Cl  Cl17  1  0.580650  0.810695  0.399010  1
