# generated using pymatgen
data_Yb2Eu(CuGe)3
_symmetry_space_group_name_H-M   'P 1'
_cell_length_a   4.32398300
_cell_length_b   4.32398314
_cell_length_c   10.84360300
_cell_angle_alpha   90.00000000
_cell_angle_beta   90.00000000
_cell_angle_gamma   120.00000656
_symmetry_Int_Tables_number   1
_chemical_formula_structural   Yb2Eu(CuGe)3
_chemical_formula_sum   'Yb2 Eu1 Cu3 Ge3'
_cell_volume   175.57884268
_cell_formula_units_Z   1
loop_
 _symmetry_equiv_pos_site_id
 _symmetry_equiv_pos_as_xyz
  1  'x, y, z'
loop_
 _atom_site_type_symbol
 _atom_site_label
 _atom_site_symmetry_multiplicity
 _atom_site_fract_x
 _atom_site_fract_y
 _atom_site_fract_z
 _atom_site_occupancy
  Yb  Yb0  1  0.666667  0.333333  0.005941  1
  Yb  Yb1  1  0.666667  0.333333  0.322117  1
  Eu  Eu2  1  0.666667  0.333333  0.670230  1
  Cu  Cu3  1  0.000000  0.000000  0.853371  1
  Cu  Cu4  1  0.000000  0.000000  0.167340  1
  Cu  Cu5  1  0.333333  0.666667  0.483246  1
  Ge  Ge6  1  0.333333  0.666667  0.868249  1
  Ge  Ge7  1  0.000000  0.000000  0.486660  1
  Ge  Ge8  1  0.333333  0.666667  0.142845  1
