# generated using pymatgen
data_MnV17FeSi12Tc
_symmetry_space_group_name_H-M   'P 1'
_cell_length_a   7.00967829
_cell_length_b   7.00967822
_cell_length_c   13.18768400
_cell_angle_alpha   90.00000000
_cell_angle_beta   90.00000000
_cell_angle_gamma   140.37461003
_symmetry_Int_Tables_number   1
_chemical_formula_structural   MnV17FeSi12Tc
_chemical_formula_sum   'Mn1 V17 Fe1 Si12 Tc1'
_cell_volume   413.26215423
_cell_formula_units_Z   1
loop_
 _symmetry_equiv_pos_site_id
 _symmetry_equiv_pos_as_xyz
  1  'x, y, z'
loop_
 _atom_site_type_symbol
 _atom_site_label
 _atom_site_symmetry_multiplicity
 _atom_site_fract_x
 _atom_site_fract_y
 _atom_site_fract_z
 _atom_site_occupancy
  Mn  Mn0  1  0.000775  0.000775  0.000000  1
  V  V1  1  0.071336  0.421886  0.398477  1
  V  V2  1  0.574427  0.928931  0.902433  1
  V  V3  1  0.421886  0.071336  0.601523  1
  V  V4  1  0.928931  0.574427  0.097567  1
  V  V5  1  0.851646  0.652426  0.677516  1
  V  V6  1  0.349320  0.150486  0.175050  1
  V  V7  1  0.652426  0.851646  0.322484  1
  V  V8  1  0.150486  0.349320  0.824950  1
  V  V9  1  0.652426  0.851646  0.677516  1
  V  V10  1  0.150486  0.349320  0.175050  1
  V  V11  1  0.851646  0.652426  0.322484  1
  V  V12  1  0.349320  0.150486  0.824950  1
  V  V13  1  0.421886  0.071336  0.398477  1
  V  V14  1  0.928931  0.574427  0.902433  1
  V  V15  1  0.071336  0.421886  0.601523  1
  V  V16  1  0.574427  0.928931  0.097567  1
  V  V17  1  0.998227  0.998227  0.500000  1
  Fe  Fe18  1  0.501471  0.501471  0.000000  1
  Si  Si19  1  0.250536  0.749486  0.751746  1
  Si  Si20  1  0.749486  0.250536  0.248254  1
  Si  Si21  1  0.749486  0.250536  0.751746  1
  Si  Si22  1  0.250536  0.749486  0.248254  1
  Si  Si23  1  0.245831  0.245831  0.667683  1
  Si  Si24  1  0.750514  0.750514  0.159664  1
  Si  Si25  1  0.245831  0.245831  0.332317  1
  Si  Si26  1  0.750514  0.750514  0.840336  1
  Si  Si27  1  0.583718  0.918758  0.500000  1
  Si  Si28  1  0.092701  0.411871  0.000000  1
  Si  Si29  1  0.918758  0.583718  0.500000  1
  Si  Si30  1  0.411871  0.092701  0.000000  1
  Tc  Tc31  1  0.498829  0.498829  0.500000  1
