# generated using pymatgen
data_Tb2TmAuO6
_symmetry_space_group_name_H-M   'P 1'
_cell_length_a   3.58662568
_cell_length_b   5.56575147
_cell_length_c   7.11359554
_cell_angle_alpha   89.35746401
_cell_angle_beta   102.34521876
_cell_angle_gamma   91.08448156
_symmetry_Int_Tables_number   1
_chemical_formula_structural   Tb2TmAuO6
_chemical_formula_sum   'Tb2 Tm1 Au1 O6'
_cell_volume   138.69138493
_cell_formula_units_Z   1
loop_
 _symmetry_equiv_pos_site_id
 _symmetry_equiv_pos_as_xyz
  1  'x, y, z'
loop_
 _atom_site_type_symbol
 _atom_site_label
 _atom_site_symmetry_multiplicity
 _atom_site_fract_x
 _atom_site_fract_y
 _atom_site_fract_z
 _atom_site_occupancy
  Tb  Tb0  1  0.610870  0.530767  0.762531  1
  Tb  Tb1  1  0.389130  0.469233  0.237469  1
  Tm  Tm2  1  0.000000  0.000000  0.500000  1
  Au  Au3  1  0.000000  0.000000  0.000000  1
  O  O4  1  0.834294  0.681665  0.105184  1
  O  O5  1  0.165706  0.318335  0.894816  1
  O  O6  1  0.522653  0.251598  0.530392  1
  O  O7  1  0.477347  0.748402  0.469608  1
  O  O8  1  0.124367  0.804017  0.782798  1
  O  O9  1  0.875633  0.195983  0.217202  1
