# generated using pymatgen
data_Hf5Zr3Co16(SiP2)4
_symmetry_space_group_name_H-M   'P 1'
_cell_length_a   12.17373202
_cell_length_b   12.18105616
_cell_length_c   3.65095200
_cell_angle_alpha   90.00000000
_cell_angle_beta   90.00000000
_cell_angle_gamma   119.98598593
_symmetry_Int_Tables_number   1
_chemical_formula_structural   Hf5Zr3Co16(SiP2)4
_chemical_formula_sum   'Hf5 Zr3 Co16 Si4 P8'
_cell_volume   468.92863038
_cell_formula_units_Z   1
loop_
 _symmetry_equiv_pos_site_id
 _symmetry_equiv_pos_as_xyz
  1  'x, y, z'
loop_
 _atom_site_type_symbol
 _atom_site_label
 _atom_site_symmetry_multiplicity
 _atom_site_fract_x
 _atom_site_fract_y
 _atom_site_fract_z
 _atom_site_occupancy
  Hf  Hf0  1  0.442937  0.442718  0.000000  1
  Hf  Hf1  1  0.557557  0.999942  0.000000  1
  Hf  Hf2  1  0.000181  0.557532  0.000000  1
  Hf  Hf3  1  0.824687  0.823185  0.500000  1
  Hf  Hf4  1  0.177338  0.999940  0.500000  1
  Zr  Zr5  1  0.666582  0.333257  0.000000  1
  Zr  Zr6  1  0.333378  0.666744  0.000000  1
  Zr  Zr7  1  0.001462  0.177314  0.500000  1
  Co  Co8  1  0.197513  0.372238  0.000000  1
  Co  Co9  1  0.174725  0.803450  0.000000  1
  Co  Co10  1  0.825211  0.628507  0.000000  1
  Co  Co11  1  0.801822  0.177905  0.000000  1
  Co  Co12  1  0.371381  0.196521  0.000000  1
  Co  Co13  1  0.126760  0.482808  0.500000  1
  Co  Co14  1  0.355481  0.873377  0.500000  1
  Co  Co15  1  0.516856  0.642913  0.500000  1
  Co  Co16  1  0.644076  0.517368  0.500000  1
  Co  Co17  1  0.873919  0.357162  0.500000  1
  Co  Co18  1  0.482148  0.126681  0.500000  1
  Co  Co19  1  0.004331  0.999134  0.000000  1
  Co  Co20  1  0.718548  0.999667  0.500000  1
  Co  Co21  1  0.999825  0.722692  0.500000  1
  Co  Co22  1  0.624442  0.821828  0.000000  1
  Co  Co23  1  0.277744  0.277536  0.500000  1
  Si  Si24  1  0.654326  0.654550  0.000000  1
  Si  Si25  1  0.346072  0.000017  0.000000  1
  Si  Si26  1  0.999760  0.345990  0.000000  1
  Si  Si27  1  0.824034  0.999399  0.000000  1
  P  P28  1  0.481671  0.307837  0.500000  1
  P  P29  1  0.692535  0.174028  0.500000  1
  P  P30  1  0.826076  0.517844  0.500000  1
  P  P31  1  0.518314  0.825962  0.500000  1
  P  P32  1  0.173792  0.692176  0.500000  1
  P  P33  1  0.999892  0.823724  0.000000  1
  P  P34  1  0.308062  0.482047  0.500000  1
  P  P35  1  0.176562  0.176007  0.000000  1
