# generated using pymatgen
data_Dy5Mn3P12IrRh15
_symmetry_space_group_name_H-M   'P 1'
_cell_length_a   12.74037200
_cell_length_b   12.74037217
_cell_length_c   3.89420100
_cell_angle_alpha   90.00000000
_cell_angle_beta   90.00000000
_cell_angle_gamma   119.99999956
_symmetry_Int_Tables_number   1
_chemical_formula_structural   Dy5Mn3P12IrRh15
_chemical_formula_sum   'Dy5 Mn3 P12 Ir1 Rh15'
_cell_volume   547.41062319
_cell_formula_units_Z   1
loop_
 _symmetry_equiv_pos_site_id
 _symmetry_equiv_pos_as_xyz
  1  'x, y, z'
loop_
 _atom_site_type_symbol
 _atom_site_label
 _atom_site_symmetry_multiplicity
 _atom_site_fract_x
 _atom_site_fract_y
 _atom_site_fract_z
 _atom_site_occupancy
  Dy  Dy0  1  0.333333  0.666667  0.500000  1
  Dy  Dy1  1  0.666667  0.333333  0.500000  1
  Dy  Dy2  1  0.000000  0.810151  0.000000  1
  Dy  Dy3  1  0.189849  0.189849  0.000000  1
  Dy  Dy4  1  0.810151  0.000000  0.000000  1
  Mn  Mn5  1  0.000000  0.447977  0.500000  1
  Mn  Mn6  1  0.552023  0.552023  0.500000  1
  Mn  Mn7  1  0.447977  0.000000  0.500000  1
  P  P8  1  0.000000  0.635304  0.500000  1
  P  P9  1  0.364696  0.364696  0.500000  1
  P  P10  1  0.635304  0.000000  0.500000  1
  P  P11  1  0.516816  0.686173  0.000000  1
  P  P12  1  0.313827  0.830643  0.000000  1
  P  P13  1  0.169357  0.483184  0.000000  1
  P  P14  1  0.483184  0.169357  0.000000  1
  P  P15  1  0.686173  0.516816  0.000000  1
  P  P16  1  0.830643  0.313827  0.000000  1
  P  P17  1  0.000000  0.178657  0.500000  1
  P  P18  1  0.821343  0.821343  0.500000  1
  P  P19  1  0.178657  0.000000  0.500000  1
  Ir  Ir20  1  0.000000  0.000000  0.500000  1
  Rh  Rh21  1  0.510923  0.870434  0.000000  1
  Rh  Rh22  1  0.129566  0.640490  0.000000  1
  Rh  Rh23  1  0.359510  0.489077  0.000000  1
  Rh  Rh24  1  0.489077  0.359510  0.000000  1
  Rh  Rh25  1  0.870434  0.510923  0.000000  1
  Rh  Rh26  1  0.640490  0.129566  0.000000  1
  Rh  Rh27  1  0.000000  0.283738  0.000000  1
  Rh  Rh28  1  0.716262  0.716262  0.000000  1
  Rh  Rh29  1  0.283738  0.000000  0.000000  1
  Rh  Rh30  1  0.622994  0.801833  0.500000  1
  Rh  Rh31  1  0.198167  0.821161  0.500000  1
  Rh  Rh32  1  0.178839  0.377006  0.500000  1
  Rh  Rh33  1  0.377006  0.178839  0.500000  1
  Rh  Rh34  1  0.801833  0.622994  0.500000  1
  Rh  Rh35  1  0.821161  0.198167  0.500000  1
