# generated using pymatgen
data_DyEr4Co16(P4W)3
_symmetry_space_group_name_H-M   'P 1'
_cell_length_a   12.04682400
_cell_length_b   12.04682246
_cell_length_c   3.69531700
_cell_angle_alpha   90.00000000
_cell_angle_beta   90.00000000
_cell_angle_gamma   119.99999323
_symmetry_Int_Tables_number   1
_chemical_formula_structural   DyEr4Co16(P4W)3
_chemical_formula_sum   'Dy1 Er4 Co16 P12 W3'
_cell_volume   464.43766921
_cell_formula_units_Z   1
loop_
 _symmetry_equiv_pos_site_id
 _symmetry_equiv_pos_as_xyz
  1  'x, y, z'
loop_
 _atom_site_type_symbol
 _atom_site_label
 _atom_site_symmetry_multiplicity
 _atom_site_fract_x
 _atom_site_fract_y
 _atom_site_fract_z
 _atom_site_occupancy
  Dy  Dy0  1  0.333333  0.666667  0.000000  1
  Er  Er1  1  0.666667  0.333333  0.000000  1
  Er  Er2  1  0.185020  0.185030  0.500000  1
  Er  Er3  1  0.814970  0.999990  0.500000  1
  Er  Er4  1  0.000010  0.814980  0.500000  1
  Co  Co5  1  0.823119  0.198262  0.000000  1
  Co  Co6  1  0.801738  0.624857  0.000000  1
  Co  Co7  1  0.375143  0.176881  0.000000  1
  Co  Co8  1  0.198178  0.823302  0.000000  1
  Co  Co9  1  0.625123  0.801822  0.000000  1
  Co  Co10  1  0.176698  0.374877  0.000000  1
  Co  Co11  1  0.644345  0.127378  0.500000  1
  Co  Co12  1  0.872622  0.516967  0.500000  1
  Co  Co13  1  0.483033  0.355655  0.500000  1
  Co  Co14  1  0.126878  0.644302  0.500000  1
  Co  Co15  1  0.517424  0.873122  0.500000  1
  Co  Co16  1  0.355698  0.482576  0.500000  1
  Co  Co17  1  0.719392  0.719329  0.500000  1
  Co  Co18  1  0.280671  0.000063  0.500000  1
  Co  Co19  1  0.999937  0.280608  0.500000  1
  Co  Co20  1  0.000000  0.000000  0.000000  1
  P  P21  1  0.359018  0.359070  0.000000  1
  P  P22  1  0.640930  0.999948  0.000000  1
  P  P23  1  0.000052  0.640982  0.000000  1
  P  P24  1  0.833544  0.313933  0.500000  1
  P  P25  1  0.686067  0.519612  0.500000  1
  P  P26  1  0.480388  0.166456  0.500000  1
  P  P27  1  0.313860  0.834120  0.500000  1
  P  P28  1  0.520259  0.686140  0.500000  1
  P  P29  1  0.165880  0.479741  0.500000  1
  P  P30  1  0.822655  0.822640  0.000000  1
  P  P31  1  0.177360  0.000014  0.000000  1
  P  P32  1  0.999986  0.177345  0.000000  1
  W  W33  1  0.553681  0.553589  0.000000  1
  W  W34  1  0.446411  0.000092  0.000000  1
  W  W35  1  0.999908  0.446319  0.000000  1
