# generated using pymatgen
data_Gd11DyCdNi5
_symmetry_space_group_name_H-M   'P 1'
_cell_length_a   8.44320767
_cell_length_b   8.44320605
_cell_length_c   8.44075800
_cell_angle_alpha   107.51672875
_cell_angle_beta   110.28469961
_cell_angle_gamma   110.64142978
_symmetry_Int_Tables_number   1
_chemical_formula_structural   Gd11DyCdNi5
_chemical_formula_sum   'Gd11 Dy1 Cd1 Ni5'
_cell_volume   462.73222219
_cell_formula_units_Z   1
loop_
 _symmetry_equiv_pos_site_id
 _symmetry_equiv_pos_as_xyz
  1  'x, y, z'
loop_
 _atom_site_type_symbol
 _atom_site_label
 _atom_site_symmetry_multiplicity
 _atom_site_fract_x
 _atom_site_fract_y
 _atom_site_fract_z
 _atom_site_occupancy
  Gd  Gd0  1  0.479271  0.294922  0.181995  1
  Gd  Gd1  1  0.112831  0.295926  0.817437  1
  Gd  Gd2  1  0.887073  0.702723  0.181995  1
  Gd  Gd3  1  0.521511  0.704608  0.817437  1
  Gd  Gd4  1  0.304303  0.625534  0.320436  1
  Gd  Gd5  1  0.306583  0.984136  0.679449  1
  Gd  Gd6  1  0.695315  0.372866  0.679449  1
  Gd  Gd7  1  0.694901  0.016133  0.320436  1
  Gd  Gd8  1  0.189671  0.212078  0.401749  1
  Gd  Gd9  1  0.809356  0.789843  0.599197  1
  Gd  Gd10  1  0.189815  0.789257  0.979070  1
  Dy  Dy11  1  0.809483  0.210272  0.019757  1
  Cd  Cd12  1  0.999728  0.500546  0.500274  1
  Ni  Ni13  1  0.500956  0.623451  0.124407  1
  Ni  Ni14  1  0.499989  0.376389  0.876379  1
  Ni  Ni15  1  0.367988  0.999633  0.367621  1
  Ni  Ni16  1  0.631914  0.000541  0.632455  1
  Ni  Ni17  1  0.999314  0.001141  0.000454  1
