# generated using pymatgen
data_LaEuGa7Cu
_symmetry_space_group_name_H-M   'P 1'
_cell_length_a   6.17893358
_cell_length_b   6.17846296
_cell_length_c   11.52443561
_cell_angle_alpha   74.45118650
_cell_angle_beta   74.44997795
_cell_angle_gamma   89.99999977
_symmetry_Int_Tables_number   1
_chemical_formula_structural   LaEuGa7Cu
_chemical_formula_sum   'La2 Eu2 Ga14 Cu2'
_cell_volume   407.11858354
_cell_formula_units_Z   2
loop_
 _symmetry_equiv_pos_site_id
 _symmetry_equiv_pos_as_xyz
  1  'x, y, z'
loop_
 _atom_site_type_symbol
 _atom_site_label
 _atom_site_symmetry_multiplicity
 _atom_site_fract_x
 _atom_site_fract_y
 _atom_site_fract_z
 _atom_site_occupancy
  La  La0  1  0.751664  0.251664  0.496672  1
  La  La1  1  0.247861  0.747861  0.504279  1
  Eu  Eu2  1  0.997776  0.997776  0.004448  1
  Eu  Eu3  1  0.501916  0.501916  0.996167  1
  Ga  Ga4  1  0.199225  0.199225  0.601552  1
  Ga  Ga5  1  0.809566  0.809566  0.380870  1
  Ga  Ga6  1  0.610973  0.128961  0.251738  1
  Ga  Ga7  1  0.137288  0.619300  0.251738  1
  Ga  Ga8  1  0.610973  0.619300  0.251738  1
  Ga  Ga9  1  0.137288  0.128961  0.251738  1
  Ga  Ga10  1  0.868726  0.359846  0.753487  1
  Ga  Ga11  1  0.377786  0.886665  0.753487  1
  Ga  Ga12  1  0.868726  0.886665  0.753487  1
  Ga  Ga13  1  0.377786  0.359846  0.753487  1
  Ga  Ga14  1  0.692534  0.692534  0.614931  1
  Ga  Ga15  1  0.061137  0.561137  0.877725  1
  Ga  Ga16  1  0.448768  0.948768  0.102463  1
  Ga  Ga17  1  0.941851  0.441851  0.116298  1
  Cu  Cu18  1  0.311083  0.311083  0.377834  1
  Cu  Cu19  1  0.561902  0.061902  0.876197  1
