# generated using pymatgen
data_Mg2Ta(SnRu2)3
_symmetry_space_group_name_H-M   'P 1'
_cell_length_a   4.48652000
_cell_length_b   6.38158200
_cell_length_c   13.48680600
_cell_angle_alpha   90.00000000
_cell_angle_beta   90.00000000
_cell_angle_gamma   90.00000000
_symmetry_Int_Tables_number   1
_chemical_formula_structural   Mg2Ta(SnRu2)3
_chemical_formula_sum   'Mg4 Ta2 Sn6 Ru12'
_cell_volume   386.14202754
_cell_formula_units_Z   2
loop_
 _symmetry_equiv_pos_site_id
 _symmetry_equiv_pos_as_xyz
  1  'x, y, z'
loop_
 _atom_site_type_symbol
 _atom_site_label
 _atom_site_symmetry_multiplicity
 _atom_site_fract_x
 _atom_site_fract_y
 _atom_site_fract_z
 _atom_site_occupancy
  Mg  Mg0  1  0.999957  0.000000  0.999753  1
  Mg  Mg1  1  0.500000  0.500001  0.166448  1
  Mg  Mg2  1  0.000000  0.000000  0.333552  1
  Mg  Mg3  1  0.499957  0.500001  0.500247  1
  Ta  Ta4  1  0.000035  0.000000  0.663207  1
  Ta  Ta5  1  0.500035  0.500001  0.836793  1
  Sn  Sn6  1  0.999959  0.500001  0.005713  1
  Sn  Sn7  1  0.500008  0.000000  0.169531  1
  Sn  Sn8  1  0.000008  0.500001  0.330469  1
  Sn  Sn9  1  0.499959  0.000000  0.494287  1
  Sn  Sn10  1  0.000047  0.500001  0.663130  1
  Sn  Sn11  1  0.500047  0.000000  0.836870  1
  Ru  Ru12  1  0.499950  0.254190  0.995235  1
  Ru  Ru13  1  0.499950  0.745810  0.995235  1
  Ru  Ru14  1  0.000011  0.244737  0.165648  1
  Ru  Ru15  1  0.000011  0.755264  0.165648  1
  Ru  Ru16  1  0.500011  0.255264  0.334352  1
  Ru  Ru17  1  0.500011  0.744736  0.334352  1
  Ru  Ru18  1  0.999950  0.245811  0.504765  1
  Ru  Ru19  1  0.999950  0.754190  0.504765  1
  Ru  Ru20  1  0.500035  0.244695  0.670146  1
  Ru  Ru21  1  0.500035  0.755305  0.670146  1
  Ru  Ru22  1  0.000037  0.255306  0.829854  1
  Ru  Ru23  1  0.000037  0.744695  0.829854  1
