# generated using pymatgen
data_YTh(SiNi4)2
_symmetry_space_group_name_H-M   'P 1'
_cell_length_a   3.98729900
_cell_length_b   5.11794800
_cell_length_c   8.20232500
_cell_angle_alpha   90.00000000
_cell_angle_beta   90.00000000
_cell_angle_gamma   90.00000000
_symmetry_Int_Tables_number   1
_chemical_formula_structural   YTh(SiNi4)2
_chemical_formula_sum   'Y1 Th1 Si2 Ni8'
_cell_volume   167.38311511
_cell_formula_units_Z   1
loop_
 _symmetry_equiv_pos_site_id
 _symmetry_equiv_pos_as_xyz
  1  'x, y, z'
loop_
 _atom_site_type_symbol
 _atom_site_label
 _atom_site_symmetry_multiplicity
 _atom_site_fract_x
 _atom_site_fract_y
 _atom_site_fract_z
 _atom_site_occupancy
  Y  Y0  1  0.000000  0.500000  0.500000  1
  Th  Th1  1  0.000000  0.000000  0.000000  1
  Si  Si2  1  0.500000  0.000000  0.500000  1
  Si  Si3  1  0.500000  0.500000  0.000000  1
  Ni  Ni4  1  0.000000  0.000000  0.342232  1
  Ni  Ni5  1  0.000000  0.500000  0.840789  1
  Ni  Ni6  1  0.000000  0.500000  0.159211  1
  Ni  Ni7  1  0.000000  0.000000  0.657768  1
  Ni  Ni8  1  0.500000  0.250871  0.251662  1
  Ni  Ni9  1  0.500000  0.749129  0.748338  1
  Ni  Ni10  1  0.500000  0.749129  0.251662  1
  Ni  Ni11  1  0.500000  0.250871  0.748338  1
