# generated using pymatgen
data_KNpCrS4
_symmetry_space_group_name_H-M   'P 1'
_cell_length_a   3.83494200
_cell_length_b   6.33236640
_cell_length_c   7.68068862
_cell_angle_alpha   88.53998958
_cell_angle_beta   90.00000000
_cell_angle_gamma   90.00000000
_symmetry_Int_Tables_number   1
_chemical_formula_structural   KNpCrS4
_chemical_formula_sum   'K1 Np1 Cr1 S4'
_cell_volume   186.45926978
_cell_formula_units_Z   1
loop_
 _symmetry_equiv_pos_site_id
 _symmetry_equiv_pos_as_xyz
  1  'x, y, z'
loop_
 _atom_site_type_symbol
 _atom_site_label
 _atom_site_symmetry_multiplicity
 _atom_site_fract_x
 _atom_site_fract_y
 _atom_site_fract_z
 _atom_site_occupancy
  K  K0  1  0.000000  0.500000  0.000000  1
  Np  Np1  1  0.500000  0.000000  0.500000  1
  Cr  Cr2  1  0.000000  0.500000  0.500000  1
  S  S3  1  0.000000  0.817958  0.313906  1
  S  S4  1  0.500000  0.366419  0.324883  1
  S  S5  1  0.500000  0.633581  0.675117  1
  S  S6  1  0.000000  0.182042  0.686094  1
