# generated using pymatgen
data_Tb4Ga20Pt11
_symmetry_space_group_name_H-M   'P 1'
_cell_length_a   4.17834571
_cell_length_b   10.99156924
_cell_length_c   13.74910891
_cell_angle_alpha   82.47732984
_cell_angle_beta   81.26006559
_cell_angle_gamma   79.04310496
_symmetry_Int_Tables_number   1
_chemical_formula_structural   Tb4Ga20Pt11
_chemical_formula_sum   'Tb4 Ga20 Pt11'
_cell_volume   609.34287965
_cell_formula_units_Z   1
loop_
 _symmetry_equiv_pos_site_id
 _symmetry_equiv_pos_as_xyz
  1  'x, y, z'
loop_
 _atom_site_type_symbol
 _atom_site_label
 _atom_site_symmetry_multiplicity
 _atom_site_fract_x
 _atom_site_fract_y
 _atom_site_fract_z
 _atom_site_occupancy
  Tb  Tb0  1  0.123358  0.088454  0.664830  1
  Tb  Tb1  1  0.876642  0.911546  0.335170  1
  Tb  Tb2  1  0.774105  0.630890  0.820899  1
  Tb  Tb3  1  0.225895  0.369110  0.179101  1
  Ga  Ga4  1  0.008152  0.071875  0.911823  1
  Ga  Ga5  1  0.991848  0.928125  0.088177  1
  Ga  Ga6  1  0.065945  0.672697  0.195414  1
  Ga  Ga7  1  0.934055  0.327303  0.804586  1
  Ga  Ga8  1  0.102208  0.341744  0.453838  1
  Ga  Ga9  1  0.897792  0.658256  0.546162  1
  Ga  Ga10  1  0.202550  0.602932  0.991967  1
  Ga  Ga11  1  0.797450  0.397068  0.008033  1
  Ga  Ga12  1  0.257468  0.782391  0.702673  1
  Ga  Ga13  1  0.742532  0.217609  0.297327  1
  Ga  Ga14  1  0.302125  0.899692  0.496058  1
  Ga  Ga15  1  0.697875  0.100308  0.503942  1
  Ga  Ga16  1  0.387109  0.525501  0.700282  1
  Ga  Ga17  1  0.612891  0.474499  0.299718  1
  Ga  Ga18  1  0.396874  0.205526  0.000727  1
  Ga  Ga19  1  0.603126  0.794474  0.999273  1
  Ga  Ga20  1  0.544054  0.283656  0.628237  1
  Ga  Ga21  1  0.455946  0.716344  0.371763  1
  Ga  Ga22  1  0.635555  0.935198  0.793693  1
  Ga  Ga23  1  0.364445  0.064802  0.206307  1
  Pt  Pt24  1  0.500000  0.500000  0.500000  1
  Pt  Pt25  1  0.027484  0.574901  0.370130  1
  Pt  Pt26  1  0.972516  0.425099  0.629870  1
  Pt  Pt27  1  0.136910  0.835561  0.890619  1
  Pt  Pt28  1  0.863090  0.164439  0.109381  1
  Pt  Pt29  1  0.240642  0.127656  0.391058  1
  Pt  Pt30  1  0.759358  0.872344  0.608942  1
  Pt  Pt31  1  0.345277  0.417900  0.891546  1
  Pt  Pt32  1  0.654723  0.582100  0.108454  1
  Pt  Pt33  1  0.505686  0.170042  0.818586  1
  Pt  Pt34  1  0.494314  0.829958  0.181414  1
