# generated using pymatgen
data_Nb2V2SiP
_symmetry_space_group_name_H-M   'P 1'
_cell_length_a   3.44553700
_cell_length_b   6.46897200
_cell_length_c   7.81190400
_cell_angle_alpha   90.00000000
_cell_angle_beta   90.00000000
_cell_angle_gamma   90.00000000
_symmetry_Int_Tables_number   1
_chemical_formula_structural   Nb2V2SiP
_chemical_formula_sum   'Nb4 V4 Si2 P2'
_cell_volume   174.12017178
_cell_formula_units_Z   2
loop_
 _symmetry_equiv_pos_site_id
 _symmetry_equiv_pos_as_xyz
  1  'x, y, z'
loop_
 _atom_site_type_symbol
 _atom_site_label
 _atom_site_symmetry_multiplicity
 _atom_site_fract_x
 _atom_site_fract_y
 _atom_site_fract_z
 _atom_site_occupancy
  Nb  Nb0  1  0.250000  0.037900  0.829636  1
  Nb  Nb1  1  0.250000  0.537900  0.670364  1
  Nb  Nb2  1  0.750000  0.958066  0.167227  1
  Nb  Nb3  1  0.750000  0.458066  0.332773  1
  V  V4  1  0.250000  0.134612  0.446677  1
  V  V5  1  0.250000  0.634612  0.053323  1
  V  V6  1  0.750000  0.869517  0.562441  1
  V  V7  1  0.750000  0.369517  0.937559  1
  Si  Si8  1  0.250000  0.756812  0.360957  1
  Si  Si9  1  0.250000  0.256812  0.139043  1
  P  P10  1  0.750000  0.243093  0.639519  1
  P  P11  1  0.750000  0.743093  0.860481  1
