# generated using pymatgen
data_CsNp(NbCl3)6
_symmetry_space_group_name_H-M   'P 1'
_cell_length_a   10.36277368
_cell_length_b   10.36277416
_cell_length_c   10.36277300
_cell_angle_alpha   55.28329407
_cell_angle_beta   55.28329225
_cell_angle_gamma   55.28330101
_symmetry_Int_Tables_number   1
_chemical_formula_structural   CsNp(NbCl3)6
_chemical_formula_sum   'Cs1 Np1 Nb6 Cl18'
_cell_volume   700.63385117
_cell_formula_units_Z   1
loop_
 _symmetry_equiv_pos_site_id
 _symmetry_equiv_pos_as_xyz
  1  'x, y, z'
loop_
 _atom_site_type_symbol
 _atom_site_label
 _atom_site_symmetry_multiplicity
 _atom_site_fract_x
 _atom_site_fract_y
 _atom_site_fract_z
 _atom_site_occupancy
  Cs  Cs0  1  0.222693  0.222693  0.222693  1
  Np  Np1  1  0.498422  0.498422  0.498422  1
  Nb  Nb2  1  0.802850  0.147799  0.912916  1
  Nb  Nb3  1  0.912916  0.802850  0.147799  1
  Nb  Nb4  1  0.147799  0.912916  0.802850  1
  Nb  Nb5  1  0.198501  0.852688  0.085631  1
  Nb  Nb6  1  0.085631  0.198501  0.852688  1
  Nb  Nb7  1  0.852688  0.085631  0.198501  1
  Cl  Cl8  1  0.865920  0.408026  0.728199  1
  Cl  Cl9  1  0.728199  0.865920  0.408026  1
  Cl  Cl10  1  0.408026  0.728199  0.865920  1
  Cl  Cl11  1  0.132981  0.592423  0.274077  1
  Cl  Cl12  1  0.274077  0.132981  0.592423  1
  Cl  Cl13  1  0.592423  0.274077  0.132981  1
  Cl  Cl14  1  0.541422  0.338271  0.803150  1
  Cl  Cl15  1  0.803150  0.541422  0.338271  1
  Cl  Cl16  1  0.338271  0.803150  0.541422  1
  Cl  Cl17  1  0.456829  0.664296  0.196842  1
  Cl  Cl18  1  0.196842  0.456829  0.664296  1
  Cl  Cl19  1  0.664296  0.196842  0.456829  1
  Cl  Cl20  1  0.666122  0.939876  0.069941  1
  Cl  Cl21  1  0.069941  0.666122  0.939876  1
  Cl  Cl22  1  0.939876  0.069941  0.666122  1
  Cl  Cl23  1  0.337360  0.058981  0.924925  1
  Cl  Cl24  1  0.924925  0.337360  0.058981  1
  Cl  Cl25  1  0.058981  0.924925  0.337360  1
