# generated using pymatgen
data_Y7TmAl8
_symmetry_space_group_name_H-M   'P 1'
_cell_length_a   5.64058100
_cell_length_b   5.84789701
_cell_length_c   11.40970739
_cell_angle_alpha   89.98255893
_cell_angle_beta   90.00000000
_cell_angle_gamma   90.00000000
_symmetry_Int_Tables_number   1
_chemical_formula_structural   Y7TmAl8
_chemical_formula_sum   'Y7 Tm1 Al8'
_cell_volume   376.35530498
_cell_formula_units_Z   1
loop_
 _symmetry_equiv_pos_site_id
 _symmetry_equiv_pos_as_xyz
  1  'x, y, z'
loop_
 _atom_site_type_symbol
 _atom_site_label
 _atom_site_symmetry_multiplicity
 _atom_site_fract_x
 _atom_site_fract_y
 _atom_site_fract_z
 _atom_site_occupancy
  Y  Y0  1  0.750000  0.161966  0.484705  1
  Y  Y1  1  0.250000  0.837946  0.516626  1
  Y  Y2  1  0.250000  0.161164  0.015759  1
  Y  Y3  1  0.750000  0.838985  0.983639  1
  Y  Y4  1  0.750000  0.397389  0.167935  1
  Y  Y5  1  0.250000  0.602849  0.831454  1
  Y  Y6  1  0.250000  0.397330  0.331777  1
  Tm  Tm7  1  0.750000  0.603224  0.668273  1
  Al  Al8  1  0.500070  0.928289  0.250042  1
  Al  Al9  1  0.999753  0.070985  0.749752  1
  Al  Al10  1  0.500247  0.070985  0.749752  1
  Al  Al11  1  0.999930  0.928289  0.250042  1
  Al  Al12  1  0.750000  0.659750  0.402247  1
  Al  Al13  1  0.250000  0.340583  0.598649  1
  Al  Al14  1  0.250000  0.659731  0.098354  1
  Al  Al15  1  0.750000  0.340534  0.900995  1
