# generated using pymatgen
data_Nd6HoFeCl12
_symmetry_space_group_name_H-M   'P 1'
_cell_length_a   9.05804798
_cell_length_b   9.23760513
_cell_length_c   9.22960300
_cell_angle_alpha   107.63515307
_cell_angle_beta   106.72978700
_cell_angle_gamma   106.94110800
_symmetry_Int_Tables_number   1
_chemical_formula_structural   Nd6HoFeCl12
_chemical_formula_sum   'Nd6 Ho1 Fe1 Cl12'
_cell_volume   641.33329575
_cell_formula_units_Z   1
loop_
 _symmetry_equiv_pos_site_id
 _symmetry_equiv_pos_as_xyz
  1  'x, y, z'
loop_
 _atom_site_type_symbol
 _atom_site_label
 _atom_site_symmetry_multiplicity
 _atom_site_fract_x
 _atom_site_fract_y
 _atom_site_fract_z
 _atom_site_occupancy
  Nd  Nd0  1  0.306333  0.102880  0.021724  1
  Nd  Nd1  1  0.020671  0.318455  0.108549  1
  Nd  Nd2  1  0.108278  0.021899  0.317785  1
  Nd  Nd3  1  0.891721  0.978101  0.682215  1
  Nd  Nd4  1  0.979329  0.681545  0.891450  1
  Nd  Nd5  1  0.693667  0.897120  0.978275  1
  Ho  Ho6  1  0.500000  0.500000  0.500000  1
  Fe  Fe7  1  0.000000  0.000000  0.000000  1
  Cl  Cl8  1  0.683389  0.215378  0.073624  1
  Cl  Cl9  1  0.387212  0.462025  0.186565  1
  Cl  Cl10  1  0.073591  0.686760  0.215214  1
  Cl  Cl11  1  0.782210  0.927333  0.313356  1
  Cl  Cl12  1  0.465273  0.187241  0.385876  1
  Cl  Cl13  1  0.181784  0.385904  0.464260  1
  Cl  Cl14  1  0.818217  0.614096  0.535741  1
  Cl  Cl15  1  0.534727  0.812760  0.614124  1
  Cl  Cl16  1  0.217789  0.072667  0.686644  1
  Cl  Cl17  1  0.926409  0.313240  0.784785  1
  Cl  Cl18  1  0.612789  0.537976  0.813435  1
  Cl  Cl19  1  0.316611  0.784621  0.926376  1
