# generated using pymatgen
data_Na4CdSn6Au
_symmetry_space_group_name_H-M   'P 1'
_cell_length_a   10.00713800
_cell_length_b   10.00713824
_cell_length_c   7.64113900
_cell_angle_alpha   90.00000000
_cell_angle_beta   90.00000000
_cell_angle_gamma   119.99999922
_symmetry_Int_Tables_number   1
_chemical_formula_structural   Na4CdSn6Au
_chemical_formula_sum   'Na8 Cd2 Sn12 Au2'
_cell_volume   662.68710976
_cell_formula_units_Z   2
loop_
 _symmetry_equiv_pos_site_id
 _symmetry_equiv_pos_as_xyz
  1  'x, y, z'
loop_
 _atom_site_type_symbol
 _atom_site_label
 _atom_site_symmetry_multiplicity
 _atom_site_fract_x
 _atom_site_fract_y
 _atom_site_fract_z
 _atom_site_occupancy
  Na  Na0  1  0.529519  0.059038  0.244215  1
  Na  Na1  1  0.059038  0.529519  0.755785  1
  Na  Na2  1  0.470481  0.529519  0.755785  1
  Na  Na3  1  0.529519  0.470481  0.244215  1
  Na  Na4  1  0.470481  0.940962  0.755785  1
  Na  Na5  1  0.940962  0.470481  0.244215  1
  Na  Na6  1  0.000000  0.000000  0.754531  1
  Na  Na7  1  0.000000  0.000000  0.245469  1
  Cd  Cd8  1  0.333333  0.666667  0.425239  1
  Cd  Cd9  1  0.666667  0.333333  0.574761  1
  Sn  Sn10  1  0.171844  0.828156  0.051727  1
  Sn  Sn11  1  0.832928  0.665856  0.553834  1
  Sn  Sn12  1  0.334144  0.167072  0.553834  1
  Sn  Sn13  1  0.828156  0.171844  0.948273  1
  Sn  Sn14  1  0.828156  0.656313  0.948273  1
  Sn  Sn15  1  0.832928  0.167072  0.553834  1
  Sn  Sn16  1  0.343687  0.171844  0.948273  1
  Sn  Sn17  1  0.656313  0.828156  0.051727  1
  Sn  Sn18  1  0.665856  0.832928  0.446166  1
  Sn  Sn19  1  0.167072  0.334144  0.446166  1
  Sn  Sn20  1  0.167072  0.832928  0.446166  1
  Sn  Sn21  1  0.171844  0.343687  0.051727  1
  Au  Au22  1  0.666667  0.333333  0.960075  1
  Au  Au23  1  0.333333  0.666667  0.039925  1
