# generated using pymatgen
data_Dy3TmZn12
_symmetry_space_group_name_H-M   'P 1'
_cell_length_a   4.39136400
_cell_length_b   6.65685747
_cell_length_c   10.09148001
_cell_angle_alpha   89.90797392
_cell_angle_beta   90.00000000
_cell_angle_gamma   90.00000000
_symmetry_Int_Tables_number   1
_chemical_formula_structural   Dy3TmZn12
_chemical_formula_sum   'Dy3 Tm1 Zn12'
_cell_volume   295.00066808
_cell_formula_units_Z   1
loop_
 _symmetry_equiv_pos_site_id
 _symmetry_equiv_pos_as_xyz
  1  'x, y, z'
loop_
 _atom_site_type_symbol
 _atom_site_label
 _atom_site_symmetry_multiplicity
 _atom_site_fract_x
 _atom_site_fract_y
 _atom_site_fract_z
 _atom_site_occupancy
  Dy  Dy0  1  0.250000  0.778573  0.836024  1
  Dy  Dy1  1  0.750000  0.721464  0.336246  1
  Dy  Dy2  1  0.750000  0.221280  0.163465  1
  Tm  Tm3  1  0.250000  0.279018  0.663513  1
  Zn  Zn4  1  0.250000  0.535820  0.104079  1
  Zn  Zn5  1  0.250000  0.036208  0.396646  1
  Zn  Zn6  1  0.750000  0.464435  0.895736  1
  Zn  Zn7  1  0.750000  0.964917  0.604616  1
  Zn  Zn8  1  0.250000  0.918546  0.148142  1
  Zn  Zn9  1  0.250000  0.418212  0.351960  1
  Zn  Zn10  1  0.750000  0.082400  0.850707  1
  Zn  Zn11  1  0.750000  0.580291  0.648938  1
  Zn  Zn12  1  0.250000  0.216912  0.956186  1
  Zn  Zn13  1  0.250000  0.714800  0.542974  1
  Zn  Zn14  1  0.750000  0.783459  0.042789  1
  Zn  Zn15  1  0.750000  0.283667  0.457979  1
