# generated using pymatgen
data_ScTaNb(ReSi)3
_symmetry_space_group_name_H-M   'P 1'
_cell_length_a   6.95027974
_cell_length_b   6.91842368
_cell_length_c   3.33217500
_cell_angle_alpha   90.00000000
_cell_angle_beta   90.00000000
_cell_angle_gamma   120.80039976
_symmetry_Int_Tables_number   1
_chemical_formula_structural   ScTaNb(ReSi)3
_chemical_formula_sum   'Sc1 Ta1 Nb1 Re3 Si3'
_cell_volume   137.62848301
_cell_formula_units_Z   1
loop_
 _symmetry_equiv_pos_site_id
 _symmetry_equiv_pos_as_xyz
  1  'x, y, z'
loop_
 _atom_site_type_symbol
 _atom_site_label
 _atom_site_symmetry_multiplicity
 _atom_site_fract_x
 _atom_site_fract_y
 _atom_site_fract_z
 _atom_site_occupancy
  Sc  Sc0  1  0.401983  0.401387  0.500000  1
  Ta  Ta1  1  0.003980  0.600683  0.500000  1
  Nb  Nb2  1  0.598273  0.002440  0.500000  1
  Re  Re3  1  0.746361  0.744045  0.000000  1
  Re  Re4  1  0.253248  0.992363  0.000000  1
  Re  Re5  1  0.994787  0.257018  0.000000  1
  Si  Si6  1  0.666555  0.333326  0.000000  1
  Si  Si7  1  0.335033  0.667294  0.000000  1
  Si  Si8  1  0.999782  0.001446  0.500000  1
