# generated using pymatgen
data_K2BaSrSb2
_symmetry_space_group_name_H-M   'P 1'
_cell_length_a   5.45506000
_cell_length_b   8.82530600
_cell_length_c   10.44133800
_cell_angle_alpha   90.00000000
_cell_angle_beta   90.00000000
_cell_angle_gamma   90.00000000
_symmetry_Int_Tables_number   1
_chemical_formula_structural   K2BaSrSb2
_chemical_formula_sum   'K4 Ba2 Sr2 Sb4'
_cell_volume   502.67288470
_cell_formula_units_Z   2
loop_
 _symmetry_equiv_pos_site_id
 _symmetry_equiv_pos_as_xyz
  1  'x, y, z'
loop_
 _atom_site_type_symbol
 _atom_site_label
 _atom_site_symmetry_multiplicity
 _atom_site_fract_x
 _atom_site_fract_y
 _atom_site_fract_z
 _atom_site_occupancy
  K  K0  1  0.500000  0.025414  0.416349  1
  K  K1  1  0.000000  0.344191  0.340677  1
  K  K2  1  0.500000  0.525414  0.583651  1
  K  K3  1  0.000000  0.844191  0.659323  1
  Ba  Ba4  1  0.000000  0.994887  0.061844  1
  Ba  Ba5  1  0.000000  0.494887  0.938156  1
  Sr  Sr6  1  0.500000  0.150046  0.815189  1
  Sr  Sr7  1  0.500000  0.650046  0.184811  1
  Sb  Sb8  1  0.000000  0.255198  0.671111  1
  Sb  Sb9  1  0.500000  0.275864  0.116813  1
  Sb  Sb10  1  0.000000  0.755198  0.328889  1
  Sb  Sb11  1  0.500000  0.775864  0.883187  1
