# generated using pymatgen
data_Nb12Cr3Fe2Si7N4
_symmetry_space_group_name_H-M   'P 1'
_cell_length_a   8.05845215
_cell_length_b   8.05845272
_cell_length_c   8.05845251
_cell_angle_alpha   60.42259246
_cell_angle_beta   60.42259037
_cell_angle_gamma   60.42258801
_symmetry_Int_Tables_number   1
_chemical_formula_structural   Nb12Cr3Fe2Si7N4
_chemical_formula_sum   'Nb12 Cr3 Fe2 Si7 N4'
_cell_volume   373.56834176
_cell_formula_units_Z   1
loop_
 _symmetry_equiv_pos_site_id
 _symmetry_equiv_pos_as_xyz
  1  'x, y, z'
loop_
 _atom_site_type_symbol
 _atom_site_label
 _atom_site_symmetry_multiplicity
 _atom_site_fract_x
 _atom_site_fract_y
 _atom_site_fract_z
 _atom_site_occupancy
  Nb  Nb0  1  0.802719  0.802719  0.194090  1
  Nb  Nb1  1  0.197963  0.197963  0.802473  1
  Nb  Nb2  1  0.802719  0.194090  0.802719  1
  Nb  Nb3  1  0.197963  0.802473  0.197963  1
  Nb  Nb4  1  0.194090  0.802719  0.802719  1
  Nb  Nb5  1  0.802473  0.197963  0.197963  1
  Nb  Nb6  1  0.447786  0.447786  0.053881  1
  Nb  Nb7  1  0.054402  0.054402  0.445724  1
  Nb  Nb8  1  0.447786  0.053881  0.447786  1
  Nb  Nb9  1  0.054402  0.445724  0.054402  1
  Nb  Nb10  1  0.053881  0.447786  0.447786  1
  Nb  Nb11  1  0.445724  0.054402  0.054402  1
  Cr  Cr12  1  0.127489  0.624786  0.624786  1
  Cr  Cr13  1  0.624786  0.127489  0.624786  1
  Cr  Cr14  1  0.624786  0.624786  0.127489  1
  Fe  Fe15  1  0.624254  0.624254  0.624254  1
  Fe  Fe16  1  0.824020  0.824020  0.824020  1
  Si  Si17  1  0.752666  0.417891  0.417891  1
  Si  Si18  1  0.417891  0.752666  0.417891  1
  Si  Si19  1  0.417891  0.417891  0.752666  1
  Si  Si20  1  0.415262  0.415262  0.415262  1
  Si  Si21  1  0.503097  0.832981  0.832981  1
  Si  Si22  1  0.832981  0.503097  0.832981  1
  Si  Si23  1  0.832981  0.832981  0.503097  1
  N  N24  1  0.628172  0.123789  0.123789  1
  N  N25  1  0.123789  0.628172  0.123789  1
  N  N26  1  0.123789  0.123789  0.628172  1
  N  N27  1  0.124239  0.124239  0.124239  1
