# generated using pymatgen
data_YHoSiP5Pd20Pb
_symmetry_space_group_name_H-M   'P 1'
_cell_length_a   8.68071107
_cell_length_b   8.68071094
_cell_length_c   8.69690300
_cell_angle_alpha   59.93827362
_cell_angle_beta   59.93827413
_cell_angle_gamma   60.12345712
_symmetry_Int_Tables_number   1
_chemical_formula_structural   YHoSiP5Pd20Pb
_chemical_formula_sum   'Y1 Ho1 Si1 P5 Pd20 Pb1'
_cell_volume   463.40126226
_cell_formula_units_Z   1
loop_
 _symmetry_equiv_pos_site_id
 _symmetry_equiv_pos_as_xyz
  1  'x, y, z'
loop_
 _atom_site_type_symbol
 _atom_site_label
 _atom_site_symmetry_multiplicity
 _atom_site_fract_x
 _atom_site_fract_y
 _atom_site_fract_z
 _atom_site_occupancy
  Y  Y0  1  0.750529  0.750529  0.749471  1
  Ho  Ho1  1  0.999443  0.999443  0.000557  1
  Si  Si2  1  0.733728  0.733728  0.266272  1
  P  P3  1  0.737189  0.264683  0.262888  1
  P  P4  1  0.264683  0.737189  0.735240  1
  P  P5  1  0.264683  0.737189  0.262888  1
  P  P6  1  0.737189  0.264683  0.735240  1
  P  P7  1  0.263892  0.263892  0.736108  1
  Pd  Pd8  1  0.384761  0.384761  0.384661  1
  Pd  Pd9  1  0.614659  0.614659  0.617204  1
  Pd  Pd10  1  0.384761  0.384761  0.845818  1
  Pd  Pd11  1  0.383228  0.848006  0.384383  1
  Pd  Pd12  1  0.614659  0.614659  0.153476  1
  Pd  Pd13  1  0.615238  0.154636  0.615063  1
  Pd  Pd14  1  0.848006  0.383228  0.384383  1
  Pd  Pd15  1  0.154636  0.615238  0.615063  1
  Pd  Pd16  1  0.347198  0.998915  0.997251  1
  Pd  Pd17  1  0.656881  0.998329  0.997674  1
  Pd  Pd18  1  0.998915  0.347198  0.656637  1
  Pd  Pd19  1  0.998329  0.656881  0.347117  1
  Pd  Pd20  1  0.998915  0.347198  0.997251  1
  Pd  Pd21  1  0.656881  0.998329  0.347117  1
  Pd  Pd22  1  0.998329  0.656881  0.997674  1
  Pd  Pd23  1  0.347198  0.998915  0.656637  1
  Pd  Pd24  1  0.996641  0.996641  0.347223  1
  Pd  Pd25  1  0.996641  0.996641  0.659496  1
  Pd  Pd26  1  0.657181  0.344897  0.998961  1
  Pd  Pd27  1  0.344897  0.657181  0.998961  1
  Pb  Pb28  1  0.250718  0.250718  0.249282  1
