# generated using pymatgen
data_YbDyPaRh3
_symmetry_space_group_name_H-M   'P 1'
_cell_length_a   5.35376264
_cell_length_b   5.35376243
_cell_length_c   5.35376200
_cell_angle_alpha   65.73935541
_cell_angle_beta   65.73935639
_cell_angle_gamma   65.73936957
_symmetry_Int_Tables_number   1
_chemical_formula_structural   YbDyPaRh3
_chemical_formula_sum   'Yb1 Dy1 Pa1 Rh3'
_cell_volume   122.01761995
_cell_formula_units_Z   1
loop_
 _symmetry_equiv_pos_site_id
 _symmetry_equiv_pos_as_xyz
  1  'x, y, z'
loop_
 _atom_site_type_symbol
 _atom_site_label
 _atom_site_symmetry_multiplicity
 _atom_site_fract_x
 _atom_site_fract_y
 _atom_site_fract_z
 _atom_site_occupancy
  Yb  Yb0  1  0.751217  0.751217  0.751217  1
  Dy  Dy1  1  0.503424  0.503424  0.503424  1
  Pa  Pa2  1  0.123303  0.123303  0.123303  1
  Rh  Rh3  1  0.623381  0.124337  0.124337  1
  Rh  Rh4  1  0.124337  0.124337  0.623381  1
  Rh  Rh5  1  0.124337  0.623381  0.124337  1
