# generated using pymatgen
data_Li4Pr4MgPd4
_symmetry_space_group_name_H-M   'P 1'
_cell_length_a   8.44356897
_cell_length_b   8.44357025
_cell_length_c   8.44356900
_cell_angle_alpha   93.74477116
_cell_angle_beta   93.74477173
_cell_angle_gamma   150.38617361
_symmetry_Int_Tables_number   1
_chemical_formula_structural   Li4Pr4MgPd4
_chemical_formula_sum   'Li4 Pr4 Mg1 Pd4'
_cell_volume   287.58871506
_cell_formula_units_Z   1
loop_
 _symmetry_equiv_pos_site_id
 _symmetry_equiv_pos_as_xyz
  1  'x, y, z'
loop_
 _atom_site_type_symbol
 _atom_site_label
 _atom_site_symmetry_multiplicity
 _atom_site_fract_x
 _atom_site_fract_y
 _atom_site_fract_z
 _atom_site_occupancy
  Li  Li0  1  0.596316  0.076999  0.673315  1
  Li  Li1  1  0.923001  0.596316  0.519317  1
  Li  Li2  1  0.076999  0.403684  0.480683  1
  Li  Li3  1  0.403684  0.923001  0.326685  1
  Pr  Pr4  1  0.119668  0.798297  0.917965  1
  Pr  Pr5  1  0.201703  0.119668  0.321370  1
  Pr  Pr6  1  0.880332  0.201703  0.082035  1
  Pr  Pr7  1  0.798297  0.880332  0.678630  1
  Mg  Mg8  1  0.500000  0.500000  0.000000  1
  Pd  Pd9  1  0.432969  0.250338  0.683305  1
  Pd  Pd10  1  0.567031  0.749662  0.316695  1
  Pd  Pd11  1  0.250338  0.567031  0.817369  1
  Pd  Pd12  1  0.749662  0.432969  0.182631  1
