# generated using pymatgen
data_Nd2Ho4ScCo17P12
_symmetry_space_group_name_H-M   'P 1'
_cell_length_a   3.71800600
_cell_length_b   10.59959300
_cell_length_c   12.29509000
_cell_angle_alpha   90.00000000
_cell_angle_beta   90.00000000
_cell_angle_gamma   90.00000000
_symmetry_Int_Tables_number   1
_chemical_formula_structural   Nd2Ho4ScCo17P12
_chemical_formula_sum   'Nd2 Ho4 Sc1 Co17 P12'
_cell_volume   484.54150966
_cell_formula_units_Z   1
loop_
 _symmetry_equiv_pos_site_id
 _symmetry_equiv_pos_as_xyz
  1  'x, y, z'
loop_
 _atom_site_type_symbol
 _atom_site_label
 _atom_site_symmetry_multiplicity
 _atom_site_fract_x
 _atom_site_fract_y
 _atom_site_fract_z
 _atom_site_occupancy
  Nd  Nd0  1  0.000000  0.500000  0.528539  1
  Nd  Nd1  1  0.500000  0.000000  0.476866  1
  Ho  Ho2  1  0.500000  0.821568  0.206548  1
  Ho  Ho3  1  0.500000  0.178432  0.206548  1
  Ho  Ho4  1  0.000000  0.682360  0.796577  1
  Ho  Ho5  1  0.000000  0.317640  0.796577  1
  Sc  Sc6  1  0.500000  0.500000  0.150306  1
  Co  Co7  1  0.000000  0.500000  0.984755  1
  Co  Co8  1  0.500000  0.000000  0.012472  1
  Co  Co9  1  0.500000  0.294811  0.432733  1
  Co  Co10  1  0.500000  0.705189  0.432733  1
  Co  Co11  1  0.000000  0.202666  0.572002  1
  Co  Co12  1  0.000000  0.797334  0.572002  1
  Co  Co13  1  0.500000  0.880586  0.710370  1
  Co  Co14  1  0.500000  0.119414  0.710370  1
  Co  Co15  1  0.000000  0.622487  0.293047  1
  Co  Co16  1  0.000000  0.377513  0.293047  1
  Co  Co17  1  0.500000  0.326423  0.990331  1
  Co  Co18  1  0.500000  0.673577  0.990331  1
  Co  Co19  1  0.000000  0.162530  0.001369  1
  Co  Co20  1  0.000000  0.837470  0.001369  1
  Co  Co21  1  0.000000  0.000000  0.839081  1
  Co  Co22  1  0.500000  0.500000  0.707536  1
  Co  Co23  1  0.000000  0.000000  0.292122  1
  P  P24  1  0.500000  0.306351  0.619595  1
  P  P25  1  0.500000  0.693649  0.619595  1
  P  P26  1  0.000000  0.191964  0.384446  1
  P  P27  1  0.000000  0.808036  0.384446  1
  P  P28  1  0.500000  0.500000  0.884593  1
  P  P29  1  0.000000  0.000000  0.114810  1
  P  P30  1  0.500000  0.850844  0.889515  1
  P  P31  1  0.500000  0.149156  0.889515  1
  P  P32  1  0.000000  0.663770  0.101687  1
  P  P33  1  0.000000  0.336230  0.101687  1
  P  P34  1  0.500000  0.500000  0.354107  1
  P  P35  1  0.000000  0.000000  0.658369  1
