# generated using pymatgen
data_HoLu9Co3Ru
_symmetry_space_group_name_H-M   'P 1'
_cell_length_a   6.19054513
_cell_length_b   6.95307151
_cell_length_c   8.31030901
_cell_angle_alpha   96.65103914
_cell_angle_beta   112.14054293
_cell_angle_gamma   89.84125948
_symmetry_Int_Tables_number   1
_chemical_formula_structural   HoLu9Co3Ru
_chemical_formula_sum   'Ho1 Lu9 Co3 Ru1'
_cell_volume   328.77202303
_cell_formula_units_Z   1
loop_
 _symmetry_equiv_pos_site_id
 _symmetry_equiv_pos_as_xyz
  1  'x, y, z'
loop_
 _atom_site_type_symbol
 _atom_site_label
 _atom_site_symmetry_multiplicity
 _atom_site_fract_x
 _atom_site_fract_y
 _atom_site_fract_z
 _atom_site_occupancy
  Ho  Ho0  1  0.518745  0.087235  0.815656  1
  Lu  Lu1  1  0.474362  0.912161  0.189411  1
  Lu  Lu2  1  0.702640  0.418885  0.188453  1
  Lu  Lu3  1  0.297375  0.588359  0.812913  1
  Lu  Lu4  1  0.289018  0.320351  0.435296  1
  Lu  Lu5  1  0.714806  0.682682  0.566789  1
  Lu  Lu6  1  0.854974  0.184170  0.564976  1
  Lu  Lu7  1  0.147678  0.811324  0.435508  1
  Lu  Lu8  1  0.075790  0.253869  0.997996  1
  Lu  Lu9  1  0.925635  0.743814  0.997288  1
  Co  Co10  1  0.325422  0.573577  0.222050  1
  Co  Co11  1  0.674142  0.426321  0.775118  1
  Co  Co12  1  0.102333  0.924761  0.779835  1
  Ru  Ru13  1  0.897081  0.072494  0.218710  1
