# generated using pymatgen
data_Dy3Th3Co16(P6W)2
_symmetry_space_group_name_H-M   'P 1'
_cell_length_a   3.79146000
_cell_length_b   10.65881011
_cell_length_c   12.35625622
_cell_angle_alpha   89.92246255
_cell_angle_beta   90.00000000
_cell_angle_gamma   90.00000000
_symmetry_Int_Tables_number   1
_chemical_formula_structural   Dy3Th3Co16(P6W)2
_chemical_formula_sum   'Dy3 Th3 Co16 P12 W2'
_cell_volume   499.34615608
_cell_formula_units_Z   1
loop_
 _symmetry_equiv_pos_site_id
 _symmetry_equiv_pos_as_xyz
  1  'x, y, z'
loop_
 _atom_site_type_symbol
 _atom_site_label
 _atom_site_symmetry_multiplicity
 _atom_site_fract_x
 _atom_site_fract_y
 _atom_site_fract_z
 _atom_site_occupancy
  Dy  Dy0  1  0.500000  0.184486  0.202952  1
  Dy  Dy1  1  0.000000  0.681976  0.797474  1
  Dy  Dy2  1  0.000000  0.317572  0.795604  1
  Th  Th3  1  0.000000  0.500025  0.527218  1
  Th  Th4  1  0.500000  0.001443  0.474387  1
  Th  Th5  1  0.500000  0.820539  0.206757  1
  Co  Co6  1  0.500000  0.498711  0.700985  1
  Co  Co7  1  0.000000  0.998912  0.298145  1
  Co  Co8  1  0.000000  0.498263  0.984879  1
  Co  Co9  1  0.500000  0.002102  0.011722  1
  Co  Co10  1  0.500000  0.332629  0.989284  1
  Co  Co11  1  0.500000  0.666134  0.989802  1
  Co  Co12  1  0.000000  0.169721  0.007621  1
  Co  Co13  1  0.000000  0.833760  0.008430  1
  Co  Co14  1  0.500000  0.297048  0.430299  1
  Co  Co15  1  0.500000  0.701084  0.432679  1
  Co  Co16  1  0.000000  0.202377  0.569236  1
  Co  Co17  1  0.000000  0.798101  0.573912  1
  Co  Co18  1  0.500000  0.879907  0.712694  1
  Co  Co19  1  0.500000  0.119660  0.710485  1
  Co  Co20  1  0.000000  0.618850  0.288451  1
  Co  Co21  1  0.000000  0.379453  0.288161  1
  P  P22  1  0.500000  0.499074  0.879717  1
  P  P23  1  0.000000  0.005255  0.115861  1
  P  P24  1  0.500000  0.499920  0.344617  1
  P  P25  1  0.000000  0.998901  0.655987  1
  P  P26  1  0.500000  0.305417  0.617627  1
  P  P27  1  0.500000  0.693368  0.620106  1
  P  P28  1  0.000000  0.194269  0.381448  1
  P  P29  1  0.000000  0.803556  0.389656  1
  P  P30  1  0.500000  0.844628  0.894253  1
  P  P31  1  0.500000  0.156479  0.892287  1
  P  P32  1  0.000000  0.652235  0.102445  1
  P  P33  1  0.000000  0.344943  0.105281  1
  W  W34  1  0.500000  0.498683  0.152227  1
  W  W35  1  0.000000  0.000519  0.847309  1
