# generated using pymatgen
data_Ba2Cd3Sn
_symmetry_space_group_name_H-M   'P 1'
_cell_length_a   6.64335229
_cell_length_b   6.70090727
_cell_length_c   6.70090643
_cell_angle_alpha   133.92911460
_cell_angle_beta   101.34375663
_cell_angle_gamma   96.44158317
_symmetry_Int_Tables_number   1
_chemical_formula_structural   Ba2Cd3Sn
_chemical_formula_sum   'Ba2 Cd3 Sn1'
_cell_volume   197.14761756
_cell_formula_units_Z   1
loop_
 _symmetry_equiv_pos_site_id
 _symmetry_equiv_pos_as_xyz
  1  'x, y, z'
loop_
 _atom_site_type_symbol
 _atom_site_label
 _atom_site_symmetry_multiplicity
 _atom_site_fract_x
 _atom_site_fract_y
 _atom_site_fract_z
 _atom_site_occupancy
  Ba  Ba0  1  0.212279  0.457015  0.755264  1
  Ba  Ba1  1  0.789823  0.541456  0.248366  1
  Cd  Cd2  1  0.779665  0.835297  0.944368  1
  Cd  Cd3  1  0.604843  0.168089  0.436754  1
  Cd  Cd4  1  0.394558  0.837791  0.556767  1
  Sn  Sn5  1  0.218833  0.160351  0.058481  1
