# generated using pymatgen
data_Ta4Si4Ir2OsRh
_symmetry_space_group_name_H-M   'P 1'
_cell_length_a   3.82311000
_cell_length_b   6.41420921
_cell_length_c   7.32087863
_cell_angle_alpha   90.35045926
_cell_angle_beta   90.00000000
_cell_angle_gamma   90.00000000
_symmetry_Int_Tables_number   1
_chemical_formula_structural   Ta4Si4Ir2OsRh
_chemical_formula_sum   'Ta4 Si4 Ir2 Os1 Rh1'
_cell_volume   179.52089201
_cell_formula_units_Z   1
loop_
 _symmetry_equiv_pos_site_id
 _symmetry_equiv_pos_as_xyz
  1  'x, y, z'
loop_
 _atom_site_type_symbol
 _atom_site_label
 _atom_site_symmetry_multiplicity
 _atom_site_fract_x
 _atom_site_fract_y
 _atom_site_fract_z
 _atom_site_occupancy
  Ta  Ta0  1  0.250000  0.527359  0.670671  1
  Ta  Ta1  1  0.750000  0.476735  0.329486  1
  Ta  Ta2  1  0.250000  0.020142  0.823483  1
  Ta  Ta3  1  0.750000  0.975179  0.176244  1
  Si  Si4  1  0.250000  0.268654  0.122024  1
  Si  Si5  1  0.750000  0.729030  0.875926  1
  Si  Si6  1  0.250000  0.770552  0.376228  1
  Si  Si7  1  0.750000  0.230552  0.626333  1
  Ir  Ir8  1  0.250000  0.149821  0.436122  1
  Ir  Ir9  1  0.250000  0.646969  0.064384  1
  Os  Os10  1  0.750000  0.852547  0.562463  1
  Rh  Rh11  1  0.750000  0.352459  0.936634  1
