# generated using pymatgen
data_Dy3Y5(ScIn3)2
_symmetry_space_group_name_H-M   'P 1'
_cell_length_a   9.05229177
_cell_length_b   9.05229206
_cell_length_c   9.05049476
_cell_angle_alpha   96.47989078
_cell_angle_beta   96.47264825
_cell_angle_gamma   140.75622841
_symmetry_Int_Tables_number   1
_chemical_formula_structural   Dy3Y5(ScIn3)2
_chemical_formula_sum   'Dy3 Y5 Sc2 In6'
_cell_volume   441.91672703
_cell_formula_units_Z   1
loop_
 _symmetry_equiv_pos_site_id
 _symmetry_equiv_pos_as_xyz
  1  'x, y, z'
loop_
 _atom_site_type_symbol
 _atom_site_label
 _atom_site_symmetry_multiplicity
 _atom_site_fract_x
 _atom_site_fract_y
 _atom_site_fract_z
 _atom_site_occupancy
  Dy  Dy0  1  0.781334  0.917565  0.698900  1
  Dy  Dy1  1  0.417747  0.281284  0.699032  1
  Dy  Dy2  1  0.082185  0.781139  0.863324  1
  Y  Y3  1  0.718390  0.417532  0.135923  1
  Y  Y4  1  0.281154  0.582527  0.863681  1
  Y  Y5  1  0.582722  0.718667  0.301388  1
  Y  Y6  1  0.218734  0.082810  0.301542  1
  Y  Y7  1  0.917656  0.218394  0.136052  1
  Sc  Sc8  1  0.750046  0.250033  0.500074  1
  Sc  Sc9  1  0.250041  0.750028  0.500074  1
  In  In10  1  0.843253  0.656984  0.500236  1
  In  In11  1  0.342970  0.843322  0.186292  1
  In  In12  1  0.750020  0.749949  0.999826  1
  In  In13  1  0.656871  0.156746  0.813618  1
  In  In14  1  0.157002  0.343216  0.500218  1
  In  In15  1  0.249876  0.249806  0.999826  1
