# generated using pymatgen
data_Y4Re3Os3Ru2
_symmetry_space_group_name_H-M   'P 1'
_cell_length_a   5.30903059
_cell_length_b   5.29598421
_cell_length_c   9.08294100
_cell_angle_alpha   90.00000000
_cell_angle_beta   90.00000000
_cell_angle_gamma   119.91874029
_symmetry_Int_Tables_number   1
_chemical_formula_structural   Y4Re3Os3Ru2
_chemical_formula_sum   'Y4 Re3 Os3 Ru2'
_cell_volume   221.34721612
_cell_formula_units_Z   1
loop_
 _symmetry_equiv_pos_site_id
 _symmetry_equiv_pos_as_xyz
  1  'x, y, z'
loop_
 _atom_site_type_symbol
 _atom_site_label
 _atom_site_symmetry_multiplicity
 _atom_site_fract_x
 _atom_site_fract_y
 _atom_site_fract_z
 _atom_site_occupancy
  Y  Y0  1  0.339915  0.669958  0.434705  1
  Y  Y1  1  0.669587  0.334793  0.563864  1
  Y  Y2  1  0.669587  0.334793  0.936136  1
  Y  Y3  1  0.339915  0.669958  0.065295  1
  Re  Re4  1  0.163092  0.335256  0.750000  1
  Re  Re5  1  0.163092  0.827836  0.750000  1
  Re  Re6  1  0.319895  0.159947  0.250000  1
  Os  Os7  1  0.820614  0.649315  0.250000  1
  Os  Os8  1  0.646829  0.823415  0.750000  1
  Os  Os9  1  0.820614  0.171299  0.250000  1
  Ru  Ru10  1  0.023430  0.011715  0.999438  1
  Ru  Ru11  1  0.023430  0.011715  0.500562  1
