# generated using pymatgen
data_Tm12TcOs2Rh
_symmetry_space_group_name_H-M   'P 1'
_cell_length_a   7.34048031
_cell_length_b   8.96115100
_cell_length_c   6.22974858
_cell_angle_alpha   90.00000000
_cell_angle_beta   89.74938142
_cell_angle_gamma   90.00000000
_symmetry_Int_Tables_number   1
_chemical_formula_structural   Tm12TcOs2Rh
_chemical_formula_sum   'Tm12 Tc1 Os2 Rh1'
_cell_volume   409.78366156
_cell_formula_units_Z   1
loop_
 _symmetry_equiv_pos_site_id
 _symmetry_equiv_pos_as_xyz
  1  'x, y, z'
loop_
 _atom_site_type_symbol
 _atom_site_label
 _atom_site_symmetry_multiplicity
 _atom_site_fract_x
 _atom_site_fract_y
 _atom_site_fract_z
 _atom_site_occupancy
  Tm  Tm0  1  0.038943  0.250000  0.628140  1
  Tm  Tm1  1  0.961367  0.750000  0.369830  1
  Tm  Tm2  1  0.459187  0.750000  0.130578  1
  Tm  Tm3  1  0.539208  0.250000  0.873574  1
  Tm  Tm4  1  0.174847  0.062657  0.165246  1
  Tm  Tm5  1  0.826903  0.939783  0.836029  1
  Tm  Tm6  1  0.322558  0.938766  0.665268  1
  Tm  Tm7  1  0.826903  0.560217  0.836029  1
  Tm  Tm8  1  0.675955  0.065806  0.331292  1
  Tm  Tm9  1  0.174847  0.437343  0.165246  1
  Tm  Tm10  1  0.675955  0.434194  0.331292  1
  Tm  Tm11  1  0.322558  0.561234  0.665268  1
  Tc  Tc12  1  0.384260  0.250000  0.464294  1
  Os  Os13  1  0.116793  0.750000  0.960250  1
  Os  Os14  1  0.882252  0.250000  0.037700  1
  Rh  Rh15  1  0.617463  0.750000  0.539962  1
