# generated using pymatgen
data_La5Pr11Cd4IrPt3
_symmetry_space_group_name_H-M   'P 1'
_cell_length_a   10.10359820
_cell_length_b   10.11122303
_cell_length_c   10.11122355
_cell_angle_alpha   60.05714030
_cell_angle_beta   60.31446362
_cell_angle_gamma   60.31447145
_symmetry_Int_Tables_number   1
_chemical_formula_structural   La5Pr11Cd4IrPt3
_chemical_formula_sum   'La5 Pr11 Cd4 Ir1 Pt3'
_cell_volume   734.18487724
_cell_formula_units_Z   1
loop_
 _symmetry_equiv_pos_site_id
 _symmetry_equiv_pos_as_xyz
  1  'x, y, z'
loop_
 _atom_site_type_symbol
 _atom_site_label
 _atom_site_symmetry_multiplicity
 _atom_site_fract_x
 _atom_site_fract_y
 _atom_site_fract_z
 _atom_site_occupancy
  La  La0  1  0.350179  0.347199  0.347199  1
  La  La1  1  0.352932  0.347504  0.952306  1
  La  La2  1  0.352932  0.952306  0.347504  1
  La  La3  1  0.946545  0.351826  0.351826  1
  La  La4  1  0.806926  0.189186  0.189186  1
  Pr  Pr5  1  0.191760  0.808574  0.808574  1
  Pr  Pr6  1  0.192912  0.808674  0.190630  1
  Pr  Pr7  1  0.806606  0.189425  0.811895  1
  Pr  Pr8  1  0.192912  0.190630  0.808674  1
  Pr  Pr9  1  0.806606  0.811895  0.189425  1
  Pr  Pr10  1  0.938649  0.564026  0.564026  1
  Pr  Pr11  1  0.564396  0.935780  0.935780  1
  Pr  Pr12  1  0.565077  0.937220  0.563039  1
  Pr  Pr13  1  0.937778  0.563006  0.934709  1
  Pr  Pr14  1  0.565077  0.563039  0.937220  1
  Pr  Pr15  1  0.937778  0.934709  0.563006  1
  Cd  Cd16  1  0.579928  0.580417  0.580417  1
  Cd  Cd17  1  0.579637  0.581387  0.258864  1
  Cd  Cd18  1  0.579637  0.258864  0.581387  1
  Cd  Cd19  1  0.259301  0.580342  0.580342  1
  Ir  Ir20  1  0.571570  0.144431  0.144431  1
  Pt  Pt21  1  0.139083  0.144805  0.144805  1
  Pt  Pt22  1  0.140889  0.143322  0.571431  1
  Pt  Pt23  1  0.140889  0.571431  0.143322  1
