# generated using pymatgen
data_Nd3Y2Pb3
_symmetry_space_group_name_H-M   'P 1'
_cell_length_a   6.77920000
_cell_length_b   9.29148828
_cell_length_c   9.29197800
_cell_angle_alpha   119.99825342
_cell_angle_beta   90.00000000
_cell_angle_gamma   90.00000000
_symmetry_Int_Tables_number   1
_chemical_formula_structural   Nd3Y2Pb3
_chemical_formula_sum   'Nd6 Y4 Pb6'
_cell_volume   506.88586151
_cell_formula_units_Z   2
loop_
 _symmetry_equiv_pos_site_id
 _symmetry_equiv_pos_as_xyz
  1  'x, y, z'
loop_
 _atom_site_type_symbol
 _atom_site_label
 _atom_site_symmetry_multiplicity
 _atom_site_fract_x
 _atom_site_fract_y
 _atom_site_fract_z
 _atom_site_occupancy
  Nd  Nd0  1  0.750002  0.240040  0.000000  1
  Nd  Nd1  1  0.749995  0.759885  0.759915  1
  Nd  Nd2  1  0.749995  0.999970  0.240085  1
  Nd  Nd3  1  0.250002  0.759960  0.000000  1
  Nd  Nd4  1  0.249995  0.240115  0.240085  1
  Nd  Nd5  1  0.249995  0.000030  0.759915  1
  Y  Y6  1  0.499997  0.333334  0.666700  1
  Y  Y7  1  0.499997  0.666634  0.333300  1
  Y  Y8  1  0.999997  0.666666  0.333300  1
  Y  Y9  1  0.999997  0.333366  0.666700  1
  Pb  Pb10  1  0.750001  0.601913  0.000000  1
  Pb  Pb11  1  0.750008  0.398049  0.398028  1
  Pb  Pb12  1  0.750008  0.000021  0.601972  1
  Pb  Pb13  1  0.250001  0.398087  0.000000  1
  Pb  Pb14  1  0.250008  0.601951  0.601972  1
  Pb  Pb15  1  0.250008  0.999979  0.398028  1
