# generated using pymatgen
data_Zr12Ti4Os8O
_symmetry_space_group_name_H-M   'P 1'
_cell_length_a   8.66224781
_cell_length_b   8.66224784
_cell_length_c   8.66224819
_cell_angle_alpha   59.99529363
_cell_angle_beta   59.99529575
_cell_angle_gamma   59.99530457
_symmetry_Int_Tables_number   1
_chemical_formula_structural   Zr12Ti4Os8O
_chemical_formula_sum   'Zr12 Ti4 Os8 O1'
_cell_volume   459.54763132
_cell_formula_units_Z   1
loop_
 _symmetry_equiv_pos_site_id
 _symmetry_equiv_pos_as_xyz
  1  'x, y, z'
loop_
 _atom_site_type_symbol
 _atom_site_label
 _atom_site_symmetry_multiplicity
 _atom_site_fract_x
 _atom_site_fract_y
 _atom_site_fract_z
 _atom_site_occupancy
  Zr  Zr0  1  0.431302  0.431302  0.817385  1
  Zr  Zr1  1  0.817385  0.431302  0.431302  1
  Zr  Zr2  1  0.431302  0.817385  0.431302  1
  Zr  Zr3  1  0.819528  0.819528  0.430040  1
  Zr  Zr4  1  0.430040  0.819528  0.819528  1
  Zr  Zr5  1  0.819528  0.430040  0.819528  1
  Zr  Zr6  1  0.568698  0.568698  0.182615  1
  Zr  Zr7  1  0.182615  0.568698  0.568698  1
  Zr  Zr8  1  0.568698  0.182615  0.568698  1
  Zr  Zr9  1  0.180472  0.180472  0.569960  1
  Zr  Zr10  1  0.569960  0.180472  0.180472  1
  Zr  Zr11  1  0.180472  0.569960  0.180472  1
  Ti  Ti12  1  0.000000  0.000000  0.000000  1
  Ti  Ti13  1  0.000000  0.500000  0.000000  1
  Ti  Ti14  1  0.500000  0.000000  0.000000  1
  Ti  Ti15  1  0.000000  0.000000  0.500000  1
  Os  Os16  1  0.789494  0.789494  0.789494  1
  Os  Os17  1  0.792566  0.122999  0.792566  1
  Os  Os18  1  0.122999  0.792566  0.792566  1
  Os  Os19  1  0.792566  0.792566  0.122999  1
  Os  Os20  1  0.210506  0.210506  0.210506  1
  Os  Os21  1  0.207434  0.877001  0.207434  1
  Os  Os22  1  0.877001  0.207434  0.207434  1
  Os  Os23  1  0.207434  0.207434  0.877001  1
  O  O24  1  0.500000  0.500000  0.500000  1
