# generated using pymatgen
data_Hf6Zr3Re4Pt
_symmetry_space_group_name_H-M   'P 1'
_cell_length_a   8.75075100
_cell_length_b   8.75075104
_cell_length_c   8.51855300
_cell_angle_alpha   90.00000000
_cell_angle_beta   90.00000000
_cell_angle_gamma   119.99999608
_symmetry_Int_Tables_number   1
_chemical_formula_structural   Hf6Zr3Re4Pt
_chemical_formula_sum   'Hf12 Zr6 Re8 Pt2'
_cell_volume   564.92023761
_cell_formula_units_Z   2
loop_
 _symmetry_equiv_pos_site_id
 _symmetry_equiv_pos_as_xyz
  1  'x, y, z'
loop_
 _atom_site_type_symbol
 _atom_site_label
 _atom_site_symmetry_multiplicity
 _atom_site_fract_x
 _atom_site_fract_y
 _atom_site_fract_z
 _atom_site_occupancy
  Hf  Hf0  1  0.193235  0.806765  0.446255  1
  Hf  Hf1  1  0.193235  0.386468  0.446255  1
  Hf  Hf2  1  0.613532  0.806765  0.446255  1
  Hf  Hf3  1  0.806765  0.193235  0.553745  1
  Hf  Hf4  1  0.806765  0.613532  0.553745  1
  Hf  Hf5  1  0.386468  0.193235  0.553745  1
  Hf  Hf6  1  0.806765  0.193235  0.946255  1
  Hf  Hf7  1  0.806765  0.613532  0.946255  1
  Hf  Hf8  1  0.386468  0.193235  0.946255  1
  Hf  Hf9  1  0.193235  0.806765  0.053745  1
  Hf  Hf10  1  0.193235  0.386468  0.053745  1
  Hf  Hf11  1  0.613532  0.806765  0.053745  1
  Zr  Zr12  1  0.541678  0.458322  0.250000  1
  Zr  Zr13  1  0.541678  0.083358  0.250000  1
  Zr  Zr14  1  0.916642  0.458322  0.250000  1
  Zr  Zr15  1  0.458322  0.541678  0.750000  1
  Zr  Zr16  1  0.458322  0.916642  0.750000  1
  Zr  Zr17  1  0.083358  0.541678  0.750000  1
  Re  Re18  1  0.891150  0.108850  0.250000  1
  Re  Re19  1  0.891150  0.782299  0.250000  1
  Re  Re20  1  0.217701  0.108850  0.250000  1
  Re  Re21  1  0.108850  0.891150  0.750000  1
  Re  Re22  1  0.108850  0.217701  0.750000  1
  Re  Re23  1  0.782299  0.891150  0.750000  1
  Re  Re24  1  0.000000  0.000000  0.500000  1
  Re  Re25  1  0.000000  0.000000  0.000000  1
  Pt  Pt26  1  0.333333  0.666667  0.250000  1
  Pt  Pt27  1  0.666667  0.333333  0.750000  1
