# generated using pymatgen
data_Nd2Th2Re16Si7P
_symmetry_space_group_name_H-M   'P 1'
_cell_length_a   4.14336500
_cell_length_b   7.33043008
_cell_length_c   15.57838960
_cell_angle_alpha   89.57306242
_cell_angle_beta   90.00000000
_cell_angle_gamma   90.00000000
_symmetry_Int_Tables_number   1
_chemical_formula_structural   Nd2Th2Re16Si7P
_chemical_formula_sum   'Nd2 Th2 Re16 Si7 P1'
_cell_volume   473.14379900
_cell_formula_units_Z   1
loop_
 _symmetry_equiv_pos_site_id
 _symmetry_equiv_pos_as_xyz
  1  'x, y, z'
loop_
 _atom_site_type_symbol
 _atom_site_label
 _atom_site_symmetry_multiplicity
 _atom_site_fract_x
 _atom_site_fract_y
 _atom_site_fract_z
 _atom_site_occupancy
  Nd  Nd0  1  0.500000  0.079856  0.383542  1
  Nd  Nd1  1  0.500000  0.917923  0.616127  1
  Th  Th2  1  0.000000  0.582834  0.120549  1
  Th  Th3  1  0.000000  0.416689  0.880294  1
  Re  Re4  1  0.000000  0.141397  0.051288  1
  Re  Re5  1  0.000000  0.858874  0.949275  1
  Re  Re6  1  0.500000  0.644924  0.447934  1
  Re  Re7  1  0.500000  0.362408  0.550294  1
  Re  Re8  1  0.000000  0.740629  0.324732  1
  Re  Re9  1  0.000000  0.265630  0.678296  1
  Re  Re10  1  0.500000  0.237660  0.178399  1
  Re  Re11  1  0.500000  0.762563  0.821212  1
  Re  Re12  1  0.000000  0.428376  0.417428  1
  Re  Re13  1  0.000000  0.572038  0.578321  1
  Re  Re14  1  0.500000  0.927151  0.081928  1
  Re  Re15  1  0.500000  0.070666  0.919399  1
  Re  Re16  1  0.000000  0.994260  0.206260  1
  Re  Re17  1  0.000000  0.002387  0.793021  1
  Re  Re18  1  0.500000  0.491103  0.294904  1
  Re  Re19  1  0.500000  0.505034  0.705615  1
  Si  Si20  1  0.000000  0.176659  0.524881  1
  Si  Si21  1  0.500000  0.329596  0.024413  1
  Si  Si22  1  0.500000  0.670353  0.975653  1
  Si  Si23  1  0.000000  0.291660  0.274676  1
  Si  Si24  1  0.000000  0.703249  0.723898  1
  Si  Si25  1  0.500000  0.798860  0.230405  1
  Si  Si26  1  0.500000  0.198565  0.771663  1
  P  P27  1  0.000000  0.828658  0.475594  1
