# generated using pymatgen
data_Pr5Th3(Si3Ir)4
_symmetry_space_group_name_H-M   'P 1'
_cell_length_a   8.19960150
_cell_length_b   8.27010454
_cell_length_c   8.49209900
_cell_angle_alpha   90.00000000
_cell_angle_beta   90.00000000
_cell_angle_gamma   119.28887419
_symmetry_Int_Tables_number   1
_chemical_formula_structural   Pr5Th3(Si3Ir)4
_chemical_formula_sum   'Pr5 Th3 Si12 Ir4'
_cell_volume   502.24670043
_cell_formula_units_Z   1
loop_
 _symmetry_equiv_pos_site_id
 _symmetry_equiv_pos_as_xyz
  1  'x, y, z'
loop_
 _atom_site_type_symbol
 _atom_site_label
 _atom_site_symmetry_multiplicity
 _atom_site_fract_x
 _atom_site_fract_y
 _atom_site_fract_z
 _atom_site_occupancy
  Pr  Pr0  1  0.999743  0.499789  0.250000  1
  Pr  Pr1  1  0.499772  0.999555  0.750000  1
  Pr  Pr2  1  0.500231  0.000425  0.250000  1
  Pr  Pr3  1  0.000101  0.999944  0.750000  1
  Pr  Pr4  1  0.000099  0.000137  0.250000  1
  Th  Th5  1  0.499983  0.500113  0.750000  1
  Th  Th6  1  0.499974  0.500035  0.250000  1
  Th  Th7  1  0.000172  0.500138  0.750000  1
  Si  Si8  1  0.829567  0.167377  0.999543  1
  Si  Si9  1  0.170422  0.832623  0.999911  1
  Si  Si10  1  0.332793  0.163778  0.999734  1
  Si  Si11  1  0.170422  0.832623  0.500089  1
  Si  Si12  1  0.667266  0.836268  0.999913  1
  Si  Si13  1  0.829567  0.167377  0.500457  1
  Si  Si14  1  0.837476  0.672747  0.000101  1
  Si  Si15  1  0.667266  0.836268  0.500087  1
  Si  Si16  1  0.162483  0.327206  0.000099  1
  Si  Si17  1  0.332793  0.163778  0.500266  1
  Si  Si18  1  0.162483  0.327206  0.499901  1
  Si  Si19  1  0.837476  0.672747  0.499899  1
  Ir  Ir20  1  0.666829  0.343394  0.995423  1
  Ir  Ir21  1  0.333127  0.656540  0.995574  1
  Ir  Ir22  1  0.333127  0.656540  0.504426  1
  Ir  Ir23  1  0.666829  0.343394  0.504577  1
