# generated using pymatgen
data_Dy18Y2Cd3Ag3Ru2
_symmetry_space_group_name_H-M   'P 1'
_cell_length_a   9.61208700
_cell_length_b   9.61208692
_cell_length_c   9.67434100
_cell_angle_alpha   90.00000000
_cell_angle_beta   90.00000000
_cell_angle_gamma   120.00332558
_symmetry_Int_Tables_number   1
_chemical_formula_structural   Dy18Y2Cd3Ag3Ru2
_chemical_formula_sum   'Dy18 Y2 Cd3 Ag3 Ru2'
_cell_volume   774.05683720
_cell_formula_units_Z   1
loop_
 _symmetry_equiv_pos_site_id
 _symmetry_equiv_pos_as_xyz
  1  'x, y, z'
loop_
 _atom_site_type_symbol
 _atom_site_label
 _atom_site_symmetry_multiplicity
 _atom_site_fract_x
 _atom_site_fract_y
 _atom_site_fract_z
 _atom_site_occupancy
  Dy  Dy0  1  0.999994  0.000006  0.477865  1
  Dy  Dy1  1  0.999994  0.000006  0.022135  1
  Dy  Dy2  1  0.210328  0.789672  0.440672  1
  Dy  Dy3  1  0.210378  0.420684  0.440709  1
  Dy  Dy4  1  0.579316  0.789622  0.440709  1
  Dy  Dy5  1  0.790724  0.209276  0.559706  1
  Dy  Dy6  1  0.790679  0.581440  0.559726  1
  Dy  Dy7  1  0.418560  0.209321  0.559726  1
  Dy  Dy8  1  0.790724  0.209276  0.940294  1
  Dy  Dy9  1  0.790679  0.581440  0.940274  1
  Dy  Dy10  1  0.418560  0.209321  0.940274  1
  Dy  Dy11  1  0.210328  0.789672  0.059328  1
  Dy  Dy12  1  0.210378  0.420684  0.059291  1
  Dy  Dy13  1  0.579316  0.789622  0.059291  1
  Dy  Dy14  1  0.540925  0.459075  0.250000  1
  Dy  Dy15  1  0.540933  0.081840  0.250000  1
  Dy  Dy16  1  0.918160  0.459067  0.250000  1
  Dy  Dy17  1  0.458980  0.541020  0.750000  1
  Y  Y18  1  0.458930  0.917841  0.750000  1
  Y  Y19  1  0.082159  0.541070  0.750000  1
  Cd  Cd20  1  0.111267  0.888733  0.750000  1
  Cd  Cd21  1  0.111299  0.222570  0.750000  1
  Cd  Cd22  1  0.777430  0.888701  0.750000  1
  Ag  Ag23  1  0.876571  0.123429  0.250000  1
  Ag  Ag24  1  0.876556  0.753142  0.250000  1
  Ag  Ag25  1  0.246858  0.123444  0.250000  1
  Ru  Ru26  1  0.333340  0.666660  0.250000  1
  Ru  Ru27  1  0.666634  0.333366  0.750000  1
