# generated using pymatgen
data_NdY7(BBr6)2
_symmetry_space_group_name_H-M   'P 1'
_cell_length_a   3.97275200
_cell_length_b   13.18710294
_cell_length_c   13.65615200
_cell_angle_alpha   89.93327202
_cell_angle_beta   90.00000000
_cell_angle_gamma   90.00000000
_symmetry_Int_Tables_number   1
_chemical_formula_structural   NdY7(BBr6)2
_chemical_formula_sum   'Nd1 Y7 B2 Br12'
_cell_volume   715.43288542
_cell_formula_units_Z   1
loop_
 _symmetry_equiv_pos_site_id
 _symmetry_equiv_pos_as_xyz
  1  'x, y, z'
loop_
 _atom_site_type_symbol
 _atom_site_label
 _atom_site_symmetry_multiplicity
 _atom_site_fract_x
 _atom_site_fract_y
 _atom_site_fract_z
 _atom_site_occupancy
  Nd  Nd0  1  0.000000  0.394772  0.583657  1
  Y  Y1  1  0.000000  0.102363  0.081313  1
  Y  Y2  1  0.000000  0.897690  0.918592  1
  Y  Y3  1  0.000000  0.604118  0.417213  1
  Y  Y4  1  0.500000  0.122390  0.856212  1
  Y  Y5  1  0.500000  0.877138  0.144354  1
  Y  Y6  1  0.500000  0.624474  0.644158  1
  Y  Y7  1  0.500000  0.377682  0.354080  1
  B  B8  1  0.500000  0.999609  0.000541  1
  B  B9  1  0.500000  0.502194  0.498278  1
  Br  Br10  1  0.500000  0.259726  0.688300  1
  Br  Br11  1  0.500000  0.733568  0.316386  1
  Br  Br12  1  0.500000  0.768476  0.817787  1
  Br  Br13  1  0.500000  0.231908  0.181991  1
  Br  Br14  1  0.000000  0.261158  0.931883  1
  Br  Br15  1  0.000000  0.738810  0.068681  1
  Br  Br16  1  0.000000  0.481323  0.237653  1
  Br  Br17  1  0.000000  0.524587  0.764674  1
  Br  Br18  1  0.000000  0.980547  0.260723  1
  Br  Br19  1  0.000000  0.018522  0.739489  1
  Br  Br20  1  0.000000  0.236176  0.425708  1
  Br  Br21  1  0.000000  0.762768  0.568328  1
