# generated using pymatgen
data_Er3Tm9Mn2In3
_symmetry_space_group_name_H-M   'P 1'
_cell_length_a   8.35759610
_cell_length_b   8.35651172
_cell_length_c   8.35759533
_cell_angle_alpha   110.09612066
_cell_angle_beta   110.16095182
_cell_angle_gamma   108.16957642
_symmetry_Int_Tables_number   1
_chemical_formula_structural   Er3Tm9Mn2In3
_chemical_formula_sum   'Er3 Tm9 Mn2 In3'
_cell_volume   449.12772915
_cell_formula_units_Z   1
loop_
 _symmetry_equiv_pos_site_id
 _symmetry_equiv_pos_as_xyz
  1  'x, y, z'
loop_
 _atom_site_type_symbol
 _atom_site_label
 _atom_site_symmetry_multiplicity
 _atom_site_fract_x
 _atom_site_fract_y
 _atom_site_fract_z
 _atom_site_occupancy
  Er  Er0  1  0.789493  0.036235  0.246742  1
  Er  Er1  1  0.210545  0.457325  0.246780  1
  Er  Er2  1  0.789524  0.542794  0.753271  1
  Tm  Tm3  1  0.303653  0.303558  0.607412  1
  Tm  Tm4  1  0.696405  0.696358  0.392730  1
  Tm  Tm5  1  0.303628  0.696358  0.999953  1
  Tm  Tm6  1  0.696145  0.303558  0.999906  1
  Tm  Tm7  1  0.457084  0.210486  0.246467  1
  Tm  Tm8  1  0.542740  0.789505  0.753363  1
  Tm  Tm9  1  0.964019  0.210486  0.753402  1
  Tm  Tm10  1  0.210602  0.963956  0.753354  1
  Tm  Tm11  1  0.036142  0.789505  0.246765  1
  Mn  Mn12  1  0.393467  0.393411  0.999943  1
  Mn  Mn13  1  0.606415  0.606403  0.999988  1
  In  In14  1  0.000067  0.999884  0.999817  1
  In  In15  1  0.500006  0.000004  0.499998  1
  In  In16  1  0.000063  0.500174  0.500110  1
