# generated using pymatgen
data_Sm4Sc4Cr3CoB24
_symmetry_space_group_name_H-M   'P 1'
_cell_length_a   3.49585500
_cell_length_b   9.03105321
_cell_length_c   11.43888053
_cell_angle_alpha   89.94071694
_cell_angle_beta   90.00000000
_cell_angle_gamma   90.00000000
_symmetry_Int_Tables_number   1
_chemical_formula_structural   Sm4Sc4Cr3CoB24
_chemical_formula_sum   'Sm4 Sc4 Cr3 Co1 B24'
_cell_volume   361.13959241
_cell_formula_units_Z   1
loop_
 _symmetry_equiv_pos_site_id
 _symmetry_equiv_pos_as_xyz
  1  'x, y, z'
loop_
 _atom_site_type_symbol
 _atom_site_label
 _atom_site_symmetry_multiplicity
 _atom_site_fract_x
 _atom_site_fract_y
 _atom_site_fract_z
 _atom_site_occupancy
  Sm  Sm0  1  0.000000  0.821511  0.084478  1
  Sm  Sm1  1  0.000000  0.177586  0.914293  1
  Sm  Sm2  1  0.000000  0.322870  0.415685  1
  Sm  Sm3  1  0.000000  0.677759  0.585091  1
  Sc  Sc4  1  0.000000  0.444313  0.130349  1
  Sc  Sc5  1  0.000000  0.555905  0.870218  1
  Sc  Sc6  1  0.000000  0.943142  0.370060  1
  Sc  Sc7  1  0.000000  0.056092  0.629456  1
  Cr  Cr8  1  0.000000  0.858698  0.817986  1
  Cr  Cr9  1  0.000000  0.641908  0.316233  1
  Cr  Cr10  1  0.000000  0.357999  0.682700  1
  Co  Co11  1  0.000000  0.141648  0.182764  1
  B  B12  1  0.500000  0.057462  0.070025  1
  B  B13  1  0.500000  0.944123  0.930938  1
  B  B14  1  0.500000  0.555980  0.430324  1
  B  B15  1  0.500000  0.444351  0.569816  1
  B  B16  1  0.500000  0.252308  0.084478  1
  B  B17  1  0.500000  0.746139  0.915836  1
  B  B18  1  0.500000  0.753554  0.415574  1
  B  B19  1  0.500000  0.246576  0.584218  1
  B  B20  1  0.500000  0.292199  0.234676  1
  B  B21  1  0.500000  0.705702  0.765438  1
  B  B22  1  0.500000  0.795235  0.264664  1
  B  B23  1  0.500000  0.205605  0.734670  1
  B  B24  1  0.500000  0.129126  0.316585  1
  B  B25  1  0.500000  0.871472  0.684125  1
  B  B26  1  0.500000  0.629043  0.183334  1
  B  B27  1  0.500000  0.370724  0.816292  1
  B  B28  1  0.500000  0.482890  0.285157  1
  B  B29  1  0.500000  0.516646  0.715124  1
  B  B30  1  0.500000  0.986072  0.214335  1
  B  B31  1  0.500000  0.016956  0.785478  1
  B  B32  1  0.500000  0.095560  0.473490  1
  B  B33  1  0.500000  0.904390  0.525279  1
  B  B34  1  0.500000  0.595074  0.025776  1
  B  B35  1  0.500000  0.403386  0.975057  1
