# generated using pymatgen
data_Nd4Th2(Ir5Rh)3
_symmetry_space_group_name_H-M   'P 1'
_cell_length_a   5.37438200
_cell_length_b   5.37437697
_cell_length_c   17.71116200
_cell_angle_alpha   90.00036207
_cell_angle_beta   89.99987133
_cell_angle_gamma   119.99996775
_symmetry_Int_Tables_number   1
_chemical_formula_structural   Nd4Th2(Ir5Rh)3
_chemical_formula_sum   'Nd4 Th2 Ir15 Rh3'
_cell_volume   443.03137738
_cell_formula_units_Z   1
loop_
 _symmetry_equiv_pos_site_id
 _symmetry_equiv_pos_as_xyz
  1  'x, y, z'
loop_
 _atom_site_type_symbol
 _atom_site_label
 _atom_site_symmetry_multiplicity
 _atom_site_fract_x
 _atom_site_fract_y
 _atom_site_fract_z
 _atom_site_occupancy
  Nd  Nd0  1  0.666665  0.333332  0.039037  1
  Nd  Nd1  1  0.666669  0.333331  0.458967  1
  Nd  Nd2  1  0.333331  0.666668  0.959319  1
  Nd  Nd3  1  0.333329  0.666667  0.753037  1
  Th  Th4  1  0.333335  0.666667  0.542571  1
  Th  Th5  1  0.666666  0.333331  0.249045  1
  Ir  Ir6  1  0.166767  0.333532  0.127313  1
  Ir  Ir7  1  0.832654  0.665309  0.626820  1
  Ir  Ir8  1  0.666469  0.833233  0.127312  1
  Ir  Ir9  1  0.166767  0.833230  0.127311  1
  Ir  Ir10  1  0.832653  0.167348  0.626820  1
  Ir  Ir11  1  0.334693  0.167349  0.626820  1
  Ir  Ir12  1  0.833006  0.666019  0.872674  1
  Ir  Ir13  1  0.833004  0.166992  0.872674  1
  Ir  Ir14  1  0.333983  0.166993  0.872674  1
  Ir  Ir15  1  0.665693  0.832844  0.372790  1
  Ir  Ir16  1  0.167155  0.832843  0.372791  1
  Ir  Ir17  1  0.167157  0.334309  0.372790  1
  Ir  Ir18  1  0.000001  0.999996  0.250110  1
  Ir  Ir19  1  0.999999  0.000000  0.000023  1
  Ir  Ir20  1  0.000001  0.999999  0.499314  1
  Rh  Rh21  1  0.000002  0.999999  0.749910  1
  Rh  Rh22  1  0.333342  0.666679  0.250158  1
  Rh  Rh23  1  0.666662  0.333333  0.749723  1
