# generated using pymatgen
data_YTm3Si4RuRh
_symmetry_space_group_name_H-M   'P 1'
_cell_length_a   5.64318113
_cell_length_b   5.64318113
_cell_length_c   10.00577708
_cell_angle_alpha   63.49403722
_cell_angle_beta   63.49403887
_cell_angle_gamma   43.57695469
_symmetry_Int_Tables_number   1
_chemical_formula_structural   YTm3Si4RuRh
_chemical_formula_sum   'Y1 Tm3 Si4 Ru1 Rh1'
_cell_volume   192.61382915
_cell_formula_units_Z   1
loop_
 _symmetry_equiv_pos_site_id
 _symmetry_equiv_pos_as_xyz
  1  'x, y, z'
loop_
 _atom_site_type_symbol
 _atom_site_label
 _atom_site_symmetry_multiplicity
 _atom_site_fract_x
 _atom_site_fract_y
 _atom_site_fract_z
 _atom_site_occupancy
  Y  Y0  1  0.813398  0.813398  0.108308  1
  Tm  Tm1  1  0.001273  0.001273  0.325593  1
  Tm  Tm2  1  0.185039  0.185039  0.890476  1
  Tm  Tm3  1  0.998835  0.998835  0.674983  1
  Si  Si4  1  0.357109  0.357109  0.566134  1
  Si  Si5  1  0.491547  0.491547  0.876393  1
  Si  Si6  1  0.639594  0.639594  0.437633  1
  Si  Si7  1  0.512322  0.512322  0.120671  1
  Ru  Ru8  1  0.728039  0.728039  0.625289  1
  Rh  Rh9  1  0.272845  0.272845  0.374521  1
