# generated using pymatgen
data_ErTmGa3Ag
_symmetry_space_group_name_H-M   'P 1'
_cell_length_a   4.49198200
_cell_length_b   4.49198018
_cell_length_c   7.10903000
_cell_angle_alpha   90.00000000
_cell_angle_beta   90.00000000
_cell_angle_gamma   119.99999868
_symmetry_Int_Tables_number   1
_chemical_formula_structural   ErTmGa3Ag
_chemical_formula_sum   'Er1 Tm1 Ga3 Ag1'
_cell_volume   124.22723615
_cell_formula_units_Z   1
loop_
 _symmetry_equiv_pos_site_id
 _symmetry_equiv_pos_as_xyz
  1  'x, y, z'
loop_
 _atom_site_type_symbol
 _atom_site_label
 _atom_site_symmetry_multiplicity
 _atom_site_fract_x
 _atom_site_fract_y
 _atom_site_fract_z
 _atom_site_occupancy
  Er  Er0  1  0.333333  0.666667  0.256714  1
  Tm  Tm1  1  0.333333  0.666667  0.738900  1
  Ga  Ga2  1  0.666667  0.333333  0.470083  1
  Ga  Ga3  1  0.666667  0.333333  0.048574  1
  Ga  Ga4  1  0.000000  0.000000  0.950898  1
  Ag  Ag5  1  0.000000  0.000000  0.534831  1
