# generated using pymatgen
data_Ca14TaNb(V2N9)2
_symmetry_space_group_name_H-M   'P 1'
_cell_length_a   6.12974168
_cell_length_b   10.06989500
_cell_length_c   9.09883032
_cell_angle_alpha   90.00000000
_cell_angle_beta   92.08465186
_cell_angle_gamma   90.00000000
_symmetry_Int_Tables_number   1
_chemical_formula_structural   Ca14TaNb(V2N9)2
_chemical_formula_sum   'Ca14 Ta1 Nb1 V4 N18'
_cell_volume   561.26137836
_cell_formula_units_Z   1
loop_
 _symmetry_equiv_pos_site_id
 _symmetry_equiv_pos_as_xyz
  1  'x, y, z'
loop_
 _atom_site_type_symbol
 _atom_site_label
 _atom_site_symmetry_multiplicity
 _atom_site_fract_x
 _atom_site_fract_y
 _atom_site_fract_z
 _atom_site_occupancy
  Ca  Ca0  1  0.067967  0.417547  0.170791  1
  Ca  Ca1  1  0.932105  0.917860  0.829069  1
  Ca  Ca2  1  0.932105  0.582140  0.829069  1
  Ca  Ca3  1  0.067967  0.082454  0.170791  1
  Ca  Ca4  1  0.245710  0.919112  0.510371  1
  Ca  Ca5  1  0.754318  0.418973  0.490530  1
  Ca  Ca6  1  0.754318  0.081027  0.490530  1
  Ca  Ca7  1  0.245710  0.580888  0.510371  1
  Ca  Ca8  1  0.577517  0.931912  0.158805  1
  Ca  Ca9  1  0.422917  0.431630  0.840017  1
  Ca  Ca10  1  0.422917  0.068370  0.840017  1
  Ca  Ca11  1  0.577517  0.568088  0.158805  1
  Ca  Ca12  1  0.909729  0.250000  0.796746  1
  Ca  Ca13  1  0.089248  0.750000  0.202243  1
  Ta  Ta14  1  0.278538  0.250000  0.561918  1
  Nb  Nb15  1  0.721824  0.750000  0.436596  1
  V  V16  1  0.457678  0.250000  0.276808  1
  V  V17  1  0.542600  0.750000  0.723455  1
  V  V18  1  0.675926  0.250000  0.063867  1
  V  V19  1  0.324128  0.750000  0.936145  1
  N  N20  1  0.115627  0.399952  0.656639  1
  N  N21  1  0.885341  0.900867  0.342097  1
  N  N22  1  0.885341  0.599133  0.342097  1
  N  N23  1  0.115627  0.100048  0.656639  1
  N  N24  1  0.231843  0.904458  0.020460  1
  N  N25  1  0.768289  0.404484  0.979795  1
  N  N26  1  0.768289  0.095516  0.979795  1
  N  N27  1  0.231843  0.595542  0.020460  1
  N  N28  1  0.364733  0.392364  0.376398  1
  N  N29  1  0.634137  0.893794  0.625950  1
  N  N30  1  0.634137  0.606206  0.625950  1
  N  N31  1  0.364733  0.107636  0.376398  1
  N  N32  1  0.358211  0.250000  0.069645  1
  N  N33  1  0.641833  0.750000  0.930961  1
  N  N34  1  0.553124  0.250000  0.668902  1
  N  N35  1  0.446379  0.750000  0.330685  1
  N  N36  1  0.775043  0.250000  0.269903  1
  N  N37  1  0.224734  0.750000  0.730283  1
