# generated using pymatgen
data_Tb2Bi2W2O11
_symmetry_space_group_name_H-M   'P 1'
_cell_length_a   6.56816353
_cell_length_b   7.74107793
_cell_length_c   9.78362121
_cell_angle_alpha   102.25864435
_cell_angle_beta   90.57465470
_cell_angle_gamma   90.04982779
_symmetry_Int_Tables_number   1
_chemical_formula_structural   Tb2Bi2W2O11
_chemical_formula_sum   'Tb4 Bi4 W4 O22'
_cell_volume   486.07601112
_cell_formula_units_Z   2
loop_
 _symmetry_equiv_pos_site_id
 _symmetry_equiv_pos_as_xyz
  1  'x, y, z'
loop_
 _atom_site_type_symbol
 _atom_site_label
 _atom_site_symmetry_multiplicity
 _atom_site_fract_x
 _atom_site_fract_y
 _atom_site_fract_z
 _atom_site_occupancy
  Tb  Tb0  1  0.745029  0.366771  0.480370  1
  Tb  Tb1  1  0.254971  0.633229  0.519630  1
  Tb  Tb2  1  0.757193  0.871636  0.492903  1
  Tb  Tb3  1  0.242807  0.128364  0.507097  1
  Bi  Bi4  1  0.451731  0.972114  0.815092  1
  Bi  Bi5  1  0.548269  0.027886  0.184908  1
  Bi  Bi6  1  0.384734  0.454860  0.825608  1
  Bi  Bi7  1  0.615266  0.545140  0.174392  1
  W  W8  1  0.916636  0.702457  0.799038  1
  W  W9  1  0.083364  0.297543  0.200962  1
  W  W10  1  0.921894  0.203140  0.805444  1
  W  W11  1  0.078106  0.796860  0.194556  1
  O  O12  1  0.212304  0.731009  0.756953  1
  O  O13  1  0.787696  0.268991  0.243047  1
  O  O14  1  0.642690  0.671368  0.849171  1
  O  O15  1  0.357310  0.328632  0.150829  1
  O  O16  1  0.624161  0.245602  0.832846  1
  O  O17  1  0.375839  0.754398  0.167154  1
  O  O18  1  0.894675  0.157578  0.590010  1
  O  O19  1  0.105325  0.842422  0.409990  1
  O  O20  1  0.227411  0.162709  0.752159  1
  O  O21  1  0.772589  0.837291  0.247841  1
  O  O22  1  0.891060  0.635782  0.588523  1
  O  O23  1  0.108940  0.364218  0.411477  1
  O  O24  1  0.003655  0.547783  0.196295  1
  O  O25  1  0.996345  0.452217  0.803705  1
  O  O26  1  0.005287  0.784892  0.006926  1
  O  O27  1  0.994713  0.215108  0.993074  1
  O  O28  1  0.569032  0.592013  0.394259  1
  O  O29  1  0.430968  0.407987  0.605741  1
  O  O30  1  0.172962  0.055484  0.232107  1
  O  O31  1  0.827038  0.944516  0.767893  1
  O  O32  1  0.548258  0.103331  0.405042  1
  O  O33  1  0.451742  0.896669  0.594958  1
