# generated using pymatgen
data_Tb4Sm2RuI10
_symmetry_space_group_name_H-M   'P 1'
_cell_length_a   7.81484454
_cell_length_b   9.79505064
_cell_length_c   9.84718662
_cell_angle_alpha   106.98623029
_cell_angle_beta   96.62910087
_cell_angle_gamma   104.82007847
_symmetry_Int_Tables_number   1
_chemical_formula_structural   Tb4Sm2RuI10
_chemical_formula_sum   'Tb4 Sm2 Ru1 I10'
_cell_volume   682.00528052
_cell_formula_units_Z   1
loop_
 _symmetry_equiv_pos_site_id
 _symmetry_equiv_pos_as_xyz
  1  'x, y, z'
loop_
 _atom_site_type_symbol
 _atom_site_label
 _atom_site_symmetry_multiplicity
 _atom_site_fract_x
 _atom_site_fract_y
 _atom_site_fract_z
 _atom_site_occupancy
  Tb  Tb0  1  0.969027  0.278774  0.082140  1
  Tb  Tb1  1  0.648227  0.873816  0.831886  1
  Tb  Tb2  1  0.351773  0.126184  0.168114  1
  Tb  Tb3  1  0.030973  0.721226  0.917860  1
  Sm  Sm4  1  0.115889  0.043121  0.761718  1
  Sm  Sm5  1  0.884111  0.956879  0.238282  1
  Ru  Ru6  1  0.000000  0.000000  0.000000  1
  I  I7  1  0.347464  0.448185  0.270725  1
  I  I8  1  0.652536  0.551815  0.729275  1
  I  I9  1  0.738737  0.911736  0.540877  1
  I  I10  1  0.085125  0.374024  0.822524  1
  I  I11  1  0.914875  0.625976  0.177476  1
  I  I12  1  0.451169  0.816061  0.090020  1
  I  I13  1  0.548831  0.183939  0.909980  1
  I  I14  1  0.780952  0.259958  0.344341  1
  I  I15  1  0.219048  0.740042  0.655659  1
  I  I16  1  0.261263  0.088264  0.459123  1
