# generated using pymatgen
data_Tm12Co2SnRh3
_symmetry_space_group_name_H-M   'P 1'
_cell_length_a   8.26586938
_cell_length_b   8.26586756
_cell_length_c   8.26586800
_cell_angle_alpha   110.11935078
_cell_angle_beta   112.05728381
_cell_angle_gamma   106.28944038
_symmetry_Int_Tables_number   1
_chemical_formula_structural   Tm12Co2SnRh3
_chemical_formula_sum   'Tm12 Co2 Sn1 Rh3'
_cell_volume   433.62380144
_cell_formula_units_Z   1
loop_
 _symmetry_equiv_pos_site_id
 _symmetry_equiv_pos_as_xyz
  1  'x, y, z'
loop_
 _atom_site_type_symbol
 _atom_site_label
 _atom_site_symmetry_multiplicity
 _atom_site_fract_x
 _atom_site_fract_y
 _atom_site_fract_z
 _atom_site_occupancy
  Tm  Tm0  1  0.284645  0.181113  0.465757  1
  Tm  Tm1  1  0.715355  0.818887  0.534243  1
  Tm  Tm2  1  0.284645  0.818887  0.103531  1
  Tm  Tm3  1  0.715355  0.181113  0.896469  1
  Tm  Tm4  1  0.626975  0.315422  0.311553  1
  Tm  Tm5  1  0.373025  0.684578  0.688447  1
  Tm  Tm6  1  0.003868  0.315422  0.688447  1
  Tm  Tm7  1  0.996132  0.684578  0.311553  1
  Tm  Tm8  1  0.225719  0.414521  0.188805  1
  Tm  Tm9  1  0.774281  0.585479  0.811195  1
  Tm  Tm10  1  0.225719  0.036914  0.811195  1
  Tm  Tm11  1  0.774281  0.963086  0.188805  1
  Co  Co12  1  0.388050  0.888050  0.500000  1
  Co  Co13  1  0.611950  0.111950  0.500000  1
  Sn  Sn14  1  0.500000  0.500000  0.000000  1
  Rh  Rh15  1  0.000000  0.346182  0.346182  1
  Rh  Rh16  1  0.000000  0.653818  0.653818  1
  Rh  Rh17  1  0.000000  0.000000  0.000000  1
