# generated using pymatgen
data_TbNd5(Sn6Ru)2
_symmetry_space_group_name_H-M   'P 1'
_cell_length_a   8.67280832
_cell_length_b   8.67280772
_cell_length_c   13.43308100
_cell_angle_alpha   90.00000000
_cell_angle_beta   90.00000000
_cell_angle_gamma   148.47861863
_symmetry_Int_Tables_number   1
_chemical_formula_structural   TbNd5(Sn6Ru)2
_chemical_formula_sum   'Tb1 Nd5 Sn12 Ru2'
_cell_volume   528.25614896
_cell_formula_units_Z   1
loop_
 _symmetry_equiv_pos_site_id
 _symmetry_equiv_pos_as_xyz
  1  'x, y, z'
loop_
 _atom_site_type_symbol
 _atom_site_label
 _atom_site_symmetry_multiplicity
 _atom_site_fract_x
 _atom_site_fract_y
 _atom_site_fract_z
 _atom_site_occupancy
  Tb  Tb0  1  0.602962  0.397038  0.250000  1
  Nd  Nd1  1  0.397865  0.602135  0.750000  1
  Nd  Nd2  1  0.399996  0.600004  0.404255  1
  Nd  Nd3  1  0.600422  0.399578  0.595030  1
  Nd  Nd4  1  0.399996  0.600004  0.095745  1
  Nd  Nd5  1  0.600422  0.399578  0.904970  1
  Sn  Sn6  1  0.927149  0.072851  0.924251  1
  Sn  Sn7  1  0.073590  0.926410  0.077483  1
  Sn  Sn8  1  0.927149  0.072851  0.575749  1
  Sn  Sn9  1  0.073590  0.926410  0.422517  1
  Sn  Sn10  1  0.959958  0.040042  0.250000  1
  Sn  Sn11  1  0.040618  0.959382  0.750000  1
  Sn  Sn12  1  0.744835  0.255166  0.432633  1
  Sn  Sn13  1  0.254631  0.745369  0.567019  1
  Sn  Sn14  1  0.744835  0.255166  0.067367  1
  Sn  Sn15  1  0.254631  0.745369  0.932981  1
  Sn  Sn16  1  0.231797  0.768203  0.250000  1
  Sn  Sn17  1  0.766548  0.233452  0.750000  1
  Ru  Ru18  1  0.800160  0.199840  0.250000  1
  Ru  Ru19  1  0.198849  0.801151  0.750000  1
