# generated using pymatgen
data_SrYbTh2(Ga3Ir)6
_symmetry_space_group_name_H-M   'P 1'
_cell_length_a   7.66068235
_cell_length_b   7.67253608
_cell_length_c   9.58387800
_cell_angle_alpha   90.00000000
_cell_angle_beta   90.00000000
_cell_angle_gamma   119.39825583
_symmetry_Int_Tables_number   1
_chemical_formula_structural   SrYbTh2(Ga3Ir)6
_chemical_formula_sum   'Sr1 Yb1 Th2 Ga18 Ir6'
_cell_volume   490.77210714
_cell_formula_units_Z   1
loop_
 _symmetry_equiv_pos_site_id
 _symmetry_equiv_pos_as_xyz
  1  'x, y, z'
loop_
 _atom_site_type_symbol
 _atom_site_label
 _atom_site_symmetry_multiplicity
 _atom_site_fract_x
 _atom_site_fract_y
 _atom_site_fract_z
 _atom_site_occupancy
  Sr  Sr0  1  0.997220  0.671070  0.750000  1
  Yb  Yb1  1  0.328315  0.000575  0.250000  1
  Th  Th2  1  0.000633  0.329475  0.250000  1
  Th  Th3  1  0.669855  0.997828  0.750000  1
  Ga  Ga4  1  0.132072  0.130332  0.750000  1
  Ga  Ga5  1  0.873708  0.870449  0.250000  1
  Ga  Ga6  1  0.007069  0.339851  0.579692  1
  Ga  Ga7  1  0.003224  0.672288  0.418207  1
  Ga  Ga8  1  0.003224  0.672288  0.081793  1
  Ga  Ga9  1  0.331976  0.002699  0.929120  1
  Ga  Ga10  1  0.007069  0.339851  0.920308  1
  Ga  Ga11  1  0.656101  0.995233  0.084706  1
  Ga  Ga12  1  0.656101  0.995233  0.415294  1
  Ga  Ga13  1  0.331976  0.002699  0.570880  1
  Ga  Ga14  1  0.335480  0.328450  0.064894  1
  Ga  Ga15  1  0.667114  0.663685  0.946555  1
  Ga  Ga16  1  0.667114  0.663685  0.553445  1
  Ga  Ga17  1  0.335480  0.328450  0.435106  1
  Ga  Ga18  1  0.341444  0.544319  0.750000  1
  Ga  Ga19  1  0.657493  0.450863  0.250000  1
  Ga  Ga20  1  0.541415  0.334286  0.750000  1
  Ga  Ga21  1  0.455184  0.662375  0.250000  1
  Ir  Ir22  1  0.673181  0.327890  0.498863  1
  Ir  Ir23  1  0.331182  0.669910  0.499125  1
  Ir  Ir24  1  0.331182  0.669910  0.000875  1
  Ir  Ir25  1  0.673181  0.327890  0.001137  1
  Ir  Ir26  1  0.996003  0.004211  0.498525  1
  Ir  Ir27  1  0.996003  0.004211  0.001475  1
