# generated using pymatgen
data_LiPd(S2O7)2
_symmetry_space_group_name_H-M   'P 1'
_cell_length_a   5.49290349
_cell_length_b   6.71449974
_cell_length_c   8.59599218
_cell_angle_alpha   106.97592755
_cell_angle_beta   91.29705680
_cell_angle_gamma   102.90809210
_symmetry_Int_Tables_number   1
_chemical_formula_structural   LiPd(S2O7)2
_chemical_formula_sum   'Li1 Pd1 S4 O14'
_cell_volume   294.24604360
_cell_formula_units_Z   1
loop_
 _symmetry_equiv_pos_site_id
 _symmetry_equiv_pos_as_xyz
  1  'x, y, z'
loop_
 _atom_site_type_symbol
 _atom_site_label
 _atom_site_symmetry_multiplicity
 _atom_site_fract_x
 _atom_site_fract_y
 _atom_site_fract_z
 _atom_site_occupancy
  Li  Li0  1  0.500000  0.000000  0.000000  1
  Pd  Pd1  1  0.500000  0.500000  0.500000  1
  S  S2  1  0.936453  0.737768  0.768248  1
  S  S3  1  0.063547  0.262232  0.231752  1
  S  S4  1  0.655973  0.307340  0.756158  1
  S  S5  1  0.344027  0.692660  0.243842  1
  O  O6  1  0.854287  0.663212  0.585656  1
  O  O7  1  0.145713  0.336788  0.414344  1
  O  O8  1  0.453938  0.400208  0.701336  1
  O  O9  1  0.546062  0.599792  0.298664  1
  O  O10  1  0.202630  0.828609  0.791800  1
  O  O11  1  0.797370  0.171391  0.208200  1
  O  O12  1  0.773852  0.858013  0.861252  1
  O  O13  1  0.226148  0.141987  0.138748  1
  O  O14  1  0.595187  0.258553  0.904713  1
  O  O15  1  0.404813  0.741447  0.095287  1
  O  O16  1  0.908304  0.517365  0.818414  1
  O  O17  1  0.091696  0.482635  0.181586  1
  O  O18  1  0.734023  0.153370  0.625659  1
  O  O19  1  0.265977  0.846630  0.374341  1
