# generated using pymatgen
data_Hf11Sc(TcIr)6
_symmetry_space_group_name_H-M   'P 1'
_cell_length_a   4.61351900
_cell_length_b   6.50908500
_cell_length_c   13.88435200
_cell_angle_alpha   90.00094990
_cell_angle_beta   90.00019427
_cell_angle_gamma   89.99924892
_symmetry_Int_Tables_number   1
_chemical_formula_structural   Hf11Sc(TcIr)6
_chemical_formula_sum   'Hf11 Sc1 Tc6 Ir6'
_cell_volume   416.94413759
_cell_formula_units_Z   1
loop_
 _symmetry_equiv_pos_site_id
 _symmetry_equiv_pos_as_xyz
  1  'x, y, z'
loop_
 _atom_site_type_symbol
 _atom_site_label
 _atom_site_symmetry_multiplicity
 _atom_site_fract_x
 _atom_site_fract_y
 _atom_site_fract_z
 _atom_site_occupancy
  Hf  Hf0  1  0.500002  0.749787  0.000001  1
  Hf  Hf1  1  0.999993  0.249773  0.165188  1
  Hf  Hf2  1  0.999997  0.750106  0.165702  1
  Hf  Hf3  1  0.499987  0.250442  0.332870  1
  Hf  Hf4  1  0.499998  0.749927  0.332776  1
  Hf  Hf5  1  0.999998  0.249681  0.499999  1
  Hf  Hf6  1  0.000001  0.750138  0.500000  1
  Hf  Hf7  1  0.500005  0.250442  0.667128  1
  Hf  Hf8  1  0.500004  0.749925  0.667224  1
  Hf  Hf9  1  0.000012  0.249769  0.834811  1
  Hf  Hf10  1  0.000004  0.750106  0.834298  1
  Sc  Sc11  1  0.500006  0.250051  0.000008  1
  Tc  Tc12  1  0.999997  0.997901  0.000000  1
  Tc  Tc13  1  0.499981  0.501051  0.167657  1
  Tc  Tc14  1  0.999997  0.000080  0.333662  1
  Tc  Tc15  1  0.500003  0.499832  0.499999  1
  Tc  Tc16  1  0.000001  0.000082  0.666337  1
  Tc  Tc17  1  0.500015  0.501051  0.832342  1
  Ir  Ir18  1  0.000001  0.500688  0.999999  1
  Ir  Ir19  1  0.499998  0.999757  0.167286  1
  Ir  Ir20  1  0.999995  0.499730  0.333539  1
  Ir  Ir21  1  0.500001  0.000186  0.499999  1
  Ir  Ir22  1  0.000004  0.499731  0.666461  1
  Ir  Ir23  1  0.500001  0.999759  0.832713  1
