# generated using pymatgen
data_Ta2Be2AlGa
_symmetry_space_group_name_H-M   'P 1'
_cell_length_a   4.85190507
_cell_length_b   4.79113747
_cell_length_c   4.84763337
_cell_angle_alpha   60.38477845
_cell_angle_beta   61.52640334
_cell_angle_gamma   60.41343346
_symmetry_Int_Tables_number   1
_chemical_formula_structural   Ta2Be2AlGa
_chemical_formula_sum   'Ta2 Be2 Al1 Ga1'
_cell_volume   81.05527938
_cell_formula_units_Z   1
loop_
 _symmetry_equiv_pos_site_id
 _symmetry_equiv_pos_as_xyz
  1  'x, y, z'
loop_
 _atom_site_type_symbol
 _atom_site_label
 _atom_site_symmetry_multiplicity
 _atom_site_fract_x
 _atom_site_fract_y
 _atom_site_fract_z
 _atom_site_occupancy
  Ta  Ta0  1  0.991916  0.002436  0.003212  1
  Ta  Ta1  1  0.258084  0.247564  0.246788  1
  Be  Be2  1  0.625000  0.625000  0.625000  1
  Be  Be3  1  0.625000  0.125000  0.625000  1
  Al  Al4  1  0.625000  0.625000  0.125000  1
  Ga  Ga5  1  0.125000  0.625000  0.625000  1
