# generated using pymatgen
data_Np2(Al3Rh)3
_symmetry_space_group_name_H-M   'P 1'
_cell_length_a   7.61000593
_cell_length_b   7.59643678
_cell_length_c   9.47486400
_cell_angle_alpha   90.00000000
_cell_angle_beta   90.00000000
_cell_angle_gamma   119.49127486
_symmetry_Int_Tables_number   1
_chemical_formula_structural   Np2(Al3Rh)3
_chemical_formula_sum   'Np4 Al18 Rh6'
_cell_volume   476.76250712
_cell_formula_units_Z   2
loop_
 _symmetry_equiv_pos_site_id
 _symmetry_equiv_pos_as_xyz
  1  'x, y, z'
loop_
 _atom_site_type_symbol
 _atom_site_label
 _atom_site_symmetry_multiplicity
 _atom_site_fract_x
 _atom_site_fract_y
 _atom_site_fract_z
 _atom_site_occupancy
  Np  Np0  1  0.995512  0.670707  0.250000  1
  Np  Np1  1  0.004488  0.329293  0.750000  1
  Np  Np2  1  0.670604  0.995277  0.250000  1
  Np  Np3  1  0.329396  0.004723  0.750000  1
  Al  Al4  1  0.128365  0.128385  0.250000  1
  Al  Al5  1  0.871635  0.871615  0.750000  1
  Al  Al6  1  0.000580  0.335391  0.075003  1
  Al  Al7  1  0.999420  0.664609  0.924997  1
  Al  Al8  1  0.999420  0.664609  0.575003  1
  Al  Al9  1  0.335393  0.000692  0.424994  1
  Al  Al10  1  0.000580  0.335391  0.424997  1
  Al  Al11  1  0.664607  0.999308  0.575006  1
  Al  Al12  1  0.664607  0.999308  0.924994  1
  Al  Al13  1  0.335393  0.000692  0.075006  1
  Al  Al14  1  0.332990  0.333131  0.551606  1
  Al  Al15  1  0.667010  0.666869  0.448394  1
  Al  Al16  1  0.667010  0.666869  0.051606  1
  Al  Al17  1  0.332990  0.333131  0.948394  1
  Al  Al18  1  0.340173  0.548109  0.250000  1
  Al  Al19  1  0.659827  0.451891  0.750000  1
  Al  Al20  1  0.548437  0.340016  0.250000  1
  Al  Al21  1  0.451563  0.659984  0.750000  1
  Rh  Rh22  1  0.671128  0.328715  0.999865  1
  Rh  Rh23  1  0.328872  0.671285  0.000135  1
  Rh  Rh24  1  0.328872  0.671285  0.499865  1
  Rh  Rh25  1  0.671128  0.328715  0.500135  1
  Rh  Rh26  1  0.000000  0.000000  0.000000  1
  Rh  Rh27  1  0.000000  0.000000  0.500000  1
