# generated using pymatgen
data_Sr2TbOsO6
_symmetry_space_group_name_H-M   'P 1'
_cell_length_a   5.85324254
_cell_length_b   5.89719600
_cell_length_c   10.12915754
_cell_angle_alpha   90.00000000
_cell_angle_beta   125.02663165
_cell_angle_gamma   90.00000000
_symmetry_Int_Tables_number   1
_chemical_formula_structural   Sr2TbOsO6
_chemical_formula_sum   'Sr4 Tb2 Os2 O12'
_cell_volume   286.31131459
_cell_formula_units_Z   2
loop_
 _symmetry_equiv_pos_site_id
 _symmetry_equiv_pos_as_xyz
  1  'x, y, z'
loop_
 _atom_site_type_symbol
 _atom_site_label
 _atom_site_symmetry_multiplicity
 _atom_site_fract_x
 _atom_site_fract_y
 _atom_site_fract_z
 _atom_site_occupancy
  Sr  Sr0  1  0.257936  0.033779  0.750906  1
  Sr  Sr1  1  0.257936  0.466221  0.250906  1
  Sr  Sr2  1  0.742064  0.966221  0.249094  1
  Sr  Sr3  1  0.742064  0.533779  0.749094  1
  Tb  Tb4  1  0.000000  0.500000  0.500000  1
  Tb  Tb5  1  0.000000  0.000000  0.000000  1
  Os  Os6  1  0.500000  0.000000  0.500000  1
  Os  Os7  1  0.500000  0.500000  0.000000  1
  O  O8  1  0.191099  0.480771  0.766234  1
  O  O9  1  0.191099  0.019229  0.266234  1
  O  O10  1  0.808901  0.519229  0.233766  1
  O  O11  1  0.808901  0.980771  0.733766  1
  O  O12  1  0.730820  0.199335  0.461181  1
  O  O13  1  0.730820  0.300665  0.961181  1
  O  O14  1  0.269180  0.800665  0.538819  1
  O  O15  1  0.269180  0.699335  0.038819  1
  O  O16  1  0.655994  0.728765  0.459756  1
  O  O17  1  0.655994  0.771235  0.959756  1
  O  O18  1  0.344006  0.271235  0.540244  1
  O  O19  1  0.344006  0.228765  0.040244  1
