# generated using pymatgen
data_Pr2Dy2LuSi4
_symmetry_space_group_name_H-M   'P 1'
_cell_length_a   7.47275600
_cell_length_b   7.78576300
_cell_length_c   14.80038200
_cell_angle_alpha   90.00000000
_cell_angle_beta   90.00000000
_cell_angle_gamma   90.00000000
_symmetry_Int_Tables_number   1
_chemical_formula_structural   Pr2Dy2LuSi4
_chemical_formula_sum   'Pr8 Dy8 Lu4 Si16'
_cell_volume   861.10261134
_cell_formula_units_Z   4
loop_
 _symmetry_equiv_pos_site_id
 _symmetry_equiv_pos_as_xyz
  1  'x, y, z'
loop_
 _atom_site_type_symbol
 _atom_site_label
 _atom_site_symmetry_multiplicity
 _atom_site_fract_x
 _atom_site_fract_y
 _atom_site_fract_z
 _atom_site_occupancy
  Pr  Pr0  1  0.976268  0.821463  0.098192  1
  Pr  Pr1  1  0.476268  0.678537  0.401808  1
  Pr  Pr2  1  0.523732  0.321463  0.901808  1
  Pr  Pr3  1  0.023732  0.178537  0.598192  1
  Pr  Pr4  1  0.023732  0.178537  0.901808  1
  Pr  Pr5  1  0.523732  0.321463  0.598192  1
  Pr  Pr6  1  0.476268  0.678537  0.098192  1
  Pr  Pr7  1  0.976268  0.821463  0.401808  1
  Dy  Dy8  1  0.681222  0.822061  0.876882  1
  Dy  Dy9  1  0.181222  0.677939  0.623118  1
  Dy  Dy10  1  0.818778  0.322061  0.123118  1
  Dy  Dy11  1  0.318778  0.177939  0.376882  1
  Dy  Dy12  1  0.318778  0.177939  0.123118  1
  Dy  Dy13  1  0.818778  0.322061  0.376882  1
  Dy  Dy14  1  0.181222  0.677939  0.876882  1
  Dy  Dy15  1  0.681222  0.822061  0.623118  1
  Lu  Lu16  1  0.649737  0.989898  0.250000  1
  Lu  Lu17  1  0.149737  0.510102  0.250000  1
  Lu  Lu18  1  0.850263  0.489898  0.750000  1
  Lu  Lu19  1  0.350263  0.010102  0.750000  1
  Si  Si20  1  0.770383  0.622173  0.250000  1
  Si  Si21  1  0.270383  0.877827  0.250000  1
  Si  Si22  1  0.729617  0.122173  0.750000  1
  Si  Si23  1  0.229617  0.377827  0.750000  1
  Si  Si24  1  0.022143  0.112003  0.250000  1
  Si  Si25  1  0.522143  0.387997  0.250000  1
  Si  Si26  1  0.477857  0.612003  0.750000  1
  Si  Si27  1  0.977857  0.887997  0.750000  1
  Si  Si28  1  0.855663  0.530738  0.959662  1
  Si  Si29  1  0.355663  0.969262  0.540338  1
  Si  Si30  1  0.644337  0.030738  0.040338  1
  Si  Si31  1  0.144337  0.469262  0.459662  1
  Si  Si32  1  0.144337  0.469262  0.040338  1
  Si  Si33  1  0.644337  0.030738  0.459662  1
  Si  Si34  1  0.355663  0.969262  0.959662  1
  Si  Si35  1  0.855663  0.530738  0.540338  1
