# generated using pymatgen
data_Li6PaMn5Pt12
_symmetry_space_group_name_H-M   'P 1'
_cell_length_a   4.13525100
_cell_length_b   6.99936200
_cell_length_c   12.33832800
_cell_angle_alpha   90.00000000
_cell_angle_beta   90.00194034
_cell_angle_gamma   90.00000000
_symmetry_Int_Tables_number   1
_chemical_formula_structural   Li6PaMn5Pt12
_chemical_formula_sum   'Li6 Pa1 Mn5 Pt12'
_cell_volume   357.12203021
_cell_formula_units_Z   1
loop_
 _symmetry_equiv_pos_site_id
 _symmetry_equiv_pos_as_xyz
  1  'x, y, z'
loop_
 _atom_site_type_symbol
 _atom_site_label
 _atom_site_symmetry_multiplicity
 _atom_site_fract_x
 _atom_site_fract_y
 _atom_site_fract_z
 _atom_site_occupancy
  Li  Li0  1  0.999995  0.000000  0.000000  1
  Li  Li1  1  0.499700  0.500001  0.182353  1
  Li  Li2  1  0.999625  0.000000  0.341888  1
  Li  Li3  1  0.499994  0.500001  0.499995  1
  Li  Li4  1  0.000366  0.000000  0.658093  1
  Li  Li5  1  0.500287  0.500001  0.817645  1
  Pa  Pa6  1  0.999995  0.500001  0.999994  1
  Mn  Mn7  1  0.499557  0.000000  0.177714  1
  Mn  Mn8  1  0.999802  0.500001  0.335831  1
  Mn  Mn9  1  0.500024  0.000000  0.499815  1
  Mn  Mn10  1  0.000295  0.500001  0.664400  1
  Mn  Mn11  1  0.500429  0.000000  0.822301  1
  Pt  Pt12  1  0.499994  0.227239  0.000003  1
  Pt  Pt13  1  0.499994  0.772761  0.000003  1
  Pt  Pt14  1  0.999640  0.242820  0.172769  1
  Pt  Pt15  1  0.999640  0.757179  0.172769  1
  Pt  Pt16  1  0.499686  0.251707  0.337266  1
  Pt  Pt17  1  0.499686  0.748293  0.337266  1
  Pt  Pt18  1  0.999999  0.253131  0.500013  1
  Pt  Pt19  1  0.999999  0.746868  0.500013  1
  Pt  Pt20  1  0.500302  0.251636  0.662697  1
  Pt  Pt21  1  0.500302  0.748364  0.662697  1
  Pt  Pt22  1  0.000345  0.242791  0.827235  1
  Pt  Pt23  1  0.000345  0.757208  0.827235  1
