# generated using pymatgen
data_Pr2Th2FeCoB20
_symmetry_space_group_name_H-M   'P 1'
_cell_length_a   4.19214900
_cell_length_b   5.63918543
_cell_length_c   11.24493243
_cell_angle_alpha   90.44609490
_cell_angle_beta   90.00000000
_cell_angle_gamma   90.00000000
_symmetry_Int_Tables_number   1
_chemical_formula_structural   Pr2Th2FeCoB20
_chemical_formula_sum   'Pr2 Th2 Fe1 Co1 B20'
_cell_volume   265.82558137
_cell_formula_units_Z   1
loop_
 _symmetry_equiv_pos_site_id
 _symmetry_equiv_pos_as_xyz
  1  'x, y, z'
loop_
 _atom_site_type_symbol
 _atom_site_label
 _atom_site_symmetry_multiplicity
 _atom_site_fract_x
 _atom_site_fract_y
 _atom_site_fract_z
 _atom_site_occupancy
  Pr  Pr0  1  0.500000  0.300442  0.866589  1
  Pr  Pr1  1  0.500000  0.699558  0.133411  1
  Th  Th2  1  0.500000  0.794348  0.631640  1
  Th  Th3  1  0.500000  0.205652  0.368360  1
  Fe  Fe4  1  0.000000  0.500000  0.500000  1
  Co  Co5  1  0.000000  0.000000  0.000000  1
  B  B6  1  0.000000  0.127919  0.539723  1
  B  B7  1  0.000000  0.872081  0.460277  1
  B  B8  1  0.000000  0.626959  0.958990  1
  B  B9  1  0.000000  0.373041  0.041010  1
  B  B10  1  0.000000  0.152578  0.697259  1
  B  B11  1  0.000000  0.847422  0.302741  1
  B  B12  1  0.298881  0.201442  0.113586  1
  B  B13  1  0.298881  0.798558  0.886414  1
  B  B14  1  0.701163  0.703390  0.387327  1
  B  B15  1  0.701163  0.296610  0.612673  1
  B  B16  1  0.701119  0.798558  0.886414  1
  B  B17  1  0.701119  0.201442  0.113586  1
  B  B18  1  0.298837  0.296610  0.612673  1
  B  B19  1  0.298837  0.703390  0.387327  1
  B  B20  1  0.000000  0.036279  0.187698  1
  B  B21  1  0.000000  0.963721  0.812302  1
  B  B22  1  0.000000  0.535578  0.313458  1
  B  B23  1  0.000000  0.464422  0.686542  1
  B  B24  1  0.000000  0.346298  0.197266  1
  B  B25  1  0.000000  0.653702  0.802734  1
