# generated using pymatgen
data_Y2HoSn3Pt2Rh
_symmetry_space_group_name_H-M   'P 1'
_cell_length_a   7.66105400
_cell_length_b   7.65569916
_cell_length_c   3.83084500
_cell_angle_alpha   90.00000000
_cell_angle_beta   90.00000000
_cell_angle_gamma   120.02313195
_symmetry_Int_Tables_number   1
_chemical_formula_structural   Y2HoSn3Pt2Rh
_chemical_formula_sum   'Y2 Ho1 Sn3 Pt2 Rh1'
_cell_volume   194.53480598
_cell_formula_units_Z   1
loop_
 _symmetry_equiv_pos_site_id
 _symmetry_equiv_pos_as_xyz
  1  'x, y, z'
loop_
 _atom_site_type_symbol
 _atom_site_label
 _atom_site_symmetry_multiplicity
 _atom_site_fract_x
 _atom_site_fract_y
 _atom_site_fract_z
 _atom_site_occupancy
  Y  Y0  1  0.999974  0.402254  0.000000  1
  Y  Y1  1  0.597719  0.597746  0.000000  1
  Ho  Ho2  1  0.402303  0.000000  0.000000  1
  Sn  Sn3  1  0.259403  0.259041  0.500000  1
  Sn  Sn4  1  0.000361  0.740959  0.500000  1
  Sn  Sn5  1  0.740457  0.000000  0.500000  1
  Pt  Pt6  1  0.665608  0.332043  0.500000  1
  Pt  Pt7  1  0.333564  0.667957  0.500000  1
  Rh  Rh8  1  0.000610  0.000000  0.000000  1
