# generated using pymatgen
data_Rb5Nb(MoH9)3
_symmetry_space_group_name_H-M   'P 1'
_cell_length_a   9.73478889
_cell_length_b   9.34328561
_cell_length_c   5.45348200
_cell_angle_alpha   90.00000000
_cell_angle_beta   90.00000000
_cell_angle_gamma   118.67833412
_symmetry_Int_Tables_number   1
_chemical_formula_structural   Rb5Nb(MoH9)3
_chemical_formula_sum   'Rb5 Nb1 Mo3 H27'
_cell_volume   435.17294242
_cell_formula_units_Z   1
loop_
 _symmetry_equiv_pos_site_id
 _symmetry_equiv_pos_as_xyz
  1  'x, y, z'
loop_
 _atom_site_type_symbol
 _atom_site_label
 _atom_site_symmetry_multiplicity
 _atom_site_fract_x
 _atom_site_fract_y
 _atom_site_fract_z
 _atom_site_occupancy
  Rb  Rb0  1  0.731452  0.756803  0.500000  1
  Rb  Rb1  1  0.268548  0.025351  0.500000  1
  Rb  Rb2  1  0.000000  0.628520  0.000000  1
  Rb  Rb3  1  0.423985  0.389160  0.000000  1
  Rb  Rb4  1  0.576015  0.965175  0.000000  1
  Nb  Nb5  1  0.000000  0.275156  0.500000  1
  Mo  Mo6  1  0.724552  0.325891  0.500000  1
  Mo  Mo7  1  0.275448  0.601341  0.500000  1
  Mo  Mo8  1  0.000000  0.062365  0.000000  1
  H  H9  1  0.884010  0.345797  0.706660  1
  H  H10  1  0.711017  0.411194  0.768637  1
  H  H11  1  0.572946  0.193066  0.689293  1
  H  H12  1  0.115990  0.461787  0.293340  1
  H  H13  1  0.572946  0.193066  0.310707  1
  H  H14  1  0.884010  0.345797  0.293340  1
  H  H15  1  0.711017  0.411194  0.231363  1
  H  H16  1  0.288983  0.700178  0.768637  1
  H  H17  1  0.427054  0.620121  0.689293  1
  H  H18  1  0.177421  0.061473  0.000000  1
  H  H19  1  0.822579  0.884052  0.000000  1
  H  H20  1  0.000000  0.247920  0.000000  1
  H  H21  1  0.881994  0.068661  0.251013  1
  H  H22  1  0.118006  0.186667  0.748987  1
  H  H23  1  0.000000  0.921134  0.788035  1
  H  H24  1  0.000000  0.921134  0.211965  1
  H  H25  1  0.118006  0.186667  0.251013  1
  H  H26  1  0.881994  0.068661  0.748987  1
  H  H27  1  0.164865  0.701251  0.500000  1
  H  H28  1  0.423851  0.804856  0.500000  1
  H  H29  1  0.241229  0.388658  0.500000  1
  H  H30  1  0.576149  0.381005  0.500000  1
  H  H31  1  0.835135  0.536386  0.500000  1
  H  H32  1  0.758771  0.147429  0.500000  1
  H  H33  1  0.115990  0.461787  0.706660  1
  H  H34  1  0.288983  0.700178  0.231363  1
  H  H35  1  0.427054  0.620121  0.310707  1
