# generated using pymatgen
data_La6Ga4Pt13
_symmetry_space_group_name_H-M   'P 1'
_cell_length_a   8.48944580
_cell_length_b   8.48944642
_cell_length_c   8.48944600
_cell_angle_alpha   109.47122441
_cell_angle_beta   109.47122588
_cell_angle_gamma   109.47121392
_symmetry_Int_Tables_number   1
_chemical_formula_structural   La6Ga4Pt13
_chemical_formula_sum   'La6 Ga4 Pt13'
_cell_volume   470.99485016
_cell_formula_units_Z   1
loop_
 _symmetry_equiv_pos_site_id
 _symmetry_equiv_pos_as_xyz
  1  'x, y, z'
loop_
 _atom_site_type_symbol
 _atom_site_label
 _atom_site_symmetry_multiplicity
 _atom_site_fract_x
 _atom_site_fract_y
 _atom_site_fract_z
 _atom_site_occupancy
  La  La0  1  0.699034  0.699034  0.000000  1
  La  La1  1  0.300966  0.000000  0.300966  1
  La  La2  1  0.000000  0.300966  0.300966  1
  La  La3  1  0.300966  0.300966  0.000000  1
  La  La4  1  0.699034  0.000000  0.699034  1
  La  La5  1  0.000000  0.699034  0.699034  1
  Ga  Ga6  1  0.000000  0.000000  0.500000  1
  Ga  Ga7  1  0.000000  0.500000  0.000000  1
  Ga  Ga8  1  0.500000  0.000000  0.000000  1
  Ga  Ga9  1  0.500000  0.500000  0.500000  1
  Pt  Pt10  1  0.319907  0.319907  0.639815  1
  Pt  Pt11  1  0.680093  0.000000  0.319907  1
  Pt  Pt12  1  0.000000  0.680093  0.319907  1
  Pt  Pt13  1  0.680093  0.319907  0.000000  1
  Pt  Pt14  1  0.319907  0.639815  0.319907  1
  Pt  Pt15  1  0.000000  0.319907  0.680093  1
  Pt  Pt16  1  0.319907  0.680093  0.000000  1
  Pt  Pt17  1  0.319907  0.000000  0.680093  1
  Pt  Pt18  1  0.639815  0.319907  0.319907  1
  Pt  Pt19  1  0.680093  0.680093  0.360185  1
  Pt  Pt20  1  0.680093  0.360185  0.680093  1
  Pt  Pt21  1  0.360185  0.680093  0.680093  1
  Pt  Pt22  1  0.000000  0.000000  0.000000  1
