# generated using pymatgen
data_Hf2P2PdRu
_symmetry_space_group_name_H-M   'P 1'
_cell_length_a   3.80383100
_cell_length_b   6.49357100
_cell_length_c   7.48582500
_cell_angle_alpha   90.00000000
_cell_angle_beta   90.00000000
_cell_angle_gamma   90.00000000
_symmetry_Int_Tables_number   1
_chemical_formula_structural   Hf2P2PdRu
_chemical_formula_sum   'Hf4 P4 Pd2 Ru2'
_cell_volume   184.90322120
_cell_formula_units_Z   2
loop_
 _symmetry_equiv_pos_site_id
 _symmetry_equiv_pos_as_xyz
  1  'x, y, z'
loop_
 _atom_site_type_symbol
 _atom_site_label
 _atom_site_symmetry_multiplicity
 _atom_site_fract_x
 _atom_site_fract_y
 _atom_site_fract_z
 _atom_site_occupancy
  Hf  Hf0  1  0.750000  0.530996  0.322948  1
  Hf  Hf1  1  0.250000  0.972771  0.820176  1
  Hf  Hf2  1  0.750000  0.030996  0.177052  1
  Hf  Hf3  1  0.250000  0.472771  0.679824  1
  P  P4  1  0.250000  0.748012  0.113104  1
  P  P5  1  0.250000  0.248012  0.386896  1
  P  P6  1  0.750000  0.261173  0.862635  1
  P  P7  1  0.750000  0.761173  0.637365  1
  Pd  Pd8  1  0.250000  0.347522  0.069256  1
  Pd  Pd9  1  0.250000  0.847522  0.430744  1
  Ru  Ru10  1  0.750000  0.139526  0.554503  1
  Ru  Ru11  1  0.750000  0.639526  0.945497  1
