# generated using pymatgen
data_CaLaB4(RuRh)2
_symmetry_space_group_name_H-M   'P 1'
_cell_length_a   6.92978863
_cell_length_b   6.05265049
_cell_length_c   5.58590894
_cell_angle_alpha   72.96007988
_cell_angle_beta   56.62442049
_cell_angle_gamma   50.42342273
_symmetry_Int_Tables_number   1
_chemical_formula_structural   CaLaB4(RuRh)2
_chemical_formula_sum   'Ca1 La1 B4 Ru2 Rh2'
_cell_volume   150.20305630
_cell_formula_units_Z   1
loop_
 _symmetry_equiv_pos_site_id
 _symmetry_equiv_pos_as_xyz
  1  'x, y, z'
loop_
 _atom_site_type_symbol
 _atom_site_label
 _atom_site_symmetry_multiplicity
 _atom_site_fract_x
 _atom_site_fract_y
 _atom_site_fract_z
 _atom_site_occupancy
  Ca  Ca0  1  0.750612  0.750612  0.749388  1
  La  La1  1  0.500312  0.500312  0.499688  1
  B  B2  1  0.820897  0.180817  0.828129  1
  B  B3  1  0.076563  0.425877  0.062986  1
  B  B4  1  0.180817  0.820897  0.170157  1
  B  B5  1  0.425877  0.076563  0.434574  1
  Ru  Ru6  1  0.133565  0.133565  0.866435  1
  Ru  Ru7  1  0.381966  0.381966  0.118034  1
  Rh  Rh8  1  0.115910  0.115910  0.384090  1
  Rh  Rh9  1  0.863483  0.863483  0.136517  1
