# generated using pymatgen
data_LiLa2AlRh2
_symmetry_space_group_name_H-M   'P 1'
_cell_length_a   4.10842700
_cell_length_b   7.23337673
_cell_length_c   8.70222911
_cell_angle_alpha   89.70586221
_cell_angle_beta   90.00000000
_cell_angle_gamma   90.00000000
_symmetry_Int_Tables_number   1
_chemical_formula_structural   LiLa2AlRh2
_chemical_formula_sum   'Li2 La4 Al2 Rh4'
_cell_volume   258.60769900
_cell_formula_units_Z   2
loop_
 _symmetry_equiv_pos_site_id
 _symmetry_equiv_pos_as_xyz
  1  'x, y, z'
loop_
 _atom_site_type_symbol
 _atom_site_label
 _atom_site_symmetry_multiplicity
 _atom_site_fract_x
 _atom_site_fract_y
 _atom_site_fract_z
 _atom_site_occupancy
  Li  Li0  1  0.250000  0.627432  0.550306  1
  Li  Li1  1  0.750000  0.372568  0.449694  1
  La  La2  1  0.250000  0.539534  0.187257  1
  La  La3  1  0.750000  0.460466  0.812743  1
  La  La4  1  0.750000  0.963016  0.685774  1
  La  La5  1  0.250000  0.036984  0.314226  1
  Al  Al6  1  0.750000  0.869660  0.056358  1
  Al  Al7  1  0.250000  0.130340  0.943642  1
  Rh  Rh8  1  0.250000  0.768938  0.902376  1
  Rh  Rh9  1  0.750000  0.231062  0.097624  1
  Rh  Rh10  1  0.750000  0.758801  0.351280  1
  Rh  Rh11  1  0.250000  0.241199  0.648720  1
