# generated using pymatgen
data_Lu12Si12Tc3Ru
_symmetry_space_group_name_H-M   'P 1'
_cell_length_a   4.08920400
_cell_length_b   10.68373343
_cell_length_c   12.22225922
_cell_angle_alpha   90.06536515
_cell_angle_beta   90.00000000
_cell_angle_gamma   90.00000000
_symmetry_Int_Tables_number   1
_chemical_formula_structural   Lu12Si12Tc3Ru
_chemical_formula_sum   'Lu12 Si12 Tc3 Ru1'
_cell_volume   533.96529141
_cell_formula_units_Z   1
loop_
 _symmetry_equiv_pos_site_id
 _symmetry_equiv_pos_as_xyz
  1  'x, y, z'
loop_
 _atom_site_type_symbol
 _atom_site_label
 _atom_site_symmetry_multiplicity
 _atom_site_fract_x
 _atom_site_fract_y
 _atom_site_fract_z
 _atom_site_occupancy
  Lu  Lu0  1  0.250000  0.878709  0.019753  1
  Lu  Lu1  1  0.250000  0.622422  0.520328  1
  Lu  Lu2  1  0.750000  0.121022  0.980901  1
  Lu  Lu3  1  0.750000  0.378619  0.480818  1
  Lu  Lu4  1  0.250000  0.923779  0.605075  1
  Lu  Lu5  1  0.250000  0.576365  0.104437  1
  Lu  Lu6  1  0.750000  0.076506  0.394954  1
  Lu  Lu7  1  0.750000  0.423183  0.894204  1
  Lu  Lu8  1  0.250000  0.667050  0.798861  1
  Lu  Lu9  1  0.250000  0.833386  0.298831  1
  Lu  Lu10  1  0.750000  0.334607  0.201227  1
  Lu  Lu11  1  0.750000  0.162336  0.700712  1
  Si  Si12  1  0.250000  0.013873  0.821800  1
  Si  Si13  1  0.250000  0.486135  0.321460  1
  Si  Si14  1  0.750000  0.985260  0.178493  1
  Si  Si15  1  0.750000  0.515488  0.679041  1
  Si  Si16  1  0.250000  0.249536  0.844370  1
  Si  Si17  1  0.250000  0.248780  0.345169  1
  Si  Si18  1  0.750000  0.748783  0.154428  1
  Si  Si19  1  0.750000  0.752290  0.656013  1
  Si  Si20  1  0.250000  0.196223  0.542553  1
  Si  Si21  1  0.250000  0.303163  0.042140  1
  Si  Si22  1  0.750000  0.804420  0.457855  1
  Si  Si23  1  0.750000  0.697380  0.956836  1
  Tc  Tc24  1  0.250000  0.390062  0.680067  1
  Tc  Tc25  1  0.250000  0.110329  0.178903  1
  Tc  Tc26  1  0.750000  0.612123  0.320252  1
  Ru  Ru27  1  0.750000  0.888166  0.820519  1
