# generated using pymatgen
data_La7Nd6Er3(CdIr)4
_symmetry_space_group_name_H-M   'P 1'
_cell_length_a   9.95773301
_cell_length_b   9.98903310
_cell_length_c   9.98999563
_cell_angle_alpha   59.78962198
_cell_angle_beta   59.94541000
_cell_angle_gamma   60.11000152
_symmetry_Int_Tables_number   1
_chemical_formula_structural   La7Nd6Er3(CdIr)4
_chemical_formula_sum   'La7 Nd6 Er3 Cd4 Ir4'
_cell_volume   701.80803537
_cell_formula_units_Z   1
loop_
 _symmetry_equiv_pos_site_id
 _symmetry_equiv_pos_as_xyz
  1  'x, y, z'
loop_
 _atom_site_type_symbol
 _atom_site_label
 _atom_site_symmetry_multiplicity
 _atom_site_fract_x
 _atom_site_fract_y
 _atom_site_fract_z
 _atom_site_occupancy
  La  La0  1  0.346418  0.346621  0.352151  1
  La  La1  1  0.350548  0.345583  0.953450  1
  La  La2  1  0.352151  0.954810  0.346418  1
  La  La3  1  0.953450  0.350418  0.350548  1
  La  La4  1  0.812594  0.187982  0.183542  1
  La  La5  1  0.183542  0.815883  0.812594  1
  La  La6  1  0.187589  0.812411  0.187589  1
  Nd  Nd7  1  0.936537  0.560102  0.563425  1
  Nd  Nd8  1  0.563425  0.939936  0.936537  1
  Nd  Nd9  1  0.562077  0.937923  0.562077  1
  Nd  Nd10  1  0.938407  0.561593  0.938407  1
  Nd  Nd11  1  0.563824  0.559094  0.937095  1
  Nd  Nd12  1  0.937095  0.939987  0.563824  1
  Er  Er13  1  0.812218  0.187782  0.812218  1
  Er  Er14  1  0.187057  0.192247  0.808573  1
  Er  Er15  1  0.808573  0.812123  0.187057  1
  Cd  Cd16  1  0.582502  0.578968  0.578873  1
  Cd  Cd17  1  0.581255  0.581487  0.259578  1
  Cd  Cd18  1  0.578873  0.259657  0.582502  1
  Cd  Cd19  1  0.259578  0.577681  0.581255  1
  Ir  Ir20  1  0.141324  0.140419  0.139146  1
  Ir  Ir21  1  0.140577  0.140397  0.581242  1
  Ir  Ir22  1  0.139146  0.579110  0.141324  1
  Ir  Ir23  1  0.581242  0.137783  0.140577  1
