# generated using pymatgen
data_LuTa6VS12
_symmetry_space_group_name_H-M   'P 1'
_cell_length_a   5.78950600
_cell_length_b   5.78950663
_cell_length_c   12.88147000
_cell_angle_alpha   90.00000000
_cell_angle_beta   90.00000000
_cell_angle_gamma   119.99999639
_symmetry_Int_Tables_number   1
_chemical_formula_structural   LuTa6VS12
_chemical_formula_sum   'Lu1 Ta6 V1 S12'
_cell_volume   373.92038131
_cell_formula_units_Z   1
loop_
 _symmetry_equiv_pos_site_id
 _symmetry_equiv_pos_as_xyz
  1  'x, y, z'
loop_
 _atom_site_type_symbol
 _atom_site_label
 _atom_site_symmetry_multiplicity
 _atom_site_fract_x
 _atom_site_fract_y
 _atom_site_fract_z
 _atom_site_occupancy
  Lu  Lu0  1  0.333333  0.666667  0.250000  1
  Ta  Ta1  1  0.000000  0.000000  0.513439  1
  Ta  Ta2  1  0.000000  0.000000  0.986561  1
  Ta  Ta3  1  0.333333  0.666667  0.986495  1
  Ta  Ta4  1  0.666667  0.333333  0.988857  1
  Ta  Ta5  1  0.666667  0.333333  0.511143  1
  Ta  Ta6  1  0.333333  0.666667  0.513505  1
  V  V7  1  0.666667  0.333333  0.750000  1
  S  S8  1  0.331197  0.329336  0.389489  1
  S  S9  1  0.670664  0.001862  0.389489  1
  S  S10  1  0.998138  0.668803  0.389489  1
  S  S11  1  0.333714  0.332883  0.634305  1
  S  S12  1  0.999169  0.666286  0.634305  1
  S  S13  1  0.667117  0.000831  0.634305  1
  S  S14  1  0.667117  0.666286  0.865695  1
  S  S15  1  0.333714  0.000831  0.865695  1
  S  S16  1  0.999169  0.332883  0.865695  1
  S  S17  1  0.670664  0.668803  0.110511  1
  S  S18  1  0.998138  0.329336  0.110511  1
  S  S19  1  0.331197  0.001862  0.110511  1
