# generated using pymatgen
data_Zr6Al16Ni5PdRu
_symmetry_space_group_name_H-M   'P 1'
_cell_length_a   8.61989733
_cell_length_b   8.61989744
_cell_length_c   8.60508100
_cell_angle_alpha   60.05683951
_cell_angle_beta   60.05683907
_cell_angle_gamma   59.74308069
_symmetry_Int_Tables_number   1
_chemical_formula_structural   Zr6Al16Ni5PdRu
_chemical_formula_sum   'Zr6 Al16 Ni5 Pd1 Ru1'
_cell_volume   451.61144790
_cell_formula_units_Z   1
loop_
 _symmetry_equiv_pos_site_id
 _symmetry_equiv_pos_as_xyz
  1  'x, y, z'
loop_
 _atom_site_type_symbol
 _atom_site_label
 _atom_site_symmetry_multiplicity
 _atom_site_fract_x
 _atom_site_fract_y
 _atom_site_fract_z
 _atom_site_occupancy
  Zr  Zr0  1  0.192845  0.807155  0.810031  1
  Zr  Zr1  1  0.807155  0.192845  0.189969  1
  Zr  Zr2  1  0.807155  0.192845  0.810031  1
  Zr  Zr3  1  0.807030  0.807030  0.192970  1
  Zr  Zr4  1  0.192845  0.807155  0.189969  1
  Zr  Zr5  1  0.192970  0.192970  0.807030  1
  Al  Al6  1  0.830893  0.830893  0.841138  1
  Al  Al7  1  0.830893  0.830893  0.497074  1
  Al  Al8  1  0.497756  0.834230  0.834006  1
  Al  Al9  1  0.834230  0.497756  0.834006  1
  Al  Al10  1  0.169107  0.169107  0.158862  1
  Al  Al11  1  0.169107  0.169107  0.502926  1
  Al  Al12  1  0.165770  0.502244  0.165994  1
  Al  Al13  1  0.502244  0.165770  0.165994  1
  Al  Al14  1  0.618757  0.618757  0.620756  1
  Al  Al15  1  0.618757  0.618757  0.141733  1
  Al  Al16  1  0.141412  0.614089  0.622251  1
  Al  Al17  1  0.614089  0.141412  0.622251  1
  Al  Al18  1  0.381243  0.381243  0.379244  1
  Al  Al19  1  0.381243  0.381243  0.858267  1
  Al  Al20  1  0.385911  0.858588  0.377749  1
  Al  Al21  1  0.858588  0.385911  0.377749  1
  Ni  Ni22  1  0.000000  0.500000  0.500000  1
  Ni  Ni23  1  0.500000  0.000000  0.000000  1
  Ni  Ni24  1  0.500000  0.000000  0.500000  1
  Ni  Ni25  1  0.500000  0.500000  0.000000  1
  Ni  Ni26  1  0.000000  0.500000  0.000000  1
  Pd  Pd27  1  0.000000  0.000000  0.500000  1
  Ru  Ru28  1  0.500000  0.500000  0.500000  1
