# generated using pymatgen
data_U4GaAs5Ru7
_symmetry_space_group_name_H-M   'P 1'
_cell_length_a   7.22749757
_cell_length_b   7.23149011
_cell_length_c   7.22902458
_cell_angle_alpha   109.51019394
_cell_angle_beta   109.45286153
_cell_angle_gamma   109.48751060
_symmetry_Int_Tables_number   1
_chemical_formula_structural   U4GaAs5Ru7
_chemical_formula_sum   'U4 Ga1 As5 Ru7'
_cell_volume   290.72041038
_cell_formula_units_Z   1
loop_
 _symmetry_equiv_pos_site_id
 _symmetry_equiv_pos_as_xyz
  1  'x, y, z'
loop_
 _atom_site_type_symbol
 _atom_site_label
 _atom_site_symmetry_multiplicity
 _atom_site_fract_x
 _atom_site_fract_y
 _atom_site_fract_z
 _atom_site_occupancy
  U  U0  1  0.001884  0.000015  0.505101  1
  U  U1  1  0.505075  0.999974  0.001830  1
  U  U2  1  0.001818  0.496743  0.001808  1
  U  U3  1  0.505028  0.503187  0.505061  1
  Ga  Ga4  1  0.305763  0.999847  0.305728  1
  As  As5  1  0.003482  0.307200  0.310661  1
  As  As6  1  0.003550  0.692792  0.696403  1
  As  As7  1  0.310701  0.307259  0.003532  1
  As  As8  1  0.696393  0.692782  0.003568  1
  As  As9  1  0.681379  0.000113  0.681368  1
  Ru  Ru10  1  0.750869  0.500016  0.250728  1
  Ru  Ru11  1  0.498223  0.748682  0.247012  1
  Ru  Ru12  1  0.498472  0.251376  0.749698  1
  Ru  Ru13  1  0.749788  0.251377  0.498605  1
  Ru  Ru14  1  0.247070  0.748687  0.498261  1
  Ru  Ru15  1  0.250755  0.499942  0.750902  1
  Ru  Ru16  1  0.989748  0.000009  0.989734  1
