# generated using pymatgen
data_Nd6P12Ru5Rh13
_symmetry_space_group_name_H-M   'P 1'
_cell_length_a   3.98888800
_cell_length_b   11.42538400
_cell_length_c   12.73738300
_cell_angle_alpha   90.00000000
_cell_angle_beta   90.00000000
_cell_angle_gamma   90.00000000
_symmetry_Int_Tables_number   1
_chemical_formula_structural   Nd6P12Ru5Rh13
_chemical_formula_sum   'Nd6 P12 Ru5 Rh13'
_cell_volume   580.50084401
_cell_formula_units_Z   1
loop_
 _symmetry_equiv_pos_site_id
 _symmetry_equiv_pos_as_xyz
  1  'x, y, z'
loop_
 _atom_site_type_symbol
 _atom_site_label
 _atom_site_symmetry_multiplicity
 _atom_site_fract_x
 _atom_site_fract_y
 _atom_site_fract_z
 _atom_site_occupancy
  Nd  Nd0  1  0.000000  0.500000  0.518818  1
  Nd  Nd1  1  0.500000  0.000000  0.479359  1
  Nd  Nd2  1  0.500000  0.817998  0.204189  1
  Nd  Nd3  1  0.500000  0.182002  0.204189  1
  Nd  Nd4  1  0.000000  0.678523  0.797204  1
  Nd  Nd5  1  0.000000  0.321477  0.797204  1
  P  P6  1  0.500000  0.500000  0.889622  1
  P  P7  1  0.000000  0.000000  0.113380  1
  P  P8  1  0.500000  0.500000  0.343010  1
  P  P9  1  0.000000  0.000000  0.655431  1
  P  P10  1  0.500000  0.311070  0.618769  1
  P  P11  1  0.500000  0.688930  0.618769  1
  P  P12  1  0.000000  0.189493  0.381469  1
  P  P13  1  0.000000  0.810507  0.381469  1
  P  P14  1  0.500000  0.842089  0.896392  1
  P  P15  1  0.500000  0.157911  0.896392  1
  P  P16  1  0.000000  0.656031  0.102172  1
  P  P17  1  0.000000  0.343969  0.102172  1
  Ru  Ru18  1  0.500000  0.500000  0.161231  1
  Ru  Ru19  1  0.000000  0.500000  0.992645  1
  Ru  Ru20  1  0.500000  0.000000  0.008311  1
  Ru  Ru21  1  0.500000  0.331773  0.996260  1
  Ru  Ru22  1  0.500000  0.668227  0.996260  1
  Rh  Rh23  1  0.000000  0.000000  0.836958  1
  Rh  Rh24  1  0.500000  0.500000  0.701725  1
  Rh  Rh25  1  0.000000  0.000000  0.298426  1
  Rh  Rh26  1  0.000000  0.165119  0.005634  1
  Rh  Rh27  1  0.000000  0.834881  0.005634  1
  Rh  Rh28  1  0.500000  0.295030  0.429320  1
  Rh  Rh29  1  0.500000  0.704970  0.429320  1
  Rh  Rh30  1  0.000000  0.206696  0.570121  1
  Rh  Rh31  1  0.000000  0.793304  0.570121  1
  Rh  Rh32  1  0.500000  0.874920  0.713219  1
  Rh  Rh33  1  0.500000  0.125080  0.713219  1
  Rh  Rh34  1  0.000000  0.624000  0.285794  1
  Rh  Rh35  1  0.000000  0.376000  0.285794  1
