# generated using pymatgen
data_CeMgU2Sb5
_symmetry_space_group_name_H-M   'P 1'
_cell_length_a   9.28652052
_cell_length_b   9.32071809
_cell_length_c   6.26225400
_cell_angle_alpha   90.00000000
_cell_angle_beta   90.00000000
_cell_angle_gamma   120.12188280
_symmetry_Int_Tables_number   1
_chemical_formula_structural   CeMgU2Sb5
_chemical_formula_sum   'Ce2 Mg2 U4 Sb10'
_cell_volume   468.84469481
_cell_formula_units_Z   2
loop_
 _symmetry_equiv_pos_site_id
 _symmetry_equiv_pos_as_xyz
  1  'x, y, z'
loop_
 _atom_site_type_symbol
 _atom_site_label
 _atom_site_symmetry_multiplicity
 _atom_site_fract_x
 _atom_site_fract_y
 _atom_site_fract_z
 _atom_site_occupancy
  Ce  Ce0  1  0.000000  0.621502  0.250000  1
  Ce  Ce1  1  0.000000  0.378498  0.750000  1
  Mg  Mg2  1  0.000000  0.000000  0.000000  1
  Mg  Mg3  1  0.000000  0.000000  0.500000  1
  U  U4  1  0.387380  0.998743  0.750000  1
  U  U5  1  0.387380  0.388637  0.250000  1
  U  U6  1  0.612620  0.001257  0.250000  1
  U  U7  1  0.612620  0.611363  0.750000  1
  Sb  Sb8  1  0.662278  0.331139  0.000000  1
  Sb  Sb9  1  0.726755  0.994396  0.750000  1
  Sb  Sb10  1  0.337722  0.668861  0.500000  1
  Sb  Sb11  1  0.273245  0.267642  0.750000  1
  Sb  Sb12  1  0.000000  0.732349  0.750000  1
  Sb  Sb13  1  0.273245  0.005604  0.250000  1
  Sb  Sb14  1  0.662278  0.331139  0.500000  1
  Sb  Sb15  1  0.726755  0.732358  0.250000  1
  Sb  Sb16  1  0.337722  0.668861  0.000000  1
  Sb  Sb17  1  0.000000  0.267651  0.250000  1
