# generated using pymatgen
data_Tb3YbY2Al20(SiOs2)4
_symmetry_space_group_name_H-M   'P 1'
_cell_length_a   8.70072700
_cell_length_b   8.69503619
_cell_length_c   9.67255300
_cell_angle_alpha   90.00000000
_cell_angle_beta   90.00000000
_cell_angle_gamma   120.02164891
_symmetry_Int_Tables_number   1
_chemical_formula_structural   Tb3YbY2Al20(SiOs2)4
_chemical_formula_sum   'Tb3 Yb1 Y2 Al20 Si4 Os8'
_cell_volume   633.58356545
_cell_formula_units_Z   1
loop_
 _symmetry_equiv_pos_site_id
 _symmetry_equiv_pos_as_xyz
  1  'x, y, z'
loop_
 _atom_site_type_symbol
 _atom_site_label
 _atom_site_symmetry_multiplicity
 _atom_site_fract_x
 _atom_site_fract_y
 _atom_site_fract_z
 _atom_site_occupancy
  Tb  Tb0  1  0.804691  0.609382  0.750000  1
  Tb  Tb1  1  0.609714  0.804278  0.250000  1
  Tb  Tb2  1  0.194564  0.804278  0.250000  1
  Yb  Yb3  1  0.195694  0.391388  0.250000  1
  Y  Y4  1  0.390601  0.195887  0.750000  1
  Y  Y5  1  0.805285  0.195887  0.750000  1
  Al  Al6  1  0.165475  0.330950  0.573761  1
  Al  Al7  1  0.834550  0.669100  0.423298  1
  Al  Al8  1  0.669280  0.835056  0.575869  1
  Al  Al9  1  0.834550  0.669100  0.076702  1
  Al  Al10  1  0.330626  0.165531  0.424275  1
  Al  Al11  1  0.165475  0.330950  0.926239  1
  Al  Al12  1  0.165777  0.835056  0.575869  1
  Al  Al13  1  0.330626  0.165531  0.075725  1
  Al  Al14  1  0.834905  0.165531  0.424275  1
  Al  Al15  1  0.669280  0.835056  0.924131  1
  Al  Al16  1  0.834905  0.165531  0.075725  1
  Al  Al17  1  0.165777  0.835056  0.924131  1
  Al  Al18  1  0.564275  0.128549  0.250000  1
  Al  Al19  1  0.436196  0.872392  0.750000  1
  Al  Al20  1  0.873212  0.435436  0.250000  1
  Al  Al21  1  0.127909  0.563380  0.750000  1
  Al  Al22  1  0.562225  0.435436  0.250000  1
  Al  Al23  1  0.435470  0.563380  0.750000  1
  Al  Al24  1  0.000735  0.001469  0.250000  1
  Al  Al25  1  0.000185  0.000370  0.750000  1
  Si  Si26  1  0.332811  0.665624  0.036760  1
  Si  Si27  1  0.666277  0.332553  0.963209  1
  Si  Si28  1  0.666277  0.332553  0.536791  1
  Si  Si29  1  0.332811  0.665624  0.463240  1
  Os  Os30  1  0.500001  0.000002  0.999237  1
  Os  Os31  1  0.999055  0.500201  0.998853  1
  Os  Os32  1  0.500001  0.000002  0.500763  1
  Os  Os33  1  0.501145  0.500201  0.998853  1
  Os  Os34  1  0.999055  0.500201  0.501147  1
  Os  Os35  1  0.501145  0.500201  0.501147  1
  Os  Os36  1  0.999721  0.999441  0.999870  1
  Os  Os37  1  0.999721  0.999441  0.500130  1
