# generated using pymatgen
data_Dy4Cu(AuO4)3
_symmetry_space_group_name_H-M   'P 1'
_cell_length_a   3.82192084
_cell_length_b   12.77235096
_cell_length_c   5.52459700
_cell_angle_alpha   90.00000000
_cell_angle_beta   90.00000000
_cell_angle_gamma   89.18640188
_symmetry_Int_Tables_number   1
_chemical_formula_structural   Dy4Cu(AuO4)3
_chemical_formula_sum   'Dy4 Cu1 Au3 O12'
_cell_volume   269.65554000
_cell_formula_units_Z   1
loop_
 _symmetry_equiv_pos_site_id
 _symmetry_equiv_pos_as_xyz
  1  'x, y, z'
loop_
 _atom_site_type_symbol
 _atom_site_label
 _atom_site_symmetry_multiplicity
 _atom_site_fract_x
 _atom_site_fract_y
 _atom_site_fract_z
 _atom_site_occupancy
  Dy  Dy0  1  0.754535  0.080242  0.249999  1
  Dy  Dy1  1  0.246899  0.568343  0.249999  1
  Dy  Dy2  1  0.773582  0.417464  0.750000  1
  Dy  Dy3  1  0.239621  0.925586  0.750000  1
  Cu  Cu4  1  0.436254  0.330461  0.249999  1
  Au  Au5  1  0.560912  0.831994  0.249999  1
  Au  Au6  1  0.427603  0.176224  0.750000  1
  Au  Au7  1  0.563268  0.667220  0.750000  1
  O  O8  1  0.684357  0.255113  0.013560  1
  O  O9  1  0.293937  0.751268  0.998572  1
  O  O10  1  0.237555  0.079148  0.000611  1
  O  O11  1  0.764218  0.569514  0.000696  1
  O  O12  1  0.237555  0.079148  0.499390  1
  O  O13  1  0.764218  0.569514  0.499305  1
  O  O14  1  0.684357  0.255113  0.486440  1
  O  O15  1  0.293937  0.751268  0.501428  1
  O  O16  1  0.261011  0.417825  0.490118  1
  O  O17  1  0.757582  0.928365  0.501562  1
  O  O18  1  0.261011  0.417825  0.009881  1
  O  O19  1  0.757582  0.928365  0.998437  1
