# generated using pymatgen
data_Ca6Mg2(Al2Pd)7
_symmetry_space_group_name_H-M   'P 1'
_cell_length_a   9.13209584
_cell_length_b   9.13740439
_cell_length_c   9.13740584
_cell_angle_alpha   60.09400716
_cell_angle_beta   60.01922074
_cell_angle_gamma   60.01922206
_symmetry_Int_Tables_number   1
_chemical_formula_structural   Ca6Mg2(Al2Pd)7
_chemical_formula_sum   'Ca6 Mg2 Al14 Pd7'
_cell_volume   539.67849972
_cell_formula_units_Z   1
loop_
 _symmetry_equiv_pos_site_id
 _symmetry_equiv_pos_as_xyz
  1  'x, y, z'
loop_
 _atom_site_type_symbol
 _atom_site_label
 _atom_site_symmetry_multiplicity
 _atom_site_fract_x
 _atom_site_fract_y
 _atom_site_fract_z
 _atom_site_occupancy
  Ca  Ca0  1  0.702259  0.701504  0.297603  1
  Ca  Ca1  1  0.298635  0.701504  0.297603  1
  Ca  Ca2  1  0.699562  0.300438  0.300438  1
  Ca  Ca3  1  0.298635  0.297603  0.701504  1
  Ca  Ca4  1  0.702259  0.297603  0.701504  1
  Ca  Ca5  1  0.296211  0.703789  0.703789  1
  Mg  Mg6  1  0.882011  0.883615  0.352364  1
  Mg  Mg7  1  0.882011  0.352364  0.883615  1
  Al  Al8  1  0.360542  0.879745  0.879745  1
  Al  Al9  1  0.879969  0.879745  0.879745  1
  Al  Al10  1  0.120359  0.120931  0.638350  1
  Al  Al11  1  0.120359  0.638350  0.120931  1
  Al  Al12  1  0.639499  0.119741  0.119741  1
  Al  Al13  1  0.121017  0.119741  0.119741  1
  Al  Al14  1  0.673294  0.674462  0.978951  1
  Al  Al15  1  0.673294  0.978951  0.674462  1
  Al  Al16  1  0.977718  0.674540  0.674540  1
  Al  Al17  1  0.673201  0.674540  0.674540  1
  Al  Al18  1  0.325725  0.325246  0.023303  1
  Al  Al19  1  0.325725  0.023303  0.325246  1
  Al  Al20  1  0.021744  0.325645  0.325645  1
  Al  Al21  1  0.326965  0.325645  0.325645  1
  Pd  Pd22  1  0.009911  0.990089  0.990089  1
  Pd  Pd23  1  0.001191  0.000901  0.505990  1
  Pd  Pd24  1  0.491918  0.000901  0.505990  1
  Pd  Pd25  1  0.002724  0.497276  0.497276  1
  Pd  Pd26  1  0.491918  0.505990  0.000901  1
  Pd  Pd27  1  0.001191  0.505990  0.000901  1
  Pd  Pd28  1  0.500152  0.999848  0.999848  1
