# generated using pymatgen
data_PrTh7(Nb3Si4)4
_symmetry_space_group_name_H-M   'P 1'
_cell_length_a   7.04629382
_cell_length_b   7.26125269
_cell_length_c   13.62084992
_cell_angle_alpha   89.99220482
_cell_angle_beta   89.92284105
_cell_angle_gamma   90.00971008
_symmetry_Int_Tables_number   1
_chemical_formula_structural   PrTh7(Nb3Si4)4
_chemical_formula_sum   'Pr1 Th7 Nb12 Si16'
_cell_volume   696.90904776
_cell_formula_units_Z   1
loop_
 _symmetry_equiv_pos_site_id
 _symmetry_equiv_pos_as_xyz
  1  'x, y, z'
loop_
 _atom_site_type_symbol
 _atom_site_label
 _atom_site_symmetry_multiplicity
 _atom_site_fract_x
 _atom_site_fract_y
 _atom_site_fract_z
 _atom_site_occupancy
  Pr  Pr0  1  0.001545  0.830777  0.595441  1
  Th  Th1  1  0.501608  0.669401  0.595785  1
  Th  Th2  1  0.001146  0.830087  0.903786  1
  Th  Th3  1  0.499916  0.330045  0.095852  1
  Th  Th4  1  0.998598  0.169914  0.404495  1
  Th  Th5  1  0.498791  0.330915  0.404788  1
  Th  Th6  1  0.999935  0.169809  0.095849  1
  Th  Th7  1  0.501094  0.670294  0.903643  1
  Nb  Nb8  1  0.661732  0.174368  0.625097  1
  Nb  Nb9  1  0.163420  0.326420  0.875356  1
  Nb  Nb10  1  0.336564  0.827694  0.124824  1
  Nb  Nb11  1  0.833773  0.671390  0.374659  1
  Nb  Nb12  1  0.336424  0.827280  0.374814  1
  Nb  Nb13  1  0.836467  0.672381  0.124958  1
  Nb  Nb14  1  0.664931  0.172376  0.875420  1
  Nb  Nb15  1  0.164463  0.327617  0.624711  1
  Nb  Nb16  1  0.836289  0.490110  0.750983  1
  Nb  Nb17  1  0.337875  0.008457  0.750079  1
  Nb  Nb18  1  0.162575  0.507679  0.249842  1
  Nb  Nb19  1  0.662899  0.992609  0.250131  1
  Si  Si20  1  0.658250  0.957583  0.456323  1
  Si  Si21  1  0.159994  0.543164  0.043695  1
  Si  Si22  1  0.340817  0.043037  0.955959  1
  Si  Si23  1  0.841971  0.458021  0.544419  1
  Si  Si24  1  0.340409  0.041940  0.544055  1
  Si  Si25  1  0.840341  0.456982  0.956133  1
  Si  Si26  1  0.659991  0.956842  0.043772  1
  Si  Si27  1  0.158155  0.543464  0.456111  1
  Si  Si28  1  0.459286  0.368142  0.750216  1
  Si  Si29  1  0.959918  0.131279  0.749107  1
  Si  Si30  1  0.540334  0.631673  0.250123  1
  Si  Si31  1  0.040383  0.868327  0.250549  1
  Si  Si32  1  0.700802  0.886549  0.749021  1
  Si  Si33  1  0.198989  0.613225  0.749205  1
  Si  Si34  1  0.300100  0.114128  0.250398  1
  Si  Si35  1  0.800218  0.386019  0.250400  1
