# generated using pymatgen
data_Th4Ga24PtRh
_symmetry_space_group_name_H-M   'P 1'
_cell_length_a   6.15589400
_cell_length_b   6.15589400
_cell_length_c   15.51112900
_cell_angle_alpha   90.00000000
_cell_angle_beta   90.00000000
_cell_angle_gamma   90.00000000
_symmetry_Int_Tables_number   1
_chemical_formula_structural   Th4Ga24PtRh
_chemical_formula_sum   'Th4 Ga24 Pt1 Rh1'
_cell_volume   587.79471336
_cell_formula_units_Z   1
loop_
 _symmetry_equiv_pos_site_id
 _symmetry_equiv_pos_as_xyz
  1  'x, y, z'
loop_
 _atom_site_type_symbol
 _atom_site_label
 _atom_site_symmetry_multiplicity
 _atom_site_fract_x
 _atom_site_fract_y
 _atom_site_fract_z
 _atom_site_occupancy
  Th  Th0  1  0.750000  0.250000  0.244187  1
  Th  Th1  1  0.250000  0.750000  0.242113  1
  Th  Th2  1  0.250000  0.750000  0.757887  1
  Th  Th3  1  0.750000  0.250000  0.755813  1
  Ga  Ga4  1  0.250000  0.250000  0.188006  1
  Ga  Ga5  1  0.750000  0.750000  0.188006  1
  Ga  Ga6  1  0.750000  0.750000  0.811994  1
  Ga  Ga7  1  0.250000  0.250000  0.811994  1
  Ga  Ga8  1  0.250000  0.250000  0.345649  1
  Ga  Ga9  1  0.750000  0.750000  0.345649  1
  Ga  Ga10  1  0.750000  0.750000  0.654351  1
  Ga  Ga11  1  0.250000  0.250000  0.654351  1
  Ga  Ga12  1  0.503543  0.003543  0.911483  1
  Ga  Ga13  1  0.997295  0.002705  0.911578  1
  Ga  Ga14  1  0.502705  0.497295  0.911578  1
  Ga  Ga15  1  0.996457  0.496457  0.911483  1
  Ga  Ga16  1  0.502705  0.002705  0.088422  1
  Ga  Ga17  1  0.996457  0.003543  0.088517  1
  Ga  Ga18  1  0.503543  0.496457  0.088517  1
  Ga  Ga19  1  0.997295  0.497295  0.088422  1
  Ga  Ga20  1  0.582202  0.082202  0.430843  1
  Ga  Ga21  1  0.083193  0.916807  0.430349  1
  Ga  Ga22  1  0.416807  0.583193  0.430349  1
  Ga  Ga23  1  0.917798  0.417798  0.430843  1
  Ga  Ga24  1  0.416807  0.916807  0.569651  1
  Ga  Ga25  1  0.917798  0.082202  0.569157  1
  Ga  Ga26  1  0.582202  0.417798  0.569157  1
  Ga  Ga27  1  0.083193  0.583193  0.569651  1
  Pt  Pt28  1  0.250000  0.750000  0.000000  1
  Rh  Rh29  1  0.750000  0.250000  0.000000  1
