# generated using pymatgen
data_Ba8SbAs7Se20
_symmetry_space_group_name_H-M   'P 1'
_cell_length_a   12.65553393
_cell_length_b   9.57556364
_cell_length_c   10.33540630
_cell_angle_alpha   63.06896877
_cell_angle_beta   90.02546753
_cell_angle_gamma   89.74300464
_symmetry_Int_Tables_number   1
_chemical_formula_structural   Ba8SbAs7Se20
_chemical_formula_sum   'Ba8 Sb1 As7 Se20'
_cell_volume   1116.64000937
_cell_formula_units_Z   1
loop_
 _symmetry_equiv_pos_site_id
 _symmetry_equiv_pos_as_xyz
  1  'x, y, z'
loop_
 _atom_site_type_symbol
 _atom_site_label
 _atom_site_symmetry_multiplicity
 _atom_site_fract_x
 _atom_site_fract_y
 _atom_site_fract_z
 _atom_site_occupancy
  Ba  Ba0  1  0.068950  0.824773  0.344315  1
  Ba  Ba1  1  0.569328  0.177042  0.653005  1
  Ba  Ba2  1  0.066079  0.329557  0.355831  1
  Ba  Ba3  1  0.565920  0.670207  0.643890  1
  Ba  Ba4  1  0.218576  0.582091  0.841872  1
  Ba  Ba5  1  0.719683  0.417980  0.159938  1
  Ba  Ba6  1  0.225173  0.077082  0.860708  1
  Ba  Ba7  1  0.726755  0.923921  0.140673  1
  Sb  Sb8  1  0.383257  0.222804  0.249305  1
  As  As9  1  0.491077  0.220810  0.985609  1
  As  As10  1  0.988133  0.779976  0.008499  1
  As  As11  1  0.877172  0.764867  0.753076  1
  As  As12  1  0.918535  0.397056  0.736359  1
  As  As13  1  0.418739  0.605237  0.264201  1
  As  As14  1  0.297899  0.959333  0.517774  1
  As  As15  1  0.802692  0.035834  0.488262  1
  Se  Se16  1  0.835508  0.661397  0.572650  1
  Se  Se17  1  0.334650  0.345841  0.432254  1
  Se  Se18  1  0.451214  0.517112  0.071869  1
  Se  Se19  1  0.947243  0.493486  0.924055  1
  Se  Se20  1  0.620533  0.048821  0.395426  1
  Se  Se21  1  0.167511  0.701117  0.099753  1
  Se  Se22  1  0.117516  0.949726  0.608710  1
  Se  Se23  1  0.670094  0.298739  0.898640  1
  Se  Se24  1  0.895693  0.628777  0.236515  1
  Se  Se25  1  0.395977  0.373154  0.761242  1
  Se  Se26  1  0.394724  0.885660  0.739077  1
  Se  Se27  1  0.894904  0.114214  0.262568  1
  Se  Se28  1  0.201716  0.212445  0.134065  1
  Se  Se29  1  0.709570  0.783703  0.858794  1
  Se  Se30  1  0.593919  0.564986  0.368442  1
  Se  Se31  1  0.093142  0.434944  0.632783  1
  Se  Se32  1  0.815237  0.266643  0.521894  1
  Se  Se33  1  0.314061  0.731073  0.480355  1
  Se  Se34  1  0.481423  0.958739  0.011240  1
  Se  Se35  1  0.978000  0.040851  0.986353  1
