# generated using pymatgen
data_Ti10Zn2BiPb5
_symmetry_space_group_name_H-M   'P 1'
_cell_length_a   8.40240700
_cell_length_b   8.38811107
_cell_length_c   5.65766200
_cell_angle_alpha   90.00000000
_cell_angle_beta   90.00000000
_cell_angle_gamma   120.05639014
_symmetry_Int_Tables_number   1
_chemical_formula_structural   Ti10Zn2BiPb5
_chemical_formula_sum   'Ti10 Zn2 Bi1 Pb5'
_cell_volume   345.13456810
_cell_formula_units_Z   1
loop_
 _symmetry_equiv_pos_site_id
 _symmetry_equiv_pos_as_xyz
  1  'x, y, z'
loop_
 _atom_site_type_symbol
 _atom_site_label
 _atom_site_symmetry_multiplicity
 _atom_site_fract_x
 _atom_site_fract_y
 _atom_site_fract_z
 _atom_site_occupancy
  Ti  Ti0  1  0.333047  0.666297  0.999283  1
  Ti  Ti1  1  0.666751  0.333703  0.500717  1
  Ti  Ti2  1  0.666751  0.333703  0.999283  1
  Ti  Ti3  1  0.333047  0.666297  0.500717  1
  Ti  Ti4  1  0.266794  0.000000  0.250000  1
  Ti  Ti5  1  0.266889  0.267439  0.750000  1
  Ti  Ti6  1  0.999449  0.732561  0.750000  1
  Ti  Ti7  1  0.001029  0.267017  0.250000  1
  Ti  Ti8  1  0.734012  0.732983  0.250000  1
  Ti  Ti9  1  0.732679  0.000000  0.750000  1
  Zn  Zn10  1  0.000635  0.000000  0.998839  1
  Zn  Zn11  1  0.000635  0.000000  0.501161  1
  Bi  Bi12  1  0.615927  0.000000  0.250000  1
  Pb  Pb13  1  0.615930  0.615932  0.750000  1
  Pb  Pb14  1  0.999998  0.384068  0.750000  1
  Pb  Pb15  1  0.999815  0.615552  0.250000  1
  Pb  Pb16  1  0.384263  0.384448  0.250000  1
  Pb  Pb17  1  0.382353  0.000000  0.750000  1
