# generated using pymatgen
data_YbAg10(PbO4)3
_symmetry_space_group_name_H-M   'P 1'
_cell_length_a   8.82358614
_cell_length_b   8.82358600
_cell_length_c   6.02524412
_cell_angle_alpha   69.98552841
_cell_angle_beta   69.98552917
_cell_angle_gamma   72.60643415
_symmetry_Int_Tables_number   1
_chemical_formula_structural   YbAg10(PbO4)3
_chemical_formula_sum   'Yb1 Ag10 Pb3 O12'
_cell_volume   405.27383416
_cell_formula_units_Z   1
loop_
 _symmetry_equiv_pos_site_id
 _symmetry_equiv_pos_as_xyz
  1  'x, y, z'
loop_
 _atom_site_type_symbol
 _atom_site_label
 _atom_site_symmetry_multiplicity
 _atom_site_fract_x
 _atom_site_fract_y
 _atom_site_fract_z
 _atom_site_occupancy
  Yb  Yb0  1  0.417141  0.582859  0.000000  1
  Ag  Ag1  1  0.249764  0.250618  0.001641  1
  Ag  Ag2  1  0.750133  0.748859  0.497844  1
  Ag  Ag3  1  0.251141  0.249867  0.502156  1
  Ag  Ag4  1  0.749382  0.750236  0.998359  1
  Ag  Ag5  1  0.499654  0.000643  0.749309  1
  Ag  Ag6  1  0.999357  0.500346  0.250691  1
  Ag  Ag7  1  0.121579  0.611201  0.629448  1
  Ag  Ag8  1  0.612147  0.120948  0.134923  1
  Ag  Ag9  1  0.388799  0.878421  0.370552  1
  Ag  Ag10  1  0.879052  0.387853  0.865077  1
  Pb  Pb11  1  0.916265  0.083735  0.500000  1
  Pb  Pb12  1  0.579611  0.420389  0.500000  1
  Pb  Pb13  1  0.086107  0.913893  0.000000  1
  O  O14  1  0.663895  0.527726  0.705128  1
  O  O15  1  0.157522  0.033085  0.220922  1
  O  O16  1  0.537191  0.659240  0.222547  1
  O  O17  1  0.030262  0.157502  0.719130  1
  O  O18  1  0.339144  0.855740  0.776993  1
  O  O19  1  0.847415  0.342267  0.277414  1
  O  O20  1  0.340760  0.462809  0.777453  1
  O  O21  1  0.842498  0.969738  0.280870  1
  O  O22  1  0.472274  0.336105  0.294872  1
  O  O23  1  0.966915  0.842478  0.779078  1
  O  O24  1  0.657733  0.152585  0.722586  1
  O  O25  1  0.144260  0.660856  0.223007  1
