# generated using pymatgen
data_Mn3Fe2CoSiAs2
_symmetry_space_group_name_H-M   'P 1'
_cell_length_a   6.27831329
_cell_length_b   6.27831376
_cell_length_c   3.37586500
_cell_angle_alpha   90.00000000
_cell_angle_beta   90.00000000
_cell_angle_gamma   120.42056448
_symmetry_Int_Tables_number   1
_chemical_formula_structural   Mn3Fe2CoSiAs2
_chemical_formula_sum   'Mn3 Fe2 Co1 Si1 As2'
_cell_volume   114.74811691
_cell_formula_units_Z   1
loop_
 _symmetry_equiv_pos_site_id
 _symmetry_equiv_pos_as_xyz
  1  'x, y, z'
loop_
 _atom_site_type_symbol
 _atom_site_label
 _atom_site_symmetry_multiplicity
 _atom_site_fract_x
 _atom_site_fract_y
 _atom_site_fract_z
 _atom_site_occupancy
  Mn  Mn0  1  0.390977  0.390977  0.500000  1
  Mn  Mn1  1  0.603967  0.006488  0.500000  1
  Mn  Mn2  1  0.006488  0.603967  0.500000  1
  Fe  Fe3  1  0.251572  0.998688  0.000000  1
  Fe  Fe4  1  0.998688  0.251572  0.000000  1
  Co  Co5  1  0.748890  0.748890  0.000000  1
  Si  Si6  1  0.991780  0.991780  0.500000  1
  As  As7  1  0.668334  0.339303  0.000000  1
  As  As8  1  0.339303  0.668334  0.000000  1
