# generated using pymatgen
data_Tm(Ga2Pt)2
_symmetry_space_group_name_H-M   'P 1'
_cell_length_a   4.29742100
_cell_length_b   6.72211907
_cell_length_c   9.01235791
_cell_angle_alpha   71.59147187
_cell_angle_beta   90.00000000
_cell_angle_gamma   90.00000000
_symmetry_Int_Tables_number   1
_chemical_formula_structural   Tm(Ga2Pt)2
_chemical_formula_sum   'Tm2 Ga8 Pt4'
_cell_volume   247.02476328
_cell_formula_units_Z   2
loop_
 _symmetry_equiv_pos_site_id
 _symmetry_equiv_pos_as_xyz
  1  'x, y, z'
loop_
 _atom_site_type_symbol
 _atom_site_label
 _atom_site_symmetry_multiplicity
 _atom_site_fract_x
 _atom_site_fract_y
 _atom_site_fract_z
 _atom_site_occupancy
  Tm  Tm0  1  0.750000  0.852709  0.782598  1
  Tm  Tm1  1  0.250000  0.147291  0.217402  1
  Ga  Ga2  1  0.250000  0.098880  0.878462  1
  Ga  Ga3  1  0.750000  0.901120  0.121538  1
  Ga  Ga4  1  0.250000  0.114247  0.577568  1
  Ga  Ga5  1  0.750000  0.885753  0.422432  1
  Ga  Ga6  1  0.250000  0.530088  0.367997  1
  Ga  Ga7  1  0.750000  0.469912  0.632003  1
  Ga  Ga8  1  0.250000  0.512395  0.868760  1
  Ga  Ga9  1  0.750000  0.487605  0.131240  1
  Pt  Pt10  1  0.250000  0.715817  0.069232  1
  Pt  Pt11  1  0.750000  0.284183  0.930768  1
  Pt  Pt12  1  0.250000  0.726177  0.570599  1
  Pt  Pt13  1  0.750000  0.273823  0.429401  1
