# generated using pymatgen
data_NdZr7(Si4W3)4
_symmetry_space_group_name_H-M   'P 1'
_cell_length_a   6.65973370
_cell_length_b   6.80495701
_cell_length_c   12.75813889
_cell_angle_alpha   89.83095932
_cell_angle_beta   90.03189473
_cell_angle_gamma   90.00587589
_symmetry_Int_Tables_number   1
_chemical_formula_structural   NdZr7(Si4W3)4
_chemical_formula_sum   'Nd1 Zr7 Si16 W12'
_cell_volume   578.18605914
_cell_formula_units_Z   1
loop_
 _symmetry_equiv_pos_site_id
 _symmetry_equiv_pos_as_xyz
  1  'x, y, z'
loop_
 _atom_site_type_symbol
 _atom_site_label
 _atom_site_symmetry_multiplicity
 _atom_site_fract_x
 _atom_site_fract_y
 _atom_site_fract_z
 _atom_site_occupancy
  Nd  Nd0  1  0.997921  0.832464  0.590956  1
  Zr  Zr1  1  0.496933  0.670243  0.591423  1
  Zr  Zr2  1  0.995153  0.827857  0.907674  1
  Zr  Zr3  1  0.505777  0.327220  0.092369  1
  Zr  Zr4  1  0.005691  0.174547  0.403039  1
  Zr  Zr5  1  0.507411  0.329435  0.405565  1
  Zr  Zr6  1  0.005990  0.171387  0.092937  1
  Zr  Zr7  1  0.494085  0.671000  0.910879  1
  Si  Si8  1  0.664468  0.960373  0.453991  1
  Si  Si9  1  0.166693  0.541557  0.043918  1
  Si  Si10  1  0.331483  0.041852  0.958554  1
  Si  Si11  1  0.831593  0.452025  0.541585  1
  Si  Si12  1  0.340730  0.046646  0.541116  1
  Si  Si13  1  0.833246  0.458471  0.958121  1
  Si  Si14  1  0.667254  0.958321  0.043189  1
  Si  Si15  1  0.168714  0.536959  0.453832  1
  Si  Si16  1  0.465547  0.379754  0.751051  1
  Si  Si17  1  0.963646  0.127129  0.753353  1
  Si  Si18  1  0.532903  0.619221  0.248336  1
  Si  Si19  1  0.033900  0.877732  0.250412  1
  Si  Si20  1  0.693305  0.857993  0.752987  1
  Si  Si21  1  0.203954  0.638575  0.753317  1
  Si  Si22  1  0.301228  0.139401  0.249032  1
  Si  Si23  1  0.799019  0.359673  0.248122  1
  W  W24  1  0.662850  0.166082  0.625944  1
  W  W25  1  0.169479  0.338339  0.877568  1
  W  W26  1  0.331263  0.836351  0.124258  1
  W  W27  1  0.829078  0.660262  0.372841  1
  W  W28  1  0.336066  0.835297  0.374281  1
  W  W29  1  0.832011  0.663960  0.123972  1
  W  W30  1  0.664012  0.164812  0.877496  1
  W  W31  1  0.167838  0.337080  0.625160  1
  W  W32  1  0.833768  0.504220  0.752812  1
  W  W33  1  0.334858  0.996401  0.753014  1
  W  W34  1  0.165783  0.489823  0.249085  1
  W  W35  1  0.666348  0.007534  0.247806  1
