# generated using pymatgen
data_Tm3Zr(Co3Si5)2
_symmetry_space_group_name_H-M   'P 1'
_cell_length_a   5.49513355
_cell_length_b   7.77443957
_cell_length_c   7.78093216
_cell_angle_alpha   74.76121781
_cell_angle_beta   69.32200612
_cell_angle_gamma   69.30394620
_symmetry_Int_Tables_number   1
_chemical_formula_structural   Tm3Zr(Co3Si5)2
_chemical_formula_sum   'Tm3 Zr1 Co6 Si10'
_cell_volume   287.28838912
_cell_formula_units_Z   1
loop_
 _symmetry_equiv_pos_site_id
 _symmetry_equiv_pos_as_xyz
  1  'x, y, z'
loop_
 _atom_site_type_symbol
 _atom_site_label
 _atom_site_symmetry_multiplicity
 _atom_site_fract_x
 _atom_site_fract_y
 _atom_site_fract_z
 _atom_site_occupancy
  Tm  Tm0  1  0.634071  0.132934  0.598923  1
  Tm  Tm1  1  0.865643  0.399539  0.869174  1
  Tm  Tm2  1  0.135547  0.597585  0.131320  1
  Zr  Zr3  1  0.365045  0.867016  0.402896  1
  Co  Co4  1  0.751267  0.997473  0.998438  1
  Co  Co5  1  0.252822  0.997473  0.998438  1
  Co  Co6  1  0.136232  0.258212  0.469324  1
  Co  Co7  1  0.860388  0.755030  0.524195  1
  Co  Co8  1  0.637197  0.467209  0.258396  1
  Co  Co9  1  0.361778  0.527174  0.749270  1
  Si  Si10  1  0.744032  0.507606  0.504020  1
  Si  Si11  1  0.244343  0.507606  0.504020  1
  Si  Si12  1  0.522817  0.222959  0.225720  1
  Si  Si13  1  0.977982  0.771328  0.770799  1
  Si  Si14  1  0.479892  0.771328  0.770799  1
  Si  Si15  1  0.028503  0.222959  0.225720  1
  Si  Si16  1  0.103292  0.056791  0.736624  1
  Si  Si17  1  0.900999  0.941351  0.256652  1
  Si  Si18  1  0.598213  0.739542  0.064031  1
  Si  Si19  1  0.399936  0.258886  0.941243  1
