# generated using pymatgen
data_Ba5Er2HfAl2O13
_symmetry_space_group_name_H-M   'P 1'
_cell_length_a   6.00059400
_cell_length_b   6.00059364
_cell_length_c   25.08452700
_cell_angle_alpha   90.00000000
_cell_angle_beta   90.00000000
_cell_angle_gamma   119.99999098
_symmetry_Int_Tables_number   1
_chemical_formula_structural   Ba5Er2HfAl2O13
_chemical_formula_sum   'Ba10 Er4 Hf2 Al4 O26'
_cell_volume   782.21303345
_cell_formula_units_Z   2
loop_
 _symmetry_equiv_pos_site_id
 _symmetry_equiv_pos_as_xyz
  1  'x, y, z'
loop_
 _atom_site_type_symbol
 _atom_site_label
 _atom_site_symmetry_multiplicity
 _atom_site_fract_x
 _atom_site_fract_y
 _atom_site_fract_z
 _atom_site_occupancy
  Ba  Ba0  1  0.000000  0.000000  0.362385  1
  Ba  Ba1  1  0.666667  0.333333  0.958487  1
  Ba  Ba2  1  0.000000  0.000000  0.637615  1
  Ba  Ba3  1  0.000000  0.000000  0.862385  1
  Ba  Ba4  1  0.666667  0.333333  0.541513  1
  Ba  Ba5  1  0.333333  0.666667  0.458487  1
  Ba  Ba6  1  0.000000  0.000000  0.137615  1
  Ba  Ba7  1  0.333333  0.666667  0.041513  1
  Ba  Ba8  1  0.666667  0.333333  0.250000  1
  Ba  Ba9  1  0.333333  0.666667  0.750000  1
  Er  Er10  1  0.666667  0.333333  0.103346  1
  Er  Er11  1  0.333333  0.666667  0.896654  1
  Er  Er12  1  0.333333  0.666667  0.603346  1
  Er  Er13  1  0.666667  0.333333  0.396654  1
  Hf  Hf14  1  0.000000  0.000000  0.500000  1
  Hf  Hf15  1  0.000000  0.000000  0.000000  1
  Al  Al16  1  0.666667  0.333333  0.819224  1
  Al  Al17  1  0.333333  0.666667  0.180776  1
  Al  Al18  1  0.666667  0.333333  0.680776  1
  Al  Al19  1  0.333333  0.666667  0.319224  1
  O  O20  1  0.838241  0.676480  0.049850  1
  O  O21  1  0.838241  0.676480  0.450150  1
  O  O22  1  0.161759  0.838241  0.950150  1
  O  O23  1  0.161759  0.323520  0.549850  1
  O  O24  1  0.504520  0.495480  0.842037  1
  O  O25  1  0.838241  0.161759  0.049850  1
  O  O26  1  0.495480  0.990959  0.157963  1
  O  O27  1  0.009041  0.504520  0.157963  1
  O  O28  1  0.838241  0.161759  0.450150  1
  O  O29  1  0.323520  0.161759  0.049850  1
  O  O30  1  0.990959  0.495480  0.657963  1
  O  O31  1  0.504520  0.009041  0.657963  1
  O  O32  1  0.009041  0.504520  0.342037  1
  O  O33  1  0.676480  0.838241  0.549850  1
  O  O34  1  0.666667  0.333333  0.750000  1
  O  O35  1  0.495480  0.504520  0.342037  1
  O  O36  1  0.676480  0.838241  0.950150  1
  O  O37  1  0.504520  0.009041  0.842037  1
  O  O38  1  0.990959  0.495480  0.842037  1
  O  O39  1  0.504520  0.495480  0.657963  1
  O  O40  1  0.161759  0.838241  0.549850  1
  O  O41  1  0.161759  0.323520  0.950150  1
  O  O42  1  0.495480  0.504520  0.157963  1
  O  O43  1  0.323520  0.161759  0.450150  1
  O  O44  1  0.333333  0.666667  0.250000  1
  O  O45  1  0.495480  0.990959  0.342037  1
