# generated using pymatgen
data_Hf5Sc3(Nb2Sn5)2
_symmetry_space_group_name_H-M   'P 1'
_cell_length_a   10.80305063
_cell_length_b   10.82613823
_cell_length_c   10.82613852
_cell_angle_alpha   149.47195579
_cell_angle_beta   131.65034537
_cell_angle_gamma   58.28681879
_symmetry_Int_Tables_number   1
_chemical_formula_structural   Hf5Sc3(Nb2Sn5)2
_chemical_formula_sum   'Hf5 Sc3 Nb4 Sn10'
_cell_volume   476.91700940
_cell_formula_units_Z   1
loop_
 _symmetry_equiv_pos_site_id
 _symmetry_equiv_pos_as_xyz
  1  'x, y, z'
loop_
 _atom_site_type_symbol
 _atom_site_label
 _atom_site_symmetry_multiplicity
 _atom_site_fract_x
 _atom_site_fract_y
 _atom_site_fract_z
 _atom_site_occupancy
  Hf  Hf0  1  0.672335  0.435359  0.236976  1
  Hf  Hf1  1  0.327602  0.565839  0.761764  1
  Hf  Hf2  1  0.195947  0.934810  0.261138  1
  Hf  Hf3  1  0.803709  0.065101  0.738607  1
  Hf  Hf4  1  0.252572  0.145336  0.107236  1
  Sc  Sc5  1  0.746383  0.854032  0.892350  1
  Sc  Sc6  1  0.038896  0.645989  0.392907  1
  Sc  Sc7  1  0.963234  0.353862  0.609372  1
  Nb  Nb8  1  0.309256  0.557590  0.249721  1
  Nb  Nb9  1  0.689306  0.440787  0.748681  1
  Nb  Nb10  1  0.689306  0.940625  0.248519  1
  Nb  Nb11  1  0.309256  0.059535  0.751666  1
  Sn  Sn12  1  0.585423  0.287082  0.298340  1
  Sn  Sn13  1  0.415231  0.713403  0.701828  1
  Sn  Sn14  1  0.989105  0.786823  0.202283  1
  Sn  Sn15  1  0.009944  0.213030  0.796914  1
  Sn  Sn16  1  0.000994  0.250622  0.250407  1
  Sn  Sn17  1  0.000994  0.750587  0.750372  1
  Sn  Sn18  1  0.465753  0.069187  0.396563  1
  Sn  Sn19  1  0.534295  0.929880  0.604417  1
  Sn  Sn20  1  0.674729  0.570051  0.104678  1
  Sn  Sn21  1  0.325732  0.430468  0.895264  1
