# generated using pymatgen
data_KIn6(AgAu)2
_symmetry_space_group_name_H-M   'P 1'
_cell_length_a   8.33096289
_cell_length_b   8.37201710
_cell_length_c   4.50486800
_cell_angle_alpha   90.00000000
_cell_angle_beta   90.00000000
_cell_angle_gamma   119.78515899
_symmetry_Int_Tables_number   1
_chemical_formula_structural   KIn6(AgAu)2
_chemical_formula_sum   'K1 In6 Ag2 Au2'
_cell_volume   272.69309357
_cell_formula_units_Z   1
loop_
 _symmetry_equiv_pos_site_id
 _symmetry_equiv_pos_as_xyz
  1  'x, y, z'
loop_
 _atom_site_type_symbol
 _atom_site_label
 _atom_site_symmetry_multiplicity
 _atom_site_fract_x
 _atom_site_fract_y
 _atom_site_fract_z
 _atom_site_occupancy
  K  K0  1  0.999061  0.998113  0.000000  1
  In  In1  1  0.931058  0.467534  0.000000  1
  In  In2  1  0.196263  0.800955  0.500000  1
  In  In3  1  0.533357  0.066680  0.000000  1
  In  In4  1  0.536604  0.467462  0.000000  1
  In  In5  1  0.198458  0.397037  0.500000  1
  In  In6  1  0.604655  0.801009  0.500000  1
  Ag  Ag7  1  0.413450  0.206069  0.500000  1
  Ag  Ag8  1  0.792593  0.206136  0.500000  1
  Au  Au9  1  0.794478  0.588852  0.500000  1
  Au  Au10  1  0.333355  0.666819  0.000000  1
