# generated using pymatgen
data_Sr2PrUO6
_symmetry_space_group_name_H-M   'P 1'
_cell_length_a   6.07152669
_cell_length_b   6.24979200
_cell_length_c   8.72149611
_cell_angle_alpha   90.00000000
_cell_angle_beta   89.79699954
_cell_angle_gamma   90.00000000
_symmetry_Int_Tables_number   1
_chemical_formula_structural   Sr2PrUO6
_chemical_formula_sum   'Sr4 Pr2 U2 O12'
_cell_volume   330.94188620
_cell_formula_units_Z   2
loop_
 _symmetry_equiv_pos_site_id
 _symmetry_equiv_pos_as_xyz
  1  'x, y, z'
loop_
 _atom_site_type_symbol
 _atom_site_label
 _atom_site_symmetry_multiplicity
 _atom_site_fract_x
 _atom_site_fract_y
 _atom_site_fract_z
 _atom_site_occupancy
  Sr  Sr0  1  0.512458  0.547372  0.248642  1
  Sr  Sr1  1  0.987543  0.047371  0.251358  1
  Sr  Sr2  1  0.487542  0.452629  0.751358  1
  Sr  Sr3  1  0.012457  0.952630  0.748641  1
  Pr  Pr4  1  0.500000  0.000000  0.000000  1
  Pr  Pr5  1  0.000000  0.500001  0.499999  1
  U  U6  1  0.000000  0.500001  0.000000  1
  U  U7  1  0.500000  0.000000  0.499999  1
  O  O8  1  0.390078  0.953620  0.264202  1
  O  O9  1  0.109922  0.453621  0.235799  1
  O  O10  1  0.609922  0.046380  0.735798  1
  O  O11  1  0.890078  0.546378  0.764202  1
  O  O12  1  0.288499  0.685848  0.944737  1
  O  O13  1  0.211500  0.185850  0.555262  1
  O  O14  1  0.711501  0.314151  0.055263  1
  O  O15  1  0.788500  0.814151  0.444737  1
  O  O16  1  0.183612  0.212813  0.936957  1
  O  O17  1  0.316387  0.712814  0.563044  1
  O  O18  1  0.816386  0.787186  0.063044  1
  O  O19  1  0.683613  0.287185  0.436955  1
