# generated using pymatgen
data_Li2Ca3Nd(ZnSi3)2
_symmetry_space_group_name_H-M   'P 1'
_cell_length_a   9.42325479
_cell_length_b   9.42325461
_cell_length_c   6.84126222
_cell_angle_alpha   89.59825644
_cell_angle_beta   90.40174499
_cell_angle_gamma   153.41947582
_symmetry_Int_Tables_number   1
_chemical_formula_structural   Li2Ca3Nd(ZnSi3)2
_chemical_formula_sum   'Li2 Ca3 Nd1 Zn2 Si6'
_cell_volume   271.81680893
_cell_formula_units_Z   1
loop_
 _symmetry_equiv_pos_site_id
 _symmetry_equiv_pos_as_xyz
  1  'x, y, z'
loop_
 _atom_site_type_symbol
 _atom_site_label
 _atom_site_symmetry_multiplicity
 _atom_site_fract_x
 _atom_site_fract_y
 _atom_site_fract_z
 _atom_site_occupancy
  Li  Li0  1  0.812432  0.187568  0.939748  1
  Li  Li1  1  0.187344  0.812656  0.439039  1
  Ca  Ca2  1  0.553737  0.446263  0.255114  1
  Ca  Ca3  1  0.655855  0.344145  0.742858  1
  Ca  Ca4  1  0.343685  0.656315  0.243401  1
  Nd  Nd5  1  0.446487  0.553513  0.754817  1
  Zn  Zn6  1  0.192327  0.807673  0.054305  1
  Zn  Zn7  1  0.807989  0.192011  0.554517  1
  Si  Si8  1  0.278503  0.721497  0.748674  1
  Si  Si9  1  0.722691  0.277309  0.248442  1
  Si  Si10  1  0.940080  0.059920  0.429277  1
  Si  Si11  1  0.055414  0.944586  0.582229  1
  Si  Si12  1  0.944198  0.055802  0.079465  1
  Si  Si13  1  0.059258  0.940742  0.928117  1
