# generated using pymatgen
data_ScPb4W3O13
_symmetry_space_group_name_H-M   'P 1'
_cell_length_a   7.52336598
_cell_length_b   7.52336667
_cell_length_c   7.52336551
_cell_angle_alpha   60.80737238
_cell_angle_beta   60.80736755
_cell_angle_gamma   60.80737479
_symmetry_Int_Tables_number   1
_chemical_formula_structural   ScPb4W3O13
_chemical_formula_sum   'Sc1 Pb4 W3 O13'
_cell_volume   306.59052589
_cell_formula_units_Z   1
loop_
 _symmetry_equiv_pos_site_id
 _symmetry_equiv_pos_as_xyz
  1  'x, y, z'
loop_
 _atom_site_type_symbol
 _atom_site_label
 _atom_site_symmetry_multiplicity
 _atom_site_fract_x
 _atom_site_fract_y
 _atom_site_fract_z
 _atom_site_occupancy
  Sc  Sc0  1  0.500042  0.500042  0.500042  1
  Pb  Pb1  1  0.997255  0.997255  0.997255  1
  Pb  Pb2  1  0.499461  0.000494  0.000494  1
  Pb  Pb3  1  0.000494  0.000494  0.499461  1
  Pb  Pb4  1  0.000494  0.499461  0.000494  1
  W  W5  1  0.000955  0.499866  0.499866  1
  W  W6  1  0.499866  0.499866  0.000955  1
  W  W7  1  0.499866  0.000955  0.499866  1
  O  O8  1  0.835437  0.425636  0.425636  1
  O  O9  1  0.422043  0.822110  0.822110  1
  O  O10  1  0.425636  0.425636  0.835437  1
  O  O11  1  0.822110  0.822110  0.422043  1
  O  O12  1  0.822110  0.422043  0.822110  1
  O  O13  1  0.425636  0.835437  0.425636  1
  O  O14  1  0.168926  0.571006  0.571006  1
  O  O15  1  0.576473  0.180589  0.180589  1
  O  O16  1  0.571006  0.571006  0.168926  1
  O  O17  1  0.180589  0.180589  0.576473  1
  O  O18  1  0.180589  0.576473  0.180589  1
  O  O19  1  0.571006  0.168926  0.571006  1
  O  O20  1  0.125010  0.125010  0.125010  1
