# generated using pymatgen
data_Dy16Ho4Si15As
_symmetry_space_group_name_H-M   'P 1'
_cell_length_a   7.51282693
_cell_length_b   7.64471479
_cell_length_c   14.64454607
_cell_angle_alpha   89.89003701
_cell_angle_beta   85.61278239
_cell_angle_gamma   89.95688185
_symmetry_Int_Tables_number   1
_chemical_formula_structural   Dy16Ho4Si15As
_chemical_formula_sum   'Dy16 Ho4 Si15 As1'
_cell_volume   838.62013874
_cell_formula_units_Z   1
loop_
 _symmetry_equiv_pos_site_id
 _symmetry_equiv_pos_as_xyz
  1  'x, y, z'
loop_
 _atom_site_type_symbol
 _atom_site_label
 _atom_site_symmetry_multiplicity
 _atom_site_fract_x
 _atom_site_fract_y
 _atom_site_fract_z
 _atom_site_occupancy
  Dy  Dy0  1  0.010739  0.823156  0.102761  1
  Dy  Dy1  1  0.472430  0.685591  0.397762  1
  Dy  Dy2  1  0.488090  0.319666  0.897784  1
  Dy  Dy3  1  0.027885  0.186112  0.603003  1
  Dy  Dy4  1  0.992528  0.178696  0.898103  1
  Dy  Dy5  1  0.526609  0.314039  0.602054  1
  Dy  Dy6  1  0.506319  0.681714  0.102566  1
  Dy  Dy7  1  0.972147  0.812813  0.397452  1
  Dy  Dy8  1  0.639119  0.838202  0.881364  1
  Dy  Dy9  1  0.174716  0.677418  0.622185  1
  Dy  Dy10  1  0.861401  0.335808  0.117616  1
  Dy  Dy11  1  0.325165  0.176312  0.378234  1
  Dy  Dy12  1  0.360151  0.163183  0.118603  1
  Dy  Dy13  1  0.825345  0.322326  0.378382  1
  Dy  Dy14  1  0.140641  0.665047  0.882340  1
  Dy  Dy15  1  0.675135  0.823736  0.622187  1
  Ho  Ho16  1  0.672647  0.995024  0.245490  1
  Ho  Ho17  1  0.171515  0.503650  0.245424  1
  Ho  Ho18  1  0.828427  0.495961  0.751444  1
  Ho  Ho19  1  0.327365  0.004863  0.753921  1
  Si  Si20  1  0.785557  0.627716  0.251752  1
  Si  Si21  1  0.285875  0.870480  0.252162  1
  Si  Si22  1  0.713021  0.130430  0.748467  1
  Si  Si23  1  0.213233  0.371737  0.748636  1
  Si  Si24  1  0.045750  0.109066  0.251938  1
  Si  Si25  1  0.546161  0.390408  0.251297  1
  Si  Si26  1  0.454511  0.609444  0.749275  1
  Si  Si27  1  0.954080  0.891386  0.749169  1
  Si  Si28  1  0.357107  0.972295  0.542807  1
  Si  Si29  1  0.710738  0.031879  0.043352  1
  Si  Si30  1  0.144034  0.471201  0.458197  1
  Si  Si31  1  0.214090  0.468019  0.043678  1
  Si  Si32  1  0.643395  0.026766  0.457267  1
  Si  Si33  1  0.291251  0.968301  0.955815  1
  Si  Si34  1  0.856560  0.527337  0.542668  1
  As  As35  1  0.786264  0.530221  0.954844  1
