# generated using pymatgen
data_Y6CrP12Rh17
_symmetry_space_group_name_H-M   'P 1'
_cell_length_a   3.92896200
_cell_length_b   11.21354300
_cell_length_c   12.77373000
_cell_angle_alpha   90.00000000
_cell_angle_beta   90.00000000
_cell_angle_gamma   90.00000000
_symmetry_Int_Tables_number   1
_chemical_formula_structural   Y6CrP12Rh17
_chemical_formula_sum   'Y6 Cr1 P12 Rh17'
_cell_volume   562.77968671
_cell_formula_units_Z   1
loop_
 _symmetry_equiv_pos_site_id
 _symmetry_equiv_pos_as_xyz
  1  'x, y, z'
loop_
 _atom_site_type_symbol
 _atom_site_label
 _atom_site_symmetry_multiplicity
 _atom_site_fract_x
 _atom_site_fract_y
 _atom_site_fract_z
 _atom_site_occupancy
  Y  Y0  1  0.000000  0.500000  0.519456  1
  Y  Y1  1  0.500000  0.000000  0.479782  1
  Y  Y2  1  0.500000  0.815705  0.205715  1
  Y  Y3  1  0.500000  0.184295  0.205715  1
  Y  Y4  1  0.000000  0.682653  0.796300  1
  Y  Y5  1  0.000000  0.317347  0.796300  1
  Cr  Cr6  1  0.500000  0.500000  0.161827  1
  P  P7  1  0.500000  0.500000  0.879077  1
  P  P8  1  0.000000  0.000000  0.120821  1
  P  P9  1  0.500000  0.500000  0.345098  1
  P  P10  1  0.000000  0.000000  0.649635  1
  P  P11  1  0.500000  0.315660  0.618437  1
  P  P12  1  0.500000  0.684340  0.618437  1
  P  P13  1  0.000000  0.185908  0.381552  1
  P  P14  1  0.000000  0.814092  0.381552  1
  P  P15  1  0.500000  0.846750  0.891330  1
  P  P16  1  0.500000  0.153250  0.891330  1
  P  P17  1  0.000000  0.653452  0.109186  1
  P  P18  1  0.000000  0.346548  0.109186  1
  Rh  Rh19  1  0.000000  0.000000  0.832123  1
  Rh  Rh20  1  0.500000  0.500000  0.700805  1
  Rh  Rh21  1  0.000000  0.000000  0.298666  1
  Rh  Rh22  1  0.000000  0.500000  0.986673  1
  Rh  Rh23  1  0.500000  0.000000  0.018853  1
  Rh  Rh24  1  0.500000  0.333377  0.992700  1
  Rh  Rh25  1  0.500000  0.666623  0.992700  1
  Rh  Rh26  1  0.000000  0.166834  0.008809  1
  Rh  Rh27  1  0.000000  0.833166  0.008809  1
  Rh  Rh28  1  0.500000  0.294108  0.431545  1
  Rh  Rh29  1  0.500000  0.705892  0.431545  1
  Rh  Rh30  1  0.000000  0.204213  0.568885  1
  Rh  Rh31  1  0.000000  0.795787  0.568885  1
  Rh  Rh32  1  0.500000  0.872653  0.710274  1
  Rh  Rh33  1  0.500000  0.127347  0.710274  1
  Rh  Rh34  1  0.000000  0.624888  0.288861  1
  Rh  Rh35  1  0.000000  0.375112  0.288861  1
