# generated using pymatgen
data_Pr3Y3TcBi2
_symmetry_space_group_name_H-M   'P 1'
_cell_length_a   8.49583000
_cell_length_b   8.49582897
_cell_length_c   4.40274800
_cell_angle_alpha   90.00000000
_cell_angle_beta   90.00000000
_cell_angle_gamma   119.99999620
_symmetry_Int_Tables_number   1
_chemical_formula_structural   Pr3Y3TcBi2
_chemical_formula_sum   'Pr3 Y3 Tc1 Bi2'
_cell_volume   275.21116688
_cell_formula_units_Z   1
loop_
 _symmetry_equiv_pos_site_id
 _symmetry_equiv_pos_as_xyz
  1  'x, y, z'
loop_
 _atom_site_type_symbol
 _atom_site_label
 _atom_site_symmetry_multiplicity
 _atom_site_fract_x
 _atom_site_fract_y
 _atom_site_fract_z
 _atom_site_occupancy
  Pr  Pr0  1  0.605165  0.000000  0.000000  1
  Pr  Pr1  1  0.000000  0.605165  0.000000  1
  Pr  Pr2  1  0.394835  0.394835  0.000000  1
  Y  Y3  1  0.228920  0.000000  0.500000  1
  Y  Y4  1  0.000000  0.228920  0.500000  1
  Y  Y5  1  0.771080  0.771080  0.500000  1
  Tc  Tc6  1  0.000000  0.000000  0.000000  1
  Bi  Bi7  1  0.333333  0.666667  0.500000  1
  Bi  Bi8  1  0.666667  0.333333  0.500000  1
