# generated using pymatgen
data_Lu3Sc2Tl2NiPb
_symmetry_space_group_name_H-M   'P 1'
_cell_length_a   8.84932400
_cell_length_b   8.89551629
_cell_length_c   6.33775700
_cell_angle_alpha   90.00000000
_cell_angle_beta   90.00000000
_cell_angle_gamma   119.82838041
_symmetry_Int_Tables_number   1
_chemical_formula_structural   Lu3Sc2Tl2NiPb
_chemical_formula_sum   'Lu6 Sc4 Tl4 Ni2 Pb2'
_cell_volume   432.80864281
_cell_formula_units_Z   2
loop_
 _symmetry_equiv_pos_site_id
 _symmetry_equiv_pos_as_xyz
  1  'x, y, z'
loop_
 _atom_site_type_symbol
 _atom_site_label
 _atom_site_symmetry_multiplicity
 _atom_site_fract_x
 _atom_site_fract_y
 _atom_site_fract_z
 _atom_site_occupancy
  Lu  Lu0  1  0.241610  0.000297  0.250000  1
  Lu  Lu1  1  0.758687  0.000297  0.750000  1
  Lu  Lu2  1  0.998457  0.243304  0.250000  1
  Lu  Lu3  1  0.002160  0.763232  0.750000  1
  Lu  Lu4  1  0.244847  0.243304  0.750000  1
  Lu  Lu5  1  0.761072  0.763232  0.250000  1
  Sc  Sc6  1  0.331703  0.663406  0.500000  1
  Sc  Sc7  1  0.663679  0.327356  0.500000  1
  Sc  Sc8  1  0.663679  0.327356  0.000000  1
  Sc  Sc9  1  0.331703  0.663406  0.000000  1
  Tl  Tl10  1  0.403421  0.996064  0.750000  1
  Tl  Tl11  1  0.998516  0.402362  0.750000  1
  Tl  Tl12  1  0.403846  0.402362  0.250000  1
  Tl  Tl13  1  0.592644  0.996064  0.250000  1
  Ni  Ni14  1  0.004158  0.008316  0.000000  1
  Ni  Ni15  1  0.004158  0.008316  0.500000  1
  Pb  Pb16  1  0.997333  0.595663  0.250000  1
  Pb  Pb17  1  0.598330  0.595663  0.750000  1
