# generated using pymatgen
data_RbGd(SO4)2
_symmetry_space_group_name_H-M   'P 1'
_cell_length_a   5.24950964
_cell_length_b   5.24950964
_cell_length_c   8.70144041
_cell_angle_alpha   86.89435244
_cell_angle_beta   86.89435343
_cell_angle_gamma   64.03153360
_symmetry_Int_Tables_number   1
_chemical_formula_structural   RbGd(SO4)2
_chemical_formula_sum   'Rb1 Gd1 S2 O8'
_cell_volume   215.13791688
_cell_formula_units_Z   1
loop_
 _symmetry_equiv_pos_site_id
 _symmetry_equiv_pos_as_xyz
  1  'x, y, z'
loop_
 _atom_site_type_symbol
 _atom_site_label
 _atom_site_symmetry_multiplicity
 _atom_site_fract_x
 _atom_site_fract_y
 _atom_site_fract_z
 _atom_site_occupancy
  Rb  Rb0  1  0.000000  0.000000  0.500000  1
  Gd  Gd1  1  0.000000  0.000000  0.000000  1
  S  S2  1  0.369516  0.369516  0.787366  1
  S  S3  1  0.630484  0.630484  0.212634  1
  O  O4  1  0.312546  0.312546  0.633953  1
  O  O5  1  0.687454  0.687454  0.366047  1
  O  O6  1  0.683758  0.246605  0.809669  1
  O  O7  1  0.316242  0.753395  0.190331  1
  O  O8  1  0.753395  0.316242  0.190331  1
  O  O9  1  0.246605  0.683758  0.809669  1
  O  O10  1  0.246362  0.246362  0.912996  1
  O  O11  1  0.753638  0.753638  0.087004  1
