# generated using pymatgen
data_TbY5B14OsW
_symmetry_space_group_name_H-M   'P 1'
_cell_length_a   8.13719928
_cell_length_b   8.13719840
_cell_length_c   9.41867533
_cell_angle_alpha   89.97042415
_cell_angle_beta   90.02957500
_cell_angle_gamma   155.10758734
_symmetry_Int_Tables_number   1
_chemical_formula_structural   TbY5B14OsW
_chemical_formula_sum   'Tb1 Y5 B14 Os1 W1'
_cell_volume   262.50328514
_cell_formula_units_Z   1
loop_
 _symmetry_equiv_pos_site_id
 _symmetry_equiv_pos_as_xyz
  1  'x, y, z'
loop_
 _atom_site_type_symbol
 _atom_site_label
 _atom_site_symmetry_multiplicity
 _atom_site_fract_x
 _atom_site_fract_y
 _atom_site_fract_z
 _atom_site_occupancy
  Tb  Tb0  1  0.894059  0.105941  0.937378  1
  Y  Y1  1  0.107020  0.892980  0.058841  1
  Y  Y2  1  0.754867  0.245133  0.250057  1
  Y  Y3  1  0.243557  0.756443  0.750005  1
  Y  Y4  1  0.894094  0.105906  0.562506  1
  Y  Y5  1  0.107036  0.892964  0.441184  1
  B  B6  1  0.544876  0.455124  0.249999  1
  B  B7  1  0.458687  0.541313  0.749905  1
  B  B8  1  0.521374  0.478626  0.903134  1
  B  B9  1  0.480242  0.519758  0.091224  1
  B  B10  1  0.480243  0.519757  0.408856  1
  B  B11  1  0.521366  0.478634  0.596753  1
  B  B12  1  0.631775  0.368225  0.848846  1
  B  B13  1  0.365256  0.634744  0.147363  1
  B  B14  1  0.726495  0.273505  0.965136  1
  B  B15  1  0.271890  0.728110  0.032286  1
  B  B16  1  0.271922  0.728078  0.467709  1
  B  B17  1  0.726566  0.273434  0.534892  1
  B  B18  1  0.631773  0.368227  0.651179  1
  B  B19  1  0.365258  0.634742  0.352718  1
  Os  Os20  1  0.054354  0.945646  0.749952  1
  W  W21  1  0.947291  0.052709  0.250076  1
