# generated using pymatgen
data_TbGd5YScO12
_symmetry_space_group_name_H-M   'P 1'
_cell_length_a   6.74748510
_cell_length_b   6.75153768
_cell_length_c   6.75261436
_cell_angle_alpha   92.64514510
_cell_angle_beta   92.68844095
_cell_angle_gamma   92.64729068
_symmetry_Int_Tables_number   1
_chemical_formula_structural   TbGd5YScO12
_chemical_formula_sum   'Tb1 Gd5 Y1 Sc1 O12'
_cell_volume   306.59484728
_cell_formula_units_Z   1
loop_
 _symmetry_equiv_pos_site_id
 _symmetry_equiv_pos_as_xyz
  1  'x, y, z'
loop_
 _atom_site_type_symbol
 _atom_site_label
 _atom_site_symmetry_multiplicity
 _atom_site_fract_x
 _atom_site_fract_y
 _atom_site_fract_z
 _atom_site_occupancy
  Tb  Tb0  1  0.742446  0.929684  0.439270  1
  Gd  Gd1  1  0.439908  0.742317  0.929716  1
  Gd  Gd2  1  0.069854  0.561027  0.257717  1
  Gd  Gd3  1  0.929590  0.439106  0.741916  1
  Gd  Gd4  1  0.560549  0.257447  0.070757  1
  Gd  Gd5  1  0.257828  0.069828  0.560107  1
  Y  Y6  1  0.999490  0.999812  0.999744  1
  Sc  Sc7  1  0.500475  0.500226  0.499830  1
  O  O8  1  0.065657  0.907329  0.316269  1
  O  O9  1  0.684183  0.932025  0.095609  1
  O  O10  1  0.466342  0.803878  0.590603  1
  O  O11  1  0.093060  0.684158  0.932344  1
  O  O12  1  0.802712  0.593735  0.464224  1
  O  O13  1  0.408550  0.535679  0.197090  1
  O  O14  1  0.591439  0.464258  0.802884  1
  O  O15  1  0.197154  0.408553  0.535799  1
  O  O16  1  0.907130  0.315795  0.067328  1
  O  O17  1  0.537468  0.196068  0.408980  1
  O  O18  1  0.315627  0.067476  0.906950  1
  O  O19  1  0.930538  0.091599  0.682862  1
