# generated using pymatgen
data_Dy20Ir7Ru4Pt
_symmetry_space_group_name_H-M   'P 1'
_cell_length_a   10.82943951
_cell_length_b   10.82943951
_cell_length_c   6.45211481
_cell_angle_alpha   90.09902180
_cell_angle_beta   90.09902180
_cell_angle_gamma   89.94038342
_symmetry_Int_Tables_number   1
_chemical_formula_structural   Dy20Ir7Ru4Pt
_chemical_formula_sum   'Dy20 Ir7 Ru4 Pt1'
_cell_volume   756.68045322
_cell_formula_units_Z   1
loop_
 _symmetry_equiv_pos_site_id
 _symmetry_equiv_pos_as_xyz
  1  'x, y, z'
loop_
 _atom_site_type_symbol
 _atom_site_label
 _atom_site_symmetry_multiplicity
 _atom_site_fract_x
 _atom_site_fract_y
 _atom_site_fract_z
 _atom_site_occupancy
  Dy  Dy0  1  0.293079  0.086553  0.378584  1
  Dy  Dy1  1  0.293956  0.913223  0.878709  1
  Dy  Dy2  1  0.704307  0.085640  0.874055  1
  Dy  Dy3  1  0.705209  0.910609  0.380435  1
  Dy  Dy4  1  0.586821  0.793348  0.878980  1
  Dy  Dy5  1  0.583658  0.206615  0.378790  1
  Dy  Dy6  1  0.412791  0.793270  0.378834  1
  Dy  Dy7  1  0.413014  0.206689  0.879383  1
  Dy  Dy8  1  0.206652  0.413179  0.621020  1
  Dy  Dy9  1  0.206730  0.587209  0.121166  1
  Dy  Dy10  1  0.793385  0.416342  0.121210  1
  Dy  Dy11  1  0.793311  0.586986  0.620617  1
  Dy  Dy12  1  0.913447  0.706921  0.121416  1
  Dy  Dy13  1  0.914360  0.295693  0.625945  1
  Dy  Dy14  1  0.086777  0.706044  0.621291  1
  Dy  Dy15  1  0.089391  0.294791  0.119565  1
  Dy  Dy16  1  0.001312  0.998398  0.501297  1
  Dy  Dy17  1  0.001602  0.998688  0.998703  1
  Dy  Dy18  1  0.499845  0.500063  0.999744  1
  Dy  Dy19  1  0.499937  0.500155  0.500256  1
  Ir  Ir20  1  0.848137  0.848674  0.750140  1
  Ir  Ir21  1  0.151326  0.151863  0.749860  1
  Ir  Ir22  1  0.152111  0.847889  0.250000  1
  Ir  Ir23  1  0.653129  0.346871  0.750000  1
  Ir  Ir24  1  0.652095  0.652042  0.250117  1
  Ir  Ir25  1  0.347958  0.347905  0.249883  1
  Ir  Ir26  1  0.347708  0.652292  0.750000  1
  Ru  Ru27  1  0.500321  0.000042  0.123968  1
  Ru  Ru28  1  0.500466  0.999881  0.623342  1
  Ru  Ru29  1  0.000119  0.499534  0.876658  1
  Ru  Ru30  1  0.999958  0.499679  0.376032  1
  Pt  Pt31  1  0.847090  0.152910  0.250000  1
