# generated using pymatgen
data_HoIn3Sb4(P2O7)8
_symmetry_space_group_name_H-M   'P 1'
_cell_length_a   8.10114111
_cell_length_b   8.14529030
_cell_length_c   16.42225680
_cell_angle_alpha   89.96939067
_cell_angle_beta   89.98147095
_cell_angle_gamma   89.99648485
_symmetry_Int_Tables_number   1
_chemical_formula_structural   HoIn3Sb4(P2O7)8
_chemical_formula_sum   'Ho1 In3 Sb4 P16 O56'
_cell_volume   1083.64122245
_cell_formula_units_Z   1
loop_
 _symmetry_equiv_pos_site_id
 _symmetry_equiv_pos_as_xyz
  1  'x, y, z'
loop_
 _atom_site_type_symbol
 _atom_site_label
 _atom_site_symmetry_multiplicity
 _atom_site_fract_x
 _atom_site_fract_y
 _atom_site_fract_z
 _atom_site_occupancy
  Ho  Ho0  1  0.984383  0.244820  0.373744  1
  In  In1  1  0.014329  0.745446  0.627208  1
  In  In2  1  0.514238  0.744872  0.873589  1
  In  In3  1  0.485261  0.244626  0.125856  1
  Sb  Sb4  1  0.984874  0.746714  0.121684  1
  Sb  Sb5  1  0.014851  0.246967  0.877405  1
  Sb  Sb6  1  0.515515  0.247145  0.623192  1
  Sb  Sb7  1  0.484835  0.745998  0.377443  1
  P  P8  1  0.090011  0.367856  0.066607  1
  P  P9  1  0.909984  0.867948  0.932082  1
  P  P10  1  0.410340  0.868748  0.567653  1
  P  P11  1  0.583781  0.370462  0.432786  1
  P  P12  1  0.891491  0.130744  0.166891  1
  P  P13  1  0.106647  0.631331  0.829483  1
  P  P14  1  0.606514  0.631670  0.670814  1
  P  P15  1  0.399023  0.128284  0.328737  1
  P  P16  1  0.102283  0.649714  0.313235  1
  P  P17  1  0.900747  0.143400  0.686912  1
  P  P18  1  0.400614  0.142966  0.814218  1
  P  P19  1  0.599340  0.642581  0.185912  1
  P  P20  1  0.875298  0.837132  0.426110  1
  P  P21  1  0.122959  0.346186  0.579112  1
  P  P22  1  0.621695  0.344440  0.924472  1
  P  P23  1  0.378247  0.843910  0.075215  1
  O  O24  1  0.141825  0.525570  0.599236  1
  O  O25  1  0.856986  0.017466  0.408930  1
  O  O26  1  0.360626  0.023866  0.094842  1
  O  O27  1  0.638674  0.524449  0.904780  1
  O  O28  1  0.022708  0.296752  0.506465  1
  O  O29  1  0.978058  0.783970  0.497456  1
  O  O30  1  0.479274  0.792191  0.003018  1
  O  O31  1  0.520678  0.292521  0.996620  1
  O  O32  1  0.919973  0.133416  0.780664  1
  O  O33  1  0.079375  0.639005  0.219728  1
  O  O34  1  0.576217  0.633159  0.279487  1
  O  O35  1  0.423827  0.133937  0.720682  1
  O  O36  1  0.048354  0.259253  0.660199  1
  O  O37  1  0.953339  0.760636  0.342956  1
  O  O38  1  0.453643  0.758678  0.156746  1
  O  O39  1  0.546532  0.258737  0.843159  1
  O  O40  1  0.238596  0.236553  0.829838  1
  O  O41  1  0.761564  0.735769  0.170029  1
  O  O42  1  0.262342  0.746938  0.328524  1
  O  O43  1  0.740293  0.238197  0.669312  1
  O  O44  1  0.462841  0.519604  0.424144  1
  O  O45  1  0.528349  0.020229  0.576179  1
  O  O46  1  0.027787  0.019659  0.924187  1
  O  O47  1  0.972102  0.518988  0.075980  1
  O  O48  1  0.202726  0.763701  0.067919  1
  O  O49  1  0.797552  0.264920  0.931571  1
  O  O50  1  0.297511  0.264639  0.570470  1
  O  O51  1  0.702105  0.752051  0.432011  1
  O  O52  1  0.021945  0.715693  0.908801  1
  O  O53  1  0.977714  0.214675  0.087965  1
  O  O54  1  0.476697  0.215350  0.409133  1
  O  O55  1  0.521438  0.716123  0.591506  1
  O  O56  1  0.103606  0.484393  0.352220  1
  O  O57  1  0.902058  0.978918  0.646671  1
  O  O58  1  0.400574  0.977625  0.853684  1
  O  O59  1  0.598767  0.477349  0.146355  1
  O  O60  1  0.507166  0.465156  0.677670  1
  O  O61  1  0.503396  0.964451  0.323993  1
  O  O62  1  0.992417  0.965383  0.174894  1
  O  O63  1  0.006489  0.465100  0.822765  1
  O  O64  1  0.067770  0.734645  0.755915  1
  O  O65  1  0.928396  0.232084  0.241139  1
  O  O66  1  0.438730  0.231258  0.255119  1
  O  O67  1  0.567885  0.734127  0.744689  1
  O  O68  1  0.375329  0.841378  0.475333  1
  O  O69  1  0.622070  0.342597  0.524797  1
  O  O70  1  0.127221  0.341966  0.974386  1
  O  O71  1  0.873219  0.838949  0.024132  1
  O  O72  1  0.246309  0.376121  0.115178  1
  O  O73  1  0.752685  0.878001  0.884451  1
  O  O74  1  0.252423  0.879014  0.614855  1
  O  O75  1  0.740779  0.381945  0.385321  1
  O  O76  1  0.285785  0.608051  0.852202  1
  O  O77  1  0.712911  0.106361  0.143730  1
  O  O78  1  0.219485  0.105230  0.349691  1
  O  O79  1  0.785622  0.608848  0.647911  1
