# generated using pymatgen
data_Ti8BeBi4As
_symmetry_space_group_name_H-M   'P 1'
_cell_length_a   7.84268823
_cell_length_b   7.84377701
_cell_length_c   7.84268899
_cell_angle_alpha   95.61450513
_cell_angle_beta   95.69147575
_cell_angle_gamma   143.40490593
_symmetry_Int_Tables_number   1
_chemical_formula_structural   Ti8BeBi4As
_chemical_formula_sum   'Ti8 Be1 Bi4 As1'
_cell_volume   273.09401921
_cell_formula_units_Z   1
loop_
 _symmetry_equiv_pos_site_id
 _symmetry_equiv_pos_as_xyz
  1  'x, y, z'
loop_
 _atom_site_type_symbol
 _atom_site_label
 _atom_site_symmetry_multiplicity
 _atom_site_fract_x
 _atom_site_fract_y
 _atom_site_fract_z
 _atom_site_occupancy
  Ti  Ti0  1  0.705163  0.589283  0.278808  1
  Ti  Ti1  1  0.310398  0.426427  0.721204  1
  Ti  Ti2  1  0.588907  0.310333  0.883809  1
  Ti  Ti3  1  0.073477  0.189667  0.278574  1
  Ti  Ti4  1  0.794777  0.073573  0.883971  1
  Ti  Ti5  1  0.426655  0.705197  0.116242  1
  Ti  Ti6  1  0.911045  0.794803  0.721458  1
  Ti  Ti7  1  0.189525  0.910717  0.115880  1
  Be  Be8  1  0.750005  0.750000  0.000005  1
  Bi  Bi9  1  0.139743  0.639791  0.779581  1
  Bi  Bi10  1  0.360259  0.139886  0.500151  1
  Bi  Bi11  1  0.860264  0.360114  0.220373  1
  Bi  Bi12  1  0.639789  0.860209  0.499952  1
  As  As13  1  0.249994  0.250000  0.999994  1
