# generated using pymatgen
data_Dy2Hf2ZrSi4
_symmetry_space_group_name_H-M   'P 1'
_cell_length_a   7.29923700
_cell_length_b   7.29923700
_cell_length_c   13.41741900
_cell_angle_alpha   90.00000000
_cell_angle_beta   90.00000000
_cell_angle_gamma   90.00000000
_symmetry_Int_Tables_number   1
_chemical_formula_structural   Dy2Hf2ZrSi4
_chemical_formula_sum   'Dy8 Hf8 Zr4 Si16'
_cell_volume   714.86479896
_cell_formula_units_Z   4
loop_
 _symmetry_equiv_pos_site_id
 _symmetry_equiv_pos_as_xyz
  1  'x, y, z'
loop_
 _atom_site_type_symbol
 _atom_site_label
 _atom_site_symmetry_multiplicity
 _atom_site_fract_x
 _atom_site_fract_y
 _atom_site_fract_z
 _atom_site_occupancy
  Dy  Dy0  1  0.996578  0.344057  0.214877  1
  Dy  Dy1  1  0.003422  0.655943  0.714877  1
  Dy  Dy2  1  0.155943  0.496578  0.464877  1
  Dy  Dy3  1  0.503422  0.844057  0.035123  1
  Dy  Dy4  1  0.844057  0.503422  0.964877  1
  Dy  Dy5  1  0.496578  0.155943  0.535123  1
  Dy  Dy6  1  0.344057  0.996578  0.785123  1
  Dy  Dy7  1  0.655943  0.003422  0.285123  1
  Hf  Hf8  1  0.149177  0.995532  0.374509  1
  Hf  Hf9  1  0.850823  0.004468  0.874509  1
  Hf  Hf10  1  0.504468  0.649177  0.624509  1
  Hf  Hf11  1  0.350823  0.495532  0.875491  1
  Hf  Hf12  1  0.495532  0.350823  0.124509  1
  Hf  Hf13  1  0.649177  0.504468  0.375491  1
  Hf  Hf14  1  0.995532  0.149177  0.625491  1
  Hf  Hf15  1  0.004468  0.850823  0.125491  1
  Zr  Zr16  1  0.174544  0.174544  0.000000  1
  Zr  Zr17  1  0.825456  0.825456  0.500000  1
  Zr  Zr18  1  0.325456  0.674544  0.250000  1
  Zr  Zr19  1  0.674544  0.325456  0.750000  1
  Si  Si20  1  0.363174  0.293863  0.317193  1
  Si  Si21  1  0.636826  0.706137  0.817193  1
  Si  Si22  1  0.206137  0.863174  0.567193  1
  Si  Si23  1  0.136826  0.793863  0.932807  1
  Si  Si24  1  0.793863  0.136826  0.067193  1
  Si  Si25  1  0.863174  0.206137  0.432807  1
  Si  Si26  1  0.293863  0.363174  0.682807  1
  Si  Si27  1  0.706137  0.636826  0.182807  1
  Si  Si28  1  0.295384  0.049501  0.186465  1
  Si  Si29  1  0.704616  0.950499  0.686465  1
  Si  Si30  1  0.450499  0.795384  0.436465  1
  Si  Si31  1  0.204616  0.549501  0.063535  1
  Si  Si32  1  0.549501  0.204616  0.936465  1
  Si  Si33  1  0.795384  0.450499  0.563535  1
  Si  Si34  1  0.049501  0.295384  0.813535  1
  Si  Si35  1  0.950499  0.704616  0.313535  1
