# generated using pymatgen
data_Yb3HoCu2Sn5
_symmetry_space_group_name_H-M   'P 1'
_cell_length_a   4.43789600
_cell_length_b   8.82215500
_cell_length_c   14.06691200
_cell_angle_alpha   90.00000000
_cell_angle_beta   90.00000000
_cell_angle_gamma   90.00000000
_symmetry_Int_Tables_number   1
_chemical_formula_structural   Yb3HoCu2Sn5
_chemical_formula_sum   'Yb6 Ho2 Cu4 Sn10'
_cell_volume   550.74501507
_cell_formula_units_Z   2
loop_
 _symmetry_equiv_pos_site_id
 _symmetry_equiv_pos_as_xyz
  1  'x, y, z'
loop_
 _atom_site_type_symbol
 _atom_site_label
 _atom_site_symmetry_multiplicity
 _atom_site_fract_x
 _atom_site_fract_y
 _atom_site_fract_z
 _atom_site_occupancy
  Yb  Yb0  1  0.500000  0.792670  0.742253  1
  Yb  Yb1  1  0.000000  0.207330  0.757747  1
  Yb  Yb2  1  0.000000  0.207330  0.242253  1
  Yb  Yb3  1  0.500000  0.136099  0.000000  1
  Yb  Yb4  1  0.000000  0.863901  0.500000  1
  Yb  Yb5  1  0.500000  0.792670  0.257747  1
  Ho  Ho6  1  0.500000  0.698961  0.000000  1
  Ho  Ho7  1  0.000000  0.301039  0.500000  1
  Cu  Cu8  1  0.500000  0.377990  0.643941  1
  Cu  Cu9  1  0.000000  0.622010  0.856059  1
  Cu  Cu10  1  0.000000  0.622010  0.143941  1
  Cu  Cu11  1  0.500000  0.377990  0.356059  1
  Sn  Sn12  1  0.500000  0.086004  0.396032  1
  Sn  Sn13  1  0.000000  0.554856  0.663724  1
  Sn  Sn14  1  0.000000  0.406899  0.000000  1
  Sn  Sn15  1  0.500000  0.445144  0.163724  1
  Sn  Sn16  1  0.500000  0.593101  0.500000  1
  Sn  Sn17  1  0.500000  0.445144  0.836276  1
  Sn  Sn18  1  0.000000  0.913996  0.896032  1
  Sn  Sn19  1  0.000000  0.554856  0.336276  1
  Sn  Sn20  1  0.500000  0.086004  0.603968  1
  Sn  Sn21  1  0.000000  0.913996  0.103968  1
