# generated using pymatgen
data_Tb5Nb3Fe15CoP12
_symmetry_space_group_name_H-M   'P 1'
_cell_length_a   12.26162500
_cell_length_b   12.26162411
_cell_length_c   3.73800800
_cell_angle_alpha   90.00000000
_cell_angle_beta   90.00000000
_cell_angle_gamma   119.99999971
_symmetry_Int_Tables_number   1
_chemical_formula_structural   Tb5Nb3Fe15CoP12
_chemical_formula_sum   'Tb5 Nb3 Fe15 Co1 P12'
_cell_volume   486.70621008
_cell_formula_units_Z   1
loop_
 _symmetry_equiv_pos_site_id
 _symmetry_equiv_pos_as_xyz
  1  'x, y, z'
loop_
 _atom_site_type_symbol
 _atom_site_label
 _atom_site_symmetry_multiplicity
 _atom_site_fract_x
 _atom_site_fract_y
 _atom_site_fract_z
 _atom_site_occupancy
  Tb  Tb0  1  0.822234  0.000000  0.500000  1
  Tb  Tb1  1  0.000000  0.822234  0.500000  1
  Tb  Tb2  1  0.177766  0.177766  0.500000  1
  Tb  Tb3  1  0.333333  0.666667  0.000000  1
  Tb  Tb4  1  0.666667  0.333333  0.000000  1
  Nb  Nb5  1  0.442476  0.000000  0.000000  1
  Nb  Nb6  1  0.000000  0.442476  0.000000  1
  Nb  Nb7  1  0.557524  0.557524  0.000000  1
  Fe  Fe8  1  0.281071  0.000000  0.500000  1
  Fe  Fe9  1  0.000000  0.281071  0.500000  1
  Fe  Fe10  1  0.718929  0.718929  0.500000  1
  Fe  Fe11  1  0.619917  0.801846  0.000000  1
  Fe  Fe12  1  0.198154  0.818072  0.000000  1
  Fe  Fe13  1  0.181928  0.380083  0.000000  1
  Fe  Fe14  1  0.380083  0.181928  0.000000  1
  Fe  Fe15  1  0.801846  0.619917  0.000000  1
  Fe  Fe16  1  0.818072  0.198154  0.000000  1
  Fe  Fe17  1  0.525830  0.880271  0.500000  1
  Fe  Fe18  1  0.119729  0.645559  0.500000  1
  Fe  Fe19  1  0.354441  0.474170  0.500000  1
  Fe  Fe20  1  0.474170  0.354441  0.500000  1
  Fe  Fe21  1  0.880271  0.525830  0.500000  1
  Fe  Fe22  1  0.645559  0.119729  0.500000  1
  Co  Co23  1  0.000000  0.000000  0.000000  1
  P  P24  1  0.184019  0.000000  0.000000  1
  P  P25  1  0.000000  0.184019  0.000000  1
  P  P26  1  0.815981  0.815981  0.000000  1
  P  P27  1  0.523489  0.690481  0.500000  1
  P  P28  1  0.309519  0.833008  0.500000  1
  P  P29  1  0.166992  0.476511  0.500000  1
  P  P30  1  0.476511  0.166992  0.500000  1
  P  P31  1  0.690481  0.523489  0.500000  1
  P  P32  1  0.833008  0.309519  0.500000  1
  P  P33  1  0.648936  0.000000  0.000000  1
  P  P34  1  0.000000  0.648936  0.000000  1
  P  P35  1  0.351064  0.351064  0.000000  1
