# generated using pymatgen
data_Tb16CdHg3(IrPt)2
_symmetry_space_group_name_H-M   'P 1'
_cell_length_a   9.66593921
_cell_length_b   9.67136804
_cell_length_c   9.67290300
_cell_angle_alpha   59.99474629
_cell_angle_beta   59.97616155
_cell_angle_gamma   60.03773251
_symmetry_Int_Tables_number   1
_chemical_formula_structural   Tb16CdHg3(IrPt)2
_chemical_formula_sum   'Tb16 Cd1 Hg3 Ir2 Pt2'
_cell_volume   639.44309010
_cell_formula_units_Z   1
loop_
 _symmetry_equiv_pos_site_id
 _symmetry_equiv_pos_as_xyz
  1  'x, y, z'
loop_
 _atom_site_type_symbol
 _atom_site_label
 _atom_site_symmetry_multiplicity
 _atom_site_fract_x
 _atom_site_fract_y
 _atom_site_fract_z
 _atom_site_occupancy
  Tb  Tb0  1  0.602015  0.601680  0.597272  1
  Tb  Tb1  1  0.602015  0.601680  0.199034  1
  Tb  Tb2  1  0.607577  0.190614  0.600904  1
  Tb  Tb3  1  0.187628  0.608201  0.602087  1
  Tb  Tb4  1  0.056218  0.440448  0.441274  1
  Tb  Tb5  1  0.439269  0.057255  0.062756  1
  Tb  Tb6  1  0.439269  0.057255  0.440720  1
  Tb  Tb7  1  0.056218  0.440448  0.062060  1
  Tb  Tb8  1  0.440424  0.441096  0.059240  1
  Tb  Tb9  1  0.060665  0.060879  0.439227  1
  Tb  Tb10  1  0.187687  0.814218  0.811512  1
  Tb  Tb11  1  0.813405  0.188495  0.186650  1
  Tb  Tb12  1  0.813405  0.188495  0.811451  1
  Tb  Tb13  1  0.187687  0.814218  0.186584  1
  Tb  Tb14  1  0.812231  0.813134  0.187318  1
  Tb  Tb15  1  0.186956  0.187959  0.812543  1
  Cd  Cd16  1  0.508653  0.829543  0.830902  1
  Hg  Hg17  1  0.833963  0.835996  0.836399  1
  Hg  Hg18  1  0.833963  0.835996  0.493642  1
  Hg  Hg19  1  0.833785  0.492842  0.836687  1
  Ir  Ir20  1  0.390906  0.822279  0.393408  1
  Ir  Ir21  1  0.822148  0.391658  0.393097  1
  Pt  Pt22  1  0.391958  0.392808  0.395527  1
  Pt  Pt23  1  0.391958  0.392808  0.819707  1
