# generated using pymatgen
data_Nd3Lu4Pa(ReB6)4
_symmetry_space_group_name_H-M   'P 1'
_cell_length_a   3.69617400
_cell_length_b   9.17044324
_cell_length_c   11.59753323
_cell_angle_alpha   90.11198358
_cell_angle_beta   90.00000000
_cell_angle_gamma   90.00000000
_symmetry_Int_Tables_number   1
_chemical_formula_structural   Nd3Lu4Pa(ReB6)4
_chemical_formula_sum   'Nd3 Lu4 Pa1 Re4 B24'
_cell_volume   393.10406122
_cell_formula_units_Z   1
loop_
 _symmetry_equiv_pos_site_id
 _symmetry_equiv_pos_as_xyz
  1  'x, y, z'
loop_
 _atom_site_type_symbol
 _atom_site_label
 _atom_site_symmetry_multiplicity
 _atom_site_fract_x
 _atom_site_fract_y
 _atom_site_fract_z
 _atom_site_occupancy
  Nd  Nd0  1  0.000000  0.679407  0.585859  1
  Nd  Nd1  1  0.000000  0.822652  0.085727  1
  Nd  Nd2  1  0.000000  0.177103  0.914056  1
  Lu  Lu3  1  0.000000  0.943133  0.371903  1
  Lu  Lu4  1  0.000000  0.055378  0.628597  1
  Lu  Lu5  1  0.000000  0.443623  0.128526  1
  Lu  Lu6  1  0.000000  0.556665  0.869211  1
  Pa  Pa7  1  0.000000  0.322900  0.414549  1
  Re  Re8  1  0.000000  0.635298  0.320436  1
  Re  Re9  1  0.000000  0.360288  0.676527  1
  Re  Re10  1  0.000000  0.143806  0.185747  1
  Re  Re11  1  0.000000  0.860258  0.818629  1
  B  B12  1  0.500000  0.552375  0.430062  1
  B  B13  1  0.500000  0.442946  0.567016  1
  B  B14  1  0.500000  0.056520  0.071266  1
  B  B15  1  0.500000  0.945137  0.930863  1
  B  B16  1  0.500000  0.750391  0.416098  1
  B  B17  1  0.500000  0.248714  0.580827  1
  B  B18  1  0.500000  0.251309  0.084793  1
  B  B19  1  0.500000  0.748618  0.916176  1
  B  B20  1  0.500000  0.791486  0.266754  1
  B  B21  1  0.500000  0.207947  0.732649  1
  B  B22  1  0.500000  0.293107  0.236589  1
  B  B23  1  0.500000  0.707844  0.765571  1
  B  B24  1  0.500000  0.628675  0.185539  1
  B  B25  1  0.500000  0.370822  0.813215  1
  B  B26  1  0.500000  0.131869  0.317192  1
  B  B27  1  0.500000  0.870780  0.685323  1
  B  B28  1  0.500000  0.984615  0.215410  1
  B  B29  1  0.500000  0.016831  0.785788  1
  B  B30  1  0.500000  0.481889  0.287227  1
  B  B31  1  0.500000  0.516161  0.713285  1
  B  B32  1  0.500000  0.596286  0.025969  1
  B  B33  1  0.500000  0.403357  0.972891  1
  B  B34  1  0.500000  0.101424  0.472462  1
  B  B35  1  0.500000  0.900388  0.527264  1
