# generated using pymatgen
data_Ca2Ac2As7Ir8
_symmetry_space_group_name_H-M   'P 1'
_cell_length_a   4.15958900
_cell_length_b   13.43225108
_cell_length_c   13.59849418
_cell_angle_alpha   81.82081323
_cell_angle_beta   90.00000000
_cell_angle_gamma   90.00000000
_symmetry_Int_Tables_number   1
_chemical_formula_structural   Ca2Ac2As7Ir8
_chemical_formula_sum   'Ca4 Ac4 As14 Ir16'
_cell_volume   752.05528314
_cell_formula_units_Z   2
loop_
 _symmetry_equiv_pos_site_id
 _symmetry_equiv_pos_as_xyz
  1  'x, y, z'
loop_
 _atom_site_type_symbol
 _atom_site_label
 _atom_site_symmetry_multiplicity
 _atom_site_fract_x
 _atom_site_fract_y
 _atom_site_fract_z
 _atom_site_occupancy
  Ca  Ca0  1  0.250000  0.515907  0.292171  1
  Ca  Ca1  1  0.750000  0.484093  0.707829  1
  Ca  Ca2  1  0.250000  0.212330  0.436342  1
  Ca  Ca3  1  0.750000  0.787670  0.563658  1
  Ac  Ac4  1  0.250000  0.104135  0.790454  1
  Ac  Ac5  1  0.750000  0.895865  0.209546  1
  Ac  Ac6  1  0.250000  0.287391  0.108533  1
  Ac  Ac7  1  0.750000  0.712609  0.891467  1
  As  As8  1  0.250000  0.059644  0.098088  1
  As  As9  1  0.750000  0.940356  0.901912  1
  As  As10  1  0.250000  0.317370  0.683677  1
  As  As11  1  0.750000  0.682630  0.316323  1
  As  As12  1  0.250000  0.608352  0.566434  1
  As  As13  1  0.750000  0.391648  0.433566  1
  As  As14  1  0.250000  0.847441  0.716802  1
  As  As15  1  0.750000  0.152559  0.283198  1
  As  As16  1  0.750000  0.256750  0.914912  1
  As  As17  1  0.250000  0.743250  0.085088  1
  As  As18  1  0.750000  0.096684  0.584683  1
  As  As19  1  0.250000  0.903316  0.415317  1
  As  As20  1  0.750000  0.473642  0.130729  1
  As  As21  1  0.250000  0.526358  0.869271  1
  Ir  Ir22  1  0.250000  0.986351  0.572101  1
  Ir  Ir23  1  0.750000  0.013649  0.427899  1
  Ir  Ir24  1  0.250000  0.665110  0.730331  1
  Ir  Ir25  1  0.750000  0.334890  0.269669  1
  Ir  Ir26  1  0.250000  0.551365  0.049189  1
  Ir  Ir27  1  0.750000  0.448635  0.950811  1
  Ir  Ir28  1  0.250000  0.055827  0.281599  1
  Ir  Ir29  1  0.750000  0.944173  0.718401  1
  Ir  Ir30  1  0.250000  0.428458  0.524897  1
  Ir  Ir31  1  0.750000  0.571542  0.475103  1
  Ir  Ir32  1  0.250000  0.918905  0.001295  1
  Ir  Ir33  1  0.750000  0.081095  0.998705  1
  Ir  Ir34  1  0.250000  0.720959  0.403622  1
  Ir  Ir35  1  0.750000  0.279041  0.596378  1
  Ir  Ir36  1  0.250000  0.344920  0.858102  1
  Ir  Ir37  1  0.750000  0.655080  0.141898  1
