# generated using pymatgen
data_Tb4Si4IrRu
_symmetry_space_group_name_H-M   'P 1'
_cell_length_a   5.75316422
_cell_length_b   5.75316522
_cell_length_c   10.14610164
_cell_angle_alpha   62.82996098
_cell_angle_beta   62.82995581
_cell_angle_gamma   43.18110991
_symmetry_Int_Tables_number   1
_chemical_formula_structural   Tb4Si4IrRu
_chemical_formula_sum   'Tb4 Si4 Ir1 Ru1'
_cell_volume   200.18721437
_cell_formula_units_Z   1
loop_
 _symmetry_equiv_pos_site_id
 _symmetry_equiv_pos_as_xyz
  1  'x, y, z'
loop_
 _atom_site_type_symbol
 _atom_site_label
 _atom_site_symmetry_multiplicity
 _atom_site_fract_x
 _atom_site_fract_y
 _atom_site_fract_z
 _atom_site_occupancy
  Tb  Tb0  1  0.184420  0.184420  0.890874  1
  Tb  Tb1  1  0.815486  0.815486  0.106014  1
  Tb  Tb2  1  0.993303  0.993303  0.677403  1
  Tb  Tb3  1  0.005913  0.005913  0.322245  1
  Si  Si4  1  0.492626  0.492626  0.876000  1
  Si  Si5  1  0.503554  0.503554  0.124128  1
  Si  Si6  1  0.356367  0.356367  0.563970  1
  Si  Si7  1  0.647802  0.647802  0.434700  1
  Ir  Ir8  1  0.727502  0.727502  0.625844  1
  Ru  Ru9  1  0.273029  0.273029  0.378822  1
