# generated using pymatgen
data_Ho9Lu(Ir2Rh)2
_symmetry_space_group_name_H-M   'P 1'
_cell_length_a   10.77137700
_cell_length_b   10.77137700
_cell_length_c   6.40056800
_cell_angle_alpha   90.00000000
_cell_angle_beta   90.00000000
_cell_angle_gamma   90.00000000
_symmetry_Int_Tables_number   1
_chemical_formula_structural   Ho9Lu(Ir2Rh)2
_chemical_formula_sum   'Ho18 Lu2 Ir8 Rh4'
_cell_volume   742.61030066
_cell_formula_units_Z   2
loop_
 _symmetry_equiv_pos_site_id
 _symmetry_equiv_pos_as_xyz
  1  'x, y, z'
loop_
 _atom_site_type_symbol
 _atom_site_label
 _atom_site_symmetry_multiplicity
 _atom_site_fract_x
 _atom_site_fract_y
 _atom_site_fract_z
 _atom_site_occupancy
  Ho  Ho0  1  0.289299  0.088348  0.380448  1
  Ho  Ho1  1  0.289299  0.911652  0.880448  1
  Ho  Ho2  1  0.710701  0.088348  0.880448  1
  Ho  Ho3  1  0.710701  0.911652  0.380448  1
  Ho  Ho4  1  0.588827  0.790805  0.880054  1
  Ho  Ho5  1  0.588827  0.209195  0.380054  1
  Ho  Ho6  1  0.411173  0.790805  0.380054  1
  Ho  Ho7  1  0.411173  0.209195  0.880054  1
  Ho  Ho8  1  0.209195  0.411173  0.619946  1
  Ho  Ho9  1  0.209195  0.588827  0.119946  1
  Ho  Ho10  1  0.790805  0.411173  0.119946  1
  Ho  Ho11  1  0.790805  0.588827  0.619946  1
  Ho  Ho12  1  0.911652  0.710701  0.119552  1
  Ho  Ho13  1  0.911652  0.289299  0.619552  1
  Ho  Ho14  1  0.088348  0.710701  0.619552  1
  Ho  Ho15  1  0.088348  0.289299  0.119552  1
  Ho  Ho16  1  0.500000  0.500000  0.000000  1
  Ho  Ho17  1  0.500000  0.500000  0.500000  1
  Lu  Lu18  1  0.000000  0.000000  0.500000  1
  Lu  Lu19  1  0.000000  0.000000  0.000000  1
  Ir  Ir20  1  0.848222  0.151778  0.250000  1
  Ir  Ir21  1  0.848222  0.848222  0.750000  1
  Ir  Ir22  1  0.151778  0.151778  0.750000  1
  Ir  Ir23  1  0.151778  0.848222  0.250000  1
  Ir  Ir24  1  0.654244  0.345756  0.750000  1
  Ir  Ir25  1  0.654244  0.654244  0.250000  1
  Ir  Ir26  1  0.345756  0.345756  0.250000  1
  Ir  Ir27  1  0.345756  0.654244  0.750000  1
  Rh  Rh28  1  0.500000  0.000000  0.123736  1
  Rh  Rh29  1  0.500000  0.000000  0.623736  1
  Rh  Rh30  1  0.000000  0.500000  0.876264  1
  Rh  Rh31  1  0.000000  0.500000  0.376264  1
