# generated using pymatgen
data_Sr2Ga7Pt
_symmetry_space_group_name_H-M   'P 1'
_cell_length_a   6.23040558
_cell_length_b   6.23366858
_cell_length_c   11.72574100
_cell_angle_alpha   74.58484884
_cell_angle_beta   74.59309692
_cell_angle_gamma   90.00000381
_symmetry_Int_Tables_number   1
_chemical_formula_structural   Sr2Ga7Pt
_chemical_formula_sum   'Sr4 Ga14 Pt2'
_cell_volume   422.02377339
_cell_formula_units_Z   2
loop_
 _symmetry_equiv_pos_site_id
 _symmetry_equiv_pos_as_xyz
  1  'x, y, z'
loop_
 _atom_site_type_symbol
 _atom_site_label
 _atom_site_symmetry_multiplicity
 _atom_site_fract_x
 _atom_site_fract_y
 _atom_site_fract_z
 _atom_site_occupancy
  Sr  Sr0  1  0.999049  0.999049  0.001903  1
  Sr  Sr1  1  0.499323  0.499323  0.001355  1
  Sr  Sr2  1  0.749393  0.249393  0.501216  1
  Sr  Sr3  1  0.249070  0.749070  0.501860  1
  Ga  Ga4  1  0.198805  0.198805  0.602391  1
  Ga  Ga5  1  0.809472  0.809472  0.381057  1
  Ga  Ga6  1  0.618110  0.124066  0.252362  1
  Ga  Ga7  1  0.129528  0.623572  0.252362  1
  Ga  Ga8  1  0.618110  0.623572  0.252362  1
  Ga  Ga9  1  0.129528  0.124066  0.252362  1
  Ga  Ga10  1  0.873348  0.367974  0.752359  1
  Ga  Ga11  1  0.374292  0.879666  0.752359  1
  Ga  Ga12  1  0.873348  0.879666  0.752359  1
  Ga  Ga13  1  0.374292  0.367974  0.752359  1
  Ga  Ga14  1  0.691923  0.691923  0.616152  1
  Ga  Ga15  1  0.059590  0.559590  0.880821  1
  Ga  Ga16  1  0.448745  0.948745  0.102507  1
  Ga  Ga17  1  0.941980  0.441980  0.116040  1
  Pt  Pt18  1  0.563420  0.063420  0.873160  1
  Pt  Pt19  1  0.313503  0.313503  0.372994  1
