# generated using pymatgen
data_Sm8Nb(IO8)3
_symmetry_space_group_name_H-M   'P 1'
_cell_length_a   5.60085841
_cell_length_b   7.86427606
_cell_length_c   11.88937735
_cell_angle_alpha   76.15713959
_cell_angle_beta   90.12690829
_cell_angle_gamma   89.81209376
_symmetry_Int_Tables_number   1
_chemical_formula_structural   Sm8Nb(IO8)3
_chemical_formula_sum   'Sm8 Nb1 I3 O24'
_cell_volume   508.47242488
_cell_formula_units_Z   1
loop_
 _symmetry_equiv_pos_site_id
 _symmetry_equiv_pos_as_xyz
  1  'x, y, z'
loop_
 _atom_site_type_symbol
 _atom_site_label
 _atom_site_symmetry_multiplicity
 _atom_site_fract_x
 _atom_site_fract_y
 _atom_site_fract_z
 _atom_site_occupancy
  Sm  Sm0  1  0.738735  0.980527  0.750792  1
  Sm  Sm1  1  0.254052  0.019539  0.252226  1
  Sm  Sm2  1  0.198310  0.778682  0.584170  1
  Sm  Sm3  1  0.817168  0.804212  0.068470  1
  Sm  Sm4  1  0.683481  0.506842  0.756383  1
  Sm  Sm5  1  0.307444  0.498290  0.246332  1
  Sm  Sm6  1  0.180100  0.196894  0.925259  1
  Sm  Sm7  1  0.810517  0.220469  0.419406  1
  Nb  Nb8  1  0.251357  0.716448  0.889837  1
  I  I9  1  0.746997  0.732794  0.382316  1
  I  I10  1  0.252554  0.268444  0.619731  1
  I  I11  1  0.736141  0.289624  0.107197  1
  O  O12  1  0.022815  0.935527  0.893322  1
  O  O13  1  0.520150  0.852889  0.926390  1
  O  O14  1  0.930252  0.940052  0.394513  1
  O  O15  1  0.474534  0.774526  0.724571  1
  O  O16  1  0.472227  0.835431  0.434535  1
  O  O17  1  0.986692  0.711293  0.763318  1
  O  O18  1  0.582751  0.816993  0.234154  1
  O  O19  1  0.855112  0.640381  0.535127  1
  O  O20  1  0.351750  0.485638  0.883682  1
  O  O21  1  0.018261  0.700968  0.287639  1
  O  O22  1  0.377192  0.490210  0.621015  1
  O  O23  1  0.830990  0.353269  0.940548  1
  O  O24  1  0.141467  0.634508  0.050835  1
  O  O25  1  0.624941  0.510820  0.380012  1
  O  O26  1  0.984675  0.296996  0.717463  1
  O  O27  1  0.614161  0.516772  0.101653  1
  O  O28  1  0.138730  0.366881  0.471006  1
  O  O29  1  0.424644  0.186258  0.765343  1
  O  O30  1  0.057130  0.278559  0.261293  1
  O  O31  1  0.522068  0.164704  0.565046  1
  O  O32  1  0.546164  0.229222  0.270131  1
  O  O33  1  0.067419  0.059698  0.606911  1
  O  O34  1  0.472979  0.162254  0.069001  1
  O  O35  1  0.006041  0.043387  0.100373  1
