# generated using pymatgen
data_La4Dy6Ir3Ru
_symmetry_space_group_name_H-M   'P 1'
_cell_length_a   6.54227230
_cell_length_b   7.23309207
_cell_length_c   8.89068229
_cell_angle_alpha   96.53618822
_cell_angle_beta   112.19418864
_cell_angle_gamma   89.98758327
_symmetry_Int_Tables_number   1
_chemical_formula_structural   La4Dy6Ir3Ru
_chemical_formula_sum   'La4 Dy6 Ir3 Ru1'
_cell_volume   386.59274465
_cell_formula_units_Z   1
loop_
 _symmetry_equiv_pos_site_id
 _symmetry_equiv_pos_as_xyz
  1  'x, y, z'
loop_
 _atom_site_type_symbol
 _atom_site_label
 _atom_site_symmetry_multiplicity
 _atom_site_fract_x
 _atom_site_fract_y
 _atom_site_fract_z
 _atom_site_occupancy
  La  La0  1  0.780624  0.090658  0.802930  1
  La  La1  1  0.980887  0.418623  0.193155  1
  La  La2  1  0.212010  0.916777  0.193210  1
  La  La3  1  0.013513  0.581233  0.804123  1
  Dy  Dy4  1  0.204606  0.183420  0.566829  1
  Dy  Dy5  1  0.636375  0.314056  0.430483  1
  Dy  Dy6  1  0.794070  0.815534  0.433944  1
  Dy  Dy7  1  0.362369  0.684720  0.571024  1
  Dy  Dy8  1  0.430774  0.249486  0.001120  1
  Dy  Dy9  1  0.567948  0.751162  0.998771  1
  Ir  Ir10  1  0.816410  0.076661  0.229967  1
  Ir  Ir11  1  0.410493  0.576777  0.224006  1
  Ir  Ir12  1  0.182586  0.922265  0.771435  1
  Ru  Ru13  1  0.607335  0.418630  0.779005  1
