# generated using pymatgen
data_Ho5Tm7Os3Rh
_symmetry_space_group_name_H-M   'P 1'
_cell_length_a   7.31276596
_cell_length_b   8.94805114
_cell_length_c   6.29309158
_cell_angle_alpha   89.94242402
_cell_angle_beta   89.79942584
_cell_angle_gamma   89.99732138
_symmetry_Int_Tables_number   1
_chemical_formula_structural   Ho5Tm7Os3Rh
_chemical_formula_sum   'Ho5 Tm7 Os3 Rh1'
_cell_volume   411.78573941
_cell_formula_units_Z   1
loop_
 _symmetry_equiv_pos_site_id
 _symmetry_equiv_pos_as_xyz
  1  'x, y, z'
loop_
 _atom_site_type_symbol
 _atom_site_label
 _atom_site_symmetry_multiplicity
 _atom_site_fract_x
 _atom_site_fract_y
 _atom_site_fract_z
 _atom_site_occupancy
  Ho  Ho0  1  0.038651  0.250207  0.628728  1
  Ho  Ho1  1  0.961420  0.749794  0.372754  1
  Ho  Ho2  1  0.462441  0.749841  0.129321  1
  Ho  Ho3  1  0.539671  0.250098  0.870284  1
  Ho  Ho4  1  0.172826  0.060705  0.165778  1
  Tm  Tm5  1  0.824441  0.936790  0.830781  1
  Tm  Tm6  1  0.323728  0.933436  0.671916  1
  Tm  Tm7  1  0.824658  0.563086  0.830940  1
  Tm  Tm8  1  0.677922  0.061445  0.331599  1
  Tm  Tm9  1  0.172518  0.439441  0.165571  1
  Tm  Tm10  1  0.678004  0.438547  0.331565  1
  Tm  Tm11  1  0.323620  0.566389  0.671895  1
  Os  Os12  1  0.615699  0.750073  0.538760  1
  Os  Os13  1  0.116560  0.749641  0.962171  1
  Os  Os14  1  0.883088  0.250283  0.039156  1
  Rh  Rh15  1  0.384754  0.250223  0.458781  1
