# generated using pymatgen
data_Na3Tm(BO3)2
_symmetry_space_group_name_H-M   'P 1'
_cell_length_a   9.30488800
_cell_length_b   5.20312147
_cell_length_c   7.27246576
_cell_angle_alpha   56.94158707
_cell_angle_beta   90.00000000
_cell_angle_gamma   90.00000000
_symmetry_Int_Tables_number   1
_chemical_formula_structural   Na3Tm(BO3)2
_chemical_formula_sum   'Na6 Tm2 B4 O12'
_cell_volume   295.09397888
_cell_formula_units_Z   2
loop_
 _symmetry_equiv_pos_site_id
 _symmetry_equiv_pos_as_xyz
  1  'x, y, z'
loop_
 _atom_site_type_symbol
 _atom_site_label
 _atom_site_symmetry_multiplicity
 _atom_site_fract_x
 _atom_site_fract_y
 _atom_site_fract_z
 _atom_site_occupancy
  Na  Na0  1  0.500000  0.000000  0.000000  1
  Na  Na1  1  0.000000  0.000000  0.500000  1
  Na  Na2  1  0.832079  0.259706  0.735597  1
  Na  Na3  1  0.332079  0.740294  0.764403  1
  Na  Na4  1  0.167921  0.740294  0.264403  1
  Na  Na5  1  0.667921  0.259706  0.235597  1
  Tm  Tm6  1  0.500000  0.500000  0.500000  1
  Tm  Tm7  1  0.000000  0.500000  0.000000  1
  B  B8  1  0.669367  0.770698  0.740681  1
  B  B9  1  0.169367  0.229302  0.759319  1
  B  B10  1  0.330633  0.229302  0.259319  1
  B  B11  1  0.830633  0.770698  0.240681  1
  O  O12  1  0.585873  0.524447  0.779281  1
  O  O13  1  0.085873  0.475553  0.720719  1
  O  O14  1  0.414127  0.475553  0.220719  1
  O  O15  1  0.914127  0.524447  0.279281  1
  O  O16  1  0.607966  0.055229  0.661332  1
  O  O17  1  0.107966  0.944771  0.838668  1
  O  O18  1  0.392034  0.944771  0.338668  1
  O  O19  1  0.892034  0.055229  0.161332  1
  O  O20  1  0.816108  0.735638  0.782348  1
  O  O21  1  0.316108  0.264362  0.717652  1
  O  O22  1  0.183892  0.264362  0.217652  1
  O  O23  1  0.683892  0.735638  0.282348  1
