# generated using pymatgen
data_Th7Os2Ru
_symmetry_space_group_name_H-M   'P 1'
_cell_length_a   10.00504678
_cell_length_b   10.00943972
_cell_length_c   6.34815096
_cell_angle_alpha   89.99999712
_cell_angle_beta   89.85204973
_cell_angle_gamma   120.01452446
_symmetry_Int_Tables_number   1
_chemical_formula_structural   Th7Os2Ru
_chemical_formula_sum   'Th14 Os4 Ru2'
_cell_volume   550.47963558
_cell_formula_units_Z   2
loop_
 _symmetry_equiv_pos_site_id
 _symmetry_equiv_pos_as_xyz
  1  'x, y, z'
loop_
 _atom_site_type_symbol
 _atom_site_label
 _atom_site_symmetry_multiplicity
 _atom_site_fract_x
 _atom_site_fract_y
 _atom_site_fract_z
 _atom_site_occupancy
  Th  Th0  1  0.459161  0.539120  0.299313  1
  Th  Th1  1  0.080771  0.540385  0.300090  1
  Th  Th2  1  0.920796  0.460398  0.800108  1
  Th  Th3  1  0.252402  0.126202  0.502952  1
  Th  Th4  1  0.540384  0.079317  0.799230  1
  Th  Th5  1  0.747473  0.873736  0.003911  1
  Th  Th6  1  0.666331  0.333165  0.287359  1
  Th  Th7  1  0.125985  0.873837  0.003132  1
  Th  Th8  1  0.459161  0.920041  0.299313  1
  Th  Th9  1  0.540384  0.461068  0.799230  1
  Th  Th10  1  0.874383  0.126395  0.503291  1
  Th  Th11  1  0.125985  0.252147  0.003132  1
  Th  Th12  1  0.874383  0.747989  0.503291  1
  Th  Th13  1  0.333537  0.666769  0.789056  1
  Os  Os14  1  0.813451  0.625737  0.049729  1
  Os  Os15  1  0.813451  0.187715  0.049729  1
  Os  Os16  1  0.625125  0.812562  0.550033  1
  Os  Os17  1  0.373597  0.186799  0.049010  1
  Ru  Ru18  1  0.186619  0.373844  0.546044  1
  Ru  Ru19  1  0.186619  0.812775  0.546044  1
