# generated using pymatgen
data_Pr2Er3Tl4
_symmetry_space_group_name_H-M   'P 1'
_cell_length_a   8.07792900
_cell_length_b   8.28822100
_cell_length_c   16.05990700
_cell_angle_alpha   90.00000000
_cell_angle_beta   90.00000000
_cell_angle_gamma   90.00000000
_symmetry_Int_Tables_number   1
_chemical_formula_structural   Pr2Er3Tl4
_chemical_formula_sum   'Pr8 Er12 Tl16'
_cell_volume   1075.23744553
_cell_formula_units_Z   4
loop_
 _symmetry_equiv_pos_site_id
 _symmetry_equiv_pos_as_xyz
  1  'x, y, z'
loop_
 _atom_site_type_symbol
 _atom_site_label
 _atom_site_symmetry_multiplicity
 _atom_site_fract_x
 _atom_site_fract_y
 _atom_site_fract_z
 _atom_site_occupancy
  Pr  Pr0  1  0.510426  0.317928  0.902856  1
  Pr  Pr1  1  0.010426  0.182072  0.597144  1
  Pr  Pr2  1  0.489574  0.682072  0.402856  1
  Pr  Pr3  1  0.989574  0.817928  0.097144  1
  Pr  Pr4  1  0.489574  0.682072  0.097144  1
  Pr  Pr5  1  0.989574  0.817928  0.402856  1
  Pr  Pr6  1  0.510426  0.317928  0.597144  1
  Pr  Pr7  1  0.010426  0.182072  0.902856  1
  Er  Er8  1  0.354951  0.838179  0.876139  1
  Er  Er9  1  0.854951  0.661821  0.623861  1
  Er  Er10  1  0.645049  0.161821  0.376139  1
  Er  Er11  1  0.145049  0.338179  0.123861  1
  Er  Er12  1  0.645049  0.161821  0.123861  1
  Er  Er13  1  0.145049  0.338179  0.376139  1
  Er  Er14  1  0.354951  0.838179  0.623861  1
  Er  Er15  1  0.854951  0.661821  0.876139  1
  Er  Er16  1  0.191703  0.503101  0.750000  1
  Er  Er17  1  0.691703  0.996899  0.750000  1
  Er  Er18  1  0.808297  0.496899  0.250000  1
  Er  Er19  1  0.308297  0.003101  0.250000  1
  Tl  Tl20  1  0.309908  0.038325  0.039473  1
  Tl  Tl21  1  0.809908  0.461675  0.460527  1
  Tl  Tl22  1  0.690092  0.961675  0.539473  1
  Tl  Tl23  1  0.190092  0.538325  0.960527  1
  Tl  Tl24  1  0.690092  0.961675  0.960527  1
  Tl  Tl25  1  0.190092  0.538325  0.539473  1
  Tl  Tl26  1  0.309908  0.038325  0.460527  1
  Tl  Tl27  1  0.809908  0.461675  0.039473  1
  Tl  Tl28  1  0.553019  0.624344  0.750000  1
  Tl  Tl29  1  0.053019  0.875656  0.750000  1
  Tl  Tl30  1  0.446981  0.375656  0.250000  1
  Tl  Tl31  1  0.946981  0.124344  0.250000  1
  Tl  Tl32  1  0.316269  0.138401  0.750000  1
  Tl  Tl33  1  0.816269  0.361599  0.750000  1
  Tl  Tl34  1  0.683731  0.861599  0.250000  1
  Tl  Tl35  1  0.183731  0.638401  0.250000  1
