# generated using pymatgen
data_CaFeNi2(P2O7)2
_symmetry_space_group_name_H-M   'P 1'
_cell_length_a   7.71348700
_cell_length_b   7.46767889
_cell_length_c   9.52300398
_cell_angle_alpha   67.98530633
_cell_angle_beta   90.00000000
_cell_angle_gamma   90.00000000
_symmetry_Int_Tables_number   1
_chemical_formula_structural   CaFeNi2(P2O7)2
_chemical_formula_sum   'Ca2 Fe2 Ni4 P8 O28'
_cell_volume   508.54711833
_cell_formula_units_Z   2
loop_
 _symmetry_equiv_pos_site_id
 _symmetry_equiv_pos_as_xyz
  1  'x, y, z'
loop_
 _atom_site_type_symbol
 _atom_site_label
 _atom_site_symmetry_multiplicity
 _atom_site_fract_x
 _atom_site_fract_y
 _atom_site_fract_z
 _atom_site_occupancy
  Ca  Ca0  1  0.997372  0.496408  0.004649  1
  Ca  Ca1  1  0.497372  0.503592  0.495351  1
  Fe  Fe2  1  0.122682  0.814480  0.528397  1
  Fe  Fe3  1  0.622682  0.185520  0.971603  1
  Ni  Ni4  1  0.870088  0.188159  0.475448  1
  Ni  Ni5  1  0.370088  0.811841  0.024552  1
  Ni  Ni6  1  0.000282  0.000048  0.999205  1
  Ni  Ni7  1  0.500282  0.999952  0.500795  1
  P  P8  1  0.938166  0.400459  0.704811  1
  P  P9  1  0.438166  0.599541  0.795189  1
  P  P10  1  0.065622  0.599221  0.295227  1
  P  P11  1  0.565622  0.400779  0.204773  1
  P  P12  1  0.203906  0.122676  0.691084  1
  P  P13  1  0.703906  0.877324  0.808916  1
  P  P14  1  0.795927  0.883507  0.308493  1
  P  P15  1  0.295927  0.116493  0.191507  1
  O  O16  1  0.376766  0.169150  0.607165  1
  O  O17  1  0.876766  0.830850  0.892835  1
  O  O18  1  0.623053  0.831178  0.392187  1
  O  O19  1  0.123053  0.168822  0.107813  1
  O  O20  1  0.388088  0.727271  0.629185  1
  O  O21  1  0.888088  0.272729  0.870815  1
  O  O22  1  0.616050  0.272920  0.371708  1
  O  O23  1  0.116050  0.727080  0.128292  1
  O  O24  1  0.811131  0.377317  0.590091  1
  O  O25  1  0.311131  0.622683  0.909909  1
  O  O26  1  0.197062  0.618193  0.408076  1
  O  O27  1  0.697062  0.381807  0.091924  1
  O  O28  1  0.127407  0.329770  0.675942  1
  O  O29  1  0.627407  0.670230  0.824058  1
  O  O30  1  0.881641  0.679065  0.328085  1
  O  O31  1  0.381641  0.320935  0.171915  1
  O  O32  1  0.519266  0.602925  0.197465  1
  O  O33  1  0.019266  0.397075  0.302535  1
  O  O34  1  0.475571  0.394844  0.803219  1
  O  O35  1  0.975571  0.605156  0.696781  1
  O  O36  1  0.787642  0.990010  0.135913  1
  O  O37  1  0.287642  0.009990  0.364087  1
  O  O38  1  0.211031  0.009574  0.862886  1
  O  O39  1  0.711031  0.990426  0.637114  1
  O  O40  1  0.418228  0.019847  0.114321  1
  O  O41  1  0.918228  0.980153  0.385679  1
  O  O42  1  0.573019  0.961390  0.888854  1
  O  O43  1  0.073019  0.038610  0.611146  1
