# generated using pymatgen
data_Pr3Dy5(HgIr)2
_symmetry_space_group_name_H-M   'P 1'
_cell_length_a   9.75941361
_cell_length_b   9.75941301
_cell_length_c   9.75941400
_cell_angle_alpha   59.99999663
_cell_angle_beta   59.99999868
_cell_angle_gamma   59.99999708
_symmetry_Int_Tables_number   1
_chemical_formula_structural   Pr3Dy5(HgIr)2
_chemical_formula_sum   'Pr6 Dy10 Hg4 Ir4'
_cell_volume   657.28866048
_cell_formula_units_Z   2
loop_
 _symmetry_equiv_pos_site_id
 _symmetry_equiv_pos_as_xyz
  1  'x, y, z'
loop_
 _atom_site_type_symbol
 _atom_site_label
 _atom_site_symmetry_multiplicity
 _atom_site_fract_x
 _atom_site_fract_y
 _atom_site_fract_z
 _atom_site_occupancy
  Pr  Pr0  1  0.941500  0.558500  0.558500  1
  Pr  Pr1  1  0.558500  0.941500  0.941500  1
  Pr  Pr2  1  0.558500  0.941500  0.558500  1
  Pr  Pr3  1  0.941500  0.558500  0.941500  1
  Pr  Pr4  1  0.558500  0.558500  0.941500  1
  Pr  Pr5  1  0.941500  0.941500  0.558500  1
  Dy  Dy6  1  0.348346  0.348346  0.348346  1
  Dy  Dy7  1  0.348346  0.348346  0.954960  1
  Dy  Dy8  1  0.348346  0.954960  0.348346  1
  Dy  Dy9  1  0.954960  0.348346  0.348346  1
  Dy  Dy10  1  0.812195  0.187805  0.187805  1
  Dy  Dy11  1  0.187805  0.812195  0.812195  1
  Dy  Dy12  1  0.187805  0.812195  0.187805  1
  Dy  Dy13  1  0.812195  0.187805  0.812195  1
  Dy  Dy14  1  0.187805  0.187805  0.812195  1
  Dy  Dy15  1  0.812195  0.812195  0.187805  1
  Hg  Hg16  1  0.582318  0.582318  0.582318  1
  Hg  Hg17  1  0.582318  0.582318  0.253044  1
  Hg  Hg18  1  0.582318  0.253044  0.582318  1
  Hg  Hg19  1  0.253044  0.582318  0.582318  1
  Ir  Ir20  1  0.141392  0.141392  0.141392  1
  Ir  Ir21  1  0.141392  0.141392  0.575825  1
  Ir  Ir22  1  0.141392  0.575825  0.141392  1
  Ir  Ir23  1  0.575825  0.141392  0.141392  1
