# generated using pymatgen
data_Y8SnPt24
_symmetry_space_group_name_H-M   'P 1'
_cell_length_a   8.44145500
_cell_length_b   8.44145500
_cell_length_c   8.44145500
_cell_angle_alpha   90.00000000
_cell_angle_beta   90.00000000
_cell_angle_gamma   90.00000000
_symmetry_Int_Tables_number   1
_chemical_formula_structural   Y8SnPt24
_chemical_formula_sum   'Y8 Sn1 Pt24'
_cell_volume   601.52257227
_cell_formula_units_Z   1
loop_
 _symmetry_equiv_pos_site_id
 _symmetry_equiv_pos_as_xyz
  1  'x, y, z'
loop_
 _atom_site_type_symbol
 _atom_site_label
 _atom_site_symmetry_multiplicity
 _atom_site_fract_x
 _atom_site_fract_y
 _atom_site_fract_z
 _atom_site_occupancy
  Y  Y0  1  0.251008  0.251008  0.251008  1
  Y  Y1  1  0.748992  0.748992  0.748992  1
  Y  Y2  1  0.748992  0.748992  0.251008  1
  Y  Y3  1  0.748992  0.251008  0.748992  1
  Y  Y4  1  0.251008  0.251008  0.748992  1
  Y  Y5  1  0.251008  0.748992  0.251008  1
  Y  Y6  1  0.251008  0.748992  0.748992  1
  Y  Y7  1  0.748992  0.251008  0.251008  1
  Sn  Sn8  1  0.000000  0.000000  0.000000  1
  Pt  Pt9  1  0.266717  0.500000  0.000000  1
  Pt  Pt10  1  0.733283  0.500000  0.000000  1
  Pt  Pt11  1  0.000000  0.266717  0.500000  1
  Pt  Pt12  1  0.500000  0.266717  0.000000  1
  Pt  Pt13  1  0.000000  0.733283  0.500000  1
  Pt  Pt14  1  0.500000  0.733283  0.000000  1
  Pt  Pt15  1  0.500000  0.000000  0.266717  1
  Pt  Pt16  1  0.266717  0.000000  0.500000  1
  Pt  Pt17  1  0.500000  0.000000  0.733283  1
  Pt  Pt18  1  0.733283  0.000000  0.500000  1
  Pt  Pt19  1  0.000000  0.500000  0.266717  1
  Pt  Pt20  1  0.000000  0.500000  0.733283  1
  Pt  Pt21  1  0.255183  0.500000  0.500000  1
  Pt  Pt22  1  0.744817  0.500000  0.500000  1
  Pt  Pt23  1  0.500000  0.255183  0.500000  1
  Pt  Pt24  1  0.500000  0.744817  0.500000  1
  Pt  Pt25  1  0.500000  0.500000  0.255183  1
  Pt  Pt26  1  0.500000  0.500000  0.744817  1
  Pt  Pt27  1  0.312478  0.000000  0.000000  1
  Pt  Pt28  1  0.687522  0.000000  0.000000  1
  Pt  Pt29  1  0.000000  0.312478  0.000000  1
  Pt  Pt30  1  0.000000  0.687522  0.000000  1
  Pt  Pt31  1  0.000000  0.000000  0.312478  1
  Pt  Pt32  1  0.000000  0.000000  0.687522  1
