# generated using pymatgen
data_PrMgCu4P3
_symmetry_space_group_name_H-M   'P 1'
_cell_length_a   3.88108000
_cell_length_b   11.05783600
_cell_length_c   12.81816600
_cell_angle_alpha   90.00000000
_cell_angle_beta   90.00000000
_cell_angle_gamma   90.00000000
_symmetry_Int_Tables_number   1
_chemical_formula_structural   PrMgCu4P3
_chemical_formula_sum   'Pr4 Mg4 Cu16 P12'
_cell_volume   550.10884897
_cell_formula_units_Z   4
loop_
 _symmetry_equiv_pos_site_id
 _symmetry_equiv_pos_as_xyz
  1  'x, y, z'
loop_
 _atom_site_type_symbol
 _atom_site_label
 _atom_site_symmetry_multiplicity
 _atom_site_fract_x
 _atom_site_fract_y
 _atom_site_fract_z
 _atom_site_occupancy
  Pr  Pr0  1  0.250000  0.581056  0.708689  1
  Pr  Pr1  1  0.250000  0.918944  0.208689  1
  Pr  Pr2  1  0.750000  0.418944  0.291311  1
  Pr  Pr3  1  0.750000  0.081056  0.791311  1
  Mg  Mg4  1  0.250000  0.702025  0.987954  1
  Mg  Mg5  1  0.250000  0.797975  0.487954  1
  Mg  Mg6  1  0.750000  0.297975  0.012046  1
  Mg  Mg7  1  0.750000  0.202025  0.512046  1
  Cu  Cu8  1  0.250000  0.407546  0.495264  1
  Cu  Cu9  1  0.250000  0.092454  0.995264  1
  Cu  Cu10  1  0.750000  0.592454  0.504736  1
  Cu  Cu11  1  0.750000  0.907546  0.004736  1
  Cu  Cu12  1  0.250000  0.214361  0.172890  1
  Cu  Cu13  1  0.250000  0.285639  0.672890  1
  Cu  Cu14  1  0.750000  0.785639  0.827110  1
  Cu  Cu15  1  0.750000  0.714361  0.327110  1
  Cu  Cu16  1  0.250000  0.871890  0.701884  1
  Cu  Cu17  1  0.250000  0.628110  0.201884  1
  Cu  Cu18  1  0.750000  0.128110  0.298116  1
  Cu  Cu19  1  0.750000  0.371890  0.798116  1
  Cu  Cu20  1  0.250000  0.461926  0.934863  1
  Cu  Cu21  1  0.250000  0.038074  0.434863  1
  Cu  Cu22  1  0.750000  0.538074  0.065137  1
  Cu  Cu23  1  0.750000  0.961926  0.565137  1
  P  P24  1  0.250000  0.423570  0.119741  1
  P  P25  1  0.250000  0.076430  0.619741  1
  P  P26  1  0.750000  0.576430  0.880259  1
  P  P27  1  0.750000  0.923570  0.380259  1
  P  P28  1  0.250000  0.263713  0.864667  1
  P  P29  1  0.250000  0.236287  0.364667  1
  P  P30  1  0.750000  0.736287  0.135333  1
  P  P31  1  0.750000  0.763713  0.635333  1
  P  P32  1  0.250000  0.594069  0.389516  1
  P  P33  1  0.250000  0.905931  0.889516  1
  P  P34  1  0.750000  0.405931  0.610484  1
  P  P35  1  0.750000  0.094069  0.110484  1
