# generated using pymatgen
data_Hf3Ta2Al2SiN
_symmetry_space_group_name_H-M   'P 1'
_cell_length_a   7.89295866
_cell_length_b   7.89295956
_cell_length_c   5.43426800
_cell_angle_alpha   90.00000000
_cell_angle_beta   90.00000000
_cell_angle_gamma   119.85108993
_symmetry_Int_Tables_number   1
_chemical_formula_structural   Hf3Ta2Al2SiN
_chemical_formula_sum   'Hf6 Ta4 Al4 Si2 N2'
_cell_volume   293.63045805
_cell_formula_units_Z   2
loop_
 _symmetry_equiv_pos_site_id
 _symmetry_equiv_pos_as_xyz
  1  'x, y, z'
loop_
 _atom_site_type_symbol
 _atom_site_label
 _atom_site_symmetry_multiplicity
 _atom_site_fract_x
 _atom_site_fract_y
 _atom_site_fract_z
 _atom_site_occupancy
  Hf  Hf0  1  0.231762  0.996399  0.250000  1
  Hf  Hf1  1  0.996399  0.231762  0.250000  1
  Hf  Hf2  1  0.768872  0.768872  0.250000  1
  Hf  Hf3  1  0.767082  0.000076  0.750000  1
  Hf  Hf4  1  0.000076  0.767082  0.750000  1
  Hf  Hf5  1  0.229561  0.229561  0.750000  1
  Ta  Ta6  1  0.671220  0.332586  0.000933  1
  Ta  Ta7  1  0.332586  0.671220  0.000933  1
  Ta  Ta8  1  0.671220  0.332586  0.499067  1
  Ta  Ta9  1  0.332586  0.671220  0.499067  1
  Al  Al10  1  0.410865  0.410865  0.250000  1
  Al  Al11  1  0.410576  0.002210  0.750000  1
  Al  Al12  1  0.002210  0.410576  0.750000  1
  Al  Al13  1  0.587465  0.587465  0.750000  1
  Si  Si14  1  0.588968  0.999921  0.250000  1
  Si  Si15  1  0.999921  0.588968  0.250000  1
  N  N16  1  0.999316  0.999316  0.000480  1
  N  N17  1  0.999316  0.999316  0.499520  1
