# generated using pymatgen
data_K6Rb2Ga11
_symmetry_space_group_name_H-M   'P 1'
_cell_length_a   9.67190680
_cell_length_b   9.67190585
_cell_length_c   17.26513162
_cell_angle_alpha   90.00000124
_cell_angle_beta   106.26614449
_cell_angle_gamma   119.99999780
_symmetry_Int_Tables_number   1
_chemical_formula_structural   K6Rb2Ga11
_chemical_formula_sum   'K12 Rb4 Ga22'
_cell_volume   1323.52267451
_cell_formula_units_Z   2
loop_
 _symmetry_equiv_pos_site_id
 _symmetry_equiv_pos_as_xyz
  1  'x, y, z'
loop_
 _atom_site_type_symbol
 _atom_site_label
 _atom_site_symmetry_multiplicity
 _atom_site_fract_x
 _atom_site_fract_y
 _atom_site_fract_z
 _atom_site_occupancy
  K  K0  1  0.975198  0.655824  0.071115  1
  K  K1  1  0.415293  0.319374  0.071115  1
  K  K2  1  0.751740  0.095916  0.071115  1
  K  K3  1  0.155644  0.077823  0.233467  1
  K  K4  1  0.844557  0.422278  0.266836  1
  K  K5  1  0.249470  0.844010  0.430240  1
  K  K6  1  0.586229  0.405460  0.430240  1
  K  K7  1  0.024780  0.180771  0.430240  1
  K  K8  1  0.974869  0.818940  0.569010  1
  K  K9  1  0.413082  0.594141  0.569010  1
  K  K10  1  0.750070  0.155928  0.569010  1
  K  K11  1  0.154468  0.577233  0.731702  1
  Rb  Rb12  1  0.842813  0.921406  0.764218  1
  Rb  Rb13  1  0.247872  0.903839  0.932175  1
  Rb  Rb14  1  0.588141  0.684303  0.932175  1
  Rb  Rb15  1  0.028335  0.344032  0.932175  1
  Ga  Ga16  1  0.408660  0.704331  0.112991  1
  Ga  Ga17  1  0.438754  0.984002  0.165557  1
  Ga  Ga18  1  0.710806  0.726802  0.165557  1
  Ga  Ga19  1  0.181557  0.454753  0.165557  1
  Ga  Ga20  1  0.700190  0.949869  0.250364  1
  Ga  Ga21  1  0.300496  0.750321  0.250364  1
  Ga  Ga22  1  0.500044  0.550175  0.250364  1
  Ga  Ga23  1  0.818552  0.773171  0.335964  1
  Ga  Ga24  1  0.290582  0.517412  0.335964  1
  Ga  Ga25  1  0.562792  0.045382  0.335964  1
  Ga  Ga26  1  0.592532  0.796266  0.388797  1
  Ga  Ga27  1  0.407957  0.203980  0.611937  1
  Ga  Ga28  1  0.436917  0.952719  0.664024  1
  Ga  Ga29  1  0.711305  0.484199  0.664024  1
  Ga  Ga30  1  0.179826  0.227106  0.664024  1
  Ga  Ga31  1  0.498776  0.447767  0.748306  1
  Ga  Ga32  1  0.697298  0.249530  0.748306  1
  Ga  Ga33  1  0.300539  0.051008  0.748306  1
  Ga  Ga34  1  0.815571  0.542921  0.834017  1
  Ga  Ga35  1  0.291095  0.272650  0.834017  1
  Ga  Ga36  1  0.561367  0.018446  0.834017  1
  Ga  Ga37  1  0.591824  0.295910  0.887734  1
