# generated using pymatgen
data_Pa4Ga7Os5Pd
_symmetry_space_group_name_H-M   'P 1'
_cell_length_a   7.33898721
_cell_length_b   7.34501565
_cell_length_c   7.33991016
_cell_angle_alpha   110.95791662
_cell_angle_beta   108.72795876
_cell_angle_gamma   108.75650989
_symmetry_Int_Tables_number   1
_chemical_formula_structural   Pa4Ga7Os5Pd
_chemical_formula_sum   'Pa4 Ga7 Os5 Pd1'
_cell_volume   304.35488494
_cell_formula_units_Z   1
loop_
 _symmetry_equiv_pos_site_id
 _symmetry_equiv_pos_as_xyz
  1  'x, y, z'
loop_
 _atom_site_type_symbol
 _atom_site_label
 _atom_site_symmetry_multiplicity
 _atom_site_fract_x
 _atom_site_fract_y
 _atom_site_fract_z
 _atom_site_occupancy
  Pa  Pa0  1  0.015592  0.007796  0.507796  1
  Pa  Pa1  1  0.984326  0.492163  0.992163  1
  Pa  Pa2  1  0.500033  0.007819  0.992218  1
  Pa  Pa3  1  0.500033  0.492214  0.507815  1
  Ga  Ga4  1  0.499964  0.749982  0.249982  1
  Ga  Ga5  1  0.689397  0.690014  0.000683  1
  Ga  Ga6  1  0.310570  0.999200  0.309908  1
  Ga  Ga7  1  0.000004  0.316387  0.316306  1
  Ga  Ga8  1  0.310570  0.311370  0.000662  1
  Ga  Ga9  1  0.689397  0.999383  0.688714  1
  Ga  Ga10  1  0.000004  0.683617  0.683698  1
  Os  Os11  1  0.747441  0.244339  0.496431  1
  Os  Os12  1  0.747441  0.503103  0.251011  1
  Os  Os13  1  0.500254  0.250128  0.750128  1
  Os  Os14  1  0.252499  0.503668  0.755797  1
  Os  Os15  1  0.252499  0.748830  0.496701  1
  Pd  Pd16  1  0.999975  0.999988  0.999988  1
