# generated using pymatgen
data_U4Ge2Ir5Rh
_symmetry_space_group_name_H-M   'P 1'
_cell_length_a   5.56710741
_cell_length_b   5.56703761
_cell_length_c   7.85035400
_cell_angle_alpha   90.00000000
_cell_angle_beta   90.00000000
_cell_angle_gamma   119.85190775
_symmetry_Int_Tables_number   1
_chemical_formula_structural   U4Ge2Ir5Rh
_chemical_formula_sum   'U4 Ge2 Ir5 Rh1'
_cell_volume   211.01813647
_cell_formula_units_Z   1
loop_
 _symmetry_equiv_pos_site_id
 _symmetry_equiv_pos_as_xyz
  1  'x, y, z'
loop_
 _atom_site_type_symbol
 _atom_site_label
 _atom_site_symmetry_multiplicity
 _atom_site_fract_x
 _atom_site_fract_y
 _atom_site_fract_z
 _atom_site_occupancy
  U  U0  1  0.665035  0.334935  0.574758  1
  U  U1  1  0.333948  0.666077  0.425187  1
  U  U2  1  0.333948  0.666077  0.074813  1
  U  U3  1  0.665035  0.334935  0.925242  1
  Ge  Ge4  1  0.000096  0.999887  0.000853  1
  Ge  Ge5  1  0.000096  0.999887  0.499147  1
  Ir  Ir6  1  0.168878  0.342328  0.750000  1
  Ir  Ir7  1  0.657647  0.831096  0.750000  1
  Ir  Ir8  1  0.169295  0.830681  0.750000  1
  Ir  Ir9  1  0.830732  0.656547  0.250000  1
  Ir  Ir10  1  0.343490  0.169333  0.250000  1
  Rh  Rh11  1  0.831801  0.168220  0.250000  1
