# generated using pymatgen
data_Tb17Dy3Si15Se
_symmetry_space_group_name_H-M   'P 1'
_cell_length_a   7.55605042
_cell_length_b   7.68516863
_cell_length_c   14.70267166
_cell_angle_alpha   90.29597922
_cell_angle_beta   94.31750541
_cell_angle_gamma   89.88941546
_symmetry_Int_Tables_number   1
_chemical_formula_structural   Tb17Dy3Si15Se
_chemical_formula_sum   'Tb17 Dy3 Si15 Se1'
_cell_volume   851.34186811
_cell_formula_units_Z   1
loop_
 _symmetry_equiv_pos_site_id
 _symmetry_equiv_pos_as_xyz
  1  'x, y, z'
loop_
 _atom_site_type_symbol
 _atom_site_label
 _atom_site_symmetry_multiplicity
 _atom_site_fract_x
 _atom_site_fract_y
 _atom_site_fract_z
 _atom_site_occupancy
  Tb  Tb0  1  0.861494  0.662719  0.380660  1
  Tb  Tb1  1  0.358203  0.834070  0.382479  1
  Tb  Tb2  1  0.824258  0.678620  0.122059  1
  Tb  Tb3  1  0.675185  0.176497  0.878384  1
  Tb  Tb4  1  0.139062  0.332752  0.619324  1
  Tb  Tb5  1  0.487557  0.669194  0.604386  1
  Tb  Tb6  1  0.028061  0.813570  0.897446  1
  Tb  Tb7  1  0.471945  0.315432  0.101902  1
  Tb  Tb8  1  0.012925  0.185883  0.397452  1
  Tb  Tb9  1  0.503823  0.326354  0.398568  1
  Tb  Tb10  1  0.972278  0.187503  0.101540  1
  Tb  Tb11  1  0.527720  0.686181  0.898178  1
  Tb  Tb12  1  0.999488  0.813189  0.603315  1
  Tb  Tb13  1  0.829369  0.504855  0.746100  1
  Tb  Tb14  1  0.331009  0.992193  0.745501  1
  Tb  Tb15  1  0.170744  0.494687  0.252781  1
  Tb  Tb16  1  0.669068  0.008133  0.248612  1
  Dy  Dy17  1  0.639208  0.164719  0.618907  1
  Dy  Dy18  1  0.175671  0.322179  0.878083  1
  Dy  Dy19  1  0.324001  0.824130  0.122678  1
  Si  Si20  1  0.143353  0.529271  0.042071  1
  Si  Si21  1  0.354762  0.028113  0.958244  1
  Si  Si22  1  0.787854  0.465974  0.541851  1
  Si  Si23  1  0.288914  0.030668  0.543754  1
  Si  Si24  1  0.858014  0.472575  0.957200  1
  Si  Si25  1  0.640330  0.973542  0.043098  1
  Si  Si26  1  0.205726  0.533536  0.456793  1
  Si  Si27  1  0.454893  0.389455  0.752291  1
  Si  Si28  1  0.954522  0.106901  0.750743  1
  Si  Si29  1  0.544981  0.609863  0.249846  1
  Si  Si30  1  0.045130  0.893627  0.250641  1
  Si  Si31  1  0.716408  0.872137  0.751018  1
  Si  Si32  1  0.215906  0.625666  0.752437  1
  Si  Si33  1  0.285498  0.128510  0.249201  1
  Si  Si34  1  0.784827  0.372902  0.248764  1
  Se  Se35  1  0.717811  0.974402  0.453696  1
