# generated using pymatgen
data_Ta3Ni2SnC
_symmetry_space_group_name_H-M   'P 1'
_cell_length_a   8.30479845
_cell_length_b   8.32367349
_cell_length_c   8.31996100
_cell_angle_alpha   60.01475695
_cell_angle_beta   59.93959000
_cell_angle_gamma   59.89242512
_symmetry_Int_Tables_number   1
_chemical_formula_structural   Ta3Ni2SnC
_chemical_formula_sum   'Ta12 Ni8 Sn4 C4'
_cell_volume   406.20572669
_cell_formula_units_Z   4
loop_
 _symmetry_equiv_pos_site_id
 _symmetry_equiv_pos_as_xyz
  1  'x, y, z'
loop_
 _atom_site_type_symbol
 _atom_site_label
 _atom_site_symmetry_multiplicity
 _atom_site_fract_x
 _atom_site_fract_y
 _atom_site_fract_z
 _atom_site_occupancy
  Ta  Ta0  1  0.431602  0.068487  0.068528  1
  Ta  Ta1  1  0.068511  0.431510  0.431519  1
  Ta  Ta2  1  0.068511  0.431510  0.068461  1
  Ta  Ta3  1  0.068523  0.068560  0.431458  1
  Ta  Ta4  1  0.431602  0.068487  0.431383  1
  Ta  Ta5  1  0.431655  0.431428  0.068459  1
  Ta  Ta6  1  0.181489  0.818490  0.181539  1
  Ta  Ta7  1  0.818398  0.181513  0.818617  1
  Ta  Ta8  1  0.818398  0.181513  0.181472  1
  Ta  Ta9  1  0.181477  0.181440  0.818542  1
  Ta  Ta10  1  0.181489  0.818490  0.818481  1
  Ta  Ta11  1  0.818345  0.818572  0.181541  1
  Ni  Ni12  1  0.839833  0.840284  0.840459  1
  Ni  Ni13  1  0.839833  0.840284  0.479425  1
  Ni  Ni14  1  0.479424  0.839875  0.840351  1
  Ni  Ni15  1  0.840015  0.479667  0.840159  1
  Ni  Ni16  1  0.410167  0.409716  0.409541  1
  Ni  Ni17  1  0.410167  0.409716  0.770575  1
  Ni  Ni18  1  0.409985  0.770333  0.409841  1
  Ni  Ni19  1  0.770576  0.410125  0.409649  1
  Sn  Sn20  1  0.625000  0.625000  0.625000  1
  Sn  Sn21  1  0.625000  0.625000  0.125000  1
  Sn  Sn22  1  0.125000  0.625000  0.625000  1
  Sn  Sn23  1  0.625000  0.125000  0.625000  1
  C  C24  1  0.125000  0.125000  0.125000  1
  C  C25  1  0.125000  0.125000  0.625000  1
  C  C26  1  0.625000  0.125000  0.125000  1
  C  C27  1  0.125000  0.625000  0.125000  1
