# generated using pymatgen
data_CeNd5Ni19P13Pt
_symmetry_space_group_name_H-M   'P 1'
_cell_length_a   12.87703101
_cell_length_b   12.87615429
_cell_length_c   3.85762900
_cell_angle_alpha   90.00000000
_cell_angle_beta   90.00000000
_cell_angle_gamma   120.00599541
_symmetry_Int_Tables_number   1
_chemical_formula_structural   CeNd5Ni19P13Pt
_chemical_formula_sum   'Ce1 Nd5 Ni19 P13 Pt1'
_cell_volume   553.89413000
_cell_formula_units_Z   1
loop_
 _symmetry_equiv_pos_site_id
 _symmetry_equiv_pos_as_xyz
  1  'x, y, z'
loop_
 _atom_site_type_symbol
 _atom_site_label
 _atom_site_symmetry_multiplicity
 _atom_site_fract_x
 _atom_site_fract_y
 _atom_site_fract_z
 _atom_site_occupancy
  Ce  Ce0  1  0.519361  0.134560  0.500000  1
  Nd  Nd1  1  0.796393  0.948555  0.000000  1
  Nd  Nd2  1  0.052884  0.849237  0.000000  1
  Nd  Nd3  1  0.151711  0.203245  0.000000  1
  Nd  Nd4  1  0.866432  0.384493  0.500000  1
  Nd  Nd5  1  0.614659  0.481112  0.500000  1
  Ni  Ni6  1  0.525385  0.772026  0.000000  1
  Ni  Ni7  1  0.229189  0.754805  0.000000  1
  Ni  Ni8  1  0.245684  0.474667  0.000000  1
  Ni  Ni9  1  0.401877  0.810437  0.500000  1
  Ni  Ni10  1  0.188817  0.591146  0.500000  1
  Ni  Ni11  1  0.408761  0.597935  0.500000  1
  Ni  Ni12  1  0.663710  0.329564  0.000000  1
  Ni  Ni13  1  0.770172  0.687711  0.000000  1
  Ni  Ni14  1  0.313906  0.082763  0.000000  1
  Ni  Ni15  1  0.919405  0.231020  0.000000  1
  Ni  Ni16  1  0.642617  0.735406  0.500000  1
  Ni  Ni17  1  0.266456  0.908419  0.500000  1
  Ni  Ni18  1  0.092572  0.357233  0.500000  1
  Ni  Ni19  1  0.360989  0.259012  0.500000  1
  Ni  Ni20  1  0.737806  0.099738  0.500000  1
  Ni  Ni21  1  0.898948  0.639237  0.500000  1
  Ni  Ni22  1  0.572264  0.986208  0.000000  1
  Ni  Ni23  1  0.015445  0.587629  0.000000  1
  Ni  Ni24  1  0.412254  0.428335  0.000000  1
  P  P25  1  0.846272  0.789888  0.500000  1
  P  P26  1  0.210456  0.056176  0.500000  1
  P  P27  1  0.943095  0.153423  0.500000  1
  P  P28  1  0.603553  0.897345  0.500000  1
  P  P29  1  0.102187  0.706566  0.500000  1
  P  P30  1  0.293753  0.395506  0.500000  1
  P  P31  1  0.467184  0.280953  0.000000  1
  P  P32  1  0.718980  0.186407  0.000000  1
  P  P33  1  0.812192  0.530205  0.000000  1
  P  P34  1  0.377408  0.945807  0.000000  1
  P  P35  1  0.055849  0.432548  0.000000  1
  P  P36  1  0.567945  0.623948  0.000000  1
  P  P37  1  0.333261  0.666805  0.000000  1
  Pt  Pt38  1  0.000170  0.999931  0.500000  1
