# generated using pymatgen
data_PrNd3Al18ZnRh5
_symmetry_space_group_name_H-M   'P 1'
_cell_length_a   7.65172392
_cell_length_b   7.65220116
_cell_length_c   9.62427749
_cell_angle_alpha   89.83663766
_cell_angle_beta   89.85528048
_cell_angle_gamma   119.29311181
_symmetry_Int_Tables_number   1
_chemical_formula_structural   PrNd3Al18ZnRh5
_chemical_formula_sum   'Pr1 Nd3 Al18 Zn1 Rh5'
_cell_volume   491.45972361
_cell_formula_units_Z   1
loop_
 _symmetry_equiv_pos_site_id
 _symmetry_equiv_pos_as_xyz
  1  'x, y, z'
loop_
 _atom_site_type_symbol
 _atom_site_label
 _atom_site_symmetry_multiplicity
 _atom_site_fract_x
 _atom_site_fract_y
 _atom_site_fract_z
 _atom_site_occupancy
  Pr  Pr0  1  0.995510  0.676054  0.747917  1
  Nd  Nd1  1  0.004398  0.323773  0.251945  1
  Nd  Nd2  1  0.676026  0.995664  0.748076  1
  Nd  Nd3  1  0.323904  0.004379  0.251963  1
  Al  Al4  1  0.138798  0.139391  0.759604  1
  Al  Al5  1  0.861436  0.861581  0.240471  1
  Al  Al6  1  0.005270  0.345578  0.576897  1
  Al  Al7  1  0.994679  0.653531  0.421932  1
  Al  Al8  1  0.999669  0.664024  0.070672  1
  Al  Al9  1  0.336703  0.001023  0.930500  1
  Al  Al10  1  0.000297  0.335338  0.930462  1
  Al  Al11  1  0.663999  0.999682  0.070025  1
  Al  Al12  1  0.653711  0.994795  0.422536  1
  Al  Al13  1  0.347221  0.006017  0.577007  1
  Al  Al14  1  0.333739  0.333732  0.046452  1
  Al  Al15  1  0.665683  0.666279  0.954151  1
  Al  Al16  1  0.654881  0.655509  0.554178  1
  Al  Al17  1  0.344399  0.344407  0.445211  1
  Al  Al18  1  0.340267  0.549999  0.751772  1
  Al  Al19  1  0.660358  0.449785  0.248226  1
  Al  Al20  1  0.549169  0.338776  0.751755  1
  Al  Al21  1  0.449836  0.660444  0.248241  1
  Zn  Zn22  1  0.999980  0.000166  0.499811  1
  Rh  Rh23  1  0.671038  0.328556  0.499678  1
  Rh  Rh24  1  0.328980  0.671274  0.499715  1
  Rh  Rh25  1  0.329463  0.670629  0.000238  1
  Rh  Rh26  1  0.670475  0.329217  0.000271  1
  Rh  Rh27  1  0.000107  0.000398  0.000295  1
