# generated using pymatgen
data_Tb2Ho2Al18RePd5
_symmetry_space_group_name_H-M   'P 1'
_cell_length_a   7.63189820
_cell_length_b   7.63804786
_cell_length_c   9.50031587
_cell_angle_alpha   89.86151986
_cell_angle_beta   89.78485334
_cell_angle_gamma   119.37078947
_symmetry_Int_Tables_number   1
_chemical_formula_structural   Tb2Ho2Al18RePd5
_chemical_formula_sum   'Tb2 Ho2 Al18 Re1 Pd5'
_cell_volume   482.60762432
_cell_formula_units_Z   1
loop_
 _symmetry_equiv_pos_site_id
 _symmetry_equiv_pos_as_xyz
  1  'x, y, z'
loop_
 _atom_site_type_symbol
 _atom_site_label
 _atom_site_symmetry_multiplicity
 _atom_site_fract_x
 _atom_site_fract_y
 _atom_site_fract_z
 _atom_site_occupancy
  Tb  Tb0  1  0.995597  0.673450  0.248278  1
  Tb  Tb1  1  0.004403  0.326550  0.751722  1
  Ho  Ho2  1  0.673613  0.995555  0.247981  1
  Ho  Ho3  1  0.326387  0.004445  0.752019  1
  Al  Al4  1  0.131166  0.131399  0.247311  1
  Al  Al5  1  0.868834  0.868601  0.752689  1
  Al  Al6  1  0.999907  0.330077  0.074787  1
  Al  Al7  1  0.000093  0.669923  0.925213  1
  Al  Al8  1  0.998603  0.663603  0.578376  1
  Al  Al9  1  0.337428  0.001830  0.422062  1
  Al  Al10  1  0.001397  0.336397  0.421624  1
  Al  Al11  1  0.662572  0.998170  0.577938  1
  Al  Al12  1  0.668645  0.999449  0.925877  1
  Al  Al13  1  0.331355  0.000551  0.074123  1
  Al  Al14  1  0.334389  0.333919  0.556799  1
  Al  Al15  1  0.665611  0.666082  0.443201  1
  Al  Al16  1  0.669791  0.670311  0.053417  1
  Al  Al17  1  0.330209  0.329690  0.946583  1
  Al  Al18  1  0.342192  0.549143  0.249229  1
  Al  Al19  1  0.657808  0.450857  0.750771  1
  Al  Al20  1  0.548645  0.341212  0.249274  1
  Al  Al21  1  0.451355  0.658788  0.750726  1
  Re  Re22  1  0.000000  0.000000  0.000000  1
  Pd  Pd23  1  0.672010  0.327833  0.999992  1
  Pd  Pd24  1  0.327990  0.672167  0.000008  1
  Pd  Pd25  1  0.327821  0.672418  0.500008  1
  Pd  Pd26  1  0.672179  0.327582  0.499992  1
  Pd  Pd27  1  0.000000  0.000000  0.500000  1
