# generated using pymatgen
data_Lu2Ga2IrRu
_symmetry_space_group_name_H-M   'P 1'
_cell_length_a   6.74697100
_cell_length_b   4.23841300
_cell_length_c   7.77491400
_cell_angle_alpha   90.00000000
_cell_angle_beta   90.00000000
_cell_angle_gamma   90.00000000
_symmetry_Int_Tables_number   1
_chemical_formula_structural   Lu2Ga2IrRu
_chemical_formula_sum   'Lu4 Ga4 Ir2 Ru2'
_cell_volume   222.33493632
_cell_formula_units_Z   2
loop_
 _symmetry_equiv_pos_site_id
 _symmetry_equiv_pos_as_xyz
  1  'x, y, z'
loop_
 _atom_site_type_symbol
 _atom_site_label
 _atom_site_symmetry_multiplicity
 _atom_site_fract_x
 _atom_site_fract_y
 _atom_site_fract_z
 _atom_site_occupancy
  Lu  Lu0  1  0.475713  0.250001  0.184260  1
  Lu  Lu1  1  0.975713  0.250001  0.315740  1
  Lu  Lu2  1  0.024274  0.749999  0.684518  1
  Lu  Lu3  1  0.524274  0.749999  0.815481  1
  Ga  Ga4  1  0.154042  0.749999  0.068018  1
  Ga  Ga5  1  0.654042  0.749999  0.431981  1
  Ga  Ga6  1  0.343464  0.250001  0.564828  1
  Ga  Ga7  1  0.843464  0.250001  0.935171  1
  Ir  Ir8  1  0.733557  0.250001  0.615159  1
  Ir  Ir9  1  0.233557  0.250001  0.884840  1
  Ru  Ru10  1  0.768950  0.749999  0.114868  1
  Ru  Ru11  1  0.268950  0.749999  0.385131  1
