# generated using pymatgen
data_Y4LuB4Pt15
_symmetry_space_group_name_H-M   'P 1'
_cell_length_a   4.02831200
_cell_length_b   4.02831200
_cell_length_c   24.08281900
_cell_angle_alpha   90.00000000
_cell_angle_beta   90.00000000
_cell_angle_gamma   90.00000000
_symmetry_Int_Tables_number   1
_chemical_formula_structural   Y4LuB4Pt15
_chemical_formula_sum   'Y4 Lu1 B4 Pt15'
_cell_volume   390.79907022
_cell_formula_units_Z   1
loop_
 _symmetry_equiv_pos_site_id
 _symmetry_equiv_pos_as_xyz
  1  'x, y, z'
loop_
 _atom_site_type_symbol
 _atom_site_label
 _atom_site_symmetry_multiplicity
 _atom_site_fract_x
 _atom_site_fract_y
 _atom_site_fract_z
 _atom_site_occupancy
  Y  Y0  1  0.000000  0.000000  0.900707  1
  Y  Y1  1  0.000000  0.000000  0.099293  1
  Y  Y2  1  0.000000  0.000000  0.305971  1
  Y  Y3  1  0.000000  0.000000  0.694029  1
  Lu  Lu4  1  0.000000  0.000000  0.500000  1
  B  B5  1  0.500000  0.500000  0.163614  1
  B  B6  1  0.500000  0.500000  0.371600  1
  B  B7  1  0.500000  0.500000  0.628400  1
  B  B8  1  0.500000  0.500000  0.836386  1
  Pt  Pt9  1  0.500000  0.500000  0.920818  1
  Pt  Pt10  1  0.500000  0.500000  0.079182  1
  Pt  Pt11  1  0.500000  0.500000  0.286050  1
  Pt  Pt12  1  0.500000  0.500000  0.500000  1
  Pt  Pt13  1  0.500000  0.500000  0.713950  1
  Pt  Pt14  1  0.500000  0.000000  0.000000  1
  Pt  Pt15  1  0.500000  0.000000  0.202431  1
  Pt  Pt16  1  0.500000  0.000000  0.410505  1
  Pt  Pt17  1  0.500000  0.000000  0.589495  1
  Pt  Pt18  1  0.500000  0.000000  0.797569  1
  Pt  Pt19  1  0.000000  0.500000  0.000000  1
  Pt  Pt20  1  0.000000  0.500000  0.202431  1
  Pt  Pt21  1  0.000000  0.500000  0.410505  1
  Pt  Pt22  1  0.000000  0.500000  0.589495  1
  Pt  Pt23  1  0.000000  0.500000  0.797569  1
