# generated using pymatgen
data_Ho3Tm13In4(RuRh)2
_symmetry_space_group_name_H-M   'P 1'
_cell_length_a   9.54111296
_cell_length_b   9.53842590
_cell_length_c   9.56059539
_cell_angle_alpha   59.94168806
_cell_angle_beta   59.91381418
_cell_angle_gamma   59.86160326
_symmetry_Int_Tables_number   1
_chemical_formula_structural   Ho3Tm13In4(RuRh)2
_chemical_formula_sum   'Ho3 Tm13 In4 Ru2 Rh2'
_cell_volume   613.92482514
_cell_formula_units_Z   1
loop_
 _symmetry_equiv_pos_site_id
 _symmetry_equiv_pos_as_xyz
  1  'x, y, z'
loop_
 _atom_site_type_symbol
 _atom_site_label
 _atom_site_symmetry_multiplicity
 _atom_site_fract_x
 _atom_site_fract_y
 _atom_site_fract_z
 _atom_site_occupancy
  Ho  Ho0  1  0.057918  0.057918  0.442082  1
  Ho  Ho1  1  0.442519  0.061764  0.436532  1
  Ho  Ho2  1  0.061764  0.442519  0.059186  1
  Tm  Tm3  1  0.042686  0.652164  0.652461  1
  Tm  Tm4  1  0.439440  0.439440  0.060560  1
  Tm  Tm5  1  0.652164  0.042686  0.652690  1
  Tm  Tm6  1  0.190597  0.808583  0.193103  1
  Tm  Tm7  1  0.191933  0.191933  0.808067  1
  Tm  Tm8  1  0.808930  0.808930  0.191070  1
  Tm  Tm9  1  0.443828  0.060192  0.057862  1
  Tm  Tm10  1  0.808568  0.190667  0.193196  1
  Tm  Tm11  1  0.060192  0.443828  0.438118  1
  Tm  Tm12  1  0.808583  0.190597  0.807717  1
  Tm  Tm13  1  0.190667  0.808568  0.807569  1
  Tm  Tm14  1  0.651770  0.651878  0.047030  1
  Tm  Tm15  1  0.651878  0.651770  0.649323  1
  In  In16  1  0.416307  0.417715  0.418326  1
  In  In17  1  0.749585  0.416941  0.417050  1
  In  In18  1  0.416941  0.749585  0.416423  1
  In  In19  1  0.417715  0.416307  0.747651  1
  Ru  Ru20  1  0.859082  0.858426  0.419908  1
  Ru  Ru21  1  0.858426  0.859082  0.862584  1
  Rh  Rh22  1  0.421734  0.856777  0.861233  1
  Rh  Rh23  1  0.856777  0.421734  0.860257  1
