# generated using pymatgen
data_Zr3Ti2Pt
_symmetry_space_group_name_H-M   'P 1'
_cell_length_a   8.76227187
_cell_length_b   8.76227188
_cell_length_c   8.76227200
_cell_angle_alpha   59.99999955
_cell_angle_beta   59.99999952
_cell_angle_gamma   59.99999971
_symmetry_Int_Tables_number   1
_chemical_formula_structural   Zr3Ti2Pt
_chemical_formula_sum   'Zr12 Ti8 Pt4'
_cell_volume   475.70221916
_cell_formula_units_Z   4
loop_
 _symmetry_equiv_pos_site_id
 _symmetry_equiv_pos_as_xyz
  1  'x, y, z'
loop_
 _atom_site_type_symbol
 _atom_site_label
 _atom_site_symmetry_multiplicity
 _atom_site_fract_x
 _atom_site_fract_y
 _atom_site_fract_z
 _atom_site_occupancy
  Zr  Zr0  1  0.308333  0.691667  0.308333  1
  Zr  Zr1  1  0.691667  0.308333  0.308333  1
  Zr  Zr2  1  0.691668  0.691668  0.308332  1
  Zr  Zr3  1  0.941667  0.558333  0.558333  1
  Zr  Zr4  1  0.558333  0.941667  0.558333  1
  Zr  Zr5  1  0.941668  0.941668  0.558332  1
  Zr  Zr6  1  0.691668  0.308332  0.691668  1
  Zr  Zr7  1  0.308333  0.308333  0.691667  1
  Zr  Zr8  1  0.308332  0.691668  0.691668  1
  Zr  Zr9  1  0.558333  0.558333  0.941667  1
  Zr  Zr10  1  0.941668  0.558332  0.941668  1
  Zr  Zr11  1  0.558332  0.941668  0.941668  1
  Ti  Ti12  1  0.918122  0.918122  0.245632  1
  Ti  Ti13  1  0.331878  0.331878  0.331878  1
  Ti  Ti14  1  0.004368  0.331878  0.331878  1
  Ti  Ti15  1  0.331878  0.004368  0.331878  1
  Ti  Ti16  1  0.918122  0.245632  0.918122  1
  Ti  Ti17  1  0.245632  0.918122  0.918122  1
  Ti  Ti18  1  0.918122  0.918122  0.918122  1
  Ti  Ti19  1  0.331878  0.331878  0.004368  1
  Pt  Pt20  1  0.125000  0.125000  0.125000  1
  Pt  Pt21  1  0.625000  0.125000  0.125000  1
  Pt  Pt22  1  0.125000  0.625000  0.125000  1
  Pt  Pt23  1  0.125000  0.125000  0.625000  1
