# generated using pymatgen
data_Y16Th4Ir11Ru
_symmetry_space_group_name_H-M   'P 1'
_cell_length_a   11.12202568
_cell_length_b   10.97424967
_cell_length_c   6.38955700
_cell_angle_alpha   90.00000000
_cell_angle_beta   90.00000000
_cell_angle_gamma   90.13508807
_symmetry_Int_Tables_number   1
_chemical_formula_structural   Y16Th4Ir11Ru
_chemical_formula_sum   'Y16 Th4 Ir11 Ru1'
_cell_volume   779.88087752
_cell_formula_units_Z   1
loop_
 _symmetry_equiv_pos_site_id
 _symmetry_equiv_pos_as_xyz
  1  'x, y, z'
loop_
 _atom_site_type_symbol
 _atom_site_label
 _atom_site_symmetry_multiplicity
 _atom_site_fract_x
 _atom_site_fract_y
 _atom_site_fract_z
 _atom_site_occupancy
  Y  Y0  1  0.589490  0.785479  0.880219  1
  Y  Y1  1  0.589419  0.214797  0.379899  1
  Y  Y2  1  0.410581  0.785203  0.379899  1
  Y  Y3  1  0.410510  0.214521  0.880219  1
  Y  Y4  1  0.207165  0.412125  0.618882  1
  Y  Y5  1  0.206760  0.587260  0.119172  1
  Y  Y6  1  0.793240  0.412740  0.119172  1
  Y  Y7  1  0.792835  0.587875  0.618882  1
  Y  Y8  1  0.913241  0.707007  0.114893  1
  Y  Y9  1  0.913093  0.292868  0.615238  1
  Y  Y10  1  0.086907  0.707132  0.615238  1
  Y  Y11  1  0.086759  0.292993  0.114893  1
  Y  Y12  1  0.000000  0.000000  0.496362  1
  Y  Y13  1  0.000000  0.000000  0.996656  1
  Y  Y14  1  0.500000  0.500000  0.012288  1
  Y  Y15  1  0.500000  0.500000  0.512239  1
  Th  Th16  1  0.294499  0.092628  0.379793  1
  Th  Th17  1  0.295072  0.906968  0.882429  1
  Th  Th18  1  0.704928  0.093032  0.882429  1
  Th  Th19  1  0.705501  0.907372  0.379793  1
  Ir  Ir20  1  0.842799  0.150534  0.244741  1
  Ir  Ir21  1  0.843277  0.849433  0.743805  1
  Ir  Ir22  1  0.156723  0.150567  0.743805  1
  Ir  Ir23  1  0.157201  0.849466  0.244741  1
  Ir  Ir24  1  0.654434  0.345424  0.757656  1
  Ir  Ir25  1  0.653900  0.655277  0.257651  1
  Ir  Ir26  1  0.346100  0.344723  0.257651  1
  Ir  Ir27  1  0.345566  0.654576  0.757656  1
  Ir  Ir28  1  0.500000  0.000000  0.622332  1
  Ir  Ir29  1  0.000000  0.500000  0.873644  1
  Ir  Ir30  1  0.000000  0.500000  0.374087  1
  Ru  Ru31  1  0.500000  0.000000  0.123633  1
