# generated using pymatgen
data_TmLu4(In2Pt)2
_symmetry_space_group_name_H-M   'P 1'
_cell_length_a   3.58506100
_cell_length_b   8.03149700
_cell_length_c   18.00122700
_cell_angle_alpha   90.00000000
_cell_angle_beta   90.00000000
_cell_angle_gamma   90.00000000
_symmetry_Int_Tables_number   1
_chemical_formula_structural   TmLu4(In2Pt)2
_chemical_formula_sum   'Tm2 Lu8 In8 Pt4'
_cell_volume   518.31664950
_cell_formula_units_Z   2
loop_
 _symmetry_equiv_pos_site_id
 _symmetry_equiv_pos_as_xyz
  1  'x, y, z'
loop_
 _atom_site_type_symbol
 _atom_site_label
 _atom_site_symmetry_multiplicity
 _atom_site_fract_x
 _atom_site_fract_y
 _atom_site_fract_z
 _atom_site_occupancy
  Tm  Tm0  1  0.000000  0.000000  0.000000  1
  Tm  Tm1  1  0.000000  0.500000  0.500000  1
  Lu  Lu2  1  0.000000  0.116560  0.414172  1
  Lu  Lu3  1  0.000000  0.883440  0.585828  1
  Lu  Lu4  1  0.000000  0.383440  0.914172  1
  Lu  Lu5  1  0.000000  0.616560  0.085828  1
  Lu  Lu6  1  0.000000  0.244445  0.221300  1
  Lu  Lu7  1  0.000000  0.755555  0.778700  1
  Lu  Lu8  1  0.000000  0.255555  0.721300  1
  Lu  Lu9  1  0.000000  0.744445  0.278700  1
  In  In10  1  0.500000  0.424101  0.352154  1
  In  In11  1  0.500000  0.575899  0.647846  1
  In  In12  1  0.500000  0.075899  0.852154  1
  In  In13  1  0.500000  0.924101  0.147846  1
  In  In14  1  0.500000  0.292406  0.066042  1
  In  In15  1  0.500000  0.707594  0.933958  1
  In  In16  1  0.500000  0.207594  0.566042  1
  In  In17  1  0.500000  0.792406  0.433958  1
  Pt  Pt18  1  0.500000  0.025966  0.303708  1
  Pt  Pt19  1  0.500000  0.974034  0.696292  1
  Pt  Pt20  1  0.500000  0.474034  0.803708  1
  Pt  Pt21  1  0.500000  0.525966  0.196292  1
