# generated using pymatgen
data_Th6TcPd6Au
_symmetry_space_group_name_H-M   'P 1'
_cell_length_a   8.18770892
_cell_length_b   8.16504829
_cell_length_c   8.16013795
_cell_angle_alpha   114.20993668
_cell_angle_beta   114.32862383
_cell_angle_gamma   114.32351950
_symmetry_Int_Tables_number   1
_chemical_formula_structural   Th6TcPd6Au
_chemical_formula_sum   'Th6 Tc1 Pd6 Au1'
_cell_volume   324.25444980
_cell_formula_units_Z   1
loop_
 _symmetry_equiv_pos_site_id
 _symmetry_equiv_pos_as_xyz
  1  'x, y, z'
loop_
 _atom_site_type_symbol
 _atom_site_label
 _atom_site_symmetry_multiplicity
 _atom_site_fract_x
 _atom_site_fract_y
 _atom_site_fract_z
 _atom_site_occupancy
  Th  Th0  1  0.028085  0.393889  0.273027  1
  Th  Th1  1  0.386705  0.273586  0.019564  1
  Th  Th2  1  0.728772  0.975657  0.609487  1
  Th  Th3  1  0.268617  0.022829  0.395123  1
  Th  Th4  1  0.612106  0.722696  0.969430  1
  Th  Th5  1  0.981310  0.620200  0.738271  1
  Tc  Tc6  1  0.002776  0.002616  0.004065  1
  Pd  Pd7  1  0.499857  0.499067  0.497996  1
  Pd  Pd8  1  0.421564  0.926950  0.763827  1
  Pd  Pd9  1  0.922847  0.761828  0.420518  1
  Pd  Pd10  1  0.233144  0.576531  0.072519  1
  Pd  Pd11  1  0.764317  0.419278  0.924869  1
  Pd  Pd12  1  0.074518  0.233823  0.578454  1
  Au  Au13  1  0.575383  0.071049  0.232849  1
