# generated using pymatgen
data_SmPa3(HgRh2)2
_symmetry_space_group_name_H-M   'P 1'
_cell_length_a   7.73883734
_cell_length_b   7.73883769
_cell_length_c   3.61377800
_cell_angle_alpha   90.00000000
_cell_angle_beta   90.00000000
_cell_angle_gamma   92.83062048
_symmetry_Int_Tables_number   1
_chemical_formula_structural   SmPa3(HgRh2)2
_chemical_formula_sum   'Sm1 Pa3 Hg2 Rh4'
_cell_volume   216.16367485
_cell_formula_units_Z   1
loop_
 _symmetry_equiv_pos_site_id
 _symmetry_equiv_pos_as_xyz
  1  'x, y, z'
loop_
 _atom_site_type_symbol
 _atom_site_label
 _atom_site_symmetry_multiplicity
 _atom_site_fract_x
 _atom_site_fract_y
 _atom_site_fract_z
 _atom_site_occupancy
  Sm  Sm0  1  0.829578  0.670422  0.500000  1
  Pa  Pa1  1  0.671894  0.168930  0.500000  1
  Pa  Pa2  1  0.331070  0.828106  0.500000  1
  Pa  Pa3  1  0.170838  0.329162  0.500000  1
  Hg  Hg4  1  0.999191  0.989220  0.000000  1
  Hg  Hg5  1  0.510780  0.500809  0.000000  1
  Rh  Rh6  1  0.150741  0.626813  0.000000  1
  Rh  Rh7  1  0.873187  0.349259  0.000000  1
  Rh  Rh8  1  0.608621  0.891379  0.000000  1
  Rh  Rh9  1  0.354099  0.145901  0.000000  1
