# generated using pymatgen
data_Dy16MgAg3Rh4
_symmetry_space_group_name_H-M   'P 1'
_cell_length_a   9.56612829
_cell_length_b   9.57474941
_cell_length_c   9.57475000
_cell_angle_alpha   59.99999796
_cell_angle_beta   59.97018160
_cell_angle_gamma   59.97018435
_symmetry_Int_Tables_number   1
_chemical_formula_structural   Dy16MgAg3Rh4
_chemical_formula_sum   'Dy16 Mg1 Ag3 Rh4'
_cell_volume   619.84082806
_cell_formula_units_Z   1
loop_
 _symmetry_equiv_pos_site_id
 _symmetry_equiv_pos_as_xyz
  1  'x, y, z'
loop_
 _atom_site_type_symbol
 _atom_site_label
 _atom_site_symmetry_multiplicity
 _atom_site_fract_x
 _atom_site_fract_y
 _atom_site_fract_z
 _atom_site_occupancy
  Dy  Dy0  1  0.067322  0.435163  0.435163  1
  Dy  Dy1  1  0.647480  0.054259  0.649131  1
  Dy  Dy2  1  0.813708  0.812836  0.186728  1
  Dy  Dy3  1  0.436557  0.064609  0.064609  1
  Dy  Dy4  1  0.436557  0.434226  0.064609  1
  Dy  Dy5  1  0.188297  0.187798  0.811952  1
  Dy  Dy6  1  0.813708  0.186728  0.186728  1
  Dy  Dy7  1  0.067322  0.435163  0.062352  1
  Dy  Dy8  1  0.436557  0.064609  0.434226  1
  Dy  Dy9  1  0.063443  0.645519  0.645519  1
  Dy  Dy10  1  0.188297  0.811952  0.811952  1
  Dy  Dy11  1  0.647480  0.649131  0.054259  1
  Dy  Dy12  1  0.188297  0.811952  0.187798  1
  Dy  Dy13  1  0.067322  0.062352  0.435163  1
  Dy  Dy14  1  0.813708  0.186728  0.812836  1
  Dy  Dy15  1  0.647480  0.649131  0.649131  1
  Mg  Mg16  1  0.718070  0.427310  0.427310  1
  Ag  Ag17  1  0.417880  0.416715  0.748689  1
  Ag  Ag18  1  0.417880  0.416715  0.416715  1
  Ag  Ag19  1  0.417880  0.748689  0.416715  1
  Rh  Rh20  1  0.857889  0.430814  0.855649  1
  Rh  Rh21  1  0.431092  0.856303  0.856303  1
  Rh  Rh22  1  0.857889  0.855649  0.430814  1
  Rh  Rh23  1  0.857889  0.855649  0.855649  1
