# generated using pymatgen
data_TbDy(MgRh)2
_symmetry_space_group_name_H-M   'P 1'
_cell_length_a   4.13159600
_cell_length_b   7.11287915
_cell_length_c   8.53106067
_cell_angle_alpha   89.95518226
_cell_angle_beta   90.00000000
_cell_angle_gamma   90.00000000
_symmetry_Int_Tables_number   1
_chemical_formula_structural   TbDy(MgRh)2
_chemical_formula_sum   'Tb2 Dy2 Mg4 Rh4'
_cell_volume   250.70683599
_cell_formula_units_Z   2
loop_
 _symmetry_equiv_pos_site_id
 _symmetry_equiv_pos_as_xyz
  1  'x, y, z'
loop_
 _atom_site_type_symbol
 _atom_site_label
 _atom_site_symmetry_multiplicity
 _atom_site_fract_x
 _atom_site_fract_y
 _atom_site_fract_z
 _atom_site_occupancy
  Tb  Tb0  1  0.250000  0.537987  0.176496  1
  Tb  Tb1  1  0.750000  0.462013  0.823504  1
  Dy  Dy2  1  0.750000  0.962436  0.675977  1
  Dy  Dy3  1  0.250000  0.037564  0.324023  1
  Mg  Mg4  1  0.250000  0.636850  0.558677  1
  Mg  Mg5  1  0.750000  0.363150  0.441323  1
  Mg  Mg6  1  0.750000  0.864969  0.058694  1
  Mg  Mg7  1  0.250000  0.135031  0.941306  1
  Rh  Rh8  1  0.250000  0.751948  0.870687  1
  Rh  Rh9  1  0.750000  0.248052  0.129313  1
  Rh  Rh10  1  0.750000  0.749372  0.370745  1
  Rh  Rh11  1  0.250000  0.250628  0.629255  1
