# generated using pymatgen
data_Dy3HoRh4F28
_symmetry_space_group_name_H-M   'P 1'
_cell_length_a   5.52805805
_cell_length_b   8.85782284
_cell_length_c   11.91214882
_cell_angle_alpha   62.62496106
_cell_angle_beta   89.98866862
_cell_angle_gamma   90.00336715
_symmetry_Int_Tables_number   1
_chemical_formula_structural   Dy3HoRh4F28
_chemical_formula_sum   'Dy3 Ho1 Rh4 F28'
_cell_volume   517.97687096
_cell_formula_units_Z   1
loop_
 _symmetry_equiv_pos_site_id
 _symmetry_equiv_pos_as_xyz
  1  'x, y, z'
loop_
 _atom_site_type_symbol
 _atom_site_label
 _atom_site_symmetry_multiplicity
 _atom_site_fract_x
 _atom_site_fract_y
 _atom_site_fract_z
 _atom_site_occupancy
  Dy  Dy0  1  0.760942  0.812547  0.765653  1
  Dy  Dy1  1  0.260917  0.187171  0.734493  1
  Dy  Dy2  1  0.239135  0.186322  0.234367  1
  Ho  Ho3  1  0.738945  0.812834  0.265336  1
  Rh  Rh4  1  0.757598  0.272827  0.956450  1
  Rh  Rh5  1  0.258027  0.726971  0.543284  1
  Rh  Rh6  1  0.241910  0.726899  0.044332  1
  Rh  Rh7  1  0.742126  0.273764  0.455898  1
  F  F8  1  0.437759  0.705194  0.916585  1
  F  F9  1  0.937780  0.295278  0.583524  1
  F  F10  1  0.561655  0.294777  0.084105  1
  F  F11  1  0.061531  0.705410  0.415778  1
  F  F12  1  0.442897  0.278343  0.542652  1
  F  F13  1  0.943047  0.722229  0.957247  1
  F  F14  1  0.557685  0.722653  0.456048  1
  F  F15  1  0.057112  0.277739  0.043224  1
  F  F16  1  0.773577  0.518380  0.860087  1
  F  F17  1  0.273960  0.481440  0.639741  1
  F  F18  1  0.226264  0.481602  0.140253  1
  F  F19  1  0.726492  0.519242  0.359820  1
  F  F20  1  0.755144  0.027651  0.050086  1
  F  F21  1  0.254988  0.972121  0.450043  1
  F  F22  1  0.244905  0.971714  0.950757  1
  F  F23  1  0.744804  0.028974  0.549254  1
  F  F24  1  0.966510  0.727353  0.635874  1
  F  F25  1  0.466363  0.272384  0.864022  1
  F  F26  1  0.033420  0.272609  0.363798  1
  F  F27  1  0.533313  0.727964  0.136535  1
  F  F28  1  0.048980  0.746940  0.174722  1
  F  F29  1  0.550285  0.253868  0.325540  1
  F  F30  1  0.949703  0.253307  0.825700  1
  F  F31  1  0.449999  0.746399  0.674155  1
  F  F32  1  0.416143  0.969363  0.231659  1
  F  F33  1  0.914685  0.028217  0.268675  1
  F  F34  1  0.585490  0.029738  0.768809  1
  F  F35  1  0.085911  0.969778  0.731494  1
