# generated using pymatgen
data_Hf18ZnRe3Mo5P
_symmetry_space_group_name_H-M   'P 1'
_cell_length_a   8.64923800
_cell_length_b   8.64923951
_cell_length_c   8.59742800
_cell_angle_alpha   90.00000000
_cell_angle_beta   90.00000000
_cell_angle_gamma   120.00000187
_symmetry_Int_Tables_number   1
_chemical_formula_structural   Hf18ZnRe3Mo5P
_chemical_formula_sum   'Hf18 Zn1 Re3 Mo5 P1'
_cell_volume   556.99967570
_cell_formula_units_Z   1
loop_
 _symmetry_equiv_pos_site_id
 _symmetry_equiv_pos_as_xyz
  1  'x, y, z'
loop_
 _atom_site_type_symbol
 _atom_site_label
 _atom_site_symmetry_multiplicity
 _atom_site_fract_x
 _atom_site_fract_y
 _atom_site_fract_z
 _atom_site_occupancy
  Hf  Hf0  1  0.195139  0.804861  0.448810  1
  Hf  Hf1  1  0.195139  0.390276  0.448810  1
  Hf  Hf2  1  0.609724  0.804861  0.448810  1
  Hf  Hf3  1  0.802363  0.197637  0.545993  1
  Hf  Hf4  1  0.802363  0.604727  0.545993  1
  Hf  Hf5  1  0.395273  0.197637  0.545993  1
  Hf  Hf6  1  0.802363  0.197637  0.954007  1
  Hf  Hf7  1  0.802363  0.604727  0.954007  1
  Hf  Hf8  1  0.395273  0.197637  0.954007  1
  Hf  Hf9  1  0.195139  0.804861  0.051190  1
  Hf  Hf10  1  0.195139  0.390276  0.051190  1
  Hf  Hf11  1  0.609724  0.804861  0.051190  1
  Hf  Hf12  1  0.541154  0.458846  0.250000  1
  Hf  Hf13  1  0.541154  0.082310  0.250000  1
  Hf  Hf14  1  0.917690  0.458846  0.250000  1
  Hf  Hf15  1  0.461537  0.538463  0.750000  1
  Hf  Hf16  1  0.461537  0.923073  0.750000  1
  Hf  Hf17  1  0.076927  0.538463  0.750000  1
  Zn  Zn18  1  0.333333  0.666667  0.250000  1
  Re  Re19  1  0.888948  0.111052  0.250000  1
  Re  Re20  1  0.888948  0.777893  0.250000  1
  Re  Re21  1  0.222107  0.111052  0.250000  1
  Mo  Mo22  1  0.111066  0.888934  0.750000  1
  Mo  Mo23  1  0.111066  0.222133  0.750000  1
  Mo  Mo24  1  0.777867  0.888934  0.750000  1
  Mo  Mo25  1  0.000000  0.000000  0.501228  1
  Mo  Mo26  1  0.000000  0.000000  0.998772  1
  P  P27  1  0.666667  0.333333  0.750000  1
