# generated using pymatgen
data_Dy5Tc5P12(IrRh6)2
_symmetry_space_group_name_H-M   'P 1'
_cell_length_a   12.64821530
_cell_length_b   12.74547841
_cell_length_c   3.93029100
_cell_angle_alpha   90.00000000
_cell_angle_beta   90.00000000
_cell_angle_gamma   120.11720055
_symmetry_Int_Tables_number   1
_chemical_formula_structural   Dy5Tc5P12(IrRh6)2
_chemical_formula_sum   'Dy5 Tc5 P12 Ir2 Rh12'
_cell_volume   548.05812412
_cell_formula_units_Z   1
loop_
 _symmetry_equiv_pos_site_id
 _symmetry_equiv_pos_as_xyz
  1  'x, y, z'
loop_
 _atom_site_type_symbol
 _atom_site_label
 _atom_site_symmetry_multiplicity
 _atom_site_fract_x
 _atom_site_fract_y
 _atom_site_fract_z
 _atom_site_occupancy
  Dy  Dy0  1  0.332630  0.666401  0.500000  1
  Dy  Dy1  1  0.666837  0.333695  0.500000  1
  Dy  Dy2  1  0.999509  0.810604  0.000000  1
  Dy  Dy3  1  0.187625  0.185799  0.000000  1
  Dy  Dy4  1  0.810259  0.998963  0.000000  1
  Tc  Tc5  1  0.996778  0.448356  0.500000  1
  Tc  Tc6  1  0.552289  0.545762  0.500000  1
  Tc  Tc7  1  0.456459  0.012315  0.500000  1
  Tc  Tc8  1  0.619301  0.797704  0.500000  1
  Tc  Tc9  1  0.201972  0.821727  0.500000  1
  P  P10  1  0.005604  0.638055  0.500000  1
  P  P11  1  0.365674  0.367015  0.500000  1
  P  P12  1  0.632193  0.994806  0.500000  1
  P  P13  1  0.519536  0.691305  0.000000  1
  P  P14  1  0.309713  0.831251  0.000000  1
  P  P15  1  0.165614  0.480843  0.000000  1
  P  P16  1  0.483860  0.165956  0.000000  1
  P  P17  1  0.682708  0.517482  0.000000  1
  P  P18  1  0.837060  0.318430  0.000000  1
  P  P19  1  0.999137  0.176843  0.500000  1
  P  P20  1  0.816558  0.820535  0.500000  1
  P  P21  1  0.176495  0.993216  0.500000  1
  Ir  Ir22  1  0.285179  0.005239  0.000000  1
  Ir  Ir23  1  0.999272  0.999054  0.500000  1
  Rh  Rh24  1  0.509179  0.876073  0.000000  1
  Rh  Rh25  1  0.126212  0.635853  0.000000  1
  Rh  Rh26  1  0.360641  0.490100  0.000000  1
  Rh  Rh27  1  0.487501  0.357096  0.000000  1
  Rh  Rh28  1  0.867058  0.510015  0.000000  1
  Rh  Rh29  1  0.646810  0.135916  0.000000  1
  Rh  Rh30  1  0.000390  0.281824  0.000000  1
  Rh  Rh31  1  0.718684  0.713630  0.000000  1
  Rh  Rh32  1  0.179570  0.376490  0.500000  1
  Rh  Rh33  1  0.374465  0.183894  0.500000  1
  Rh  Rh34  1  0.806455  0.622786  0.500000  1
  Rh  Rh35  1  0.820771  0.194966  0.500000  1
