# generated using pymatgen
data_SrLi8Pr7Pt8
_symmetry_space_group_name_H-M   'P 1'
_cell_length_a   9.68056336
_cell_length_b   9.68042587
_cell_length_c   7.30779800
_cell_angle_alpha   90.33372920
_cell_angle_beta   89.66612165
_cell_angle_gamma   130.51870746
_symmetry_Int_Tables_number   1
_chemical_formula_structural   SrLi8Pr7Pt8
_chemical_formula_sum   'Sr1 Li8 Pr7 Pt8'
_cell_volume   520.59148562
_cell_formula_units_Z   1
loop_
 _symmetry_equiv_pos_site_id
 _symmetry_equiv_pos_as_xyz
  1  'x, y, z'
loop_
 _atom_site_type_symbol
 _atom_site_label
 _atom_site_symmetry_multiplicity
 _atom_site_fract_x
 _atom_site_fract_y
 _atom_site_fract_z
 _atom_site_occupancy
  Sr  Sr0  1  0.467449  0.532559  0.459336  1
  Li  Li1  1  0.847241  0.152757  0.881491  1
  Li  Li2  1  0.848933  0.653037  0.626843  1
  Li  Li3  1  0.346965  0.151076  0.626830  1
  Li  Li4  1  0.154251  0.845747  0.377698  1
  Li  Li5  1  0.150483  0.348310  0.129129  1
  Li  Li6  1  0.651687  0.849511  0.129119  1
  Li  Li7  1  0.652202  0.347803  0.376032  1
  Li  Li8  1  0.348049  0.651973  0.875698  1
  Pr  Pr9  1  0.533192  0.967229  0.545052  1
  Pr  Pr10  1  0.032771  0.466812  0.545055  1
  Pr  Pr11  1  0.533244  0.466756  0.958853  1
  Pr  Pr12  1  0.466503  0.032393  0.042971  1
  Pr  Pr13  1  0.967603  0.533490  0.042973  1
  Pr  Pr14  1  0.967271  0.032731  0.461139  1
  Pr  Pr15  1  0.032942  0.967050  0.958506  1
  Pt  Pt16  1  0.816474  0.183515  0.255333  1
  Pt  Pt17  1  0.825046  0.685870  0.248547  1
  Pt  Pt18  1  0.314129  0.174947  0.248549  1
  Pt  Pt19  1  0.184256  0.815751  0.749052  1
  Pt  Pt20  1  0.177246  0.311828  0.762131  1
  Pt  Pt21  1  0.688170  0.822755  0.762134  1
  Pt  Pt22  1  0.683213  0.316784  0.749278  1
  Pt  Pt23  1  0.310680  0.689314  0.246257  1
