# generated using pymatgen
data_Ac3(VN3)2
_symmetry_space_group_name_H-M   'P 1'
_cell_length_a   3.98593232
_cell_length_b   3.98588496
_cell_length_c   10.79946865
_cell_angle_alpha   100.63789490
_cell_angle_beta   100.63787196
_cell_angle_gamma   90.00008627
_symmetry_Int_Tables_number   1
_chemical_formula_structural   Ac3(VN3)2
_chemical_formula_sum   'Ac3 V2 N6'
_cell_volume   165.62612173
_cell_formula_units_Z   1
loop_
 _symmetry_equiv_pos_site_id
 _symmetry_equiv_pos_as_xyz
  1  'x, y, z'
loop_
 _atom_site_type_symbol
 _atom_site_label
 _atom_site_symmetry_multiplicity
 _atom_site_fract_x
 _atom_site_fract_y
 _atom_site_fract_z
 _atom_site_occupancy
  Ac  Ac0  1  0.000002  0.000000  0.999999  1
  Ac  Ac1  1  0.177051  0.177052  0.354086  1
  Ac  Ac2  1  0.822951  0.822950  0.645917  1
  V  V3  1  0.603341  0.603340  0.206755  1
  V  V4  1  0.396657  0.396657  0.793236  1
  N  N5  1  0.587957  0.088018  0.175977  1
  N  N6  1  0.088017  0.587957  0.175978  1
  N  N7  1  0.690416  0.690417  0.380743  1
  N  N8  1  0.309588  0.309590  0.619266  1
  N  N9  1  0.911982  0.412042  0.824019  1
  N  N10  1  0.412042  0.911982  0.824020  1
