# generated using pymatgen
data_NdHf2Zr(Al3Ir)6
_symmetry_space_group_name_H-M   'P 1'
_cell_length_a   7.50115500
_cell_length_b   7.48945747
_cell_length_c   9.32216800
_cell_angle_alpha   90.00000000
_cell_angle_beta   90.00000000
_cell_angle_gamma   119.76284854
_symmetry_Int_Tables_number   1
_chemical_formula_structural   NdHf2Zr(Al3Ir)6
_chemical_formula_sum   'Nd1 Hf2 Zr1 Al18 Ir6'
_cell_volume   454.63088429
_cell_formula_units_Z   1
loop_
 _symmetry_equiv_pos_site_id
 _symmetry_equiv_pos_as_xyz
  1  'x, y, z'
loop_
 _atom_site_type_symbol
 _atom_site_label
 _atom_site_symmetry_multiplicity
 _atom_site_fract_x
 _atom_site_fract_y
 _atom_site_fract_z
 _atom_site_occupancy
  Nd  Nd0  1  0.329679  0.005876  0.750000  1
  Hf  Hf1  1  0.993577  0.671399  0.250000  1
  Hf  Hf2  1  0.672737  0.994756  0.250000  1
  Zr  Zr3  1  0.005122  0.329513  0.750000  1
  Al  Al4  1  0.122953  0.124680  0.250000  1
  Al  Al5  1  0.869669  0.875029  0.750000  1
  Al  Al6  1  0.997582  0.334770  0.078115  1
  Al  Al7  1  0.998478  0.661817  0.928314  1
  Al  Al8  1  0.998478  0.661817  0.571686  1
  Al  Al9  1  0.335065  0.997850  0.417087  1
  Al  Al10  1  0.997582  0.334770  0.421885  1
  Al  Al11  1  0.669009  0.001704  0.571738  1
  Al  Al12  1  0.669009  0.001704  0.928262  1
  Al  Al13  1  0.335065  0.997850  0.082913  1
  Al  Al14  1  0.331376  0.334646  0.552011  1
  Al  Al15  1  0.668156  0.668208  0.438691  1
  Al  Al16  1  0.668156  0.668208  0.061309  1
  Al  Al17  1  0.331376  0.334646  0.947989  1
  Al  Al18  1  0.338469  0.552898  0.250000  1
  Al  Al19  1  0.668620  0.454989  0.750000  1
  Al  Al20  1  0.553905  0.340195  0.250000  1
  Al  Al21  1  0.447233  0.654159  0.750000  1
  Ir  Ir22  1  0.673426  0.328613  0.002914  1
  Ir  Ir23  1  0.328458  0.673157  0.002999  1
  Ir  Ir24  1  0.328458  0.673157  0.497001  1
  Ir  Ir25  1  0.673426  0.328613  0.497086  1
  Ir  Ir26  1  0.997468  0.997487  0.003493  1
  Ir  Ir27  1  0.997468  0.997487  0.496507  1
