# generated using pymatgen
data_LiMg3Si2(B2Rh5)2
_symmetry_space_group_name_H-M   'P 1'
_cell_length_a   9.32842526
_cell_length_b   9.32842526
_cell_length_c   2.89187600
_cell_angle_alpha   90.00000000
_cell_angle_beta   90.00000000
_cell_angle_gamma   89.56810136
_symmetry_Int_Tables_number   1
_chemical_formula_structural   LiMg3Si2(B2Rh5)2
_chemical_formula_sum   'Li1 Mg3 Si2 B4 Rh10'
_cell_volume   251.64250541
_cell_formula_units_Z   1
loop_
 _symmetry_equiv_pos_site_id
 _symmetry_equiv_pos_as_xyz
  1  'x, y, z'
loop_
 _atom_site_type_symbol
 _atom_site_label
 _atom_site_symmetry_multiplicity
 _atom_site_fract_x
 _atom_site_fract_y
 _atom_site_fract_z
 _atom_site_occupancy
  Li  Li0  1  0.325278  0.174722  0.000000  1
  Mg  Mg1  1  0.825686  0.324504  0.000000  1
  Mg  Mg2  1  0.175496  0.674313  0.000000  1
  Mg  Mg3  1  0.672976  0.827023  0.000000  1
  Si  Si4  1  0.001757  0.001191  0.000000  1
  Si  Si5  1  0.498809  0.498243  0.000000  1
  B  B6  1  0.622658  0.125442  0.000000  1
  B  B7  1  0.129620  0.370379  0.000000  1
  B  B8  1  0.874507  0.625493  0.000000  1
  B  B9  1  0.374557  0.877342  0.000000  1
  Rh  Rh10  1  0.498600  0.001400  0.500000  1
  Rh  Rh11  1  0.790024  0.071128  0.500000  1
  Rh  Rh12  1  0.071773  0.209432  0.500000  1
  Rh  Rh13  1  0.572565  0.291092  0.500000  1
  Rh  Rh14  1  0.290568  0.428226  0.500000  1
  Rh  Rh15  1  0.000380  0.499620  0.500000  1
  Rh  Rh16  1  0.709348  0.572386  0.500000  1
  Rh  Rh17  1  0.428871  0.709975  0.500000  1
  Rh  Rh18  1  0.927614  0.790651  0.500000  1
  Rh  Rh19  1  0.208908  0.927435  0.500000  1
