# generated using pymatgen
data_Tb3SmTh6(Sn3C)2
_symmetry_space_group_name_H-M   'P 1'
_cell_length_a   9.25793800
_cell_length_b   9.25793807
_cell_length_c   6.53989400
_cell_angle_alpha   90.00000000
_cell_angle_beta   90.00000000
_cell_angle_gamma   120.00000689
_symmetry_Int_Tables_number   1
_chemical_formula_structural   Tb3SmTh6(Sn3C)2
_chemical_formula_sum   'Tb3 Sm1 Th6 Sn6 C2'
_cell_volume   485.43361877
_cell_formula_units_Z   1
loop_
 _symmetry_equiv_pos_site_id
 _symmetry_equiv_pos_as_xyz
  1  'x, y, z'
loop_
 _atom_site_type_symbol
 _atom_site_label
 _atom_site_symmetry_multiplicity
 _atom_site_fract_x
 _atom_site_fract_y
 _atom_site_fract_z
 _atom_site_occupancy
  Tb  Tb0  1  0.666667  0.333333  0.500000  1
  Tb  Tb1  1  0.333333  0.666667  0.500000  1
  Tb  Tb2  1  0.333333  0.666667  0.000000  1
  Sm  Sm3  1  0.666667  0.333333  0.000000  1
  Th  Th4  1  0.778261  0.778346  0.250242  1
  Th  Th5  1  0.221654  0.999914  0.250242  1
  Th  Th6  1  0.000086  0.221739  0.250242  1
  Th  Th7  1  0.221654  0.221739  0.749758  1
  Th  Th8  1  0.778261  0.999914  0.749758  1
  Th  Th9  1  0.000086  0.778346  0.749758  1
  Sn  Sn10  1  0.403562  0.404832  0.250917  1
  Sn  Sn11  1  0.595168  0.998730  0.250917  1
  Sn  Sn12  1  0.001270  0.596438  0.250917  1
  Sn  Sn13  1  0.595168  0.596438  0.749083  1
  Sn  Sn14  1  0.403562  0.998730  0.749083  1
  Sn  Sn15  1  0.001270  0.404832  0.749083  1
  C  C16  1  0.000000  0.000000  0.500000  1
  C  C17  1  0.000000  0.000000  0.000000  1
