# generated using pymatgen
data_Li4Gd3HoSi8
_symmetry_space_group_name_H-M   'P 1'
_cell_length_a   3.77353200
_cell_length_b   7.52946799
_cell_length_c   10.17762900
_cell_angle_alpha   89.85841678
_cell_angle_beta   90.00000000
_cell_angle_gamma   90.00000000
_symmetry_Int_Tables_number   1
_chemical_formula_structural   Li4Gd3HoSi8
_chemical_formula_sum   'Li4 Gd3 Ho1 Si8'
_cell_volume   289.17291852
_cell_formula_units_Z   1
loop_
 _symmetry_equiv_pos_site_id
 _symmetry_equiv_pos_as_xyz
  1  'x, y, z'
loop_
 _atom_site_type_symbol
 _atom_site_label
 _atom_site_symmetry_multiplicity
 _atom_site_fract_x
 _atom_site_fract_y
 _atom_site_fract_z
 _atom_site_occupancy
  Li  Li0  1  0.250000  0.991757  0.390080  1
  Li  Li1  1  0.750000  0.006776  0.609294  1
  Li  Li2  1  0.250000  0.492698  0.108081  1
  Li  Li3  1  0.750000  0.509999  0.890787  1
  Gd  Gd4  1  0.750000  0.860745  0.135365  1
  Gd  Gd5  1  0.250000  0.639408  0.635497  1
  Gd  Gd6  1  0.750000  0.359036  0.365213  1
  Ho  Ho7  1  0.250000  0.138541  0.865325  1
  Si  Si8  1  0.750000  0.272069  0.067372  1
  Si  Si9  1  0.250000  0.732791  0.931926  1
  Si  Si10  1  0.750000  0.769774  0.430994  1
  Si  Si11  1  0.250000  0.226887  0.570615  1
  Si  Si12  1  0.750000  0.843208  0.819811  1
  Si  Si13  1  0.250000  0.158663  0.178069  1
  Si  Si14  1  0.750000  0.340321  0.681207  1
  Si  Si15  1  0.250000  0.657329  0.320365  1
