# generated using pymatgen
data_Gd10Ho2InCo4Pt
_symmetry_space_group_name_H-M   'P 1'
_cell_length_a   8.39513238
_cell_length_b   8.36820442
_cell_length_c   8.36763626
_cell_angle_alpha   111.04634212
_cell_angle_beta   110.32573162
_cell_angle_gamma   106.94293726
_symmetry_Int_Tables_number   1
_chemical_formula_structural   Gd10Ho2InCo4Pt
_chemical_formula_sum   'Gd10 Ho2 In1 Co4 Pt1'
_cell_volume   452.58064487
_cell_formula_units_Z   1
loop_
 _symmetry_equiv_pos_site_id
 _symmetry_equiv_pos_as_xyz
  1  'x, y, z'
loop_
 _atom_site_type_symbol
 _atom_site_label
 _atom_site_symmetry_multiplicity
 _atom_site_fract_x
 _atom_site_fract_y
 _atom_site_fract_z
 _atom_site_occupancy
  Gd  Gd0  1  0.314184  0.620788  0.303498  1
  Gd  Gd1  1  0.685816  0.379212  0.696502  1
  Gd  Gd2  1  0.314157  0.010702  0.693393  1
  Gd  Gd3  1  0.685843  0.989298  0.306607  1
  Gd  Gd4  1  0.184893  0.291321  0.477914  1
  Gd  Gd5  1  0.815107  0.708679  0.522086  1
  Gd  Gd6  1  0.185076  0.707001  0.893701  1
  Gd  Gd7  1  0.814924  0.292999  0.106299  1
  Gd  Gd8  1  0.410793  0.213121  0.197735  1
  Gd  Gd9  1  0.589207  0.786879  0.802265  1
  Ho  Ho10  1  0.015444  0.213098  0.802396  1
  Ho  Ho11  1  0.984556  0.786902  0.197604  1
  In  In12  1  0.500000  0.500000  0.000000  1
  Co  Co13  1  0.112218  0.613407  0.498853  1
  Co  Co14  1  0.887782  0.386593  0.501147  1
  Co  Co15  1  0.377660  0.999999  0.377662  1
  Co  Co16  1  0.622340  0.000001  0.622338  1
  Pt  Pt17  1  0.000000  0.000000  0.000000  1
