# generated using pymatgen
data_La6FeCl10
_symmetry_space_group_name_H-M   'P 1'
_cell_length_a   7.59426104
_cell_length_b   9.25544977
_cell_length_c   9.27926331
_cell_angle_alpha   110.72719706
_cell_angle_beta   107.63115655
_cell_angle_gamma   96.54218023
_symmetry_Int_Tables_number   1
_chemical_formula_structural   La6FeCl10
_chemical_formula_sum   'La6 Fe1 Cl10'
_cell_volume   563.17993303
_cell_formula_units_Z   1
loop_
 _symmetry_equiv_pos_site_id
 _symmetry_equiv_pos_as_xyz
  1  'x, y, z'
loop_
 _atom_site_type_symbol
 _atom_site_label
 _atom_site_symmetry_multiplicity
 _atom_site_fract_x
 _atom_site_fract_y
 _atom_site_fract_z
 _atom_site_occupancy
  La  La0  1  0.865397  0.239457  0.947640  1
  La  La1  1  0.134603  0.760543  0.052360  1
  La  La2  1  0.023087  0.893778  0.693167  1
  La  La3  1  0.976913  0.106222  0.306833  1
  La  La4  1  0.380438  0.204007  0.152497  1
  La  La5  1  0.619562  0.795993  0.847503  1
  Fe  Fe6  1  0.000000  0.000000  0.000000  1
  Cl  Cl7  1  0.907907  0.159471  0.630965  1
  Cl  Cl8  1  0.092093  0.840529  0.369035  1
  Cl  Cl9  1  0.448888  0.070977  0.830572  1
  Cl  Cl10  1  0.551112  0.929023  0.169428  1
  Cl  Cl11  1  0.198626  0.646580  0.742778  1
  Cl  Cl12  1  0.801374  0.353420  0.257222  1
  Cl  Cl13  1  0.241554  0.453192  0.079706  1
  Cl  Cl14  1  0.758446  0.546808  0.920294  1
  Cl  Cl15  1  0.637600  0.717903  0.535653  1
  Cl  Cl16  1  0.362400  0.282097  0.464347  1
