# generated using pymatgen
data_SmHo6Co4Tc2Sn23
_symmetry_space_group_name_H-M   'P 1'
_cell_length_a   9.76543368
_cell_length_b   9.81593750
_cell_length_c   10.00300316
_cell_angle_alpha   89.99999737
_cell_angle_beta   89.93632684
_cell_angle_gamma   120.17123385
_symmetry_Int_Tables_number   1
_chemical_formula_structural   SmHo6Co4Tc2Sn23
_chemical_formula_sum   'Sm1 Ho6 Co4 Tc2 Sn23'
_cell_volume   828.95708705
_cell_formula_units_Z   1
loop_
 _symmetry_equiv_pos_site_id
 _symmetry_equiv_pos_as_xyz
  1  'x, y, z'
loop_
 _atom_site_type_symbol
 _atom_site_label
 _atom_site_symmetry_multiplicity
 _atom_site_fract_x
 _atom_site_fract_y
 _atom_site_fract_z
 _atom_site_occupancy
  Sm  Sm0  1  0.005994  0.002997  0.995648  1
  Ho  Ho1  1  0.516413  0.481380  0.693174  1
  Ho  Ho2  1  0.516413  0.035032  0.693174  1
  Ho  Ho3  1  0.963572  0.481786  0.693600  1
  Ho  Ho4  1  0.038039  0.519020  0.304844  1
  Ho  Ho5  1  0.482380  0.962490  0.305875  1
  Ho  Ho6  1  0.482380  0.519892  0.305875  1
  Co  Co7  1  0.660531  0.830266  0.802034  1
  Co  Co8  1  0.340017  0.170008  0.201061  1
  Co  Co9  1  0.828734  0.661210  0.200954  1
  Co  Co10  1  0.828734  0.167524  0.200954  1
  Tc  Tc11  1  0.168882  0.830833  0.798898  1
  Tc  Tc12  1  0.168882  0.338049  0.798898  1
  Sn  Sn13  1  0.667114  0.333556  0.182985  1
  Sn  Sn14  1  0.665568  0.332784  0.877365  1
  Sn  Sn15  1  0.334837  0.667420  0.122214  1
  Sn  Sn16  1  0.351018  0.347250  0.005112  1
  Sn  Sn17  1  0.996119  0.651391  0.005200  1
  Sn  Sn18  1  0.653862  0.000014  0.000309  1
  Sn  Sn19  1  0.653862  0.653848  0.000309  1
  Sn  Sn20  1  0.336125  0.668063  0.820534  1
  Sn  Sn21  1  0.438572  0.219286  0.453965  1
  Sn  Sn22  1  0.220088  0.779517  0.537950  1
  Sn  Sn23  1  0.220088  0.440571  0.537950  1
  Sn  Sn24  1  0.564149  0.782074  0.544432  1
  Sn  Sn25  1  0.116956  0.883458  0.275187  1
  Sn  Sn26  1  0.781562  0.563469  0.455004  1
  Sn  Sn27  1  0.781562  0.218095  0.455004  1
  Sn  Sn28  1  0.351018  0.003767  0.005112  1
  Sn  Sn29  1  0.116956  0.233498  0.275187  1
  Sn  Sn30  1  0.763903  0.881951  0.270451  1
  Sn  Sn31  1  0.237816  0.118907  0.727461  1
  Sn  Sn32  1  0.876575  0.765301  0.725475  1
  Sn  Sn33  1  0.876575  0.111274  0.725475  1
  Sn  Sn34  1  0.998588  0.999295  0.497126  1
  Sn  Sn35  1  0.996119  0.344729  0.005200  1
