# generated using pymatgen
data_Ho3Sc(Os3W)2
_symmetry_space_group_name_H-M   'P 1'
_cell_length_a   5.47666400
_cell_length_b   5.47666214
_cell_length_c   8.40457800
_cell_angle_alpha   90.00000000
_cell_angle_beta   90.00000000
_cell_angle_gamma   120.00001126
_symmetry_Int_Tables_number   1
_chemical_formula_structural   Ho3Sc(Os3W)2
_chemical_formula_sum   'Ho3 Sc1 Os6 W2'
_cell_volume   218.31246896
_cell_formula_units_Z   1
loop_
 _symmetry_equiv_pos_site_id
 _symmetry_equiv_pos_as_xyz
  1  'x, y, z'
loop_
 _atom_site_type_symbol
 _atom_site_label
 _atom_site_symmetry_multiplicity
 _atom_site_fract_x
 _atom_site_fract_y
 _atom_site_fract_z
 _atom_site_occupancy
  Ho  Ho0  1  0.333333  0.666667  0.432403  1
  Ho  Ho1  1  0.666667  0.333333  0.564122  1
  Ho  Ho2  1  0.666667  0.333333  0.937913  1
  Sc  Sc3  1  0.333333  0.666667  0.063054  1
  Os  Os4  1  0.173504  0.347007  0.752386  1
  Os  Os5  1  0.173504  0.826496  0.752386  1
  Os  Os6  1  0.345388  0.172694  0.248331  1
  Os  Os7  1  0.827306  0.654612  0.248331  1
  Os  Os8  1  0.652993  0.826496  0.752386  1
  Os  Os9  1  0.827306  0.172694  0.248331  1
  W  W10  1  0.000000  0.000000  0.000134  1
  W  W11  1  0.000000  0.000000  0.500226  1
