# generated using pymatgen
data_Dy3Ho16LuSn16
_symmetry_space_group_name_H-M   'P 1'
_cell_length_a   8.00564302
_cell_length_b   8.13973809
_cell_length_c   15.41676503
_cell_angle_alpha   90.00313082
_cell_angle_beta   90.00703350
_cell_angle_gamma   89.94407829
_symmetry_Int_Tables_number   1
_chemical_formula_structural   Dy3Ho16LuSn16
_chemical_formula_sum   'Dy3 Ho16 Lu1 Sn16'
_cell_volume   1004.61508240
_cell_formula_units_Z   1
loop_
 _symmetry_equiv_pos_site_id
 _symmetry_equiv_pos_as_xyz
  1  'x, y, z'
loop_
 _atom_site_type_symbol
 _atom_site_label
 _atom_site_symmetry_multiplicity
 _atom_site_fract_x
 _atom_site_fract_y
 _atom_site_fract_z
 _atom_site_occupancy
  Dy  Dy0  1  0.979168  0.820624  0.402600  1
  Dy  Dy1  1  0.520803  0.321056  0.597543  1
  Dy  Dy2  1  0.021265  0.179578  0.902402  1
  Ho  Ho3  1  0.367636  0.836856  0.877567  1
  Ho  Ho4  1  0.868139  0.662695  0.622369  1
  Ho  Ho5  1  0.632094  0.163043  0.377844  1
  Ho  Ho6  1  0.132137  0.337067  0.121651  1
  Ho  Ho7  1  0.632084  0.163028  0.122139  1
  Ho  Ho8  1  0.132139  0.337043  0.378359  1
  Ho  Ho9  1  0.367609  0.836879  0.622441  1
  Ho  Ho10  1  0.868147  0.662700  0.877645  1
  Ho  Ho11  1  0.520833  0.321077  0.902412  1
  Ho  Ho12  1  0.021282  0.179584  0.597648  1
  Ho  Ho13  1  0.479246  0.679334  0.402884  1
  Ho  Ho14  1  0.979143  0.820635  0.097447  1
  Ho  Ho15  1  0.479234  0.679342  0.097099  1
  Ho  Ho16  1  0.698663  0.997243  0.749986  1
  Ho  Ho17  1  0.800919  0.496790  0.249994  1
  Ho  Ho18  1  0.300989  0.003038  0.249970  1
  Lu  Lu19  1  0.199000  0.503494  0.750008  1
  Sn  Sn20  1  0.292465  0.035929  0.041498  1
  Sn  Sn21  1  0.792292  0.463687  0.458432  1
  Sn  Sn22  1  0.707795  0.964001  0.541921  1
  Sn  Sn23  1  0.207828  0.535845  0.957194  1
  Sn  Sn24  1  0.707715  0.963934  0.958129  1
  Sn  Sn25  1  0.207680  0.535858  0.542793  1
  Sn  Sn26  1  0.292497  0.036057  0.458559  1
  Sn  Sn27  1  0.792251  0.463718  0.041537  1
  Sn  Sn28  1  0.563712  0.617833  0.750006  1
  Sn  Sn29  1  0.065675  0.880327  0.750000  1
  Sn  Sn30  1  0.433907  0.381026  0.249991  1
  Sn  Sn31  1  0.934482  0.119093  0.249999  1
  Sn  Sn32  1  0.329794  0.149901  0.750036  1
  Sn  Sn33  1  0.831108  0.352572  0.749967  1
  Sn  Sn34  1  0.669912  0.851826  0.249978  1
  Sn  Sn35  1  0.170355  0.647292  0.249950  1
