# generated using pymatgen
data_K2CdBr2(NO6)2
_symmetry_space_group_name_H-M   'P 1'
_cell_length_a   14.51947000
_cell_length_b   7.39111000
_cell_length_c   5.68917000
_cell_angle_alpha   90.00000000
_cell_angle_beta   90.00000000
_cell_angle_gamma   90.00000000
_symmetry_Int_Tables_number   1
_chemical_formula_structural   K2CdBr2(NO6)2
_chemical_formula_sum   'K4 Cd2 Br4 N4 O24'
_cell_volume   610.53327805
_cell_formula_units_Z   2
loop_
 _symmetry_equiv_pos_site_id
 _symmetry_equiv_pos_as_xyz
  1  'x, y, z'
loop_
 _atom_site_type_symbol
 _atom_site_label
 _atom_site_symmetry_multiplicity
 _atom_site_fract_x
 _atom_site_fract_y
 _atom_site_fract_z
 _atom_site_occupancy
  K  K0  1  0.279822  0.244432  0.000000  1
  K  K1  1  0.720178  0.755568  0.000000  1
  K  K2  1  0.779822  0.255568  0.500001  1
  K  K3  1  0.220177  0.744432  0.500001  1
  Cd  Cd4  1  0.000000  0.000000  0.000000  1
  Cd  Cd5  1  0.500000  0.500000  0.500001  1
  Br  Br6  1  0.613768  0.270106  0.000000  1
  Br  Br7  1  0.386233  0.729894  0.000000  1
  Br  Br8  1  0.113768  0.229894  0.500001  1
  Br  Br9  1  0.886233  0.770106  0.500001  1
  N  N10  1  0.914072  0.366673  0.000000  1
  N  N11  1  0.085929  0.633327  0.000000  1
  N  N12  1  0.414071  0.133327  0.500001  1
  N  N13  1  0.585929  0.866673  0.500001  1
  O  O14  1  0.715535  0.165180  0.000000  1
  O  O15  1  0.124638  0.482378  0.000000  1
  O  O16  1  0.875361  0.517622  0.000000  1
  O  O17  1  0.284465  0.834820  0.000000  1
  O  O18  1  0.934440  0.286618  0.192526  1
  O  O19  1  0.065561  0.713382  0.192526  1
  O  O20  1  0.621005  0.414227  0.232846  1
  O  O21  1  0.378996  0.585773  0.232846  1
  O  O22  1  0.121004  0.085773  0.267153  1
  O  O23  1  0.878996  0.914227  0.267153  1
  O  O24  1  0.434439  0.213382  0.307474  1
  O  O25  1  0.565561  0.786618  0.307474  1
  O  O26  1  0.624639  0.017622  0.500001  1
  O  O27  1  0.215535  0.334820  0.500001  1
  O  O28  1  0.784465  0.665180  0.500001  1
  O  O29  1  0.375361  0.982378  0.500001  1
  O  O30  1  0.434439  0.213382  0.692525  1
  O  O31  1  0.565561  0.786618  0.692525  1
  O  O32  1  0.121004  0.085773  0.732847  1
  O  O33  1  0.878996  0.914227  0.732847  1
  O  O34  1  0.621005  0.414227  0.767153  1
  O  O35  1  0.378996  0.585773  0.767153  1
  O  O36  1  0.934440  0.286618  0.807475  1
  O  O37  1  0.065561  0.713382  0.807475  1
