# generated using pymatgen
data_SmDy4(MnB3)2
_symmetry_space_group_name_H-M   'P 1'
_cell_length_a   5.43041037
_cell_length_b   5.43041085
_cell_length_c   8.31922354
_cell_angle_alpha   70.95096091
_cell_angle_beta   70.95095781
_cell_angle_gamma   60.00001030
_symmetry_Int_Tables_number   1
_chemical_formula_structural   SmDy4(MnB3)2
_chemical_formula_sum   'Sm1 Dy4 Mn2 B6'
_cell_volume   196.79541301
_cell_formula_units_Z   1
loop_
 _symmetry_equiv_pos_site_id
 _symmetry_equiv_pos_as_xyz
  1  'x, y, z'
loop_
 _atom_site_type_symbol
 _atom_site_label
 _atom_site_symmetry_multiplicity
 _atom_site_fract_x
 _atom_site_fract_y
 _atom_site_fract_z
 _atom_site_occupancy
  Sm  Sm0  1  0.000000  0.000000  0.000000  1
  Dy  Dy1  1  0.250077  0.250077  0.249768  1
  Dy  Dy2  1  0.749923  0.749923  0.750232  1
  Dy  Dy3  1  0.417315  0.417315  0.748055  1
  Dy  Dy4  1  0.582685  0.582685  0.251945  1
  Mn  Mn5  1  0.114977  0.114977  0.655070  1
  Mn  Mn6  1  0.885023  0.885023  0.344930  1
  B  B7  1  0.166209  0.833791  0.500000  1
  B  B8  1  0.833791  0.500000  0.500000  1
  B  B9  1  0.500000  0.166209  0.500000  1
  B  B10  1  0.166209  0.500000  0.500000  1
  B  B11  1  0.500000  0.833791  0.500000  1
  B  B12  1  0.833791  0.166209  0.500000  1
