# generated using pymatgen
data_Pr6GaSi5Ag2
_symmetry_space_group_name_H-M   'P 1'
_cell_length_a   5.97722354
_cell_length_b   5.97722340
_cell_length_c   14.20948987
_cell_angle_alpha   71.06218750
_cell_angle_beta   71.06218890
_cell_angle_gamma   44.60675014
_symmetry_Int_Tables_number   1
_chemical_formula_structural   Pr6GaSi5Ag2
_chemical_formula_sum   'Pr6 Ga1 Si5 Ag2'
_cell_volume   333.84782745
_cell_formula_units_Z   1
loop_
 _symmetry_equiv_pos_site_id
 _symmetry_equiv_pos_as_xyz
  1  'x, y, z'
loop_
 _atom_site_type_symbol
 _atom_site_label
 _atom_site_symmetry_multiplicity
 _atom_site_fract_x
 _atom_site_fract_y
 _atom_site_fract_z
 _atom_site_occupancy
  Pr  Pr0  1  0.259095  0.259095  0.718096  1
  Pr  Pr1  1  0.743191  0.743191  0.280977  1
  Pr  Pr2  1  0.458045  0.458045  0.879845  1
  Pr  Pr3  1  0.537057  0.537057  0.122724  1
  Pr  Pr4  1  0.606771  0.606771  0.575637  1
  Pr  Pr5  1  0.395675  0.395675  0.425017  1
  Ga  Ga6  1  0.755759  0.755759  0.890353  1
  Si  Si7  1  0.896383  0.896383  0.575133  1
  Si  Si8  1  0.104687  0.104687  0.426299  1
  Si  Si9  1  0.964191  0.964191  0.724967  1
  Si  Si10  1  0.036482  0.036482  0.274818  1
  Si  Si11  1  0.866740  0.866740  0.039828  1
  Ag  Ag12  1  0.250904  0.250904  0.112201  1
  Ag  Ag13  1  0.125022  0.125022  0.954103  1
