# generated using pymatgen
data_Ce12Al6CuIr5
_symmetry_space_group_name_H-M   'P 1'
_cell_length_a   7.79804981
_cell_length_b   7.79805095
_cell_length_c   9.87536500
_cell_angle_alpha   90.32804334
_cell_angle_beta   90.32803604
_cell_angle_gamma   120.27126473
_symmetry_Int_Tables_number   1
_chemical_formula_structural   Ce12Al6CuIr5
_chemical_formula_sum   'Ce12 Al6 Cu1 Ir5'
_cell_volume   518.60121645
_cell_formula_units_Z   1
loop_
 _symmetry_equiv_pos_site_id
 _symmetry_equiv_pos_as_xyz
  1  'x, y, z'
loop_
 _atom_site_type_symbol
 _atom_site_label
 _atom_site_symmetry_multiplicity
 _atom_site_fract_x
 _atom_site_fract_y
 _atom_site_fract_z
 _atom_site_occupancy
  Ce  Ce0  1  0.001939  0.606868  0.509361  1
  Ce  Ce1  1  0.606868  0.001939  0.509361  1
  Ce  Ce2  1  0.394053  0.394053  0.508592  1
  Ce  Ce3  1  0.998730  0.395261  0.009912  1
  Ce  Ce4  1  0.395261  0.998730  0.009912  1
  Ce  Ce5  1  0.610845  0.610845  0.017459  1
  Ce  Ce6  1  0.999552  0.728345  0.164173  1
  Ce  Ce7  1  0.728345  0.999552  0.164173  1
  Ce  Ce8  1  0.272474  0.272474  0.165419  1
  Ce  Ce9  1  0.997960  0.270759  0.661003  1
  Ce  Ce10  1  0.270759  0.997960  0.661003  1
  Ce  Ce11  1  0.728930  0.728930  0.664570  1
  Al  Al12  1  0.667630  0.332788  0.284823  1
  Al  Al13  1  0.332788  0.667630  0.284823  1
  Al  Al14  1  0.334629  0.669473  0.785160  1
  Al  Al15  1  0.669473  0.334629  0.785160  1
  Al  Al16  1  0.997831  0.997831  0.410979  1
  Al  Al17  1  0.996897  0.996897  0.910172  1
  Cu  Cu18  1  0.327816  0.327816  0.838597  1
  Ir  Ir19  1  0.000989  0.332644  0.337573  1
  Ir  Ir20  1  0.332644  0.000989  0.337573  1
  Ir  Ir21  1  0.663925  0.663925  0.336609  1
  Ir  Ir22  1  0.001952  0.667707  0.836424  1
  Ir  Ir23  1  0.667707  0.001952  0.836424  1
