# generated using pymatgen
data_Cs6DyTmBr12
_symmetry_space_group_name_H-M   'P 1'
_cell_length_a   9.98707300
_cell_length_b   9.98798600
_cell_length_c   8.29779300
_cell_angle_alpha   90.00000000
_cell_angle_beta   90.00000000
_cell_angle_gamma   90.05132655
_symmetry_Int_Tables_number   1
_chemical_formula_structural   Cs6DyTmBr12
_chemical_formula_sum   'Cs6 Dy1 Tm1 Br12'
_cell_volume   827.71070433
_cell_formula_units_Z   1
loop_
 _symmetry_equiv_pos_site_id
 _symmetry_equiv_pos_as_xyz
  1  'x, y, z'
loop_
 _atom_site_type_symbol
 _atom_site_label
 _atom_site_symmetry_multiplicity
 _atom_site_fract_x
 _atom_site_fract_y
 _atom_site_fract_z
 _atom_site_occupancy
  Cs  Cs0  1  0.000000  0.000000  0.500000  1
  Cs  Cs1  1  0.000000  0.000000  0.000000  1
  Cs  Cs2  1  0.235896  0.584024  0.500000  1
  Cs  Cs3  1  0.764104  0.415976  0.500000  1
  Cs  Cs4  1  0.416167  0.234924  0.000000  1
  Cs  Cs5  1  0.583833  0.765076  0.000000  1
  Dy  Dy6  1  0.000000  0.500000  0.000000  1
  Tm  Tm7  1  0.500000  0.000000  0.500000  1
  Br  Br8  1  0.690060  0.057054  0.738017  1
  Br  Br9  1  0.309940  0.942946  0.738017  1
  Br  Br10  1  0.942377  0.692069  0.240318  1
  Br  Br11  1  0.057623  0.307931  0.240318  1
  Br  Br12  1  0.309940  0.942946  0.261983  1
  Br  Br13  1  0.690060  0.057054  0.261983  1
  Br  Br14  1  0.057623  0.307931  0.759682  1
  Br  Br15  1  0.942377  0.692069  0.759682  1
  Br  Br16  1  0.570488  0.731504  0.500000  1
  Br  Br17  1  0.429512  0.268496  0.500000  1
  Br  Br18  1  0.271293  0.571494  0.000000  1
  Br  Br19  1  0.728707  0.428506  0.000000  1
