# generated using pymatgen
data_Ho2Tm4ReBi2
_symmetry_space_group_name_H-M   'P 1'
_cell_length_a   8.18668343
_cell_length_b   8.18258173
_cell_length_c   4.32027800
_cell_angle_alpha   90.00000000
_cell_angle_beta   90.00000000
_cell_angle_gamma   119.98342156
_symmetry_Int_Tables_number   1
_chemical_formula_structural   Ho2Tm4ReBi2
_chemical_formula_sum   'Ho2 Tm4 Re1 Bi2'
_cell_volume   250.67625691
_cell_formula_units_Z   1
loop_
 _symmetry_equiv_pos_site_id
 _symmetry_equiv_pos_as_xyz
  1  'x, y, z'
loop_
 _atom_site_type_symbol
 _atom_site_label
 _atom_site_symmetry_multiplicity
 _atom_site_fract_x
 _atom_site_fract_y
 _atom_site_fract_z
 _atom_site_occupancy
  Ho  Ho0  1  0.386547  0.386668  0.500000  1
  Ho  Ho1  1  0.613453  0.000121  0.500000  1
  Tm  Tm2  1  0.231360  0.999517  0.000000  1
  Tm  Tm3  1  0.000000  0.615625  0.500000  1
  Tm  Tm4  1  0.768640  0.768157  0.000000  1
  Tm  Tm5  1  0.000000  0.230646  0.000000  1
  Re  Re6  1  0.000000  0.998924  0.500000  1
  Bi  Bi7  1  0.332427  0.666385  0.000000  1
  Bi  Bi8  1  0.667573  0.333957  0.000000  1
