# generated using pymatgen
data_Sm6Zn4Pd5Pt8
_symmetry_space_group_name_H-M   'P 1'
_cell_length_a   8.35255789
_cell_length_b   8.34221253
_cell_length_c   8.34733128
_cell_angle_alpha   109.42798829
_cell_angle_beta   109.43618516
_cell_angle_gamma   109.49609877
_symmetry_Int_Tables_number   1
_chemical_formula_structural   Sm6Zn4Pd5Pt8
_chemical_formula_sum   'Sm6 Zn4 Pd5 Pt8'
_cell_volume   448.03525901
_cell_formula_units_Z   1
loop_
 _symmetry_equiv_pos_site_id
 _symmetry_equiv_pos_as_xyz
  1  'x, y, z'
loop_
 _atom_site_type_symbol
 _atom_site_label
 _atom_site_symmetry_multiplicity
 _atom_site_fract_x
 _atom_site_fract_y
 _atom_site_fract_z
 _atom_site_occupancy
  Sm  Sm0  1  0.699545  0.699429  0.001842  1
  Sm  Sm1  1  0.298639  0.997855  0.299411  1
  Sm  Sm2  1  0.999849  0.299704  0.299634  1
  Sm  Sm3  1  0.299657  0.302144  0.998977  1
  Sm  Sm4  1  0.701089  0.002191  0.700222  1
  Sm  Sm5  1  0.001572  0.699316  0.700722  1
  Zn  Zn6  1  0.000006  0.999121  0.499538  1
  Zn  Zn7  1  0.999199  0.499416  0.999268  1
  Zn  Zn8  1  0.500353  0.000587  0.000023  1
  Zn  Zn9  1  0.499845  0.499961  0.499948  1
  Pd  Pd10  1  0.332531  0.000355  0.668786  1
  Pd  Pd11  1  0.663713  0.332650  0.332798  1
  Pd  Pd12  1  0.668183  0.667963  0.337609  1
  Pd  Pd13  1  0.667156  0.336354  0.667425  1
  Pd  Pd14  1  0.336490  0.668648  0.668365  1
  Pt  Pt15  1  0.331146  0.330829  0.660755  1
  Pt  Pt16  1  0.669207  0.000908  0.331597  1
  Pt  Pt17  1  0.000113  0.668894  0.332134  1
  Pt  Pt18  1  0.668886  0.330479  0.000515  1
  Pt  Pt19  1  0.331734  0.662325  0.332584  1
  Pt  Pt20  1  0.999900  0.331287  0.668444  1
  Pt  Pt21  1  0.331535  0.670626  0.000791  1
  Pt  Pt22  1  0.999654  0.998960  0.998609  1
