# generated using pymatgen
data_Ho7Er3(SnBi2)2
_symmetry_space_group_name_H-M   'P 1'
_cell_length_a   9.06555775
_cell_length_b   9.03004259
_cell_length_c   6.42215300
_cell_angle_alpha   89.99571251
_cell_angle_beta   90.00213724
_cell_angle_gamma   119.87048846
_symmetry_Int_Tables_number   1
_chemical_formula_structural   Ho7Er3(SnBi2)2
_chemical_formula_sum   'Ho7 Er3 Sn2 Bi4'
_cell_volume   455.89087725
_cell_formula_units_Z   1
loop_
 _symmetry_equiv_pos_site_id
 _symmetry_equiv_pos_as_xyz
  1  'x, y, z'
loop_
 _atom_site_type_symbol
 _atom_site_label
 _atom_site_symmetry_multiplicity
 _atom_site_fract_x
 _atom_site_fract_y
 _atom_site_fract_z
 _atom_site_occupancy
  Ho  Ho0  1  0.994439  0.759034  0.749956  1
  Ho  Ho1  1  0.994439  0.235405  0.250044  1
  Ho  Ho2  1  0.757148  0.762059  0.250056  1
  Ho  Ho3  1  0.757148  0.995089  0.749944  1
  Ho  Ho4  1  0.244804  0.245099  0.749971  1
  Ho  Ho5  1  0.244804  0.999705  0.250029  1
  Ho  Ho6  1  0.340774  0.670388  0.000000  1
  Er  Er7  1  0.340985  0.670493  0.500000  1
  Er  Er8  1  0.664679  0.332338  0.000000  1
  Er  Er9  1  0.664729  0.332363  0.500000  1
  Sn  Sn10  1  0.608009  0.605485  0.749691  1
  Sn  Sn11  1  0.608009  0.002525  0.250309  1
  Bi  Bi12  1  0.389081  0.999143  0.749790  1
  Bi  Bi13  1  0.389081  0.389938  0.250210  1
  Bi  Bi14  1  0.000935  0.608917  0.250199  1
  Bi  Bi15  1  0.000935  0.392017  0.749801  1
