# generated using pymatgen
data_Sr3PrTa2Mn2O12
_symmetry_space_group_name_H-M   'P 1'
_cell_length_a   5.80647988
_cell_length_b   9.82711624
_cell_length_c   9.82110156
_cell_angle_alpha   71.37393189
_cell_angle_beta   91.49562635
_cell_angle_gamma   88.90547006
_symmetry_Int_Tables_number   1
_chemical_formula_structural   Sr3PrTa2Mn2O12
_chemical_formula_sum   'Sr6 Pr2 Ta4 Mn4 O24'
_cell_volume   530.64572410
_cell_formula_units_Z   2
loop_
 _symmetry_equiv_pos_site_id
 _symmetry_equiv_pos_as_xyz
  1  'x, y, z'
loop_
 _atom_site_type_symbol
 _atom_site_label
 _atom_site_symmetry_multiplicity
 _atom_site_fract_x
 _atom_site_fract_y
 _atom_site_fract_z
 _atom_site_occupancy
  Sr  Sr0  1  0.534267  0.116834  0.632784  1
  Sr  Sr1  1  0.537125  0.622394  0.128444  1
  Sr  Sr2  1  0.028532  0.876197  0.872499  1
  Sr  Sr3  1  0.030966  0.374701  0.375251  1
  Sr  Sr4  1  0.470154  0.881593  0.369206  1
  Sr  Sr5  1  0.466144  0.378363  0.872634  1
  Pr  Pr6  1  0.953276  0.120434  0.127979  1
  Pr  Pr7  1  0.945217  0.621091  0.626299  1
  Ta  Ta8  1  0.492710  0.752676  0.748100  1
  Ta  Ta9  1  0.500098  0.252259  0.249926  1
  Ta  Ta10  1  0.003330  0.245921  0.753285  1
  Ta  Ta11  1  0.002869  0.749252  0.249122  1
  Mn  Mn12  1  0.000343  0.499197  0.000286  1
  Mn  Mn13  1  0.493461  0.498323  0.500583  1
  Mn  Mn14  1  0.000295  0.998783  0.501136  1
  Mn  Mn15  1  0.498311  0.999981  0.999732  1
  O  O16  1  0.524481  0.668843  0.590960  1
  O  O17  1  0.529474  0.154968  0.089656  1
  O  O18  1  0.992287  0.154440  0.594098  1
  O  O19  1  0.974719  0.667015  0.095146  1
  O  O20  1  0.484408  0.328189  0.409153  1
  O  O21  1  0.477443  0.842728  0.909022  1
  O  O22  1  0.006586  0.836849  0.418805  1
  O  O23  1  0.025732  0.321354  0.918097  1
  O  O24  1  0.734156  0.089903  0.368252  1
  O  O25  1  0.704179  0.595813  0.862956  1
  O  O26  1  0.803170  0.095387  0.870523  1
  O  O27  1  0.802232  0.601704  0.375293  1
  O  O28  1  0.276324  0.912017  0.622220  1
  O  O29  1  0.307178  0.408179  0.126314  1
  O  O30  1  0.191699  0.914071  0.136577  1
  O  O31  1  0.196509  0.408934  0.635438  1
  O  O32  1  0.230322  0.127345  0.319626  1
  O  O33  1  0.213372  0.634639  0.819184  1
  O  O34  1  0.291933  0.122280  0.841911  1
  O  O35  1  0.279052  0.634802  0.329468  1
  O  O36  1  0.762993  0.871239  0.667066  1
  O  O37  1  0.781581  0.359815  0.167078  1
  O  O38  1  0.717206  0.884858  0.156332  1
  O  O39  1  0.735867  0.376633  0.669554  1
