# generated using pymatgen
data_Ca3Ho(Si3Pd)2
_symmetry_space_group_name_H-M   'P 1'
_cell_length_a   8.24293100
_cell_length_b   8.24293156
_cell_length_c   8.25463400
_cell_angle_alpha   90.00000000
_cell_angle_beta   90.00000000
_cell_angle_gamma   120.00000179
_symmetry_Int_Tables_number   1
_chemical_formula_structural   Ca3Ho(Si3Pd)2
_chemical_formula_sum   'Ca6 Ho2 Si12 Pd4'
_cell_volume   485.72650660
_cell_formula_units_Z   2
loop_
 _symmetry_equiv_pos_site_id
 _symmetry_equiv_pos_as_xyz
  1  'x, y, z'
loop_
 _atom_site_type_symbol
 _atom_site_label
 _atom_site_symmetry_multiplicity
 _atom_site_fract_x
 _atom_site_fract_y
 _atom_site_fract_z
 _atom_site_occupancy
  Ca  Ca0  1  0.502364  0.004726  0.250000  1
  Ca  Ca1  1  0.497636  0.995274  0.750000  1
  Ca  Ca2  1  0.995274  0.497636  0.250000  1
  Ca  Ca3  1  0.004726  0.502364  0.750000  1
  Ca  Ca4  1  0.502364  0.497636  0.250000  1
  Ca  Ca5  1  0.497636  0.502364  0.750000  1
  Ho  Ho6  1  0.000000  0.000000  0.250000  1
  Ho  Ho7  1  0.000000  0.000000  0.750000  1
  Si  Si8  1  0.164101  0.328200  0.003240  1
  Si  Si9  1  0.835899  0.671800  0.996760  1
  Si  Si10  1  0.671800  0.835899  0.003240  1
  Si  Si11  1  0.835899  0.671800  0.503240  1
  Si  Si12  1  0.328200  0.164101  0.996760  1
  Si  Si13  1  0.164101  0.328200  0.496760  1
  Si  Si14  1  0.164101  0.835899  0.003240  1
  Si  Si15  1  0.328200  0.164101  0.503240  1
  Si  Si16  1  0.835899  0.164101  0.996760  1
  Si  Si17  1  0.671800  0.835899  0.496760  1
  Si  Si18  1  0.835899  0.164101  0.503240  1
  Si  Si19  1  0.164101  0.835899  0.496760  1
  Pd  Pd20  1  0.333333  0.666667  0.003397  1
  Pd  Pd21  1  0.666667  0.333333  0.996603  1
  Pd  Pd22  1  0.666667  0.333333  0.503397  1
  Pd  Pd23  1  0.333333  0.666667  0.496603  1
