# generated using pymatgen
data_TbCu3P2Pd
_symmetry_space_group_name_H-M   'P 1'
_cell_length_a   7.35103625
_cell_length_b   7.33653824
_cell_length_c   3.82926300
_cell_angle_alpha   90.00000000
_cell_angle_beta   90.00000000
_cell_angle_gamma   90.25544358
_symmetry_Int_Tables_number   1
_chemical_formula_structural   TbCu3P2Pd
_chemical_formula_sum   'Tb2 Cu6 P4 Pd2'
_cell_volume   206.51453763
_cell_formula_units_Z   2
loop_
 _symmetry_equiv_pos_site_id
 _symmetry_equiv_pos_as_xyz
  1  'x, y, z'
loop_
 _atom_site_type_symbol
 _atom_site_label
 _atom_site_symmetry_multiplicity
 _atom_site_fract_x
 _atom_site_fract_y
 _atom_site_fract_z
 _atom_site_occupancy
  Tb  Tb0  1  0.998522  0.004490  0.500000  1
  Tb  Tb1  1  0.501623  0.500810  0.000000  1
  Cu  Cu2  1  0.166421  0.592850  0.500000  1
  Cu  Cu3  1  0.914434  0.670558  0.000000  1
  Cu  Cu4  1  0.413242  0.836481  0.500000  1
  Cu  Cu5  1  0.577918  0.153874  0.500000  1
  Cu  Cu6  1  0.346904  0.076362  0.000000  1
  Cu  Cu7  1  0.664302  0.913835  0.000000  1
  P  P8  1  0.774674  0.209569  0.000000  1
  P  P9  1  0.711562  0.724696  0.500000  1
  P  P10  1  0.290822  0.284175  0.500000  1
  P  P11  1  0.213489  0.784333  0.000000  1
  Pd  Pd12  1  0.097372  0.333501  0.000000  1
  Pd  Pd13  1  0.828713  0.414466  0.500000  1
