# generated using pymatgen
data_La2Ga3AsRh6
_symmetry_space_group_name_H-M   'P 1'
_cell_length_a   5.74995954
_cell_length_b   6.87452162
_cell_length_c   6.87452242
_cell_angle_alpha   66.85991476
_cell_angle_beta   65.17065706
_cell_angle_gamma   65.17065277
_symmetry_Int_Tables_number   1
_chemical_formula_structural   La2Ga3AsRh6
_chemical_formula_sum   'La2 Ga3 As1 Rh6'
_cell_volume   215.94074236
_cell_formula_units_Z   1
loop_
 _symmetry_equiv_pos_site_id
 _symmetry_equiv_pos_as_xyz
  1  'x, y, z'
loop_
 _atom_site_type_symbol
 _atom_site_label
 _atom_site_symmetry_multiplicity
 _atom_site_fract_x
 _atom_site_fract_y
 _atom_site_fract_z
 _atom_site_occupancy
  La  La0  1  0.538311  0.749867  0.749867  1
  La  La1  1  0.454783  0.250444  0.250444  1
  Ga  Ga2  1  0.222958  0.569733  0.569733  1
  Ga  Ga3  1  0.798597  0.412871  0.412871  1
  Ga  Ga4  1  0.116018  0.097369  0.097369  1
  As  As5  1  0.864734  0.922054  0.922054  1
  Rh  Rh6  1  0.500186  0.219989  0.778183  1
  Rh  Rh7  1  0.998473  0.733144  0.267152  1
  Rh  Rh8  1  0.500186  0.778183  0.219989  1
  Rh  Rh9  1  0.998473  0.267152  0.733144  1
  Rh  Rh10  1  0.003640  0.515530  0.983662  1
  Rh  Rh11  1  0.003640  0.983662  0.515530  1
