# generated using pymatgen
data_Ba4Si7AsPt8
_symmetry_space_group_name_H-M   'P 1'
_cell_length_a   7.01186784
_cell_length_b   7.87461891
_cell_length_c   8.11267801
_cell_angle_alpha   93.05467098
_cell_angle_beta   89.27133815
_cell_angle_gamma   89.46897218
_symmetry_Int_Tables_number   1
_chemical_formula_structural   Ba4Si7AsPt8
_chemical_formula_sum   'Ba4 Si7 As1 Pt8'
_cell_volume   447.25306959
_cell_formula_units_Z   1
loop_
 _symmetry_equiv_pos_site_id
 _symmetry_equiv_pos_as_xyz
  1  'x, y, z'
loop_
 _atom_site_type_symbol
 _atom_site_label
 _atom_site_symmetry_multiplicity
 _atom_site_fract_x
 _atom_site_fract_y
 _atom_site_fract_z
 _atom_site_occupancy
  Ba  Ba0  1  0.869970  0.502411  0.749750  1
  Ba  Ba1  1  0.367608  0.002591  0.247140  1
  Ba  Ba2  1  0.631497  0.000434  0.749642  1
  Ba  Ba3  1  0.138130  0.499330  0.249843  1
  Si  Si4  1  0.905512  0.856521  0.429066  1
  Si  Si5  1  0.089918  0.861550  0.926342  1
  Si  Si6  1  0.596687  0.361124  0.426870  1
  Si  Si7  1  0.087415  0.134062  0.568875  1
  Si  Si8  1  0.600967  0.648735  0.075440  1
  Si  Si9  1  0.903508  0.139723  0.072508  1
  Si  Si10  1  0.408594  0.633690  0.580332  1
  As  As11  1  0.403866  0.358519  0.925899  1
  Pt  Pt12  1  0.848848  0.157858  0.370836  1
  Pt  Pt13  1  0.146551  0.832656  0.626677  1
  Pt  Pt14  1  0.136246  0.157499  0.864416  1
  Pt  Pt15  1  0.346779  0.327158  0.617068  1
  Pt  Pt16  1  0.357530  0.677028  0.878057  1
  Pt  Pt17  1  0.852463  0.843485  0.133031  1
  Pt  Pt18  1  0.658579  0.345789  0.133013  1
  Pt  Pt19  1  0.649331  0.659836  0.375194  1
