# generated using pymatgen
data_Zr16Ni4Os3W
_symmetry_space_group_name_H-M   'P 1'
_cell_length_a   8.73368078
_cell_length_b   8.73368021
_cell_length_c   8.75065956
_cell_angle_alpha   60.06415906
_cell_angle_beta   60.06416203
_cell_angle_gamma   60.00000069
_symmetry_Int_Tables_number   1
_chemical_formula_structural   Zr16Ni4Os3W
_chemical_formula_sum   'Zr16 Ni4 Os3 W1'
_cell_volume   472.43371692
_cell_formula_units_Z   1
loop_
 _symmetry_equiv_pos_site_id
 _symmetry_equiv_pos_as_xyz
  1  'x, y, z'
loop_
 _atom_site_type_symbol
 _atom_site_label
 _atom_site_symmetry_multiplicity
 _atom_site_fract_x
 _atom_site_fract_y
 _atom_site_fract_z
 _atom_site_occupancy
  Zr  Zr0  1  0.192013  0.602323  0.603343  1
  Zr  Zr1  1  0.602323  0.192013  0.603343  1
  Zr  Zr2  1  0.602323  0.602323  0.603343  1
  Zr  Zr3  1  0.604197  0.604197  0.187412  1
  Zr  Zr4  1  0.455763  0.455763  0.043923  1
  Zr  Zr5  1  0.046322  0.046322  0.454042  1
  Zr  Zr6  1  0.455763  0.044551  0.043923  1
  Zr  Zr7  1  0.046322  0.453315  0.454042  1
  Zr  Zr8  1  0.044551  0.455763  0.043923  1
  Zr  Zr9  1  0.453315  0.046322  0.454042  1
  Zr  Zr10  1  0.815550  0.815550  0.187096  1
  Zr  Zr11  1  0.184179  0.184179  0.816412  1
  Zr  Zr12  1  0.815550  0.181806  0.187096  1
  Zr  Zr13  1  0.184179  0.815230  0.816412  1
  Zr  Zr14  1  0.181806  0.815550  0.187096  1
  Zr  Zr15  1  0.815230  0.184179  0.816412  1
  Ni  Ni16  1  0.826876  0.391913  0.389297  1
  Ni  Ni17  1  0.391913  0.826876  0.389297  1
  Ni  Ni18  1  0.391913  0.391913  0.389297  1
  Ni  Ni19  1  0.390726  0.390726  0.827821  1
  Os  Os20  1  0.503299  0.832727  0.831248  1
  Os  Os21  1  0.832727  0.503299  0.831248  1
  Os  Os22  1  0.832727  0.832727  0.831248  1
  W  W23  1  0.830438  0.830438  0.508686  1
