# generated using pymatgen
data_KRb2Sb(AsSe2)6
_symmetry_space_group_name_H-M   'P 1'
_cell_length_a   9.94086400
_cell_length_b   9.94086334
_cell_length_c   8.15673700
_cell_angle_alpha   90.00000000
_cell_angle_beta   90.00000000
_cell_angle_gamma   119.99999643
_symmetry_Int_Tables_number   1
_chemical_formula_structural   KRb2Sb(AsSe2)6
_chemical_formula_sum   'K1 Rb2 Sb1 As6 Se12'
_cell_volume   698.06416259
_cell_formula_units_Z   1
loop_
 _symmetry_equiv_pos_site_id
 _symmetry_equiv_pos_as_xyz
  1  'x, y, z'
loop_
 _atom_site_type_symbol
 _atom_site_label
 _atom_site_symmetry_multiplicity
 _atom_site_fract_x
 _atom_site_fract_y
 _atom_site_fract_z
 _atom_site_occupancy
  K  K0  1  0.000000  0.000000  0.000000  1
  Rb  Rb1  1  0.333333  0.666667  0.841959  1
  Rb  Rb2  1  0.666667  0.333333  0.158041  1
  Sb  Sb3  1  0.000000  0.000000  0.500000  1
  As  As4  1  0.291137  0.839747  0.377816  1
  As  As5  1  0.160253  0.451390  0.377816  1
  As  As6  1  0.548610  0.708863  0.377816  1
  As  As7  1  0.708863  0.160253  0.622184  1
  As  As8  1  0.839747  0.548610  0.622184  1
  As  As9  1  0.451390  0.291137  0.622184  1
  Se  Se10  1  0.264000  0.054498  0.292901  1
  Se  Se11  1  0.945502  0.209503  0.292901  1
  Se  Se12  1  0.790497  0.736000  0.292901  1
  Se  Se13  1  0.736000  0.945502  0.707099  1
  Se  Se14  1  0.054498  0.790497  0.707099  1
  Se  Se15  1  0.209503  0.264000  0.707099  1
  Se  Se16  1  0.527960  0.907047  0.213784  1
  Se  Se17  1  0.092953  0.620912  0.213784  1
  Se  Se18  1  0.379088  0.472040  0.213784  1
  Se  Se19  1  0.472040  0.092953  0.786216  1
  Se  Se20  1  0.907047  0.379088  0.786216  1
  Se  Se21  1  0.620912  0.527960  0.786216  1
