# generated using pymatgen
data_Tb7Sn23(OsRu2)2
_symmetry_space_group_name_H-M   'P 1'
_cell_length_a   9.88494451
_cell_length_b   9.88494343
_cell_length_c   10.12011091
_cell_angle_alpha   90.13162681
_cell_angle_beta   89.86837448
_cell_angle_gamma   119.99946960
_symmetry_Int_Tables_number   1
_chemical_formula_structural   Tb7Sn23(OsRu2)2
_chemical_formula_sum   'Tb7 Sn23 Os2 Ru4'
_cell_volume   856.37724926
_cell_formula_units_Z   1
loop_
 _symmetry_equiv_pos_site_id
 _symmetry_equiv_pos_as_xyz
  1  'x, y, z'
loop_
 _atom_site_type_symbol
 _atom_site_label
 _atom_site_symmetry_multiplicity
 _atom_site_fract_x
 _atom_site_fract_y
 _atom_site_fract_z
 _atom_site_occupancy
  Tb  Tb0  1  0.000000  0.000000  0.000000  1
  Tb  Tb1  1  0.484213  0.515787  0.302562  1
  Tb  Tb2  1  0.515787  0.484213  0.697438  1
  Tb  Tb3  1  0.484282  0.968370  0.302298  1
  Tb  Tb4  1  0.515718  0.031630  0.697702  1
  Tb  Tb5  1  0.031630  0.515718  0.302298  1
  Tb  Tb6  1  0.968370  0.484282  0.697702  1
  Sn  Sn7  1  0.349162  0.000218  0.000896  1
  Sn  Sn8  1  0.650838  0.999782  0.999104  1
  Sn  Sn9  1  0.000218  0.349162  0.999104  1
  Sn  Sn10  1  0.999782  0.650838  0.000896  1
  Sn  Sn11  1  0.651404  0.651404  0.000000  1
  Sn  Sn12  1  0.348596  0.348596  0.000000  1
  Sn  Sn13  1  0.333409  0.666591  0.822011  1
  Sn  Sn14  1  0.666591  0.333409  0.177989  1
  Sn  Sn15  1  0.000000  0.000000  0.500000  1
  Sn  Sn16  1  0.780608  0.219392  0.462574  1
  Sn  Sn17  1  0.219392  0.780608  0.537426  1
  Sn  Sn18  1  0.780446  0.561203  0.462173  1
  Sn  Sn19  1  0.219554  0.438797  0.537827  1
  Sn  Sn20  1  0.438797  0.219554  0.462173  1
  Sn  Sn21  1  0.561203  0.780446  0.537827  1
  Sn  Sn22  1  0.333426  0.666574  0.126079  1
  Sn  Sn23  1  0.666574  0.333426  0.873921  1
  Sn  Sn24  1  0.117981  0.882019  0.273011  1
  Sn  Sn25  1  0.882019  0.117981  0.726989  1
  Sn  Sn26  1  0.118800  0.236284  0.273624  1
  Sn  Sn27  1  0.881200  0.763716  0.726376  1
  Sn  Sn28  1  0.763716  0.881200  0.273624  1
  Sn  Sn29  1  0.236284  0.118800  0.726376  1
  Os  Os30  1  0.829894  0.170106  0.202464  1
  Os  Os31  1  0.170106  0.829894  0.797536  1
  Ru  Ru32  1  0.830164  0.660581  0.202036  1
  Ru  Ru33  1  0.169836  0.339419  0.797964  1
  Ru  Ru34  1  0.339419  0.169836  0.202036  1
  Ru  Ru35  1  0.660581  0.830164  0.797964  1
