# generated using pymatgen
data_Li3Dy2TmPt3
_symmetry_space_group_name_H-M   'P 1'
_cell_length_a   7.25428500
_cell_length_b   7.11159082
_cell_length_c   4.01825300
_cell_angle_alpha   90.00000000
_cell_angle_beta   90.00000000
_cell_angle_gamma   120.66599978
_symmetry_Int_Tables_number   1
_chemical_formula_structural   Li3Dy2TmPt3
_chemical_formula_sum   'Li3 Dy2 Tm1 Pt3'
_cell_volume   178.30988204
_cell_formula_units_Z   1
loop_
 _symmetry_equiv_pos_site_id
 _symmetry_equiv_pos_as_xyz
  1  'x, y, z'
loop_
 _atom_site_type_symbol
 _atom_site_label
 _atom_site_symmetry_multiplicity
 _atom_site_fract_x
 _atom_site_fract_y
 _atom_site_fract_z
 _atom_site_occupancy
  Li  Li0  1  0.763950  0.763435  0.000000  1
  Li  Li1  1  0.000516  0.236565  0.000000  1
  Li  Li2  1  0.230498  0.000000  0.000000  1
  Dy  Dy3  1  0.409191  0.406842  0.500000  1
  Dy  Dy4  1  0.002349  0.593158  0.500000  1
  Tm  Tm5  1  0.595027  0.000000  0.500000  1
  Pt  Pt6  1  0.337391  0.671134  0.000000  1
  Pt  Pt7  1  0.666258  0.328866  0.000000  1
  Pt  Pt8  1  0.994823  0.000000  0.500000  1
