# generated using pymatgen
data_Yb11(HgBi4)2
_symmetry_space_group_name_H-M   'P 1'
_cell_length_a   12.32797961
_cell_length_b   12.32797981
_cell_length_c   12.32798000
_cell_angle_alpha   120.76010341
_cell_angle_beta   120.76010397
_cell_angle_gamma   88.68842751
_symmetry_Int_Tables_number   1
_chemical_formula_structural   Yb11(HgBi4)2
_chemical_formula_sum   'Yb22 Hg4 Bi16'
_cell_volume   1309.23872701
_cell_formula_units_Z   2
loop_
 _symmetry_equiv_pos_site_id
 _symmetry_equiv_pos_as_xyz
  1  'x, y, z'
loop_
 _atom_site_type_symbol
 _atom_site_label
 _atom_site_symmetry_multiplicity
 _atom_site_fract_x
 _atom_site_fract_y
 _atom_site_fract_z
 _atom_site_occupancy
  Yb  Yb0  1  0.656321  0.656321  0.000000  1
  Yb  Yb1  1  0.343679  0.343679  0.000000  1
  Yb  Yb2  1  0.601607  0.937959  0.336351  1
  Yb  Yb3  1  0.601607  0.265256  0.663649  1
  Yb  Yb4  1  0.937959  0.601607  0.336351  1
  Yb  Yb5  1  0.265256  0.601607  0.663649  1
  Yb  Yb6  1  0.398393  0.062041  0.663649  1
  Yb  Yb7  1  0.398393  0.734744  0.336351  1
  Yb  Yb8  1  0.062041  0.398393  0.663649  1
  Yb  Yb9  1  0.734744  0.398393  0.336351  1
  Yb  Yb10  1  0.808654  0.058967  0.250313  1
  Yb  Yb11  1  0.808654  0.558340  0.749687  1
  Yb  Yb12  1  0.058967  0.808654  0.250313  1
  Yb  Yb13  1  0.558340  0.808654  0.749687  1
  Yb  Yb14  1  0.191346  0.941033  0.749687  1
  Yb  Yb15  1  0.191346  0.441660  0.250313  1
  Yb  Yb16  1  0.941033  0.191346  0.749687  1
  Yb  Yb17  1  0.441660  0.191346  0.250313  1
  Yb  Yb18  1  0.828218  0.828218  0.656435  1
  Yb  Yb19  1  0.171782  0.171782  0.343565  1
  Yb  Yb20  1  0.828218  0.171782  0.000000  1
  Yb  Yb21  1  0.171782  0.828218  0.000000  1
  Hg  Hg22  1  0.625595  0.625595  0.251190  1
  Hg  Hg23  1  0.374405  0.374405  0.748810  1
  Hg  Hg24  1  0.625595  0.374405  0.000000  1
  Hg  Hg25  1  0.374405  0.625595  0.000000  1
  Bi  Bi26  1  0.750000  0.250000  0.500000  1
  Bi  Bi27  1  0.250000  0.750000  0.500000  1
  Bi  Bi28  1  0.649381  0.000000  0.649381  1
  Bi  Bi29  1  0.350619  0.000000  0.350619  1
  Bi  Bi30  1  0.000000  0.350619  0.350619  1
  Bi  Bi31  1  0.000000  0.649381  0.649381  1
  Bi  Bi32  1  0.878443  0.878443  0.000000  1
  Bi  Bi33  1  0.121557  0.121557  0.000000  1
  Bi  Bi34  1  0.872478  0.872478  0.405654  1
  Bi  Bi35  1  0.466824  0.466824  0.594346  1
  Bi  Bi36  1  0.872478  0.466824  0.000000  1
  Bi  Bi37  1  0.466824  0.872478  0.000000  1
  Bi  Bi38  1  0.127522  0.127522  0.594346  1
  Bi  Bi39  1  0.533176  0.533176  0.405654  1
  Bi  Bi40  1  0.127522  0.533176  0.000000  1
  Bi  Bi41  1  0.533176  0.127522  0.000000  1
