# generated using pymatgen
data_NdY3C2Cl3
_symmetry_space_group_name_H-M   'P 1'
_cell_length_a   3.69355100
_cell_length_b   10.58129100
_cell_length_c   20.16658800
_cell_angle_alpha   90.00000000
_cell_angle_beta   90.00000000
_cell_angle_gamma   90.00000000
_symmetry_Int_Tables_number   1
_chemical_formula_structural   NdY3C2Cl3
_chemical_formula_sum   'Nd4 Y12 C8 Cl12'
_cell_volume   788.16144092
_cell_formula_units_Z   4
loop_
 _symmetry_equiv_pos_site_id
 _symmetry_equiv_pos_as_xyz
  1  'x, y, z'
loop_
 _atom_site_type_symbol
 _atom_site_label
 _atom_site_symmetry_multiplicity
 _atom_site_fract_x
 _atom_site_fract_y
 _atom_site_fract_z
 _atom_site_occupancy
  Nd  Nd0  1  0.250000  0.139902  0.571941  1
  Nd  Nd1  1  0.250000  0.639902  0.928059  1
  Nd  Nd2  1  0.750000  0.860098  0.428059  1
  Nd  Nd3  1  0.750000  0.360098  0.071941  1
  Y  Y4  1  0.250000  0.637347  0.756384  1
  Y  Y5  1  0.250000  0.137347  0.743616  1
  Y  Y6  1  0.750000  0.362653  0.243616  1
  Y  Y7  1  0.750000  0.862653  0.256384  1
  Y  Y8  1  0.250000  0.100666  0.330544  1
  Y  Y9  1  0.250000  0.600666  0.169456  1
  Y  Y10  1  0.750000  0.899334  0.669456  1
  Y  Y11  1  0.750000  0.399334  0.830544  1
  Y  Y12  1  0.250000  0.124001  0.166923  1
  Y  Y13  1  0.250000  0.624001  0.333077  1
  Y  Y14  1  0.750000  0.875999  0.833077  1
  Y  Y15  1  0.750000  0.375999  0.666923  1
  C  C16  1  0.250000  0.863464  0.344950  1
  C  C17  1  0.250000  0.363464  0.155050  1
  C  C18  1  0.750000  0.136536  0.655050  1
  C  C19  1  0.750000  0.636536  0.844950  1
  C  C20  1  0.250000  0.387830  0.750437  1
  C  C21  1  0.250000  0.887830  0.749563  1
  C  C22  1  0.750000  0.612170  0.249563  1
  C  C23  1  0.750000  0.112170  0.250437  1
  Cl  Cl24  1  0.250000  0.370702  0.946844  1
  Cl  Cl25  1  0.250000  0.870702  0.553156  1
  Cl  Cl26  1  0.750000  0.629298  0.053156  1
  Cl  Cl27  1  0.750000  0.129298  0.446844  1
  Cl  Cl28  1  0.250000  0.898038  0.938938  1
  Cl  Cl29  1  0.250000  0.398038  0.561062  1
  Cl  Cl30  1  0.750000  0.101962  0.061062  1
  Cl  Cl31  1  0.750000  0.601962  0.438938  1
  Cl  Cl32  1  0.250000  0.360817  0.350767  1
  Cl  Cl33  1  0.250000  0.860817  0.149233  1
  Cl  Cl34  1  0.750000  0.639183  0.649233  1
  Cl  Cl35  1  0.750000  0.139183  0.850767  1
