# generated using pymatgen
data_AcCe2(BN2)2
_symmetry_space_group_name_H-M   'P 1'
_cell_length_a   6.42617615
_cell_length_b   6.42617670
_cell_length_c   6.42617688
_cell_angle_alpha   146.71450578
_cell_angle_beta   120.69777094
_cell_angle_gamma   69.72930824
_symmetry_Int_Tables_number   1
_chemical_formula_structural   AcCe2(BN2)2
_chemical_formula_sum   'Ac1 Ce2 B2 N4'
_cell_volume   123.40539368
_cell_formula_units_Z   1
loop_
 _symmetry_equiv_pos_site_id
 _symmetry_equiv_pos_as_xyz
  1  'x, y, z'
loop_
 _atom_site_type_symbol
 _atom_site_label
 _atom_site_symmetry_multiplicity
 _atom_site_fract_x
 _atom_site_fract_y
 _atom_site_fract_z
 _atom_site_occupancy
  Ac  Ac0  1  0.000000  0.000000  0.000000  1
  Ce  Ce1  1  0.697621  0.197621  0.500000  1
  Ce  Ce2  1  0.302379  0.802379  0.500000  1
  B  B3  1  0.362388  0.500000  0.862388  1
  B  B4  1  0.637612  0.500000  0.137612  1
  N  N5  1  0.375373  0.624883  0.750490  1
  N  N6  1  0.874392  0.624883  0.249510  1
  N  N7  1  0.125608  0.375117  0.750490  1
  N  N8  1  0.624627  0.375117  0.249510  1
