# generated using pymatgen
data_Zr4BeTe
_symmetry_space_group_name_H-M   'P 1'
_cell_length_a   5.46527900
_cell_length_b   5.46527972
_cell_length_c   14.28057800
_cell_angle_alpha   90.00000000
_cell_angle_beta   90.00000000
_cell_angle_gamma   120.00000167
_symmetry_Int_Tables_number   1
_chemical_formula_structural   Zr4BeTe
_chemical_formula_sum   'Zr12 Be3 Te3'
_cell_volume   369.40361602
_cell_formula_units_Z   3
loop_
 _symmetry_equiv_pos_site_id
 _symmetry_equiv_pos_as_xyz
  1  'x, y, z'
loop_
 _atom_site_type_symbol
 _atom_site_label
 _atom_site_symmetry_multiplicity
 _atom_site_fract_x
 _atom_site_fract_y
 _atom_site_fract_z
 _atom_site_occupancy
  Zr  Zr0  1  0.184928  0.369857  0.000000  1
  Zr  Zr1  1  0.815072  0.630143  0.000000  1
  Zr  Zr2  1  0.500001  0.000000  0.101380  1
  Zr  Zr3  1  0.500001  0.500001  0.231953  1
  Zr  Zr4  1  0.815071  0.184928  0.333333  1
  Zr  Zr5  1  0.184928  0.815071  0.333333  1
  Zr  Zr6  1  0.500001  0.500001  0.434713  1
  Zr  Zr7  1  0.000000  0.500001  0.565287  1
  Zr  Zr8  1  0.369857  0.184928  0.666667  1
  Zr  Zr9  1  0.630144  0.815071  0.666667  1
  Zr  Zr10  1  0.000000  0.500001  0.768047  1
  Zr  Zr11  1  0.500001  0.000000  0.898620  1
  Be  Be12  1  0.000000  0.500001  0.166667  1
  Be  Be13  1  0.500001  0.000000  0.500000  1
  Be  Be14  1  0.500001  0.500001  0.833333  1
  Te  Te15  1  0.000000  0.000000  0.166667  1
  Te  Te16  1  0.000000  0.000000  0.500000  1
  Te  Te17  1  0.000000  0.000000  0.833333  1
