# generated using pymatgen
data_Pr3Cd2Mo3O14
_symmetry_space_group_name_H-M   'P 1'
_cell_length_a   7.34879970
_cell_length_b   7.34876583
_cell_length_c   7.34879927
_cell_angle_alpha   63.48552815
_cell_angle_beta   63.48515001
_cell_angle_gamma   63.48550506
_symmetry_Int_Tables_number   1
_chemical_formula_structural   Pr3Cd2Mo3O14
_chemical_formula_sum   'Pr3 Cd2 Mo3 O14'
_cell_volume   302.26040174
_cell_formula_units_Z   1
loop_
 _symmetry_equiv_pos_site_id
 _symmetry_equiv_pos_as_xyz
  1  'x, y, z'
loop_
 _atom_site_type_symbol
 _atom_site_label
 _atom_site_symmetry_multiplicity
 _atom_site_fract_x
 _atom_site_fract_y
 _atom_site_fract_z
 _atom_site_occupancy
  Pr  Pr0  1  0.000001  0.999978  0.499977  1
  Pr  Pr1  1  0.499983  0.000001  0.000007  1
  Pr  Pr2  1  0.499983  0.500031  0.499992  1
  Cd  Cd3  1  0.999986  0.499959  0.999977  1
  Cd  Cd4  1  0.499783  0.000228  0.500016  1
  Mo  Mo5  1  0.500038  0.499987  0.999996  1
  Mo  Mo6  1  0.000034  0.500007  0.500004  1
  Mo  Mo7  1  0.000025  0.999977  0.000009  1
  O  O8  1  0.622100  0.122118  0.622111  1
  O  O9  1  0.377901  0.877922  0.377914  1
  O  O10  1  0.076614  0.185157  0.685167  1
  O  O11  1  0.685188  0.185171  0.076561  1
  O  O12  1  0.685193  0.576523  0.685184  1
  O  O13  1  0.923466  0.814806  0.314814  1
  O  O14  1  0.314834  0.814818  0.923413  1
  O  O15  1  0.314838  0.423378  0.314830  1
  O  O16  1  0.636536  0.596363  0.096380  1
  O  O17  1  0.096375  0.596350  0.636535  1
  O  O18  1  0.096375  0.136521  0.096365  1
  O  O19  1  0.363417  0.403656  0.903674  1
  O  O20  1  0.903668  0.403642  0.363417  1
  O  O21  1  0.903663  0.863404  0.903657  1
