# generated using pymatgen
data_NdHo2Er(Ir2O7)2
_symmetry_space_group_name_H-M   'P 1'
_cell_length_a   7.29654251
_cell_length_b   7.23824592
_cell_length_c   7.23824508
_cell_angle_alpha   60.05067794
_cell_angle_beta   60.31562874
_cell_angle_gamma   60.31563382
_symmetry_Int_Tables_number   1
_chemical_formula_structural   NdHo2Er(Ir2O7)2
_chemical_formula_sum   'Nd1 Ho2 Er1 Ir4 O14'
_cell_volume   271.70140863
_cell_formula_units_Z   1
loop_
 _symmetry_equiv_pos_site_id
 _symmetry_equiv_pos_as_xyz
  1  'x, y, z'
loop_
 _atom_site_type_symbol
 _atom_site_label
 _atom_site_symmetry_multiplicity
 _atom_site_fract_x
 _atom_site_fract_y
 _atom_site_fract_z
 _atom_site_occupancy
  Nd  Nd0  1  0.625000  0.125000  0.125000  1
  Ho  Ho1  1  0.125000  0.625000  0.125000  1
  Ho  Ho2  1  0.125000  0.125000  0.625000  1
  Er  Er3  1  0.125000  0.125000  0.125000  1
  Ir  Ir4  1  0.125000  0.625000  0.625000  1
  Ir  Ir5  1  0.625000  0.125000  0.625000  1
  Ir  Ir6  1  0.625000  0.625000  0.125000  1
  Ir  Ir7  1  0.625000  0.625000  0.625000  1
  O  O8  1  0.722327  0.701871  0.287776  1
  O  O9  1  0.287990  0.288821  0.712293  1
  O  O10  1  0.722327  0.287776  0.701871  1
  O  O11  1  0.287990  0.712293  0.288821  1
  O  O12  1  0.288039  0.711431  0.711431  1
  O  O13  1  0.723222  0.287722  0.287722  1
  O  O14  1  0.527673  0.548129  0.962224  1
  O  O15  1  0.962010  0.961179  0.537707  1
  O  O16  1  0.527673  0.962224  0.548129  1
  O  O17  1  0.962010  0.537707  0.961179  1
  O  O18  1  0.961961  0.538569  0.538569  1
  O  O19  1  0.526778  0.962278  0.962278  1
  O  O20  1  0.239735  0.252815  0.252815  1
  O  O21  1  0.010265  0.997185  0.997185  1
