# generated using pymatgen
data_U8Ta12Si15Ge
_symmetry_space_group_name_H-M   'P 1'
_cell_length_a   6.85287374
_cell_length_b   7.06322177
_cell_length_c   13.27897300
_cell_angle_alpha   90.00000000
_cell_angle_beta   90.00000000
_cell_angle_gamma   90.05345765
_symmetry_Int_Tables_number   1
_chemical_formula_structural   U8Ta12Si15Ge
_chemical_formula_sum   'U8 Ta12 Si15 Ge1'
_cell_volume   642.74672398
_cell_formula_units_Z   1
loop_
 _symmetry_equiv_pos_site_id
 _symmetry_equiv_pos_as_xyz
  1  'x, y, z'
loop_
 _atom_site_type_symbol
 _atom_site_label
 _atom_site_symmetry_multiplicity
 _atom_site_fract_x
 _atom_site_fract_y
 _atom_site_fract_z
 _atom_site_occupancy
  U  U0  1  0.498842  0.668633  0.592802  1
  U  U1  1  0.998167  0.831201  0.907319  1
  U  U2  1  0.499107  0.331787  0.091543  1
  U  U3  1  0.004081  0.165488  0.409934  1
  U  U4  1  0.499107  0.331787  0.408457  1
  U  U5  1  0.004081  0.165488  0.090066  1
  U  U6  1  0.498842  0.668633  0.907198  1
  U  U7  1  0.998167  0.831201  0.592681  1
  Ta  Ta8  1  0.662387  0.173407  0.624283  1
  Ta  Ta9  1  0.162563  0.326908  0.875831  1
  Ta  Ta10  1  0.337309  0.827640  0.123806  1
  Ta  Ta11  1  0.837306  0.675748  0.376661  1
  Ta  Ta12  1  0.337309  0.827640  0.376194  1
  Ta  Ta13  1  0.837306  0.675748  0.123339  1
  Ta  Ta14  1  0.662387  0.173407  0.875717  1
  Ta  Ta15  1  0.162563  0.326908  0.624169  1
  Ta  Ta16  1  0.832501  0.499386  0.750000  1
  Ta  Ta17  1  0.332530  0.000631  0.750000  1
  Ta  Ta18  1  0.170613  0.502514  0.250000  1
  Ta  Ta19  1  0.666222  0.996212  0.250000  1
  Si  Si20  1  0.663980  0.961824  0.459140  1
  Si  Si21  1  0.163544  0.539748  0.041065  1
  Si  Si22  1  0.335848  0.038534  0.958056  1
  Si  Si23  1  0.835187  0.460607  0.540984  1
  Si  Si24  1  0.335848  0.038534  0.541944  1
  Si  Si25  1  0.835187  0.460607  0.959016  1
  Si  Si26  1  0.663980  0.961824  0.040860  1
  Si  Si27  1  0.163544  0.539748  0.458935  1
  Si  Si28  1  0.457239  0.378068  0.750000  1
  Si  Si29  1  0.957221  0.122227  0.750000  1
  Si  Si30  1  0.541638  0.624365  0.250000  1
  Si  Si31  1  0.042553  0.878223  0.250000  1
  Si  Si32  1  0.700042  0.870651  0.750000  1
  Si  Si33  1  0.200107  0.629521  0.750000  1
  Si  Si34  1  0.299730  0.130273  0.250000  1
  Ge  Ge35  1  0.802963  0.364879  0.250000  1
