# generated using pymatgen
data_SrCaCo4(PO4)4
_symmetry_space_group_name_H-M   'P 1'
_cell_length_a   5.06277510
_cell_length_b   8.65567616
_cell_length_c   9.25361922
_cell_angle_alpha   113.71797638
_cell_angle_beta   102.57257087
_cell_angle_gamma   93.39323504
_symmetry_Int_Tables_number   1
_chemical_formula_structural   SrCaCo4(PO4)4
_chemical_formula_sum   'Sr1 Ca1 Co4 P4 O16'
_cell_volume   357.43699771
_cell_formula_units_Z   1
loop_
 _symmetry_equiv_pos_site_id
 _symmetry_equiv_pos_as_xyz
  1  'x, y, z'
loop_
 _atom_site_type_symbol
 _atom_site_label
 _atom_site_symmetry_multiplicity
 _atom_site_fract_x
 _atom_site_fract_y
 _atom_site_fract_z
 _atom_site_occupancy
  Sr  Sr0  1  0.775958  0.268485  0.949422  1
  Ca  Ca1  1  0.228809  0.735758  0.050953  1
  Co  Co2  1  0.839011  0.085610  0.298788  1
  Co  Co3  1  0.384073  0.608487  0.408917  1
  Co  Co4  1  0.617384  0.392867  0.585196  1
  Co  Co5  1  0.149948  0.913595  0.709286  1
  P  P6  1  0.899315  0.721206  0.304151  1
  P  P7  1  0.113202  0.284282  0.695869  1
  P  P8  1  0.677944  0.787857  0.813405  1
  P  P9  1  0.309003  0.205717  0.187797  1
  O  O10  1  0.995263  0.880342  0.280400  1
  O  O11  1  0.013558  0.121977  0.713919  1
  O  O12  1  0.989499  0.567625  0.178169  1
  O  O13  1  0.044216  0.441877  0.828107  1
  O  O14  1  0.587193  0.702726  0.290800  1
  O  O15  1  0.421419  0.294853  0.699780  1
  O  O16  1  0.071151  0.736240  0.475698  1
  O  O17  1  0.933350  0.272063  0.527135  1
  O  O18  1  0.574545  0.632944  0.637424  1
  O  O19  1  0.429292  0.366408  0.358359  1
  O  O20  1  0.993607  0.167908  0.162262  1
  O  O21  1  0.997070  0.830389  0.850508  1
  O  O22  1  0.438493  0.052275  0.203164  1
  O  O23  1  0.605559  0.737427  0.941340  1
  O  O24  1  0.359864  0.249668  0.051812  1
  O  O25  1  0.551276  0.941410  0.797338  1
