# generated using pymatgen
data_LaTb2Lu(Mo2O7)2
_symmetry_space_group_name_H-M   'P 1'
_cell_length_a   7.43119971
_cell_length_b   7.46581559
_cell_length_c   7.46581574
_cell_angle_alpha   59.28873323
_cell_angle_beta   59.05181250
_cell_angle_gamma   59.05180750
_symmetry_Int_Tables_number   1
_chemical_formula_structural   LaTb2Lu(Mo2O7)2
_chemical_formula_sum   'La1 Tb2 Lu1 Mo4 O14'
_cell_volume   287.07987416
_cell_formula_units_Z   1
loop_
 _symmetry_equiv_pos_site_id
 _symmetry_equiv_pos_as_xyz
  1  'x, y, z'
loop_
 _atom_site_type_symbol
 _atom_site_label
 _atom_site_symmetry_multiplicity
 _atom_site_fract_x
 _atom_site_fract_y
 _atom_site_fract_z
 _atom_site_occupancy
  La  La0  1  0.125000  0.125000  0.125000  1
  Tb  Tb1  1  0.125000  0.125000  0.625000  1
  Tb  Tb2  1  0.125000  0.625000  0.125000  1
  Lu  Lu3  1  0.625000  0.125000  0.125000  1
  Mo  Mo4  1  0.625000  0.625000  0.625000  1
  Mo  Mo5  1  0.125000  0.625000  0.625000  1
  Mo  Mo6  1  0.625000  0.625000  0.125000  1
  Mo  Mo7  1  0.625000  0.125000  0.625000  1
  O  O8  1  0.990520  0.999959  0.999959  1
  O  O9  1  0.259480  0.250041  0.250041  1
  O  O10  1  0.287652  0.289815  0.702728  1
  O  O11  1  0.538843  0.528953  0.967038  1
  O  O12  1  0.711157  0.282962  0.721047  1
  O  O13  1  0.701528  0.289270  0.289270  1
  O  O14  1  0.288216  0.712988  0.712988  1
  O  O15  1  0.287652  0.702728  0.289815  1
  O  O16  1  0.711157  0.721047  0.282962  1
  O  O17  1  0.961784  0.537012  0.537012  1
  O  O18  1  0.548472  0.960730  0.960730  1
  O  O19  1  0.962348  0.960185  0.547272  1
  O  O20  1  0.962348  0.547272  0.960185  1
  O  O21  1  0.538843  0.967038  0.528953  1
