# generated using pymatgen
data_Dy3YLu(In2Pt)2
_symmetry_space_group_name_H-M   'P 1'
_cell_length_a   3.63092900
_cell_length_b   8.14302406
_cell_length_c   18.19655902
_cell_angle_alpha   89.88576076
_cell_angle_beta   90.00000000
_cell_angle_gamma   90.00000000
_symmetry_Int_Tables_number   1
_chemical_formula_structural   Dy3YLu(In2Pt)2
_chemical_formula_sum   'Dy6 Y2 Lu2 In8 Pt4'
_cell_volume   538.01189996
_cell_formula_units_Z   2
loop_
 _symmetry_equiv_pos_site_id
 _symmetry_equiv_pos_as_xyz
  1  'x, y, z'
loop_
 _atom_site_type_symbol
 _atom_site_label
 _atom_site_symmetry_multiplicity
 _atom_site_fract_x
 _atom_site_fract_y
 _atom_site_fract_z
 _atom_site_occupancy
  Dy  Dy0  1  0.000000  0.383337  0.914886  1
  Dy  Dy1  1  0.000000  0.616663  0.085114  1
  Dy  Dy2  1  0.000000  0.242807  0.220746  1
  Dy  Dy3  1  0.000000  0.757193  0.779254  1
  Dy  Dy4  1  0.000000  0.257430  0.719308  1
  Dy  Dy5  1  0.000000  0.742570  0.280692  1
  Y  Y6  1  0.000000  0.000000  0.000000  1
  Y  Y7  1  0.000000  0.500000  0.500000  1
  Lu  Lu8  1  0.000000  0.115999  0.414235  1
  Lu  Lu9  1  0.000000  0.884001  0.585765  1
  In  In10  1  0.500000  0.420476  0.351866  1
  In  In11  1  0.500000  0.579524  0.648134  1
  In  In12  1  0.500000  0.076185  0.850419  1
  In  In13  1  0.500000  0.923815  0.149581  1
  In  In14  1  0.500000  0.292163  0.067037  1
  In  In15  1  0.500000  0.707837  0.932963  1
  In  In16  1  0.500000  0.203535  0.565083  1
  In  In17  1  0.500000  0.796465  0.434917  1
  Pt  Pt18  1  0.500000  0.025971  0.305730  1
  Pt  Pt19  1  0.500000  0.974029  0.694270  1
  Pt  Pt20  1  0.500000  0.474918  0.802990  1
  Pt  Pt21  1  0.500000  0.525082  0.197010  1
