# generated using pymatgen
data_Pr3Sb2P4Rh9
_symmetry_space_group_name_H-M   'P 1'
_cell_length_a   3.99157000
_cell_length_b   8.41446099
_cell_length_c   9.85952700
_cell_angle_alpha   106.33041536
_cell_angle_beta   90.00000000
_cell_angle_gamma   103.72045662
_symmetry_Int_Tables_number   1
_chemical_formula_structural   Pr3Sb2P4Rh9
_chemical_formula_sum   'Pr3 Sb2 P4 Rh9'
_cell_volume   307.93187701
_cell_formula_units_Z   1
loop_
 _symmetry_equiv_pos_site_id
 _symmetry_equiv_pos_as_xyz
  1  'x, y, z'
loop_
 _atom_site_type_symbol
 _atom_site_label
 _atom_site_symmetry_multiplicity
 _atom_site_fract_x
 _atom_site_fract_y
 _atom_site_fract_z
 _atom_site_occupancy
  Pr  Pr0  1  0.855714  0.711428  0.317120  1
  Pr  Pr1  1  0.144286  0.288572  0.682880  1
  Pr  Pr2  1  0.000000  0.000000  0.000000  1
  Sb  Sb3  1  0.796013  0.592026  0.873680  1
  Sb  Sb4  1  0.203987  0.407974  0.126320  1
  P  P5  1  0.524987  0.049974  0.764916  1
  P  P6  1  0.475013  0.950026  0.235084  1
  P  P7  1  0.639502  0.279005  0.455160  1
  P  P8  1  0.360498  0.720995  0.544840  1
  Rh  Rh9  1  0.952226  0.904453  0.662052  1
  Rh  Rh10  1  0.047774  0.095547  0.337948  1
  Rh  Rh11  1  0.777380  0.554758  0.596760  1
  Rh  Rh12  1  0.222620  0.445242  0.403240  1
  Rh  Rh13  1  0.374933  0.749868  0.781861  1
  Rh  Rh14  1  0.625067  0.250132  0.218139  1
  Rh  Rh15  1  0.500000  0.000000  0.500000  1
  Rh  Rh16  1  0.651622  0.303244  0.941160  1
  Rh  Rh17  1  0.348378  0.696756  0.058840  1
