# generated using pymatgen
data_Zn2NiAg4TeO8
_symmetry_space_group_name_H-M   'P 1'
_cell_length_a   5.34564327
_cell_length_b   6.39063085
_cell_length_c   7.34896232
_cell_angle_alpha   63.97061494
_cell_angle_beta   104.86825587
_cell_angle_gamma   89.98804658
_symmetry_Int_Tables_number   1
_chemical_formula_structural   Zn2NiAg4TeO8
_chemical_formula_sum   'Zn2 Ni1 Ag4 Te1 O8'
_cell_volume   216.19029753
_cell_formula_units_Z   1
loop_
 _symmetry_equiv_pos_site_id
 _symmetry_equiv_pos_as_xyz
  1  'x, y, z'
loop_
 _atom_site_type_symbol
 _atom_site_label
 _atom_site_symmetry_multiplicity
 _atom_site_fract_x
 _atom_site_fract_y
 _atom_site_fract_z
 _atom_site_occupancy
  Zn  Zn0  1  0.000212  0.020670  0.499920  1
  Zn  Zn1  1  0.500045  0.249728  0.499997  1
  Ni  Ni2  1  0.999824  0.493412  0.500015  1
  Ag  Ag3  1  0.005274  0.003457  0.992477  1
  Ag  Ag4  1  0.498853  0.249244  0.999242  1
  Ag  Ag5  1  0.994736  0.496453  0.007540  1
  Ag  Ag6  1  0.500978  0.748553  0.000719  1
  Te  Te7  1  0.500025  0.747255  0.500024  1
  O  O8  1  0.869465  0.660499  0.666563  1
  O  O9  1  0.401993  0.888145  0.666651  1
  O  O10  1  0.883881  0.172711  0.662592  1
  O  O11  1  0.395519  0.439649  0.664985  1
  O  O12  1  0.130456  0.829489  0.333552  1
  O  O13  1  0.598228  0.056592  0.333559  1
  O  O14  1  0.116211  0.337480  0.337360  1
  O  O15  1  0.604305  0.606663  0.334806  1
