# generated using pymatgen
data_YEr7Re3B24Os
_symmetry_space_group_name_H-M   'P 1'
_cell_length_a   3.65482900
_cell_length_b   9.13088273
_cell_length_c   11.50850201
_cell_angle_alpha   90.07244281
_cell_angle_beta   90.00000000
_cell_angle_gamma   90.00000000
_symmetry_Int_Tables_number   1
_chemical_formula_structural   YEr7Re3B24Os
_chemical_formula_sum   'Y1 Er7 Re3 B24 Os1'
_cell_volume   384.05929274
_cell_formula_units_Z   1
loop_
 _symmetry_equiv_pos_site_id
 _symmetry_equiv_pos_as_xyz
  1  'x, y, z'
loop_
 _atom_site_type_symbol
 _atom_site_label
 _atom_site_symmetry_multiplicity
 _atom_site_fract_x
 _atom_site_fract_y
 _atom_site_fract_z
 _atom_site_occupancy
  Y  Y0  1  0.000000  0.321760  0.414212  1
  Er  Er1  1  0.000000  0.677485  0.587620  1
  Er  Er2  1  0.000000  0.824379  0.084432  1
  Er  Er3  1  0.000000  0.176574  0.913561  1
  Er  Er4  1  0.000000  0.942725  0.370117  1
  Er  Er5  1  0.000000  0.056245  0.629444  1
  Er  Er6  1  0.000000  0.442951  0.129556  1
  Er  Er7  1  0.000000  0.556813  0.870951  1
  Re  Re8  1  0.000000  0.362003  0.678538  1
  Re  Re9  1  0.000000  0.138337  0.179365  1
  Re  Re10  1  0.000000  0.861501  0.820891  1
  B  B11  1  0.500000  0.554244  0.433022  1
  B  B12  1  0.500000  0.447248  0.566905  1
  B  B13  1  0.500000  0.053049  0.066580  1
  B  B14  1  0.500000  0.946932  0.933256  1
  B  B15  1  0.500000  0.749162  0.418841  1
  B  B16  1  0.500000  0.250053  0.581333  1
  B  B17  1  0.500000  0.249636  0.080812  1
  B  B18  1  0.500000  0.750759  0.919165  1
  B  B19  1  0.500000  0.791525  0.265399  1
  B  B20  1  0.500000  0.207517  0.734547  1
  B  B21  1  0.500000  0.292183  0.234560  1
  B  B22  1  0.500000  0.707456  0.765657  1
  B  B23  1  0.500000  0.631454  0.185475  1
  B  B24  1  0.500000  0.369265  0.814448  1
  B  B25  1  0.500000  0.130836  0.314872  1
  B  B26  1  0.500000  0.868734  0.685312  1
  B  B27  1  0.500000  0.981992  0.211955  1
  B  B28  1  0.500000  0.017977  0.787785  1
  B  B29  1  0.500000  0.483435  0.287778  1
  B  B30  1  0.500000  0.518469  0.712121  1
  B  B31  1  0.500000  0.601578  0.028712  1
  B  B32  1  0.500000  0.398681  0.971967  1
  B  B33  1  0.500000  0.100215  0.471746  1
  B  B34  1  0.500000  0.897985  0.528105  1
  Os  Os35  1  0.000000  0.638844  0.320958  1
