# generated using pymatgen
data_Pr2LuMg3Ga2Hg
_symmetry_space_group_name_H-M   'P 1'
_cell_length_a   7.60346500
_cell_length_b   7.47852646
_cell_length_c   4.49128000
_cell_angle_alpha   90.00000000
_cell_angle_beta   90.00000000
_cell_angle_gamma   120.55420061
_symmetry_Int_Tables_number   1
_chemical_formula_structural   Pr2LuMg3Ga2Hg
_chemical_formula_sum   'Pr2 Lu1 Mg3 Ga2 Hg1'
_cell_volume   219.92562980
_cell_formula_units_Z   1
loop_
 _symmetry_equiv_pos_site_id
 _symmetry_equiv_pos_as_xyz
  1  'x, y, z'
loop_
 _atom_site_type_symbol
 _atom_site_label
 _atom_site_symmetry_multiplicity
 _atom_site_fract_x
 _atom_site_fract_y
 _atom_site_fract_z
 _atom_site_occupancy
  Pr  Pr0  1  0.002256  0.574766  0.000000  1
  Pr  Pr1  1  0.427490  0.425234  0.000000  1
  Lu  Lu2  1  0.575544  0.000000  0.000000  1
  Mg  Mg3  1  0.250217  0.000000  0.500000  1
  Mg  Mg4  1  0.997312  0.246129  0.500000  1
  Mg  Mg5  1  0.751182  0.753871  0.500000  1
  Ga  Ga6  1  0.341101  0.676432  0.500000  1
  Ga  Ga7  1  0.664670  0.323568  0.500000  1
  Hg  Hg8  1  0.990229  0.000000  0.000000  1
