# generated using pymatgen
data_Zr10Ga4Bi2P
_symmetry_space_group_name_H-M   'P 1'
_cell_length_a   5.72969892
_cell_length_b   8.42785122
_cell_length_c   8.43414282
_cell_angle_alpha   120.02137756
_cell_angle_beta   89.90628467
_cell_angle_gamma   90.04727451
_symmetry_Int_Tables_number   1
_chemical_formula_structural   Zr10Ga4Bi2P
_chemical_formula_sum   'Zr10 Ga4 Bi2 P1'
_cell_volume   352.63553140
_cell_formula_units_Z   1
loop_
 _symmetry_equiv_pos_site_id
 _symmetry_equiv_pos_as_xyz
  1  'x, y, z'
loop_
 _atom_site_type_symbol
 _atom_site_label
 _atom_site_symmetry_multiplicity
 _atom_site_fract_x
 _atom_site_fract_y
 _atom_site_fract_z
 _atom_site_occupancy
  Zr  Zr0  1  0.492444  0.318979  0.660402  1
  Zr  Zr1  1  0.492514  0.681095  0.341446  1
  Zr  Zr2  1  0.008337  0.680779  0.342350  1
  Zr  Zr3  1  0.008378  0.319271  0.661577  1
  Zr  Zr4  1  0.761803  0.237499  0.987086  1
  Zr  Zr5  1  0.761777  0.762415  0.749561  1
  Zr  Zr6  1  0.756831  0.999953  0.258523  1
  Zr  Zr7  1  0.244123  0.747099  0.999579  1
  Zr  Zr8  1  0.244108  0.252833  0.252523  1
  Zr  Zr9  1  0.240574  0.000070  0.744545  1
  Ga  Ga10  1  0.749649  0.000184  0.606441  1
  Ga  Ga11  1  0.249834  0.390136  0.003285  1
  Ga  Ga12  1  0.249830  0.609638  0.613312  1
  Ga  Ga13  1  0.248172  0.000201  0.387607  1
  Bi  Bi14  1  0.747445  0.601430  0.995415  1
  Bi  Bi15  1  0.747440  0.398433  0.394102  1
  P  P16  1  0.496742  0.999988  0.002249  1
