# generated using pymatgen
data_Er8Sc11Si16Hg
_symmetry_space_group_name_H-M   'P 1'
_cell_length_a   7.02111050
_cell_length_b   7.36965157
_cell_length_c   13.97364400
_cell_angle_alpha   90.00000000
_cell_angle_beta   90.00000000
_cell_angle_gamma   89.88642933
_symmetry_Int_Tables_number   1
_chemical_formula_structural   Er8Sc11Si16Hg
_chemical_formula_sum   'Er8 Sc11 Si16 Hg1'
_cell_volume   723.03876926
_cell_formula_units_Z   1
loop_
 _symmetry_equiv_pos_site_id
 _symmetry_equiv_pos_as_xyz
  1  'x, y, z'
loop_
 _atom_site_type_symbol
 _atom_site_label
 _atom_site_symmetry_multiplicity
 _atom_site_fract_x
 _atom_site_fract_y
 _atom_site_fract_z
 _atom_site_occupancy
  Er  Er0  1  0.010245  0.175180  0.096633  1
  Er  Er1  1  0.990343  0.816317  0.902424  1
  Er  Er2  1  0.485489  0.673660  0.902591  1
  Er  Er3  1  0.990343  0.816317  0.597576  1
  Er  Er4  1  0.510736  0.323605  0.096921  1
  Er  Er5  1  0.010245  0.175180  0.403367  1
  Er  Er6  1  0.510736  0.323605  0.403079  1
  Er  Er7  1  0.485489  0.673660  0.597409  1
  Sc  Sc8  1  0.837833  0.497329  0.250000  1
  Sc  Sc9  1  0.339796  0.004354  0.250000  1
  Sc  Sc10  1  0.657075  0.996855  0.750000  1
  Sc  Sc11  1  0.324958  0.182590  0.626206  1
  Sc  Sc12  1  0.671507  0.824145  0.374955  1
  Sc  Sc13  1  0.169236  0.680548  0.373344  1
  Sc  Sc14  1  0.671507  0.824145  0.125045  1
  Sc  Sc15  1  0.838594  0.325369  0.626029  1
  Sc  Sc16  1  0.324958  0.182590  0.873794  1
  Sc  Sc17  1  0.838594  0.325369  0.873971  1
  Sc  Sc18  1  0.169236  0.680548  0.126656  1
  Si  Si19  1  0.026257  0.091749  0.750000  1
  Si  Si20  1  0.968455  0.890026  0.250000  1
  Si  Si21  1  0.467131  0.616248  0.250000  1
  Si  Si22  1  0.543633  0.380464  0.750000  1
  Si  Si23  1  0.290676  0.884201  0.750000  1
  Si  Si24  1  0.713350  0.130522  0.250000  1
  Si  Si25  1  0.212732  0.371770  0.250000  1
  Si  Si26  1  0.769491  0.632584  0.750000  1
  Si  Si27  1  0.164055  0.459449  0.528309  1
  Si  Si28  1  0.841303  0.535790  0.461920  1
  Si  Si29  1  0.343385  0.966607  0.462290  1
  Si  Si30  1  0.841303  0.535790  0.038080  1
  Si  Si31  1  0.658134  0.033145  0.540415  1
  Si  Si32  1  0.164055  0.459449  0.971691  1
  Si  Si33  1  0.658134  0.033145  0.959585  1
  Si  Si34  1  0.343385  0.966607  0.037710  1
  Hg  Hg35  1  0.157601  0.511085  0.750000  1
