# generated using pymatgen
data_CaTbDy5Sn23Ir6
_symmetry_space_group_name_H-M   'P 1'
_cell_length_a   9.89934209
_cell_length_b   9.90038736
_cell_length_c   10.09358401
_cell_angle_alpha   89.99999878
_cell_angle_beta   89.99408244
_cell_angle_gamma   120.00349488
_symmetry_Int_Tables_number   1
_chemical_formula_structural   CaTbDy5Sn23Ir6
_chemical_formula_sum   'Ca1 Tb1 Dy5 Sn23 Ir6'
_cell_volume   856.68123546
_cell_formula_units_Z   1
loop_
 _symmetry_equiv_pos_site_id
 _symmetry_equiv_pos_as_xyz
  1  'x, y, z'
loop_
 _atom_site_type_symbol
 _atom_site_label
 _atom_site_symmetry_multiplicity
 _atom_site_fract_x
 _atom_site_fract_y
 _atom_site_fract_z
 _atom_site_occupancy
  Ca  Ca0  1  0.000123  0.000061  0.000106  1
  Tb  Tb1  1  0.961947  0.480972  0.693387  1
  Dy  Dy2  1  0.481470  0.518638  0.306357  1
  Dy  Dy3  1  0.518605  0.481465  0.693598  1
  Dy  Dy4  1  0.481470  0.962832  0.306357  1
  Dy  Dy5  1  0.518605  0.037140  0.693598  1
  Dy  Dy6  1  0.037192  0.518596  0.306311  1
  Sn  Sn7  1  0.352091  0.000275  0.000024  1
  Sn  Sn8  1  0.648004  0.999811  0.000051  1
  Sn  Sn9  1  0.000160  0.352025  0.000007  1
  Sn  Sn10  1  0.000160  0.648136  0.000007  1
  Sn  Sn11  1  0.648004  0.648191  0.000051  1
  Sn  Sn12  1  0.352091  0.351816  0.000024  1
  Sn  Sn13  1  0.333197  0.666598  0.824591  1
  Sn  Sn14  1  0.666751  0.333375  0.175484  1
  Sn  Sn15  1  0.000007  0.000004  0.499965  1
  Sn  Sn16  1  0.777897  0.221781  0.458326  1
  Sn  Sn17  1  0.222147  0.778195  0.541432  1
  Sn  Sn18  1  0.777897  0.556118  0.458326  1
  Sn  Sn19  1  0.222147  0.443950  0.541432  1
  Sn  Sn20  1  0.444023  0.222012  0.458470  1
  Sn  Sn21  1  0.556133  0.778066  0.541503  1
  Sn  Sn22  1  0.333260  0.666631  0.122000  1
  Sn  Sn23  1  0.665824  0.332912  0.878373  1
  Sn  Sn24  1  0.117690  0.882356  0.282718  1
  Sn  Sn25  1  0.882362  0.117391  0.717360  1
  Sn  Sn26  1  0.117690  0.235335  0.282718  1
  Sn  Sn27  1  0.882362  0.764970  0.717360  1
  Sn  Sn28  1  0.764044  0.882022  0.282722  1
  Sn  Sn29  1  0.236120  0.118060  0.717204  1
  Ir  Ir30  1  0.829739  0.170378  0.200511  1
  Ir  Ir31  1  0.170577  0.830025  0.799496  1
  Ir  Ir32  1  0.829739  0.659361  0.200511  1
  Ir  Ir33  1  0.170577  0.340551  0.799496  1
  Ir  Ir34  1  0.340811  0.170406  0.200703  1
  Ir  Ir35  1  0.659088  0.829544  0.799425  1
