# generated using pymatgen
data_Cr4CuNiS8
_symmetry_space_group_name_H-M   'P 1'
_cell_length_a   6.91470062
_cell_length_b   6.91470141
_cell_length_c   6.91470100
_cell_angle_alpha   59.99999715
_cell_angle_beta   59.99999341
_cell_angle_gamma   59.99999935
_symmetry_Int_Tables_number   1
_chemical_formula_structural   Cr4CuNiS8
_chemical_formula_sum   'Cr4 Cu1 Ni1 S8'
_cell_volume   233.77883337
_cell_formula_units_Z   1
loop_
 _symmetry_equiv_pos_site_id
 _symmetry_equiv_pos_as_xyz
  1  'x, y, z'
loop_
 _atom_site_type_symbol
 _atom_site_label
 _atom_site_symmetry_multiplicity
 _atom_site_fract_x
 _atom_site_fract_y
 _atom_site_fract_z
 _atom_site_occupancy
  Cr  Cr0  1  0.622593  0.125802  0.125802  1
  Cr  Cr1  1  0.125802  0.622593  0.125802  1
  Cr  Cr2  1  0.125802  0.125802  0.622593  1
  Cr  Cr3  1  0.125802  0.125802  0.125802  1
  Cu  Cu4  1  0.750000  0.750000  0.750000  1
  Ni  Ni5  1  0.500000  0.500000  0.500000  1
  S  S6  1  0.350180  0.883273  0.883273  1
  S  S7  1  0.883273  0.350180  0.883273  1
  S  S8  1  0.883273  0.883273  0.350180  1
  S  S9  1  0.883273  0.883273  0.883273  1
  S  S10  1  0.891331  0.369556  0.369556  1
  S  S11  1  0.369556  0.891331  0.369556  1
  S  S12  1  0.369556  0.369556  0.891331  1
  S  S13  1  0.369556  0.369556  0.369556  1
