# generated using pymatgen
data_ZrScTa3Ge4
_symmetry_space_group_name_H-M   'P 1'
_cell_length_a   7.02340080
_cell_length_b   7.02277248
_cell_length_c   12.93990035
_cell_angle_alpha   89.97500293
_cell_angle_beta   89.97891728
_cell_angle_gamma   89.88241057
_symmetry_Int_Tables_number   1
_chemical_formula_structural   ZrScTa3Ge4
_chemical_formula_sum   'Zr4 Sc4 Ta12 Ge16'
_cell_volume   638.24290851
_cell_formula_units_Z   4
loop_
 _symmetry_equiv_pos_site_id
 _symmetry_equiv_pos_as_xyz
  1  'x, y, z'
loop_
 _atom_site_type_symbol
 _atom_site_label
 _atom_site_symmetry_multiplicity
 _atom_site_fract_x
 _atom_site_fract_y
 _atom_site_fract_z
 _atom_site_occupancy
  Zr  Zr0  1  0.003881  0.661276  0.026530  1
  Zr  Zr1  1  0.839065  0.504340  0.277036  1
  Zr  Zr2  1  0.162165  0.497033  0.777432  1
  Zr  Zr3  1  0.503051  0.838120  0.722054  1
  Sc  Sc4  1  0.497682  0.162313  0.223213  1
  Sc  Sc5  1  0.996693  0.337915  0.525846  1
  Sc  Sc6  1  0.662786  0.002274  0.973654  1
  Sc  Sc7  1  0.338428  0.997264  0.473565  1
  Ta  Ta8  1  0.331775  0.334682  0.999028  1
  Ta  Ta9  1  0.165078  0.831480  0.248974  1
  Ta  Ta10  1  0.833590  0.166321  0.750129  1
  Ta  Ta11  1  0.666959  0.666930  0.499980  1
  Ta  Ta12  1  0.004737  0.157080  0.127074  1
  Ta  Ta13  1  0.342964  0.505630  0.376648  1
  Ta  Ta14  1  0.656699  0.496372  0.876133  1
  Ta  Ta15  1  0.505007  0.343899  0.624607  1
  Ta  Ta16  1  0.494631  0.656691  0.123466  1
  Ta  Ta17  1  0.994710  0.842643  0.628183  1
  Ta  Ta18  1  0.156370  0.004846  0.873140  1
  Ta  Ta19  1  0.842828  0.993324  0.372588  1
  Ge  Ge20  1  0.303949  0.966896  0.067144  1
  Ge  Ge21  1  0.532439  0.804454  0.317198  1
  Ge  Ge22  1  0.465487  0.197804  0.817671  1
  Ge  Ge23  1  0.802760  0.533948  0.681707  1
  Ge  Ge24  1  0.201061  0.461873  0.183755  1
  Ge  Ge25  1  0.699400  0.036704  0.565174  1
  Ge  Ge26  1  0.961440  0.298795  0.933993  1
  Ge  Ge27  1  0.036344  0.699039  0.434415  1
  Ge  Ge28  1  0.700241  0.363378  0.077256  1
  Ge  Ge29  1  0.136798  0.199757  0.327513  1
  Ge  Ge30  1  0.864461  0.797986  0.827732  1
  Ge  Ge31  1  0.201874  0.134871  0.671842  1
  Ge  Ge32  1  0.795975  0.866936  0.172785  1
  Ge  Ge33  1  0.297323  0.634730  0.576046  1
  Ge  Ge34  1  0.367216  0.704672  0.923254  1
  Ge  Ge35  1  0.634136  0.297724  0.423236  1
