# generated using pymatgen
data_Nd4YEr3(ReB6)4
_symmetry_space_group_name_H-M   'P 1'
_cell_length_a   3.72515100
_cell_length_b   9.24691200
_cell_length_c   11.70337200
_cell_angle_alpha   90.00086945
_cell_angle_beta   90.00000000
_cell_angle_gamma   90.00000000
_symmetry_Int_Tables_number   1
_chemical_formula_structural   Nd4YEr3(ReB6)4
_chemical_formula_sum   'Nd4 Y1 Er3 Re4 B24'
_cell_volume   403.13603113
_cell_formula_units_Z   1
loop_
 _symmetry_equiv_pos_site_id
 _symmetry_equiv_pos_as_xyz
  1  'x, y, z'
loop_
 _atom_site_type_symbol
 _atom_site_label
 _atom_site_symmetry_multiplicity
 _atom_site_fract_x
 _atom_site_fract_y
 _atom_site_fract_z
 _atom_site_occupancy
  Nd  Nd0  1  0.000000  0.322568  0.414552  1
  Nd  Nd1  1  0.000000  0.677261  0.585608  1
  Nd  Nd2  1  0.000000  0.822438  0.085333  1
  Nd  Nd3  1  0.000000  0.177626  0.914462  1
  Y  Y4  1  0.000000  0.942814  0.369883  1
  Er  Er5  1  0.000000  0.057583  0.631282  1
  Er  Er6  1  0.000000  0.442646  0.130321  1
  Er  Er7  1  0.000000  0.557493  0.869335  1
  Re  Re8  1  0.000000  0.638398  0.318746  1
  Re  Re9  1  0.000000  0.360711  0.681253  1
  Re  Re10  1  0.000000  0.139908  0.180425  1
  Re  Re11  1  0.000000  0.860555  0.819143  1
  B  B12  1  0.500000  0.554441  0.430271  1
  B  B13  1  0.500000  0.444793  0.569794  1
  B  B14  1  0.500000  0.055197  0.069308  1
  B  B15  1  0.500000  0.944985  0.930351  1
  B  B16  1  0.500000  0.748825  0.415389  1
  B  B17  1  0.500000  0.249986  0.584763  1
  B  B18  1  0.500000  0.250297  0.084227  1
  B  B19  1  0.500000  0.749922  0.915478  1
  B  B20  1  0.500000  0.790590  0.265289  1
  B  B21  1  0.500000  0.208786  0.734518  1
  B  B22  1  0.500000  0.291821  0.234056  1
  B  B23  1  0.500000  0.708613  0.765719  1
  B  B24  1  0.500000  0.628775  0.185563  1
  B  B25  1  0.500000  0.370998  0.814203  1
  B  B26  1  0.500000  0.129936  0.313642  1
  B  B27  1  0.500000  0.870872  0.686088  1
  B  B28  1  0.500000  0.983981  0.212660  1
  B  B29  1  0.500000  0.016420  0.786893  1
  B  B30  1  0.500000  0.483171  0.286453  1
  B  B31  1  0.500000  0.516536  0.713325  1
  B  B32  1  0.500000  0.595486  0.026226  1
  B  B33  1  0.500000  0.404624  0.973460  1
  B  B34  1  0.500000  0.096562  0.474489  1
  B  B35  1  0.500000  0.904382  0.527492  1
