# generated using pymatgen
data_YTi2Fe9
_symmetry_space_group_name_H-M   'P 1'
_cell_length_a   8.18624400
_cell_length_b   8.18624400
_cell_length_c   4.89289600
_cell_angle_alpha   90.00000000
_cell_angle_beta   90.00000000
_cell_angle_gamma   90.00000000
_symmetry_Int_Tables_number   1
_chemical_formula_structural   YTi2Fe9
_chemical_formula_sum   'Y2 Ti4 Fe18'
_cell_volume   327.89542340
_cell_formula_units_Z   2
loop_
 _symmetry_equiv_pos_site_id
 _symmetry_equiv_pos_as_xyz
  1  'x, y, z'
loop_
 _atom_site_type_symbol
 _atom_site_label
 _atom_site_symmetry_multiplicity
 _atom_site_fract_x
 _atom_site_fract_y
 _atom_site_fract_z
 _atom_site_occupancy
  Y  Y0  1  0.000000  0.000000  0.000000  1
  Y  Y1  1  0.500000  0.500000  0.000000  1
  Ti  Ti2  1  0.378755  0.121245  0.000000  1
  Ti  Ti3  1  0.878755  0.378755  0.000000  1
  Ti  Ti4  1  0.121245  0.621245  0.000000  1
  Ti  Ti5  1  0.621245  0.878755  0.000000  1
  Fe  Fe6  1  0.677077  0.177077  0.239079  1
  Fe  Fe7  1  0.177077  0.322923  0.239079  1
  Fe  Fe8  1  0.822923  0.677077  0.239079  1
  Fe  Fe9  1  0.322923  0.822923  0.239079  1
  Fe  Fe10  1  0.500000  0.000000  0.499999  1
  Fe  Fe11  1  0.212353  0.066578  0.499999  1
  Fe  Fe12  1  0.933422  0.212353  0.499999  1
  Fe  Fe13  1  0.433422  0.287648  0.499999  1
  Fe  Fe14  1  0.712353  0.433422  0.499999  1
  Fe  Fe15  1  0.000000  0.500000  0.499999  1
  Fe  Fe16  1  0.287648  0.566578  0.499999  1
  Fe  Fe17  1  0.566578  0.712353  0.499999  1
  Fe  Fe18  1  0.066578  0.787648  0.499999  1
  Fe  Fe19  1  0.787648  0.933422  0.499999  1
  Fe  Fe20  1  0.677077  0.177077  0.760921  1
  Fe  Fe21  1  0.177077  0.322923  0.760921  1
  Fe  Fe22  1  0.822923  0.677077  0.760921  1
  Fe  Fe23  1  0.322923  0.822923  0.760921  1
