# generated using pymatgen
data_Tb7Dy12HoPb16
_symmetry_space_group_name_H-M   'P 1'
_cell_length_a   8.23252592
_cell_length_b   8.31347743
_cell_length_c   15.68436341
_cell_angle_alpha   89.99347745
_cell_angle_beta   90.03455385
_cell_angle_gamma   89.89593192
_symmetry_Int_Tables_number   1
_chemical_formula_structural   Tb7Dy12HoPb16
_chemical_formula_sum   'Tb7 Dy12 Ho1 Pb16'
_cell_volume   1073.45026385
_cell_formula_units_Z   1
loop_
 _symmetry_equiv_pos_site_id
 _symmetry_equiv_pos_as_xyz
  1  'x, y, z'
loop_
 _atom_site_type_symbol
 _atom_site_label
 _atom_site_symmetry_multiplicity
 _atom_site_fract_x
 _atom_site_fract_y
 _atom_site_fract_z
 _atom_site_occupancy
  Tb  Tb0  1  0.034956  0.176638  0.599975  1
  Tb  Tb1  1  0.464583  0.676154  0.400258  1
  Tb  Tb2  1  0.964699  0.823674  0.099720  1
  Tb  Tb3  1  0.464463  0.675914  0.099768  1
  Tb  Tb4  1  0.965116  0.823437  0.400358  1
  Tb  Tb5  1  0.534958  0.323604  0.599881  1
  Tb  Tb6  1  0.035061  0.176654  0.900305  1
  Dy  Dy7  1  0.376365  0.841688  0.878625  1
  Dy  Dy8  1  0.875532  0.657834  0.621037  1
  Dy  Dy9  1  0.623608  0.158163  0.378624  1
  Dy  Dy10  1  0.123828  0.341855  0.120755  1
  Dy  Dy11  1  0.623196  0.158199  0.121151  1
  Dy  Dy12  1  0.124258  0.341965  0.379147  1
  Dy  Dy13  1  0.376317  0.841974  0.621636  1
  Dy  Dy14  1  0.876096  0.658113  0.879113  1
  Dy  Dy15  1  0.536785  0.324550  0.899588  1
  Dy  Dy16  1  0.208303  0.504254  0.750209  1
  Dy  Dy17  1  0.708470  0.995851  0.750179  1
  Dy  Dy18  1  0.791640  0.495606  0.249816  1
  Ho  Ho19  1  0.291153  0.004233  0.249935  1
  Pb  Pb20  1  0.282662  0.033850  0.042882  1
  Pb  Pb21  1  0.782285  0.465201  0.457153  1
  Pb  Pb22  1  0.717402  0.966001  0.543043  1
  Pb  Pb23  1  0.219029  0.533735  0.956787  1
  Pb  Pb24  1  0.716790  0.966622  0.956925  1
  Pb  Pb25  1  0.217418  0.534869  0.543043  1
  Pb  Pb26  1  0.282715  0.034148  0.457199  1
  Pb  Pb27  1  0.781755  0.464653  0.042278  1
  Pb  Pb28  1  0.571575  0.625666  0.750014  1
  Pb  Pb29  1  0.071085  0.873642  0.750019  1
  Pb  Pb30  1  0.428578  0.373994  0.249795  1
  Pb  Pb31  1  0.928928  0.126490  0.249966  1
  Pb  Pb32  1  0.347178  0.153968  0.750601  1
  Pb  Pb33  1  0.846484  0.347032  0.750223  1
  Pb  Pb34  1  0.653183  0.846620  0.250043  1
  Pb  Pb35  1  0.153542  0.653149  0.249952  1
