# generated using pymatgen
data_Dy2Be2AlIr5
_symmetry_space_group_name_H-M   'P 1'
_cell_length_a   9.63045500
_cell_length_b   9.63045500
_cell_length_c   3.22081900
_cell_angle_alpha   90.00000000
_cell_angle_beta   90.00000000
_cell_angle_gamma   90.00000000
_symmetry_Int_Tables_number   1
_chemical_formula_structural   Dy2Be2AlIr5
_chemical_formula_sum   'Dy4 Be4 Al2 Ir10'
_cell_volume   298.71699519
_cell_formula_units_Z   2
loop_
 _symmetry_equiv_pos_site_id
 _symmetry_equiv_pos_as_xyz
  1  'x, y, z'
loop_
 _atom_site_type_symbol
 _atom_site_label
 _atom_site_symmetry_multiplicity
 _atom_site_fract_x
 _atom_site_fract_y
 _atom_site_fract_z
 _atom_site_occupancy
  Dy  Dy0  1  0.676248  0.176248  0.000000  1
  Dy  Dy1  1  0.323752  0.823752  0.000000  1
  Dy  Dy2  1  0.176248  0.323752  0.000000  1
  Dy  Dy3  1  0.823752  0.676248  0.000000  1
  Be  Be4  1  0.122948  0.622948  0.000000  1
  Be  Be5  1  0.877052  0.377052  0.000000  1
  Be  Be6  1  0.622948  0.877052  0.000000  1
  Be  Be7  1  0.377052  0.122948  0.000000  1
  Al  Al8  1  0.000000  0.000000  0.000000  1
  Al  Al9  1  0.500000  0.500000  0.000000  1
  Ir  Ir10  1  0.211299  0.066291  0.500000  1
  Ir  Ir11  1  0.788701  0.933709  0.500000  1
  Ir  Ir12  1  0.066291  0.788701  0.500000  1
  Ir  Ir13  1  0.711299  0.433709  0.500000  1
  Ir  Ir14  1  0.933709  0.211299  0.500000  1
  Ir  Ir15  1  0.288701  0.566291  0.500000  1
  Ir  Ir16  1  0.566291  0.711299  0.500000  1
  Ir  Ir17  1  0.433709  0.288701  0.500000  1
  Ir  Ir18  1  0.500000  0.000000  0.500000  1
  Ir  Ir19  1  0.000000  0.500000  0.500000  1
