# generated using pymatgen
data_Tb7UTa4(NbSi2)8
_symmetry_space_group_name_H-M   'P 1'
_cell_length_a   7.05586319
_cell_length_b   7.06472426
_cell_length_c   13.08368374
_cell_angle_alpha   89.97059547
_cell_angle_beta   89.97503577
_cell_angle_gamma   90.00915076
_symmetry_Int_Tables_number   1
_chemical_formula_structural   Tb7UTa4(NbSi2)8
_chemical_formula_sum   'Tb7 U1 Ta4 Nb8 Si16'
_cell_volume   652.19174987
_cell_formula_units_Z   1
loop_
 _symmetry_equiv_pos_site_id
 _symmetry_equiv_pos_as_xyz
  1  'x, y, z'
loop_
 _atom_site_type_symbol
 _atom_site_label
 _atom_site_symmetry_multiplicity
 _atom_site_fract_x
 _atom_site_fract_y
 _atom_site_fract_z
 _atom_site_occupancy
  Tb  Tb0  1  0.996906  0.338017  0.218104  1
  Tb  Tb1  1  0.001602  0.660887  0.717060  1
  Tb  Tb2  1  0.160825  0.499241  0.467324  1
  Tb  Tb3  1  0.501377  0.839550  0.032323  1
  Tb  Tb4  1  0.840186  0.501974  0.967684  1
  Tb  Tb5  1  0.498833  0.160113  0.532040  1
  Tb  Tb6  1  0.339504  0.997065  0.782420  1
  U  U7  1  0.660363  0.999910  0.283577  1
  Ta  Ta8  1  0.169844  0.170304  0.999732  1
  Ta  Ta9  1  0.827897  0.832618  0.497483  1
  Ta  Ta10  1  0.334244  0.673570  0.250917  1
  Ta  Ta11  1  0.670659  0.330365  0.749842  1
  Nb  Nb12  1  0.153641  0.991887  0.374854  1
  Nb  Nb13  1  0.845138  0.007588  0.875861  1
  Nb  Nb14  1  0.507297  0.654339  0.624996  1
  Nb  Nb15  1  0.344965  0.492034  0.874895  1
  Nb  Nb16  1  0.495335  0.341767  0.127158  1
  Nb  Nb17  1  0.654169  0.504867  0.374138  1
  Nb  Nb18  1  0.991139  0.156098  0.624494  1
  Nb  Nb19  1  0.004589  0.848519  0.126495  1
  Si  Si20  1  0.295477  0.042548  0.185372  1
  Si  Si21  1  0.706196  0.956599  0.686327  1
  Si  Si22  1  0.457663  0.795166  0.436362  1
  Si  Si23  1  0.206808  0.543442  0.064580  1
  Si  Si24  1  0.542983  0.206216  0.936328  1
  Si  Si25  1  0.794664  0.458235  0.562790  1
  Si  Si26  1  0.043152  0.294770  0.813276  1
  Si  Si27  1  0.956363  0.704738  0.313596  1
  Si  Si28  1  0.370028  0.292815  0.316726  1
  Si  Si29  1  0.632292  0.702022  0.816177  1
  Si  Si30  1  0.202973  0.868964  0.566208  1
  Si  Si31  1  0.130758  0.796826  0.934225  1
  Si  Si32  1  0.794995  0.131145  0.067546  1
  Si  Si33  1  0.867564  0.204332  0.432348  1
  Si  Si34  1  0.296704  0.368272  0.683342  1
  Si  Si35  1  0.702868  0.633195  0.183400  1
