# generated using pymatgen
data_TbTh3(Pd3Pt)3
_symmetry_space_group_name_H-M   'P 1'
_cell_length_a   5.91699000
_cell_length_b   5.92873348
_cell_length_c   9.77229988
_cell_angle_alpha   90.18987495
_cell_angle_beta   90.00000000
_cell_angle_gamma   119.93449814
_symmetry_Int_Tables_number   1
_chemical_formula_structural   TbTh3(Pd3Pt)3
_chemical_formula_sum   'Tb1 Th3 Pd9 Pt3'
_cell_volume   297.07990627
_cell_formula_units_Z   1
loop_
 _symmetry_equiv_pos_site_id
 _symmetry_equiv_pos_as_xyz
  1  'x, y, z'
loop_
 _atom_site_type_symbol
 _atom_site_label
 _atom_site_symmetry_multiplicity
 _atom_site_fract_x
 _atom_site_fract_y
 _atom_site_fract_z
 _atom_site_occupancy
  Tb  Tb0  1  0.000000  0.000000  0.500000  1
  Th  Th1  1  0.000000  0.000000  0.000000  1
  Th  Th2  1  0.333363  0.666728  0.253935  1
  Th  Th3  1  0.666637  0.333272  0.746065  1
  Pd  Pd4  1  0.500000  0.500000  0.500000  1
  Pd  Pd5  1  0.000000  0.500000  0.500000  1
  Pd  Pd6  1  0.500000  0.000000  0.000000  1
  Pd  Pd7  1  0.825906  0.651813  0.250062  1
  Pd  Pd8  1  0.348304  0.174165  0.250938  1
  Pd  Pd9  1  0.825861  0.174165  0.250938  1
  Pd  Pd10  1  0.174094  0.348187  0.749938  1
  Pd  Pd11  1  0.651696  0.825835  0.749062  1
  Pd  Pd12  1  0.174139  0.825835  0.749062  1
  Pt  Pt13  1  0.500000  0.000000  0.500000  1
  Pt  Pt14  1  0.500000  0.500000  0.000000  1
  Pt  Pt15  1  0.000000  0.500000  0.000000  1
