# generated using pymatgen
data_Gd6Ga3CuNi12
_symmetry_space_group_name_H-M   'P 1'
_cell_length_a   7.73687012
_cell_length_b   7.73687043
_cell_length_c   7.73687000
_cell_angle_alpha   109.47122213
_cell_angle_beta   109.47122294
_cell_angle_gamma   109.47122123
_symmetry_Int_Tables_number   1
_chemical_formula_structural   Gd6Ga3CuNi12
_chemical_formula_sum   'Gd6 Ga3 Cu1 Ni12'
_cell_volume   356.51188746
_cell_formula_units_Z   1
loop_
 _symmetry_equiv_pos_site_id
 _symmetry_equiv_pos_as_xyz
  1  'x, y, z'
loop_
 _atom_site_type_symbol
 _atom_site_label
 _atom_site_symmetry_multiplicity
 _atom_site_fract_x
 _atom_site_fract_y
 _atom_site_fract_z
 _atom_site_occupancy
  Gd  Gd0  1  0.710359  0.710359  0.000000  1
  Gd  Gd1  1  0.289641  0.000000  0.289641  1
  Gd  Gd2  1  0.000000  0.289641  0.289641  1
  Gd  Gd3  1  0.289641  0.289641  0.000000  1
  Gd  Gd4  1  0.710359  0.000000  0.710359  1
  Gd  Gd5  1  0.000000  0.710359  0.710359  1
  Ga  Ga6  1  0.000000  0.000000  0.500000  1
  Ga  Ga7  1  0.000000  0.500000  0.000000  1
  Ga  Ga8  1  0.500000  0.000000  0.000000  1
  Cu  Cu9  1  0.500000  0.500000  0.500000  1
  Ni  Ni10  1  0.338606  0.338606  0.677211  1
  Ni  Ni11  1  0.661394  0.000000  0.338606  1
  Ni  Ni12  1  0.000000  0.661394  0.338606  1
  Ni  Ni13  1  0.661394  0.338606  0.000000  1
  Ni  Ni14  1  0.338606  0.677211  0.338606  1
  Ni  Ni15  1  0.000000  0.338606  0.661394  1
  Ni  Ni16  1  0.338606  0.661394  0.000000  1
  Ni  Ni17  1  0.338606  0.000000  0.661394  1
  Ni  Ni18  1  0.677211  0.338606  0.338606  1
  Ni  Ni19  1  0.661394  0.661394  0.322789  1
  Ni  Ni20  1  0.661394  0.322789  0.661394  1
  Ni  Ni21  1  0.322789  0.661394  0.661394  1
