# generated using pymatgen
data_Pr3MgAlSe7
_symmetry_space_group_name_H-M   'P 1'
_cell_length_a   10.54032700
_cell_length_b   10.54032680
_cell_length_c   6.51273300
_cell_angle_alpha   90.00000000
_cell_angle_beta   90.00000000
_cell_angle_gamma   119.99999750
_symmetry_Int_Tables_number   1
_chemical_formula_structural   Pr3MgAlSe7
_chemical_formula_sum   'Pr6 Mg2 Al2 Se14'
_cell_volume   626.61686175
_cell_formula_units_Z   2
loop_
 _symmetry_equiv_pos_site_id
 _symmetry_equiv_pos_as_xyz
  1  'x, y, z'
loop_
 _atom_site_type_symbol
 _atom_site_label
 _atom_site_symmetry_multiplicity
 _atom_site_fract_x
 _atom_site_fract_y
 _atom_site_fract_z
 _atom_site_occupancy
  Pr  Pr0  1  0.770126  0.147161  0.737319  1
  Pr  Pr1  1  0.377035  0.229874  0.737319  1
  Pr  Pr2  1  0.852839  0.622965  0.737319  1
  Pr  Pr3  1  0.229874  0.852839  0.237319  1
  Pr  Pr4  1  0.622965  0.770126  0.237319  1
  Pr  Pr5  1  0.147161  0.377035  0.237319  1
  Mg  Mg6  1  0.000000  0.000000  0.542072  1
  Mg  Mg7  1  0.000000  0.000000  0.042072  1
  Al  Al8  1  0.666667  0.333333  0.155017  1
  Al  Al9  1  0.333333  0.666667  0.655017  1
  Se  Se10  1  0.855436  0.097444  0.305024  1
  Se  Se11  1  0.242007  0.144564  0.305024  1
  Se  Se12  1  0.902556  0.757993  0.305024  1
  Se  Se13  1  0.144564  0.902556  0.805024  1
  Se  Se14  1  0.757993  0.855436  0.805024  1
  Se  Se15  1  0.097444  0.242007  0.805024  1
  Se  Se16  1  0.905229  0.423539  0.006219  1
  Se  Se17  1  0.518310  0.094771  0.006219  1
  Se  Se18  1  0.576461  0.481690  0.006219  1
  Se  Se19  1  0.094771  0.576461  0.506219  1
  Se  Se20  1  0.481690  0.905229  0.506219  1
  Se  Se21  1  0.423539  0.518310  0.506219  1
  Se  Se22  1  0.666667  0.333333  0.521280  1
  Se  Se23  1  0.333333  0.666667  0.021280  1
