# generated using pymatgen
data_Lu2PaCo2Os
_symmetry_space_group_name_H-M   'P 1'
_cell_length_a   5.04716333
_cell_length_b   5.04716433
_cell_length_c   5.33575357
_cell_angle_alpha   66.00333618
_cell_angle_beta   66.00333182
_cell_angle_gamma   66.05345034
_symmetry_Int_Tables_number   1
_chemical_formula_structural   Lu2PaCo2Os
_chemical_formula_sum   'Lu2 Pa1 Co2 Os1'
_cell_volume   108.63025615
_cell_formula_units_Z   1
loop_
 _symmetry_equiv_pos_site_id
 _symmetry_equiv_pos_as_xyz
  1  'x, y, z'
loop_
 _atom_site_type_symbol
 _atom_site_label
 _atom_site_symmetry_multiplicity
 _atom_site_fract_x
 _atom_site_fract_y
 _atom_site_fract_z
 _atom_site_occupancy
  Lu  Lu0  1  0.622637  0.622637  0.633465  1
  Lu  Lu1  1  0.377363  0.377363  0.366535  1
  Pa  Pa2  1  0.000000  0.000000  0.000000  1
  Co  Co3  1  0.000000  0.500000  0.000000  1
  Co  Co4  1  0.500000  0.000000  0.000000  1
  Os  Os5  1  0.000000  0.000000  0.500000  1
