# generated using pymatgen
data_AcIrBr
_symmetry_space_group_name_H-M   'P 1'
_cell_length_a   4.45963400
_cell_length_b   4.45963408
_cell_length_c   12.32509000
_cell_angle_alpha   90.00000000
_cell_angle_beta   90.00000000
_cell_angle_gamma   119.99998461
_symmetry_Int_Tables_number   1
_chemical_formula_structural   AcIrBr
_chemical_formula_sum   'Ac2 Ir2 Br2'
_cell_volume   212.28496736
_cell_formula_units_Z   2
loop_
 _symmetry_equiv_pos_site_id
 _symmetry_equiv_pos_as_xyz
  1  'x, y, z'
loop_
 _atom_site_type_symbol
 _atom_site_label
 _atom_site_symmetry_multiplicity
 _atom_site_fract_x
 _atom_site_fract_y
 _atom_site_fract_z
 _atom_site_occupancy
  Ac  Ac0  1  0.000000  0.000000  0.162225  1
  Ac  Ac1  1  0.000000  0.000000  0.837775  1
  Ir  Ir2  1  0.333333  0.666667  0.002532  1
  Ir  Ir3  1  0.666667  0.333333  0.997468  1
  Br  Br4  1  0.333333  0.666667  0.677740  1
  Br  Br5  1  0.666667  0.333333  0.322260  1
