# generated using pymatgen
data_LiGa2Co3O8
_symmetry_space_group_name_H-M   'P 1'
_cell_length_a   5.78074731
_cell_length_b   5.78074682
_cell_length_c   5.78074610
_cell_angle_alpha   59.61677835
_cell_angle_beta   59.61677776
_cell_angle_gamma   59.61676794
_symmetry_Int_Tables_number   1
_chemical_formula_structural   LiGa2Co3O8
_chemical_formula_sum   'Li1 Ga2 Co3 O8'
_cell_volume   135.40597586
_cell_formula_units_Z   1
loop_
 _symmetry_equiv_pos_site_id
 _symmetry_equiv_pos_as_xyz
  1  'x, y, z'
loop_
 _atom_site_type_symbol
 _atom_site_label
 _atom_site_symmetry_multiplicity
 _atom_site_fract_x
 _atom_site_fract_y
 _atom_site_fract_z
 _atom_site_occupancy
  Li  Li0  1  0.878850  0.878850  0.878850  1
  Ga  Ga1  1  0.502504  0.502504  0.502504  1
  Ga  Ga2  1  0.123121  0.123121  0.123121  1
  Co  Co3  1  0.502391  0.502391  0.990560  1
  Co  Co4  1  0.990560  0.502391  0.502391  1
  Co  Co5  1  0.502391  0.990560  0.502391  1
  O  O6  1  0.286830  0.742622  0.742622  1
  O  O7  1  0.735400  0.735400  0.735400  1
  O  O8  1  0.742622  0.286830  0.742622  1
  O  O9  1  0.742622  0.742622  0.286830  1
  O  O10  1  0.256526  0.256526  0.721367  1
  O  O11  1  0.256526  0.721367  0.256526  1
  O  O12  1  0.721367  0.256526  0.256526  1
  O  O13  1  0.258290  0.258290  0.258290  1
