# generated using pymatgen
data_Tb2Sm2ErSn4
_symmetry_space_group_name_H-M   'P 1'
_cell_length_a   8.08006900
_cell_length_b   8.24153100
_cell_length_c   15.58450900
_cell_angle_alpha   90.00000000
_cell_angle_beta   90.00000000
_cell_angle_gamma   90.00000000
_symmetry_Int_Tables_number   1
_chemical_formula_structural   Tb2Sm2ErSn4
_chemical_formula_sum   'Tb8 Sm8 Er4 Sn16'
_cell_volume   1037.80579184
_cell_formula_units_Z   4
loop_
 _symmetry_equiv_pos_site_id
 _symmetry_equiv_pos_as_xyz
  1  'x, y, z'
loop_
 _atom_site_type_symbol
 _atom_site_label
 _atom_site_symmetry_multiplicity
 _atom_site_fract_x
 _atom_site_fract_y
 _atom_site_fract_z
 _atom_site_occupancy
  Tb  Tb0  1  0.365539  0.835875  0.877799  1
  Tb  Tb1  1  0.865539  0.664125  0.622201  1
  Tb  Tb2  1  0.634461  0.164125  0.377799  1
  Tb  Tb3  1  0.134461  0.335875  0.122201  1
  Tb  Tb4  1  0.634461  0.164125  0.122201  1
  Tb  Tb5  1  0.134461  0.335875  0.377799  1
  Tb  Tb6  1  0.365539  0.835875  0.622201  1
  Tb  Tb7  1  0.865539  0.664125  0.877799  1
  Sm  Sm8  1  0.518413  0.320915  0.902423  1
  Sm  Sm9  1  0.018413  0.179085  0.597577  1
  Sm  Sm10  1  0.481587  0.679085  0.402423  1
  Sm  Sm11  1  0.981587  0.820915  0.097577  1
  Sm  Sm12  1  0.481587  0.679085  0.097577  1
  Sm  Sm13  1  0.981587  0.820915  0.402423  1
  Sm  Sm14  1  0.518413  0.320915  0.597577  1
  Sm  Sm15  1  0.018413  0.179085  0.902423  1
  Er  Er16  1  0.197894  0.502790  0.750000  1
  Er  Er17  1  0.697894  0.997210  0.750000  1
  Er  Er18  1  0.802106  0.497210  0.250000  1
  Er  Er19  1  0.302106  0.002790  0.250000  1
  Sn  Sn20  1  0.296797  0.037568  0.042144  1
  Sn  Sn21  1  0.796797  0.462432  0.457856  1
  Sn  Sn22  1  0.703203  0.962432  0.542144  1
  Sn  Sn23  1  0.203203  0.537568  0.957856  1
  Sn  Sn24  1  0.703203  0.962432  0.957856  1
  Sn  Sn25  1  0.203203  0.537568  0.542144  1
  Sn  Sn26  1  0.296797  0.037568  0.457856  1
  Sn  Sn27  1  0.796797  0.462432  0.042144  1
  Sn  Sn28  1  0.563686  0.620527  0.750000  1
  Sn  Sn29  1  0.063686  0.879473  0.750000  1
  Sn  Sn30  1  0.436314  0.379473  0.250000  1
  Sn  Sn31  1  0.936314  0.120527  0.250000  1
  Sn  Sn32  1  0.326975  0.145599  0.750000  1
  Sn  Sn33  1  0.826975  0.354401  0.750000  1
  Sn  Sn34  1  0.673025  0.854401  0.250000  1
  Sn  Sn35  1  0.173025  0.645599  0.250000  1
