# generated using pymatgen
data_AlSbSeCl4
_symmetry_space_group_name_H-M   'P 1'
_cell_length_a   10.31440556
_cell_length_b   10.31440480
_cell_length_c   10.31440556
_cell_angle_alpha   107.62580944
_cell_angle_beta   107.62580830
_cell_angle_gamma   113.22865735
_symmetry_Int_Tables_number   1
_chemical_formula_structural   AlSbSeCl4
_chemical_formula_sum   'Al4 Sb4 Se4 Cl16'
_cell_volume   841.97230302
_cell_formula_units_Z   4
loop_
 _symmetry_equiv_pos_site_id
 _symmetry_equiv_pos_as_xyz
  1  'x, y, z'
loop_
 _atom_site_type_symbol
 _atom_site_label
 _atom_site_symmetry_multiplicity
 _atom_site_fract_x
 _atom_site_fract_y
 _atom_site_fract_z
 _atom_site_occupancy
  Al  Al0  1  0.591594  0.711255  0.729537  1
  Al  Al1  1  0.137943  0.408406  0.119661  1
  Al  Al2  1  0.981718  0.862057  0.270463  1
  Al  Al3  1  0.288745  0.018282  0.880339  1
  Sb  Sb4  1  0.809756  0.217420  0.289363  1
  Sb  Sb5  1  0.782580  0.071944  0.592337  1
  Sb  Sb6  1  0.928056  0.520393  0.710637  1
  Sb  Sb7  1  0.479607  0.190244  0.407663  1
  Se  Se8  1  0.020127  0.321409  0.586931  1
  Se  Se9  1  0.734479  0.433198  0.413069  1
  Se  Se10  1  0.566802  0.979873  0.301282  1
  Se  Se11  1  0.678591  0.265521  0.698718  1
  Cl  Cl12  1  0.835549  0.820996  0.384773  1
  Cl  Cl13  1  0.509664  0.813371  0.587429  1
  Cl  Cl14  1  0.822704  0.766559  0.742605  1
  Cl  Cl15  1  0.179004  0.563778  0.014553  1
  Cl  Cl16  1  0.549224  0.164451  0.985447  1
  Cl  Cl17  1  0.919900  0.177296  0.943855  1
  Cl  Cl18  1  0.023955  0.080100  0.257395  1
  Cl  Cl19  1  0.233441  0.976045  0.056145  1
  Cl  Cl20  1  0.225943  0.922235  0.412571  1
  Cl  Cl21  1  0.077765  0.490336  0.303708  1
  Cl  Cl22  1  0.191022  0.135194  0.784820  1
  Cl  Cl23  1  0.350374  0.406202  0.215180  1
  Cl  Cl24  1  0.186629  0.774057  0.696292  1
  Cl  Cl25  1  0.864806  0.649626  0.055828  1
  Cl  Cl26  1  0.436222  0.450776  0.615227  1
  Cl  Cl27  1  0.593798  0.808978  0.944172  1
