# generated using pymatgen
data_NdYTm(Co3P2)3
_symmetry_space_group_name_H-M   'P 1'
_cell_length_a   3.70956600
_cell_length_b   10.52678100
_cell_length_c   12.20356500
_cell_angle_alpha   90.00000000
_cell_angle_beta   90.00000000
_cell_angle_gamma   90.00000000
_symmetry_Int_Tables_number   1
_chemical_formula_structural   NdYTm(Co3P2)3
_chemical_formula_sum   'Nd2 Y2 Tm2 Co18 P12'
_cell_volume   476.54663692
_cell_formula_units_Z   2
loop_
 _symmetry_equiv_pos_site_id
 _symmetry_equiv_pos_as_xyz
  1  'x, y, z'
loop_
 _atom_site_type_symbol
 _atom_site_label
 _atom_site_symmetry_multiplicity
 _atom_site_fract_x
 _atom_site_fract_y
 _atom_site_fract_z
 _atom_site_occupancy
  Nd  Nd0  1  0.000000  0.500000  0.522733  1
  Nd  Nd1  1  0.500000  0.000000  0.478327  1
  Y  Y2  1  0.500000  0.817449  0.204675  1
  Y  Y3  1  0.500000  0.182551  0.204675  1
  Tm  Tm4  1  0.000000  0.681959  0.795037  1
  Tm  Tm5  1  0.000000  0.318041  0.795037  1
  Co  Co6  1  0.500000  0.500000  0.156152  1
  Co  Co7  1  0.000000  0.000000  0.843541  1
  Co  Co8  1  0.500000  0.500000  0.706722  1
  Co  Co9  1  0.000000  0.000000  0.293615  1
  Co  Co10  1  0.000000  0.500000  0.985216  1
  Co  Co11  1  0.500000  0.000000  0.011984  1
  Co  Co12  1  0.500000  0.333733  0.993808  1
  Co  Co13  1  0.500000  0.666267  0.993808  1
  Co  Co14  1  0.000000  0.167316  0.003907  1
  Co  Co15  1  0.000000  0.832684  0.003907  1
  Co  Co16  1  0.500000  0.296906  0.429912  1
  Co  Co17  1  0.500000  0.703094  0.429912  1
  Co  Co18  1  0.000000  0.203524  0.572380  1
  Co  Co19  1  0.000000  0.796476  0.572380  1
  Co  Co20  1  0.500000  0.878916  0.713380  1
  Co  Co21  1  0.500000  0.121084  0.713380  1
  Co  Co22  1  0.000000  0.620170  0.287473  1
  Co  Co23  1  0.000000  0.379830  0.287473  1
  P  P24  1  0.500000  0.500000  0.882731  1
  P  P25  1  0.000000  0.000000  0.115249  1
  P  P26  1  0.500000  0.500000  0.339636  1
  P  P27  1  0.000000  0.000000  0.660732  1
  P  P28  1  0.500000  0.308003  0.618981  1
  P  P29  1  0.500000  0.691997  0.618981  1
  P  P30  1  0.000000  0.192621  0.383360  1
  P  P31  1  0.000000  0.807379  0.383360  1
  P  P32  1  0.500000  0.845416  0.893429  1
  P  P33  1  0.500000  0.154584  0.893429  1
  P  P34  1  0.000000  0.652713  0.105339  1
  P  P35  1  0.000000  0.347287  0.105339  1
