# generated using pymatgen
data_Sc2TcOs2Ru
_symmetry_space_group_name_H-M   'P 1'
_cell_length_a   5.18144201
_cell_length_b   5.12459894
_cell_length_c   8.74656400
_cell_angle_alpha   90.00000000
_cell_angle_beta   90.00000000
_cell_angle_gamma   119.63778264
_symmetry_Int_Tables_number   1
_chemical_formula_structural   Sc2TcOs2Ru
_chemical_formula_sum   'Sc4 Tc2 Os4 Ru2'
_cell_volume   201.86091648
_cell_formula_units_Z   2
loop_
 _symmetry_equiv_pos_site_id
 _symmetry_equiv_pos_as_xyz
  1  'x, y, z'
loop_
 _atom_site_type_symbol
 _atom_site_label
 _atom_site_symmetry_multiplicity
 _atom_site_fract_x
 _atom_site_fract_y
 _atom_site_fract_z
 _atom_site_occupancy
  Sc  Sc0  1  0.332764  0.667729  0.067242  1
  Sc  Sc1  1  0.667236  0.334965  0.567242  1
  Sc  Sc2  1  0.332764  0.667729  0.432758  1
  Sc  Sc3  1  0.667236  0.334965  0.932758  1
  Tc  Tc4  1  0.829826  0.168749  0.250000  1
  Tc  Tc5  1  0.170174  0.338924  0.750000  1
  Os  Os6  1  0.829118  0.654239  0.250000  1
  Os  Os7  1  0.170882  0.825123  0.750000  1
  Os  Os8  1  0.656041  0.825781  0.750000  1
  Os  Os9  1  0.343959  0.169739  0.250000  1
  Ru  Ru10  1  0.000000  0.006030  0.500000  1
  Ru  Ru11  1  0.000000  0.006030  0.000000  1
