# generated using pymatgen
data_SmY2GeSe2
_symmetry_space_group_name_H-M   'P 1'
_cell_length_a   7.21786348
_cell_length_b   7.21786410
_cell_length_c   7.21786394
_cell_angle_alpha   146.61794779
_cell_angle_beta   132.22311854
_cell_angle_gamma   59.53314878
_symmetry_Int_Tables_number   1
_chemical_formula_structural   SmY2GeSe2
_chemical_formula_sum   'Sm1 Y2 Ge1 Se2'
_cell_volume   151.85978028
_cell_formula_units_Z   1
loop_
 _symmetry_equiv_pos_site_id
 _symmetry_equiv_pos_as_xyz
  1  'x, y, z'
loop_
 _atom_site_type_symbol
 _atom_site_label
 _atom_site_symmetry_multiplicity
 _atom_site_fract_x
 _atom_site_fract_y
 _atom_site_fract_z
 _atom_site_occupancy
  Sm  Sm0  1  0.500000  0.000000  0.500000  1
  Y  Y1  1  0.842358  0.342358  0.500000  1
  Y  Y2  1  0.157642  0.657642  0.500000  1
  Ge  Ge3  1  0.000000  0.000000  0.000000  1
  Se  Se4  1  0.671557  0.671557  0.000000  1
  Se  Se5  1  0.328443  0.328443  0.000000  1
