# generated using pymatgen
data_HoLuCo3P7Ru9
_symmetry_space_group_name_H-M   'P 1'
_cell_length_a   9.31828800
_cell_length_b   9.31828702
_cell_length_c   3.81588200
_cell_angle_alpha   90.00000000
_cell_angle_beta   90.00000000
_cell_angle_gamma   120.00000347
_symmetry_Int_Tables_number   1
_chemical_formula_structural   HoLuCo3P7Ru9
_chemical_formula_sum   'Ho1 Lu1 Co3 P7 Ru9'
_cell_volume   286.94440792
_cell_formula_units_Z   1
loop_
 _symmetry_equiv_pos_site_id
 _symmetry_equiv_pos_as_xyz
  1  'x, y, z'
loop_
 _atom_site_type_symbol
 _atom_site_label
 _atom_site_symmetry_multiplicity
 _atom_site_fract_x
 _atom_site_fract_y
 _atom_site_fract_z
 _atom_site_occupancy
  Ho  Ho0  1  0.333333  0.666667  0.000000  1
  Lu  Lu1  1  0.000000  0.000000  0.500000  1
  Co  Co2  1  0.936615  0.445224  0.000000  1
  Co  Co3  1  0.508608  0.063385  0.000000  1
  Co  Co4  1  0.554776  0.491392  0.000000  1
  P  P5  1  0.967443  0.222394  0.000000  1
  P  P6  1  0.254951  0.032557  0.000000  1
  P  P7  1  0.777606  0.745049  0.000000  1
  P  P8  1  0.068026  0.618672  0.500000  1
  P  P9  1  0.550645  0.931974  0.500000  1
  P  P10  1  0.381328  0.449355  0.500000  1
  P  P11  1  0.666667  0.333333  0.000000  1
  Ru  Ru12  1  0.729946  0.969156  0.000000  1
  Ru  Ru13  1  0.239210  0.270054  0.000000  1
  Ru  Ru14  1  0.030844  0.760790  0.000000  1
  Ru  Ru15  1  0.102455  0.386231  0.500000  1
  Ru  Ru16  1  0.283775  0.897545  0.500000  1
  Ru  Ru17  1  0.613769  0.716225  0.500000  1
  Ru  Ru18  1  0.752280  0.212523  0.500000  1
  Ru  Ru19  1  0.460243  0.247720  0.500000  1
  Ru  Ru20  1  0.787477  0.539757  0.500000  1
