# generated using pymatgen
data_Sm7Nb3Si8N3
_symmetry_space_group_name_H-M   'P 1'
_cell_length_a   10.16535800
_cell_length_b   10.16536087
_cell_length_c   4.29982300
_cell_angle_alpha   90.00000000
_cell_angle_beta   90.00000000
_cell_angle_gamma   119.99999718
_symmetry_Int_Tables_number   1
_chemical_formula_structural   Sm7Nb3Si8N3
_chemical_formula_sum   'Sm7 Nb3 Si8 N3'
_cell_volume   384.79259084
_cell_formula_units_Z   1
loop_
 _symmetry_equiv_pos_site_id
 _symmetry_equiv_pos_as_xyz
  1  'x, y, z'
loop_
 _atom_site_type_symbol
 _atom_site_label
 _atom_site_symmetry_multiplicity
 _atom_site_fract_x
 _atom_site_fract_y
 _atom_site_fract_z
 _atom_site_occupancy
  Sm  Sm0  1  0.215096  0.784904  0.000000  1
  Sm  Sm1  1  0.215096  0.430193  0.000000  1
  Sm  Sm2  1  0.784904  0.569807  0.000000  1
  Sm  Sm3  1  0.430193  0.215096  0.000000  1
  Sm  Sm4  1  0.000000  0.000000  0.000000  1
  Sm  Sm5  1  0.569807  0.784904  0.000000  1
  Sm  Sm6  1  0.784904  0.215096  0.000000  1
  Nb  Nb7  1  0.500000  0.000000  0.500000  1
  Nb  Nb8  1  0.000000  0.500000  0.500000  1
  Nb  Nb9  1  0.500000  0.500000  0.500000  1
  Si  Si10  1  0.666667  0.333333  0.500000  1
  Si  Si11  1  0.000000  0.766875  0.500000  1
  Si  Si12  1  0.333333  0.666667  0.500000  1
  Si  Si13  1  0.233125  0.233125  0.500000  1
  Si  Si14  1  0.766875  0.766875  0.500000  1
  Si  Si15  1  0.766875  0.000000  0.500000  1
  Si  Si16  1  0.233125  0.000000  0.500000  1
  Si  Si17  1  0.000000  0.233125  0.500000  1
  N  N18  1  0.500000  0.500000  0.000000  1
  N  N19  1  0.500000  0.000000  0.000000  1
  N  N20  1  0.000000  0.500000  0.000000  1
