# generated using pymatgen
data_Nd2Co9P7Ru3
_symmetry_space_group_name_H-M   'P 1'
_cell_length_a   9.12699500
_cell_length_b   9.12699602
_cell_length_c   3.72582500
_cell_angle_alpha   90.00000000
_cell_angle_beta   90.00000000
_cell_angle_gamma   119.99999267
_symmetry_Int_Tables_number   1
_chemical_formula_structural   Nd2Co9P7Ru3
_chemical_formula_sum   'Nd2 Co9 P7 Ru3'
_cell_volume   268.78732808
_cell_formula_units_Z   1
loop_
 _symmetry_equiv_pos_site_id
 _symmetry_equiv_pos_as_xyz
  1  'x, y, z'
loop_
 _atom_site_type_symbol
 _atom_site_label
 _atom_site_symmetry_multiplicity
 _atom_site_fract_x
 _atom_site_fract_y
 _atom_site_fract_z
 _atom_site_occupancy
  Nd  Nd0  1  0.666667  0.333333  0.000000  1
  Nd  Nd1  1  0.333333  0.666667  0.500000  1
  Co  Co2  1  0.059724  0.628315  0.000000  1
  Co  Co3  1  0.568591  0.940276  0.000000  1
  Co  Co4  1  0.371685  0.431409  0.000000  1
  Co  Co5  1  0.278501  0.122212  0.000000  1
  Co  Co6  1  0.843711  0.721499  0.000000  1
  Co  Co7  1  0.877788  0.156289  0.000000  1
  Co  Co8  1  0.436618  0.053825  0.500000  1
  Co  Co9  1  0.617207  0.563382  0.500000  1
  Co  Co10  1  0.946175  0.382793  0.500000  1
  P  P11  1  0.300941  0.894285  0.000000  1
  P  P12  1  0.593344  0.699059  0.000000  1
  P  P13  1  0.105715  0.406656  0.000000  1
  P  P14  1  0.402524  0.292087  0.500000  1
  P  P15  1  0.889564  0.597476  0.500000  1
  P  P16  1  0.707913  0.110436  0.500000  1
  P  P17  1  0.000000  0.000000  0.000000  1
  Ru  Ru18  1  0.100146  0.877774  0.500000  1
  Ru  Ru19  1  0.777628  0.899854  0.500000  1
  Ru  Ru20  1  0.122226  0.222372  0.500000  1
