# generated using pymatgen
data_KSrMgReN4
_symmetry_space_group_name_H-M   'P 1'
_cell_length_a   6.05741900
_cell_length_b   6.46521132
_cell_length_c   6.69974499
_cell_angle_alpha   74.48975997
_cell_angle_beta   90.00000000
_cell_angle_gamma   90.00000000
_symmetry_Int_Tables_number   1
_chemical_formula_structural   KSrMgReN4
_chemical_formula_sum   'K2 Sr2 Mg2 Re2 N8'
_cell_volume   252.82359169
_cell_formula_units_Z   2
loop_
 _symmetry_equiv_pos_site_id
 _symmetry_equiv_pos_as_xyz
  1  'x, y, z'
loop_
 _atom_site_type_symbol
 _atom_site_label
 _atom_site_symmetry_multiplicity
 _atom_site_fract_x
 _atom_site_fract_y
 _atom_site_fract_z
 _atom_site_occupancy
  K  K0  1  0.250000  0.236251  0.069039  1
  K  K1  1  0.750000  0.763749  0.930961  1
  Sr  Sr2  1  0.750000  0.784259  0.427601  1
  Sr  Sr3  1  0.250000  0.215741  0.572399  1
  Mg  Mg4  1  0.750000  0.317236  0.290718  1
  Mg  Mg5  1  0.250000  0.682764  0.709282  1
  Re  Re6  1  0.250000  0.703593  0.206818  1
  Re  Re7  1  0.750000  0.296407  0.793182  1
  N  N8  1  0.510140  0.471795  0.738247  1
  N  N9  1  0.010140  0.528205  0.261753  1
  N  N10  1  0.489860  0.528205  0.261753  1
  N  N11  1  0.989860  0.471795  0.738247  1
  N  N12  1  0.750000  0.125515  0.605819  1
  N  N13  1  0.250000  0.874485  0.394181  1
  N  N14  1  0.750000  0.140906  0.067669  1
  N  N15  1  0.250000  0.859094  0.932331  1
