# generated using pymatgen
data_Dy4ZnPt3
_symmetry_space_group_name_H-M   'P 1'
_cell_length_a   4.55402800
_cell_length_b   5.58330730
_cell_length_c   7.09457403
_cell_angle_alpha   89.87663687
_cell_angle_beta   90.00000000
_cell_angle_gamma   90.00000000
_symmetry_Int_Tables_number   1
_chemical_formula_structural   Dy4ZnPt3
_chemical_formula_sum   'Dy4 Zn1 Pt3'
_cell_volume   180.39003645
_cell_formula_units_Z   1
loop_
 _symmetry_equiv_pos_site_id
 _symmetry_equiv_pos_as_xyz
  1  'x, y, z'
loop_
 _atom_site_type_symbol
 _atom_site_label
 _atom_site_symmetry_multiplicity
 _atom_site_fract_x
 _atom_site_fract_y
 _atom_site_fract_z
 _atom_site_occupancy
  Dy  Dy0  1  0.250000  0.359612  0.687143  1
  Dy  Dy1  1  0.250000  0.148679  0.178006  1
  Dy  Dy2  1  0.750000  0.630717  0.307066  1
  Dy  Dy3  1  0.750000  0.861400  0.828418  1
  Zn  Zn4  1  0.250000  0.863983  0.533747  1
  Pt  Pt5  1  0.250000  0.663424  0.043173  1
  Pt  Pt6  1  0.750000  0.127530  0.468180  1
  Pt  Pt7  1  0.750000  0.344656  0.954267  1
