# generated using pymatgen
data_Li4Dy3ThSi8
_symmetry_space_group_name_H-M   'P 1'
_cell_length_a   3.80319400
_cell_length_b   7.68899754
_cell_length_c   10.28114678
_cell_angle_alpha   89.97476178
_cell_angle_beta   90.00000000
_cell_angle_gamma   90.00000000
_symmetry_Int_Tables_number   1
_chemical_formula_structural   Li4Dy3ThSi8
_chemical_formula_sum   'Li4 Dy3 Th1 Si8'
_cell_volume   300.64896870
_cell_formula_units_Z   1
loop_
 _symmetry_equiv_pos_site_id
 _symmetry_equiv_pos_as_xyz
  1  'x, y, z'
loop_
 _atom_site_type_symbol
 _atom_site_label
 _atom_site_symmetry_multiplicity
 _atom_site_fract_x
 _atom_site_fract_y
 _atom_site_fract_z
 _atom_site_occupancy
  Li  Li0  1  0.250000  0.990891  0.393668  1
  Li  Li1  1  0.750000  0.011396  0.609246  1
  Li  Li2  1  0.250000  0.489470  0.104196  1
  Li  Li3  1  0.750000  0.509761  0.894442  1
  Dy  Dy4  1  0.250000  0.135232  0.862081  1
  Dy  Dy5  1  0.750000  0.863787  0.135944  1
  Dy  Dy6  1  0.250000  0.636590  0.636552  1
  Th  Th7  1  0.750000  0.359497  0.361812  1
  Si  Si8  1  0.750000  0.261489  0.063872  1
  Si  Si9  1  0.250000  0.732589  0.932663  1
  Si  Si10  1  0.750000  0.772030  0.432991  1
  Si  Si11  1  0.250000  0.236174  0.571035  1
  Si  Si12  1  0.750000  0.842117  0.819610  1
  Si  Si13  1  0.250000  0.154566  0.178412  1
  Si  Si14  1  0.750000  0.342364  0.685538  1
  Si  Si15  1  0.250000  0.662045  0.317938  1
