# generated using pymatgen
data_Tm3Lu9AlZnFe4
_symmetry_space_group_name_H-M   'P 1'
_cell_length_a   8.16026569
_cell_length_b   8.15116596
_cell_length_c   8.15116697
_cell_angle_alpha   110.89226226
_cell_angle_beta   111.03892804
_cell_angle_gamma   106.47928723
_symmetry_Int_Tables_number   1
_chemical_formula_structural   Tm3Lu9AlZnFe4
_chemical_formula_sum   'Tm3 Lu9 Al1 Zn1 Fe4'
_cell_volume   416.75460904
_cell_formula_units_Z   1
loop_
 _symmetry_equiv_pos_site_id
 _symmetry_equiv_pos_as_xyz
  1  'x, y, z'
loop_
 _atom_site_type_symbol
 _atom_site_label
 _atom_site_symmetry_multiplicity
 _atom_site_fract_x
 _atom_site_fract_y
 _atom_site_fract_z
 _atom_site_occupancy
  Tm  Tm0  1  0.812832  0.214195  0.027098  1
  Tm  Tm1  1  0.812832  0.785732  0.598638  1
  Tm  Tm2  1  0.429773  0.727562  0.702212  1
  Lu  Lu3  1  0.565235  0.269655  0.295580  1
  Lu  Lu4  1  0.187870  0.213787  0.401804  1
  Lu  Lu5  1  0.187870  0.786064  0.974083  1
  Lu  Lu6  1  0.685461  0.482293  0.797567  1
  Lu  Lu7  1  0.685461  0.887896  0.203169  1
  Lu  Lu8  1  0.975335  0.272149  0.703186  1
  Lu  Lu9  1  0.026242  0.730396  0.295846  1
  Lu  Lu10  1  0.314792  0.113423  0.797991  1
  Lu  Lu11  1  0.314792  0.516801  0.201368  1
  Al  Al12  1  0.500586  0.000452  0.500134  1
  Zn  Zn13  1  0.996597  0.498807  0.497790  1
  Fe  Fe14  1  0.891453  0.888760  0.002693  1
  Fe  Fe15  1  0.380894  0.500856  0.880038  1
  Fe  Fe16  1  0.621277  0.500934  0.120343  1
  Fe  Fe17  1  0.110698  0.110240  0.000458  1
