# generated using pymatgen
data_La7Pr3In5Sn
_symmetry_space_group_name_H-M   'P 1'
_cell_length_a   9.66378721
_cell_length_b   9.66377681
_cell_length_c   9.57680343
_cell_angle_alpha   96.04811914
_cell_angle_beta   96.09216219
_cell_angle_gamma   142.22433976
_symmetry_Int_Tables_number   1
_chemical_formula_structural   La7Pr3In5Sn
_chemical_formula_sum   'La7 Pr3 In5 Sn1'
_cell_volume   517.80729514
_cell_formula_units_Z   1
loop_
 _symmetry_equiv_pos_site_id
 _symmetry_equiv_pos_as_xyz
  1  'x, y, z'
loop_
 _atom_site_type_symbol
 _atom_site_label
 _atom_site_symmetry_multiplicity
 _atom_site_fract_x
 _atom_site_fract_y
 _atom_site_fract_z
 _atom_site_occupancy
  La  La0  1  0.219917  0.088026  0.307956  1
  La  La1  1  0.779292  0.912397  0.691716  1
  La  La2  1  0.086735  0.780042  0.866812  1
  La  La3  1  0.719864  0.413287  0.133125  1
  La  La4  1  0.280456  0.586445  0.866894  1
  La  La5  1  0.587584  0.720688  0.308275  1
  La  La6  1  0.412144  0.279977  0.692098  1
  Pr  Pr7  1  0.751856  0.251042  0.499797  1
  Pr  Pr8  1  0.248760  0.747953  0.499802  1
  Pr  Pr9  1  0.914001  0.219117  0.133115  1
  In  In10  1  0.750044  0.750888  0.000189  1
  In  In11  1  0.249300  0.250145  0.000188  1
  In  In12  1  0.840320  0.659658  0.499975  1
  In  In13  1  0.660226  0.159851  0.820078  1
  In  In14  1  0.340360  0.839999  0.180358  1
  Sn  Sn15  1  0.159139  0.340485  0.499622  1
