# generated using pymatgen
data_Nd2MnAl20IrRu2
_symmetry_space_group_name_H-M   'P 1'
_cell_length_a   6.87063264
_cell_length_b   6.87362471
_cell_length_c   9.16916745
_cell_angle_alpha   90.20306562
_cell_angle_beta   90.04945821
_cell_angle_gamma   96.76736709
_symmetry_Int_Tables_number   1
_chemical_formula_structural   Nd2MnAl20IrRu2
_chemical_formula_sum   'Nd2 Mn1 Al20 Ir1 Ru2'
_cell_volume   430.00444639
_cell_formula_units_Z   1
loop_
 _symmetry_equiv_pos_site_id
 _symmetry_equiv_pos_as_xyz
  1  'x, y, z'
loop_
 _atom_site_type_symbol
 _atom_site_label
 _atom_site_symmetry_multiplicity
 _atom_site_fract_x
 _atom_site_fract_y
 _atom_site_fract_z
 _atom_site_occupancy
  Nd  Nd0  1  0.873168  0.122438  0.747958  1
  Nd  Nd1  1  0.126832  0.877562  0.252042  1
  Mn  Mn2  1  0.500000  0.000000  0.500000  1
  Al  Al3  1  0.618304  0.372901  0.549580  1
  Al  Al4  1  0.381696  0.627099  0.450420  1
  Al  Al5  1  0.377969  0.623010  0.049896  1
  Al  Al6  1  0.622031  0.376990  0.950104  1
  Al  Al7  1  0.232538  0.223094  0.497804  1
  Al  Al8  1  0.767462  0.776906  0.502196  1
  Al  Al9  1  0.772350  0.773632  0.000985  1
  Al  Al10  1  0.227650  0.226368  0.999015  1
  Al  Al11  1  0.841036  0.160423  0.100819  1
  Al  Al12  1  0.158964  0.839577  0.899181  1
  Al  Al13  1  0.165765  0.844001  0.600655  1
  Al  Al14  1  0.834235  0.155999  0.399345  1
  Al  Al15  1  0.859192  0.590297  0.750932  1
  Al  Al16  1  0.140808  0.409703  0.249068  1
  Al  Al17  1  0.412565  0.138190  0.747051  1
  Al  Al18  1  0.587435  0.861810  0.252949  1
  Al  Al19  1  0.221706  0.481607  0.752582  1
  Al  Al20  1  0.778294  0.518393  0.247418  1
  Al  Al21  1  0.517930  0.780663  0.746847  1
  Al  Al22  1  0.482070  0.219337  0.253153  1
  Ir  Ir23  1  0.000000  0.500000  0.500000  1
  Ru  Ru24  1  0.000000  0.500000  0.000000  1
  Ru  Ru25  1  0.500000  0.000000  0.000000  1
