# generated using pymatgen
data_Ca5HoSi24Ir3Ru5
_symmetry_space_group_name_H-M   'P 1'
_cell_length_a   10.14729835
_cell_length_b   10.14729720
_cell_length_c   8.18667745
_cell_angle_alpha   90.00531558
_cell_angle_beta   90.00531575
_cell_angle_gamma   132.43362266
_symmetry_Int_Tables_number   1
_chemical_formula_structural   Ca5HoSi24Ir3Ru5
_chemical_formula_sum   'Ca5 Ho1 Si24 Ir3 Ru5'
_cell_volume   622.15681426
_cell_formula_units_Z   1
loop_
 _symmetry_equiv_pos_site_id
 _symmetry_equiv_pos_as_xyz
  1  'x, y, z'
loop_
 _atom_site_type_symbol
 _atom_site_label
 _atom_site_symmetry_multiplicity
 _atom_site_fract_x
 _atom_site_fract_y
 _atom_site_fract_z
 _atom_site_occupancy
  Ca  Ca0  1  0.499800  0.500200  0.500000  1
  Ca  Ca1  1  0.502377  0.001748  0.750012  1
  Ca  Ca2  1  0.998252  0.497623  0.249988  1
  Ca  Ca3  1  0.498555  0.998009  0.249423  1
  Ca  Ca4  1  0.001991  0.501445  0.750577  1
  Ho  Ho5  1  0.999236  0.000764  0.000000  1
  Si  Si6  1  0.795603  0.204397  0.500000  1
  Si  Si7  1  0.295164  0.704836  0.000000  1
  Si  Si8  1  0.205539  0.794461  0.500000  1
  Si  Si9  1  0.706821  0.293179  0.000000  1
  Si  Si10  1  0.332425  0.335276  0.831727  1
  Si  Si11  1  0.664724  0.667575  0.168273  1
  Si  Si12  1  0.167939  0.168750  0.333619  1
  Si  Si13  1  0.831250  0.832061  0.666381  1
  Si  Si14  1  0.120006  0.887294  0.724620  1
  Si  Si15  1  0.112706  0.879994  0.275380  1
  Si  Si16  1  0.611025  0.379184  0.225626  1
  Si  Si17  1  0.620816  0.388975  0.774374  1
  Si  Si18  1  0.876649  0.109360  0.271162  1
  Si  Si19  1  0.890640  0.123351  0.728838  1
  Si  Si20  1  0.387290  0.619879  0.775152  1
  Si  Si21  1  0.380121  0.612710  0.224848  1
  Si  Si22  1  0.341816  0.110252  0.501702  1
  Si  Si23  1  0.889748  0.658184  0.498298  1
  Si  Si24  1  0.391863  0.159987  0.003476  1
  Si  Si25  1  0.840013  0.608137  0.996524  1
  Si  Si26  1  0.659092  0.890353  0.496356  1
  Si  Si27  1  0.109647  0.340908  0.503644  1
  Si  Si28  1  0.611890  0.844627  0.996983  1
  Si  Si29  1  0.155373  0.388110  0.003017  1
  Ir  Ir30  1  0.668642  0.331358  0.500000  1
  Ir  Ir31  1  0.167209  0.832791  0.000000  1
  Ir  Ir32  1  0.331957  0.668043  0.500000  1
  Ru  Ru33  1  0.832079  0.167921  0.000000  1
  Ru  Ru34  1  0.125422  0.123897  0.627652  1
  Ru  Ru35  1  0.876103  0.874578  0.372348  1
  Ru  Ru36  1  0.372508  0.372291  0.124614  1
  Ru  Ru37  1  0.627709  0.627492  0.875386  1
