# generated using pymatgen
data_Sc3AlSn2Pt3
_symmetry_space_group_name_H-M   'P 1'
_cell_length_a   7.38744000
_cell_length_b   7.50204506
_cell_length_c   3.57821600
_cell_angle_alpha   90.00000000
_cell_angle_beta   90.00000000
_cell_angle_gamma   119.49593079
_symmetry_Int_Tables_number   1
_chemical_formula_structural   Sc3AlSn2Pt3
_chemical_formula_sum   'Sc3 Al1 Sn2 Pt3'
_cell_volume   172.60541391
_cell_formula_units_Z   1
loop_
 _symmetry_equiv_pos_site_id
 _symmetry_equiv_pos_as_xyz
  1  'x, y, z'
loop_
 _atom_site_type_symbol
 _atom_site_label
 _atom_site_symmetry_multiplicity
 _atom_site_fract_x
 _atom_site_fract_y
 _atom_site_fract_z
 _atom_site_occupancy
  Sc  Sc0  1  0.407995  0.000000  0.500000  1
  Sc  Sc1  1  0.986336  0.384955  0.500000  1
  Sc  Sc2  1  0.601381  0.615045  0.500000  1
  Al  Al3  1  0.731053  0.000000  0.000000  1
  Sn  Sn4  1  0.999186  0.728204  0.000000  1
  Sn  Sn5  1  0.270982  0.271796  0.000000  1
  Pt  Pt6  1  0.352103  0.680341  0.000000  1
  Pt  Pt7  1  0.671763  0.319659  0.000000  1
  Pt  Pt8  1  0.979201  0.000000  0.500000  1
