# generated using pymatgen
data_Y6Er7Th3(MgRh)4
_symmetry_space_group_name_H-M   'P 1'
_cell_length_a   9.74401462
_cell_length_b   9.73879049
_cell_length_c   9.73879000
_cell_angle_alpha   59.99999489
_cell_angle_beta   60.01772856
_cell_angle_gamma   60.01772637
_symmetry_Int_Tables_number   1
_chemical_formula_structural   Y6Er7Th3(MgRh)4
_chemical_formula_sum   'Y6 Er7 Th3 Mg4 Rh4'
_cell_volume   653.65600301
_cell_formula_units_Z   1
loop_
 _symmetry_equiv_pos_site_id
 _symmetry_equiv_pos_as_xyz
  1  'x, y, z'
loop_
 _atom_site_type_symbol
 _atom_site_label
 _atom_site_symmetry_multiplicity
 _atom_site_fract_x
 _atom_site_fract_y
 _atom_site_fract_z
 _atom_site_occupancy
  Y  Y0  1  0.185176  0.814540  0.814540  1
  Y  Y1  1  0.814910  0.184756  0.184756  1
  Y  Y2  1  0.814910  0.184756  0.815577  1
  Y  Y3  1  0.185176  0.814540  0.185744  1
  Y  Y4  1  0.814910  0.815577  0.184756  1
  Y  Y5  1  0.185176  0.185744  0.814540  1
  Er  Er6  1  0.203199  0.598934  0.598934  1
  Er  Er7  1  0.063756  0.436693  0.436693  1
  Er  Er8  1  0.435647  0.064656  0.064656  1
  Er  Er9  1  0.435647  0.064656  0.435041  1
  Er  Er10  1  0.063756  0.436693  0.062857  1
  Er  Er11  1  0.435647  0.435041  0.064656  1
  Er  Er12  1  0.063756  0.062857  0.436693  1
  Th  Th13  1  0.595936  0.599309  0.599309  1
  Th  Th14  1  0.595936  0.599309  0.205446  1
  Th  Th15  1  0.595936  0.205446  0.599309  1
  Mg  Mg16  1  0.833128  0.829232  0.829232  1
  Mg  Mg17  1  0.833128  0.829232  0.508407  1
  Mg  Mg18  1  0.833128  0.508407  0.829232  1
  Mg  Mg19  1  0.505596  0.831468  0.831468  1
  Rh  Rh20  1  0.395454  0.391594  0.391594  1
  Rh  Rh21  1  0.395454  0.391594  0.821359  1
  Rh  Rh22  1  0.395454  0.821359  0.391594  1
  Rh  Rh23  1  0.819179  0.393607  0.393607  1
