# generated using pymatgen
data_NaCa4(SiIr)10
_symmetry_space_group_name_H-M   'P 1'
_cell_length_a   9.04799700
_cell_length_b   8.14575434
_cell_length_c   9.04799700
_cell_angle_alpha   56.26302356
_cell_angle_beta   90.00000000
_cell_angle_gamma   56.26301510
_symmetry_Int_Tables_number   1
_chemical_formula_structural   NaCa4(SiIr)10
_chemical_formula_sum   'Na1 Ca4 Si10 Ir10'
_cell_volume   412.75669618
_cell_formula_units_Z   1
loop_
 _symmetry_equiv_pos_site_id
 _symmetry_equiv_pos_as_xyz
  1  'x, y, z'
loop_
 _atom_site_type_symbol
 _atom_site_label
 _atom_site_symmetry_multiplicity
 _atom_site_fract_x
 _atom_site_fract_y
 _atom_site_fract_z
 _atom_site_occupancy
  Na  Na0  1  0.000000  0.000000  0.000000  1
  Ca  Ca1  1  0.198420  0.000000  0.600645  1
  Ca  Ca2  1  0.399355  0.000000  0.198420  1
  Ca  Ca3  1  0.600645  0.000000  0.801580  1
  Ca  Ca4  1  0.801580  0.000000  0.399355  1
  Si  Si5  1  0.175175  0.248493  0.775360  1
  Si  Si6  1  0.377040  0.245919  0.377040  1
  Si  Si7  1  0.576332  0.248493  0.976146  1
  Si  Si8  1  0.775360  0.248493  0.576332  1
  Si  Si9  1  0.976146  0.248493  0.175175  1
  Si  Si10  1  0.622960  0.754081  0.622960  1
  Si  Si11  1  0.824825  0.751507  0.224640  1
  Si  Si12  1  0.023853  0.751507  0.824825  1
  Si  Si13  1  0.224640  0.751507  0.423668  1
  Si  Si14  1  0.423668  0.751507  0.023853  1
  Ir  Ir15  1  0.949214  0.501087  0.848894  1
  Ir  Ir16  1  0.151106  0.498913  0.450300  1
  Ir  Ir17  1  0.349981  0.498913  0.050786  1
  Ir  Ir18  1  0.549700  0.501087  0.650019  1
  Ir  Ir19  1  0.750000  0.500000  0.250000  1
  Ir  Ir20  1  0.848894  0.501087  0.549700  1
  Ir  Ir21  1  0.050786  0.498913  0.151106  1
  Ir  Ir22  1  0.250000  0.500000  0.750000  1
  Ir  Ir23  1  0.450300  0.498913  0.349981  1
  Ir  Ir24  1  0.650019  0.501087  0.949214  1
