# generated using pymatgen
data_CeSiTc4Ge
_symmetry_space_group_name_H-M   'P 1'
_cell_length_a   7.34950712
_cell_length_b   7.34950847
_cell_length_c   4.08459500
_cell_angle_alpha   90.00000000
_cell_angle_beta   90.00000000
_cell_angle_gamma   147.25489612
_symmetry_Int_Tables_number   1
_chemical_formula_structural   CeSiTc4Ge
_chemical_formula_sum   'Ce1 Si1 Tc4 Ge1'
_cell_volume   119.33960060
_cell_formula_units_Z   1
loop_
 _symmetry_equiv_pos_site_id
 _symmetry_equiv_pos_as_xyz
  1  'x, y, z'
loop_
 _atom_site_type_symbol
 _atom_site_label
 _atom_site_symmetry_multiplicity
 _atom_site_fract_x
 _atom_site_fract_y
 _atom_site_fract_z
 _atom_site_occupancy
  Ce  Ce0  1  0.002461  0.997539  0.000000  1
  Si  Si1  1  0.591748  0.408252  0.500000  1
  Tc  Tc2  1  0.186718  0.813282  0.500000  1
  Tc  Tc3  1  0.301648  0.698352  0.000000  1
  Tc  Tc4  1  0.808971  0.191029  0.500000  1
  Tc  Tc5  1  0.693161  0.306839  0.000000  1
  Ge  Ge6  1  0.415293  0.584707  0.500000  1
