# generated using pymatgen
data_Th14Co4ReNi
_symmetry_space_group_name_H-M   'P 1'
_cell_length_a   9.84829283
_cell_length_b   9.78718395
_cell_length_c   6.21064885
_cell_angle_alpha   90.21494507
_cell_angle_beta   89.15878148
_cell_angle_gamma   119.79980586
_symmetry_Int_Tables_number   1
_chemical_formula_structural   Th14Co4ReNi
_chemical_formula_sum   'Th14 Co4 Re1 Ni1'
_cell_volume   519.40777243
_cell_formula_units_Z   1
loop_
 _symmetry_equiv_pos_site_id
 _symmetry_equiv_pos_as_xyz
  1  'x, y, z'
loop_
 _atom_site_type_symbol
 _atom_site_label
 _atom_site_symmetry_multiplicity
 _atom_site_fract_x
 _atom_site_fract_y
 _atom_site_fract_z
 _atom_site_occupancy
  Th  Th0  1  0.326959  0.663359  0.040874  1
  Th  Th1  1  0.667227  0.336581  0.541446  1
  Th  Th2  1  0.125091  0.872769  0.243886  1
  Th  Th3  1  0.257611  0.128130  0.739788  1
  Th  Th4  1  0.880145  0.751322  0.746706  1
  Th  Th5  1  0.130311  0.251096  0.241736  1
  Th  Th6  1  0.747809  0.870420  0.260574  1
  Th  Th7  1  0.882358  0.130746  0.753453  1
  Th  Th8  1  0.547870  0.460919  0.048984  1
  Th  Th9  1  0.087898  0.543880  0.546914  1
  Th  Th10  1  0.449347  0.913276  0.548642  1
  Th  Th11  1  0.542622  0.085013  0.049387  1
  Th  Th12  1  0.911373  0.458899  0.047154  1
  Th  Th13  1  0.447936  0.536639  0.551741  1
  Co  Co14  1  0.178615  0.368632  0.798584  1
  Co  Co15  1  0.818358  0.627726  0.294028  1
  Co  Co16  1  0.374397  0.184712  0.297359  1
  Co  Co17  1  0.179688  0.810065  0.795513  1
  Re  Re18  1  0.627129  0.816235  0.806616  1
  Ni  Ni19  1  0.817256  0.189581  0.306615  1
