# generated using pymatgen
data_Y8Ho3(Tm3Bi4)3
_symmetry_space_group_name_H-M   'P 1'
_cell_length_a   8.23355617
_cell_length_b   9.46317203
_cell_length_c   12.04839622
_cell_angle_alpha   89.99699177
_cell_angle_beta   89.97807862
_cell_angle_gamma   90.00832756
_symmetry_Int_Tables_number   1
_chemical_formula_structural   Y8Ho3(Tm3Bi4)3
_chemical_formula_sum   'Y8 Ho3 Tm9 Bi12'
_cell_volume   938.75744051
_cell_formula_units_Z   1
loop_
 _symmetry_equiv_pos_site_id
 _symmetry_equiv_pos_as_xyz
  1  'x, y, z'
loop_
 _atom_site_type_symbol
 _atom_site_label
 _atom_site_symmetry_multiplicity
 _atom_site_fract_x
 _atom_site_fract_y
 _atom_site_fract_z
 _atom_site_occupancy
  Y  Y0  1  0.186308  0.749978  0.718657  1
  Y  Y1  1  0.686396  0.749935  0.781291  1
  Y  Y2  1  0.813536  0.250068  0.281326  1
  Y  Y3  1  0.313721  0.249924  0.218707  1
  Y  Y4  1  0.353533  0.749790  0.216059  1
  Y  Y5  1  0.853792  0.749891  0.284132  1
  Y  Y6  1  0.646325  0.249972  0.784019  1
  Y  Y7  1  0.146208  0.249954  0.716024  1
  Ho  Ho8  1  0.306770  0.434954  0.940436  1
  Ho  Ho9  1  0.806849  0.065106  0.559537  1
  Ho  Ho10  1  0.693155  0.934881  0.059560  1
  Tm  Tm11  1  0.025211  0.749962  0.989038  1
  Tm  Tm12  1  0.524953  0.749935  0.510895  1
  Tm  Tm13  1  0.974781  0.249880  0.010958  1
  Tm  Tm14  1  0.474697  0.250062  0.489044  1
  Tm  Tm15  1  0.193260  0.565666  0.440442  1
  Tm  Tm16  1  0.693118  0.565513  0.059532  1
  Tm  Tm17  1  0.193173  0.934289  0.440495  1
  Tm  Tm18  1  0.306876  0.065486  0.940466  1
  Tm  Tm19  1  0.806792  0.434537  0.559546  1
  Bi  Bi20  1  0.433795  0.003830  0.672460  1
  Bi  Bi21  1  0.933890  0.496089  0.827466  1
  Bi  Bi22  1  0.566062  0.503875  0.327593  1
  Bi  Bi23  1  0.066207  0.996078  0.172502  1
  Bi  Bi24  1  0.566061  0.996134  0.327527  1
  Bi  Bi25  1  0.066140  0.503803  0.172573  1
  Bi  Bi26  1  0.433970  0.496136  0.672436  1
  Bi  Bi27  1  0.933965  0.003803  0.827476  1
  Bi  Bi28  1  0.406872  0.750448  0.957912  1
  Bi  Bi29  1  0.907118  0.749338  0.541999  1
  Bi  Bi30  1  0.593138  0.250426  0.042095  1
  Bi  Bi31  1  0.093328  0.250255  0.457796  1
