# generated using pymatgen
data_Er3Tm2Bi2Rh
_symmetry_space_group_name_H-M   'P 1'
_cell_length_a   7.93860300
_cell_length_b   8.97815800
_cell_length_c   12.44015900
_cell_angle_alpha   90.00000000
_cell_angle_beta   90.00000000
_cell_angle_gamma   90.00000000
_symmetry_Int_Tables_number   1
_chemical_formula_structural   Er3Tm2Bi2Rh
_chemical_formula_sum   'Er12 Tm8 Bi8 Rh4'
_cell_volume   886.66029107
_cell_formula_units_Z   4
loop_
 _symmetry_equiv_pos_site_id
 _symmetry_equiv_pos_as_xyz
  1  'x, y, z'
loop_
 _atom_site_type_symbol
 _atom_site_label
 _atom_site_symmetry_multiplicity
 _atom_site_fract_x
 _atom_site_fract_y
 _atom_site_fract_z
 _atom_site_occupancy
  Er  Er0  1  0.840163  0.750000  0.793510  1
  Er  Er1  1  0.159837  0.250000  0.206490  1
  Er  Er2  1  0.340163  0.250000  0.706490  1
  Er  Er3  1  0.659837  0.750000  0.293510  1
  Er  Er4  1  0.375260  0.750000  0.690333  1
  Er  Er5  1  0.624740  0.250000  0.309667  1
  Er  Er6  1  0.875260  0.250000  0.809667  1
  Er  Er7  1  0.124740  0.750000  0.190333  1
  Er  Er8  1  0.950805  0.750000  0.501609  1
  Er  Er9  1  0.049195  0.250000  0.498391  1
  Er  Er10  1  0.450805  0.250000  0.998391  1
  Er  Er11  1  0.549195  0.750000  0.001609  1
  Tm  Tm12  1  0.675136  0.042666  0.566245  1
  Tm  Tm13  1  0.324864  0.957334  0.433755  1
  Tm  Tm14  1  0.175136  0.957334  0.933755  1
  Tm  Tm15  1  0.324864  0.542666  0.433755  1
  Tm  Tm16  1  0.824864  0.042666  0.066245  1
  Tm  Tm17  1  0.675136  0.457334  0.566245  1
  Tm  Tm18  1  0.824864  0.457334  0.066245  1
  Tm  Tm19  1  0.175136  0.542666  0.933755  1
  Bi  Bi20  1  0.565989  0.491810  0.826352  1
  Bi  Bi21  1  0.434011  0.508190  0.173648  1
  Bi  Bi22  1  0.065989  0.508190  0.673648  1
  Bi  Bi23  1  0.434011  0.991810  0.173648  1
  Bi  Bi24  1  0.934011  0.491810  0.326352  1
  Bi  Bi25  1  0.565989  0.008190  0.826352  1
  Bi  Bi26  1  0.934011  0.008190  0.326352  1
  Bi  Bi27  1  0.065989  0.991810  0.673648  1
  Rh  Rh28  1  0.571934  0.750000  0.508741  1
  Rh  Rh29  1  0.428066  0.250000  0.491259  1
  Rh  Rh30  1  0.071934  0.250000  0.991259  1
  Rh  Rh31  1  0.928066  0.750000  0.008741  1
