# generated using pymatgen
data_Hf18Ta2Co2RuW5
_symmetry_space_group_name_H-M   'P 1'
_cell_length_a   8.69065406
_cell_length_b   8.69065454
_cell_length_c   8.49957500
_cell_angle_alpha   90.00000000
_cell_angle_beta   90.00000000
_cell_angle_gamma   119.82560566
_symmetry_Int_Tables_number   1
_chemical_formula_structural   Hf18Ta2Co2RuW5
_chemical_formula_sum   'Hf18 Ta2 Co2 Ru1 W5'
_cell_volume   556.92062780
_cell_formula_units_Z   1
loop_
 _symmetry_equiv_pos_site_id
 _symmetry_equiv_pos_as_xyz
  1  'x, y, z'
loop_
 _atom_site_type_symbol
 _atom_site_label
 _atom_site_symmetry_multiplicity
 _atom_site_fract_x
 _atom_site_fract_y
 _atom_site_fract_z
 _atom_site_occupancy
  Hf  Hf0  1  0.202143  0.797857  0.440106  1
  Hf  Hf1  1  0.203362  0.404804  0.440320  1
  Hf  Hf2  1  0.595196  0.796638  0.440320  1
  Hf  Hf3  1  0.798515  0.201485  0.560913  1
  Hf  Hf4  1  0.799094  0.596893  0.559102  1
  Hf  Hf5  1  0.403107  0.200906  0.559102  1
  Hf  Hf6  1  0.798515  0.201485  0.939087  1
  Hf  Hf7  1  0.799094  0.596893  0.940898  1
  Hf  Hf8  1  0.403107  0.200906  0.940898  1
  Hf  Hf9  1  0.202143  0.797857  0.059894  1
  Hf  Hf10  1  0.203362  0.404804  0.059680  1
  Hf  Hf11  1  0.595196  0.796638  0.059680  1
  Hf  Hf12  1  0.542788  0.457212  0.250000  1
  Hf  Hf13  1  0.542516  0.086267  0.250000  1
  Hf  Hf14  1  0.913733  0.457484  0.250000  1
  Hf  Hf15  1  0.457720  0.542280  0.750000  1
  Hf  Hf16  1  0.457167  0.914914  0.750000  1
  Hf  Hf17  1  0.085086  0.542833  0.750000  1
  Ta  Ta18  1  0.998652  0.001348  0.497223  1
  Ta  Ta19  1  0.998652  0.001348  0.002777  1
  Co  Co20  1  0.333834  0.666166  0.250000  1
  Co  Co21  1  0.667225  0.332775  0.750000  1
  Ru  Ru22  1  0.886193  0.113807  0.250000  1
  W  W23  1  0.885404  0.769684  0.250000  1
  W  W24  1  0.230316  0.114596  0.250000  1
  W  W25  1  0.113671  0.886329  0.750000  1
  W  W26  1  0.112421  0.228211  0.750000  1
  W  W27  1  0.771789  0.887579  0.750000  1
