# generated using pymatgen
data_ThPaRh2Pb
_symmetry_space_group_name_H-M   'P 1'
_cell_length_a   7.96146700
_cell_length_b   7.84569000
_cell_length_c   3.66182300
_cell_angle_alpha   90.00000000
_cell_angle_beta   90.00000000
_cell_angle_gamma   90.00000000
_symmetry_Int_Tables_number   1
_chemical_formula_structural   ThPaRh2Pb
_chemical_formula_sum   'Th2 Pa2 Rh4 Pb2'
_cell_volume   228.72918984
_cell_formula_units_Z   2
loop_
 _symmetry_equiv_pos_site_id
 _symmetry_equiv_pos_as_xyz
  1  'x, y, z'
loop_
 _atom_site_type_symbol
 _atom_site_label
 _atom_site_symmetry_multiplicity
 _atom_site_fract_x
 _atom_site_fract_y
 _atom_site_fract_z
 _atom_site_occupancy
  Th  Th0  1  0.329481  0.171048  0.500001  1
  Th  Th1  1  0.829480  0.328953  0.500001  1
  Pa  Pa2  1  0.175971  0.666729  0.500001  1
  Pa  Pa3  1  0.675970  0.833270  0.500001  1
  Rh  Rh4  1  0.630861  0.104821  0.000000  1
  Rh  Rh5  1  0.130862  0.395179  0.000000  1
  Rh  Rh6  1  0.860111  0.647955  0.000000  1
  Rh  Rh7  1  0.360110  0.852045  0.000000  1
  Pb  Pb8  1  0.003578  0.997898  0.000000  1
  Pb  Pb9  1  0.503579  0.502103  0.000000  1
