# generated using pymatgen
data_Tb12Dy8Co3Bi8Ru
_symmetry_space_group_name_H-M   'P 1'
_cell_length_a   8.02960995
_cell_length_b   8.93731100
_cell_length_c   12.50015636
_cell_angle_alpha   90.00000000
_cell_angle_beta   90.16007174
_cell_angle_gamma   90.00000000
_symmetry_Int_Tables_number   1
_chemical_formula_structural   Tb12Dy8Co3Bi8Ru
_chemical_formula_sum   'Tb12 Dy8 Co3 Bi8 Ru1'
_cell_volume   897.04673686
_cell_formula_units_Z   1
loop_
 _symmetry_equiv_pos_site_id
 _symmetry_equiv_pos_as_xyz
  1  'x, y, z'
loop_
 _atom_site_type_symbol
 _atom_site_label
 _atom_site_symmetry_multiplicity
 _atom_site_fract_x
 _atom_site_fract_y
 _atom_site_fract_z
 _atom_site_occupancy
  Tb  Tb0  1  0.847178  0.750000  0.799943  1
  Tb  Tb1  1  0.152027  0.250000  0.198797  1
  Tb  Tb2  1  0.347884  0.250000  0.699286  1
  Tb  Tb3  1  0.653547  0.750000  0.296082  1
  Tb  Tb4  1  0.378702  0.750000  0.693131  1
  Tb  Tb5  1  0.618665  0.250000  0.310356  1
  Tb  Tb6  1  0.880769  0.250000  0.810951  1
  Tb  Tb7  1  0.118295  0.750000  0.187555  1
  Tb  Tb8  1  0.950153  0.750000  0.504039  1
  Tb  Tb9  1  0.050074  0.250000  0.496536  1
  Tb  Tb10  1  0.451582  0.250000  0.997057  1
  Tb  Tb11  1  0.548807  0.750000  0.002740  1
  Dy  Dy12  1  0.676779  0.041863  0.564485  1
  Dy  Dy13  1  0.323704  0.965473  0.436236  1
  Dy  Dy14  1  0.175476  0.965382  0.936804  1
  Dy  Dy15  1  0.323704  0.534527  0.436236  1
  Dy  Dy16  1  0.823576  0.036432  0.063203  1
  Dy  Dy17  1  0.676779  0.458137  0.564485  1
  Dy  Dy18  1  0.823576  0.463568  0.063203  1
  Dy  Dy19  1  0.175476  0.534618  0.936804  1
  Co  Co20  1  0.434567  0.250000  0.491145  1
  Co  Co21  1  0.060984  0.250000  0.992101  1
  Co  Co22  1  0.937110  0.750000  0.007228  1
  Bi  Bi23  1  0.571043  0.491573  0.826814  1
  Bi  Bi24  1  0.428298  0.508067  0.173451  1
  Bi  Bi25  1  0.071258  0.507766  0.674672  1
  Bi  Bi26  1  0.428298  0.991933  0.173451  1
  Bi  Bi27  1  0.930312  0.492031  0.325777  1
  Bi  Bi28  1  0.571043  0.008427  0.826814  1
  Bi  Bi29  1  0.930312  0.007969  0.325777  1
  Bi  Bi30  1  0.071258  0.992234  0.674672  1
  Ru  Ru31  1  0.568764  0.750000  0.510171  1
