# generated using pymatgen
data_Tm2Sc3InSb2
_symmetry_space_group_name_H-M   'P 1'
_cell_length_a   8.70066200
_cell_length_b   8.61538160
_cell_length_c   6.11619400
_cell_angle_alpha   90.00000000
_cell_angle_beta   90.00000000
_cell_angle_gamma   120.32798755
_symmetry_Int_Tables_number   1
_chemical_formula_structural   Tm2Sc3InSb2
_chemical_formula_sum   'Tm4 Sc6 In2 Sb4'
_cell_volume   395.72532040
_cell_formula_units_Z   2
loop_
 _symmetry_equiv_pos_site_id
 _symmetry_equiv_pos_as_xyz
  1  'x, y, z'
loop_
 _atom_site_type_symbol
 _atom_site_label
 _atom_site_symmetry_multiplicity
 _atom_site_fract_x
 _atom_site_fract_y
 _atom_site_fract_z
 _atom_site_occupancy
  Tm  Tm0  1  0.993089  0.236234  0.250000  1
  Tm  Tm1  1  0.756856  0.763766  0.250000  1
  Tm  Tm2  1  0.243144  0.236234  0.750000  1
  Tm  Tm3  1  0.006911  0.763766  0.750000  1
  Sc  Sc4  1  0.333207  0.666416  0.000000  1
  Sc  Sc5  1  0.666793  0.333584  0.500000  1
  Sc  Sc6  1  0.666793  0.333584  0.000000  1
  Sc  Sc7  1  0.333207  0.666416  0.500000  1
  Sc  Sc8  1  0.239687  0.000000  0.250000  1
  Sc  Sc9  1  0.760313  0.000000  0.750000  1
  In  In10  1  0.593827  0.000000  0.250000  1
  In  In11  1  0.406173  0.000000  0.750000  1
  Sb  Sb12  1  0.002139  0.610280  0.250000  1
  Sb  Sb13  1  0.391859  0.389720  0.250000  1
  Sb  Sb14  1  0.608141  0.610280  0.750000  1
  Sb  Sb15  1  0.997861  0.389720  0.750000  1
