# generated using pymatgen
data_CeHo2(ZnNi)3
_symmetry_space_group_name_H-M   'P 1'
_cell_length_a   7.14938600
_cell_length_b   7.04477752
_cell_length_c   3.66497000
_cell_angle_alpha   90.00000000
_cell_angle_beta   90.00000000
_cell_angle_gamma   120.49243145
_symmetry_Int_Tables_number   1
_chemical_formula_structural   CeHo2(ZnNi)3
_chemical_formula_sum   'Ce1 Ho2 Zn3 Ni3'
_cell_volume   159.05987186
_cell_formula_units_Z   1
loop_
 _symmetry_equiv_pos_site_id
 _symmetry_equiv_pos_as_xyz
  1  'x, y, z'
loop_
 _atom_site_type_symbol
 _atom_site_label
 _atom_site_symmetry_multiplicity
 _atom_site_fract_x
 _atom_site_fract_y
 _atom_site_fract_z
 _atom_site_occupancy
  Ce  Ce0  1  0.417532  0.000000  0.500000  1
  Ho  Ho1  1  0.997777  0.408728  0.500000  1
  Ho  Ho2  1  0.589048  0.591272  0.500000  1
  Zn  Zn3  1  0.994991  0.750660  0.000000  1
  Zn  Zn4  1  0.244331  0.249340  0.000000  1
  Zn  Zn5  1  0.764419  0.000000  0.000000  1
  Ni  Ni6  1  0.333338  0.677787  0.000000  1
  Ni  Ni7  1  0.655552  0.322213  0.000000  1
  Ni  Ni8  1  0.003012  0.000000  0.500000  1
