# generated using pymatgen
data_Ac3Sm2(Sn5Ir2)2
_symmetry_space_group_name_H-M   'P 1'
_cell_length_a   14.32963800
_cell_length_b   14.32963800
_cell_length_c   4.73698500
_cell_angle_alpha   90.00000000
_cell_angle_beta   90.00000000
_cell_angle_gamma   90.00000000
_symmetry_Int_Tables_number   1
_chemical_formula_structural   Ac3Sm2(Sn5Ir2)2
_chemical_formula_sum   'Ac6 Sm4 Sn20 Ir8'
_cell_volume   972.68551385
_cell_formula_units_Z   2
loop_
 _symmetry_equiv_pos_site_id
 _symmetry_equiv_pos_as_xyz
  1  'x, y, z'
loop_
 _atom_site_type_symbol
 _atom_site_label
 _atom_site_symmetry_multiplicity
 _atom_site_fract_x
 _atom_site_fract_y
 _atom_site_fract_z
 _atom_site_occupancy
  Ac  Ac0  1  0.500000  0.500000  0.000000  1
  Ac  Ac1  1  0.000000  0.000000  0.000000  1
  Ac  Ac2  1  0.887073  0.387073  0.500000  1
  Ac  Ac3  1  0.112927  0.612927  0.500000  1
  Ac  Ac4  1  0.387073  0.112927  0.500000  1
  Ac  Ac5  1  0.612927  0.887073  0.500000  1
  Sm  Sm6  1  0.675789  0.175789  0.500000  1
  Sm  Sm7  1  0.324211  0.824211  0.500000  1
  Sm  Sm8  1  0.175789  0.324211  0.500000  1
  Sm  Sm9  1  0.824211  0.675789  0.500000  1
  Sn  Sn10  1  0.570743  0.070743  0.000000  1
  Sn  Sn11  1  0.429257  0.929257  0.000000  1
  Sn  Sn12  1  0.070743  0.429257  0.000000  1
  Sn  Sn13  1  0.929257  0.570743  0.000000  1
  Sn  Sn14  1  0.655816  0.698059  0.000000  1
  Sn  Sn15  1  0.344184  0.301941  0.000000  1
  Sn  Sn16  1  0.155816  0.801941  0.000000  1
  Sn  Sn17  1  0.844184  0.198059  0.000000  1
  Sn  Sn18  1  0.301941  0.655816  0.000000  1
  Sn  Sn19  1  0.698059  0.344184  0.000000  1
  Sn  Sn20  1  0.198059  0.155816  0.000000  1
  Sn  Sn21  1  0.801941  0.844184  0.000000  1
  Sn  Sn22  1  0.665885  0.509524  0.500000  1
  Sn  Sn23  1  0.334115  0.490476  0.500000  1
  Sn  Sn24  1  0.165885  0.990476  0.500000  1
  Sn  Sn25  1  0.834115  0.009524  0.500000  1
  Sn  Sn26  1  0.490476  0.665885  0.500000  1
  Sn  Sn27  1  0.509524  0.334115  0.500000  1
  Sn  Sn28  1  0.009524  0.165885  0.500000  1
  Sn  Sn29  1  0.990476  0.834115  0.500000  1
  Ir  Ir30  1  0.746549  0.528961  0.000000  1
  Ir  Ir31  1  0.253451  0.471039  0.000000  1
  Ir  Ir32  1  0.246549  0.971039  0.000000  1
  Ir  Ir33  1  0.753451  0.028961  0.000000  1
  Ir  Ir34  1  0.471039  0.746549  0.000000  1
  Ir  Ir35  1  0.528961  0.253451  0.000000  1
  Ir  Ir36  1  0.028961  0.246549  0.000000  1
  Ir  Ir37  1  0.971039  0.753451  0.000000  1
