# generated using pymatgen
data_Gd2Re2C3
_symmetry_space_group_name_H-M   'P 1'
_cell_length_a   6.14944153
_cell_length_b   6.14944176
_cell_length_c   5.74758889
_cell_angle_alpha   66.22279254
_cell_angle_beta   66.22279146
_cell_angle_gamma   31.44841390
_symmetry_Int_Tables_number   1
_chemical_formula_structural   Gd2Re2C3
_chemical_formula_sum   'Gd2 Re2 C3'
_cell_volume   102.97089336
_cell_formula_units_Z   1
loop_
 _symmetry_equiv_pos_site_id
 _symmetry_equiv_pos_as_xyz
  1  'x, y, z'
loop_
 _atom_site_type_symbol
 _atom_site_label
 _atom_site_symmetry_multiplicity
 _atom_site_fract_x
 _atom_site_fract_y
 _atom_site_fract_z
 _atom_site_occupancy
  Gd  Gd0  1  0.392543  0.392543  0.815227  1
  Gd  Gd1  1  0.607457  0.607457  0.184773  1
  Re  Re2  1  0.158229  0.158229  0.678385  1
  Re  Re3  1  0.841771  0.841771  0.321615  1
  C  C4  1  0.000000  0.000000  0.000000  1
  C  C5  1  0.249058  0.249058  0.268879  1
  C  C6  1  0.750942  0.750942  0.731121  1
