# generated using pymatgen
data_TbNd(Cu3Ni2)2
_symmetry_space_group_name_H-M   'P 1'
_cell_length_a   4.06546300
_cell_length_b   4.97116600
_cell_length_c   8.61809500
_cell_angle_alpha   90.00000000
_cell_angle_beta   90.00000000
_cell_angle_gamma   90.00000000
_symmetry_Int_Tables_number   1
_chemical_formula_structural   TbNd(Cu3Ni2)2
_chemical_formula_sum   'Tb1 Nd1 Cu6 Ni4'
_cell_volume   174.17248799
_cell_formula_units_Z   1
loop_
 _symmetry_equiv_pos_site_id
 _symmetry_equiv_pos_as_xyz
  1  'x, y, z'
loop_
 _atom_site_type_symbol
 _atom_site_label
 _atom_site_symmetry_multiplicity
 _atom_site_fract_x
 _atom_site_fract_y
 _atom_site_fract_z
 _atom_site_occupancy
  Tb  Tb0  1  0.000000  0.000000  0.994353  1
  Nd  Nd1  1  0.000000  0.500000  0.505503  1
  Cu  Cu2  1  0.000000  0.000000  0.328657  1
  Cu  Cu3  1  0.500000  0.000000  0.500842  1
  Cu  Cu4  1  0.500000  0.250267  0.245686  1
  Cu  Cu5  1  0.500000  0.751106  0.754200  1
  Cu  Cu6  1  0.500000  0.749733  0.245686  1
  Cu  Cu7  1  0.500000  0.248894  0.754200  1
  Ni  Ni8  1  0.000000  0.500000  0.840736  1
  Ni  Ni9  1  0.000000  0.500000  0.161443  1
  Ni  Ni10  1  0.000000  0.000000  0.668342  1
  Ni  Ni11  1  0.500000  0.500000  0.000352  1
