# generated using pymatgen
data_Dy19TmBi12
_symmetry_space_group_name_H-M   'P 1'
_cell_length_a   8.27063650
_cell_length_b   9.53179601
_cell_length_c   12.05681774
_cell_angle_alpha   89.99433624
_cell_angle_beta   90.03981458
_cell_angle_gamma   90.00167384
_symmetry_Int_Tables_number   1
_chemical_formula_structural   Dy19TmBi12
_chemical_formula_sum   'Dy19 Tm1 Bi12'
_cell_volume   950.48717668
_cell_formula_units_Z   1
loop_
 _symmetry_equiv_pos_site_id
 _symmetry_equiv_pos_as_xyz
  1  'x, y, z'
loop_
 _atom_site_type_symbol
 _atom_site_label
 _atom_site_symmetry_multiplicity
 _atom_site_fract_x
 _atom_site_fract_y
 _atom_site_fract_z
 _atom_site_occupancy
  Dy  Dy0  1  0.352801  0.749693  0.215166  1
  Dy  Dy1  1  0.852189  0.749658  0.284523  1
  Dy  Dy2  1  0.647300  0.249836  0.784630  1
  Dy  Dy3  1  0.147367  0.249958  0.715333  1
  Dy  Dy4  1  0.192560  0.936115  0.441481  1
  Dy  Dy5  1  0.307578  0.063918  0.941576  1
  Dy  Dy6  1  0.807358  0.436189  0.558474  1
  Dy  Dy7  1  0.307190  0.436207  0.941461  1
  Dy  Dy8  1  0.807413  0.063873  0.558516  1
  Dy  Dy9  1  0.692743  0.935882  0.058428  1
  Dy  Dy10  1  0.192620  0.563878  0.441500  1
  Dy  Dy11  1  0.475177  0.249852  0.488050  1
  Dy  Dy12  1  0.974963  0.250025  0.011872  1
  Dy  Dy13  1  0.524793  0.750028  0.511862  1
  Dy  Dy14  1  0.024331  0.749797  0.988235  1
  Dy  Dy15  1  0.312601  0.250011  0.218675  1
  Dy  Dy16  1  0.812729  0.249965  0.281332  1
  Dy  Dy17  1  0.687297  0.749789  0.781467  1
  Dy  Dy18  1  0.187313  0.749980  0.718722  1
  Tm  Tm19  1  0.692716  0.564929  0.058533  1
  Bi  Bi20  1  0.407708  0.749596  0.957053  1
  Bi  Bi21  1  0.907355  0.750031  0.543050  1
  Bi  Bi22  1  0.593075  0.251394  0.043330  1
  Bi  Bi23  1  0.092643  0.250012  0.456864  1
  Bi  Bi24  1  0.565059  0.995451  0.325207  1
  Bi  Bi25  1  0.064789  0.504432  0.174573  1
  Bi  Bi26  1  0.435117  0.495487  0.674835  1
  Bi  Bi27  1  0.934941  0.004372  0.825315  1
  Bi  Bi28  1  0.435034  0.004375  0.674760  1
  Bi  Bi29  1  0.935047  0.495420  0.825434  1
  Bi  Bi30  1  0.565185  0.504413  0.325097  1
  Bi  Bi31  1  0.065009  0.995433  0.174645  1
