# generated using pymatgen
data_La2PaSe5
_symmetry_space_group_name_H-M   'P 1'
_cell_length_a   7.91150200
_cell_length_b   8.58675100
_cell_length_c   12.59764700
_cell_angle_alpha   90.00000000
_cell_angle_beta   90.00000000
_cell_angle_gamma   90.00000000
_symmetry_Int_Tables_number   1
_chemical_formula_structural   La2PaSe5
_chemical_formula_sum   'La8 Pa4 Se20'
_cell_volume   855.80978221
_cell_formula_units_Z   4
loop_
 _symmetry_equiv_pos_site_id
 _symmetry_equiv_pos_as_xyz
  1  'x, y, z'
loop_
 _atom_site_type_symbol
 _atom_site_label
 _atom_site_symmetry_multiplicity
 _atom_site_fract_x
 _atom_site_fract_y
 _atom_site_fract_z
 _atom_site_occupancy
  La  La0  1  0.529529  0.500469  0.322574  1
  La  La1  1  0.970471  0.999531  0.822574  1
  La  La2  1  0.470471  0.000469  0.677426  1
  La  La3  1  0.029529  0.499531  0.177426  1
  La  La4  1  0.470471  0.499531  0.677426  1
  La  La5  1  0.029529  0.000469  0.177426  1
  La  La6  1  0.529529  0.999531  0.322574  1
  La  La7  1  0.970471  0.500469  0.822574  1
  Pa  Pa8  1  0.072615  0.750000  0.492535  1
  Pa  Pa9  1  0.427385  0.750000  0.992535  1
  Pa  Pa10  1  0.927385  0.250000  0.507465  1
  Pa  Pa11  1  0.572615  0.250000  0.007465  1
  Se  Se12  1  0.834296  0.957398  0.592565  1
  Se  Se13  1  0.665704  0.542602  0.092565  1
  Se  Se14  1  0.165704  0.457398  0.407435  1
  Se  Se15  1  0.334296  0.042602  0.907435  1
  Se  Se16  1  0.165704  0.042602  0.407435  1
  Se  Se17  1  0.334296  0.457398  0.907435  1
  Se  Se18  1  0.834296  0.542602  0.592565  1
  Se  Se19  1  0.665704  0.957398  0.092565  1
  Se  Se20  1  0.835869  0.750000  0.313607  1
  Se  Se21  1  0.664131  0.750000  0.813607  1
  Se  Se22  1  0.164131  0.250000  0.686393  1
  Se  Se23  1  0.335869  0.250000  0.186393  1
  Se  Se24  1  0.453507  0.750000  0.498366  1
  Se  Se25  1  0.046493  0.750000  0.998366  1
  Se  Se26  1  0.546493  0.250000  0.501634  1
  Se  Se27  1  0.953507  0.250000  0.001634  1
  Se  Se28  1  0.190921  0.750000  0.714198  1
  Se  Se29  1  0.309079  0.750000  0.214198  1
  Se  Se30  1  0.809079  0.250000  0.285802  1
  Se  Se31  1  0.690921  0.250000  0.785802  1
