# generated using pymatgen
data_Ho2Ga9Tc2Ru3
_symmetry_space_group_name_H-M   'P 1'
_cell_length_a   8.00147612
_cell_length_b   8.00147604
_cell_length_c   8.00147662
_cell_angle_alpha   134.33135140
_cell_angle_beta   134.33135397
_cell_angle_gamma   66.57092596
_symmetry_Int_Tables_number   1
_chemical_formula_structural   Ho2Ga9Tc2Ru3
_chemical_formula_sum   'Ho2 Ga9 Tc2 Ru3'
_cell_volume   257.96694159
_cell_formula_units_Z   1
loop_
 _symmetry_equiv_pos_site_id
 _symmetry_equiv_pos_as_xyz
  1  'x, y, z'
loop_
 _atom_site_type_symbol
 _atom_site_label
 _atom_site_symmetry_multiplicity
 _atom_site_fract_x
 _atom_site_fract_y
 _atom_site_fract_z
 _atom_site_occupancy
  Ho  Ho0  1  0.000000  0.500000  0.500000  1
  Ho  Ho1  1  0.500000  0.000000  0.500000  1
  Ga  Ga2  1  0.437768  0.858102  0.000000  1
  Ga  Ga3  1  0.141898  0.141898  0.579666  1
  Ga  Ga4  1  0.858102  0.437768  0.000000  1
  Ga  Ga5  1  0.858102  0.858102  0.420334  1
  Ga  Ga6  1  0.562232  0.141898  0.000000  1
  Ga  Ga7  1  0.141898  0.562232  0.000000  1
  Ga  Ga8  1  0.562232  0.562232  0.420334  1
  Ga  Ga9  1  0.000000  0.000000  0.000000  1
  Ga  Ga10  1  0.437768  0.437768  0.579666  1
  Tc  Tc11  1  0.182064  0.182064  0.000000  1
  Tc  Tc12  1  0.817936  0.817936  0.000000  1
  Ru  Ru13  1  0.250000  0.750000  0.500000  1
  Ru  Ru14  1  0.750000  0.250000  0.500000  1
  Ru  Ru15  1  0.500000  0.500000  0.000000  1
