# generated using pymatgen
data_Tb6Hg7Ir
_symmetry_space_group_name_H-M   'P 1'
_cell_length_a   8.22676862
_cell_length_b   8.40490739
_cell_length_c   8.20905184
_cell_angle_alpha   114.14696913
_cell_angle_beta   111.81880226
_cell_angle_gamma   115.36559487
_symmetry_Int_Tables_number   1
_chemical_formula_structural   Tb6Hg7Ir
_chemical_formula_sum   'Tb6 Hg7 Ir1'
_cell_volume   350.23635204
_cell_formula_units_Z   1
loop_
 _symmetry_equiv_pos_site_id
 _symmetry_equiv_pos_as_xyz
  1  'x, y, z'
loop_
 _atom_site_type_symbol
 _atom_site_label
 _atom_site_symmetry_multiplicity
 _atom_site_fract_x
 _atom_site_fract_y
 _atom_site_fract_z
 _atom_site_occupancy
  Tb  Tb0  1  0.009419  0.290717  0.366653  1
  Tb  Tb1  1  0.245059  0.413097  0.039282  1
  Tb  Tb2  1  0.363811  0.948977  0.245283  1
  Tb  Tb3  1  0.022455  0.750245  0.594754  1
  Tb  Tb4  1  0.754315  0.608987  0.031162  1
  Tb  Tb5  1  0.585036  0.982512  0.722740  1
  Hg  Hg6  1  0.995746  0.974670  0.984417  1
  Hg  Hg7  1  0.519505  0.477726  0.505746  1
  Hg  Hg8  1  0.547391  0.239866  0.092799  1
  Hg  Hg9  1  0.252167  0.123300  0.568030  1
  Hg  Hg10  1  0.894197  0.424288  0.725766  1
  Hg  Hg11  1  0.445621  0.742887  0.915383  1
  Hg  Hg12  1  0.777299  0.933111  0.450683  1
  Ir  Ir13  1  0.087980  0.589618  0.257303  1
