# generated using pymatgen
data_Ho8BeZn2Si12Pd
_symmetry_space_group_name_H-M   'P 1'
_cell_length_a   8.05370800
_cell_length_b   8.05370824
_cell_length_c   8.01198200
_cell_angle_alpha   90.00000000
_cell_angle_beta   90.00000000
_cell_angle_gamma   119.99999901
_symmetry_Int_Tables_number   1
_chemical_formula_structural   Ho8BeZn2Si12Pd
_chemical_formula_sum   'Ho8 Be1 Zn2 Si12 Pd1'
_cell_volume   450.05166519
_cell_formula_units_Z   1
loop_
 _symmetry_equiv_pos_site_id
 _symmetry_equiv_pos_as_xyz
  1  'x, y, z'
loop_
 _atom_site_type_symbol
 _atom_site_label
 _atom_site_symmetry_multiplicity
 _atom_site_fract_x
 _atom_site_fract_y
 _atom_site_fract_z
 _atom_site_occupancy
  Ho  Ho0  1  0.502107  0.004213  0.246973  1
  Ho  Ho1  1  0.501846  0.003692  0.753028  1
  Ho  Ho2  1  0.995787  0.497893  0.246973  1
  Ho  Ho3  1  0.996308  0.498154  0.753028  1
  Ho  Ho4  1  0.502107  0.497893  0.246973  1
  Ho  Ho5  1  0.501846  0.498154  0.753028  1
  Ho  Ho6  1  0.000000  0.000000  0.248295  1
  Ho  Ho7  1  0.000000  0.000000  0.751515  1
  Be  Be8  1  0.666667  0.333333  0.999847  1
  Zn  Zn9  1  0.333333  0.666667  0.001446  1
  Zn  Zn10  1  0.666667  0.333333  0.500095  1
  Si  Si11  1  0.164951  0.329900  0.999889  1
  Si  Si12  1  0.825461  0.650924  0.999871  1
  Si  Si13  1  0.670100  0.835049  0.999889  1
  Si  Si14  1  0.835054  0.670109  0.500055  1
  Si  Si15  1  0.349076  0.174539  0.999871  1
  Si  Si16  1  0.167404  0.334806  0.499893  1
  Si  Si17  1  0.164951  0.835049  0.999889  1
  Si  Si18  1  0.329891  0.164946  0.500055  1
  Si  Si19  1  0.825461  0.174539  0.999871  1
  Si  Si20  1  0.665194  0.832596  0.499893  1
  Si  Si21  1  0.835054  0.164946  0.500055  1
  Si  Si22  1  0.167404  0.832596  0.499893  1
  Pd  Pd23  1  0.333333  0.666667  0.499674  1
