# generated using pymatgen
data_Ta4Mn2(FeOs)3
_symmetry_space_group_name_H-M   'P 1'
_cell_length_a   4.87748874
_cell_length_b   4.92733828
_cell_length_c   8.15644500
_cell_angle_alpha   90.00000000
_cell_angle_beta   90.00000000
_cell_angle_gamma   119.86990355
_symmetry_Int_Tables_number   1
_chemical_formula_structural   Ta4Mn2(FeOs)3
_chemical_formula_sum   'Ta4 Mn2 Fe3 Os3'
_cell_volume   169.98399806
_cell_formula_units_Z   1
loop_
 _symmetry_equiv_pos_site_id
 _symmetry_equiv_pos_as_xyz
  1  'x, y, z'
loop_
 _atom_site_type_symbol
 _atom_site_label
 _atom_site_symmetry_multiplicity
 _atom_site_fract_x
 _atom_site_fract_y
 _atom_site_fract_z
 _atom_site_occupancy
  Ta  Ta0  1  0.331823  0.664509  0.065318  1
  Ta  Ta1  1  0.665440  0.330138  0.567835  1
  Ta  Ta2  1  0.665440  0.330138  0.932165  1
  Ta  Ta3  1  0.331823  0.664509  0.434682  1
  Mn  Mn4  1  0.646393  0.820510  0.750000  1
  Mn  Mn5  1  0.184791  0.362735  0.750000  1
  Fe  Fe6  1  0.177521  0.826923  0.750000  1
  Fe  Fe7  1  0.340999  0.164046  0.250000  1
  Fe  Fe8  1  0.822766  0.165154  0.250000  1
  Os  Os9  1  0.004514  0.010297  0.992368  1
  Os  Os10  1  0.004514  0.010297  0.507632  1
  Os  Os11  1  0.823973  0.650744  0.250000  1
