# generated using pymatgen
data_LaDyMo2O7
_symmetry_space_group_name_H-M   'P 1'
_cell_length_a   7.46410789
_cell_length_b   7.50318646
_cell_length_c   7.46410836
_cell_angle_alpha   59.82666727
_cell_angle_beta   59.85898299
_cell_angle_gamma   59.82666241
_symmetry_Int_Tables_number   1
_chemical_formula_structural   LaDyMo2O7
_chemical_formula_sum   'La2 Dy2 Mo4 O14'
_cell_volume   294.49723553
_cell_formula_units_Z   2
loop_
 _symmetry_equiv_pos_site_id
 _symmetry_equiv_pos_as_xyz
  1  'x, y, z'
loop_
 _atom_site_type_symbol
 _atom_site_label
 _atom_site_symmetry_multiplicity
 _atom_site_fract_x
 _atom_site_fract_y
 _atom_site_fract_z
 _atom_site_occupancy
  La  La0  1  0.125000  0.625000  0.125000  1
  La  La1  1  0.125000  0.125000  0.125000  1
  Dy  Dy2  1  0.625000  0.125000  0.125000  1
  Dy  Dy3  1  0.125000  0.125000  0.625000  1
  Mo  Mo4  1  0.125000  0.625000  0.625000  1
  Mo  Mo5  1  0.625000  0.125000  0.625000  1
  Mo  Mo6  1  0.625000  0.625000  0.125000  1
  Mo  Mo7  1  0.625000  0.625000  0.625000  1
  O  O8  1  0.703401  0.720743  0.287739  1
  O  O9  1  0.287739  0.288116  0.703401  1
  O  O10  1  0.703977  0.296023  0.703977  1
  O  O11  1  0.292989  0.707011  0.292989  1
  O  O12  1  0.287739  0.720743  0.703401  1
  O  O13  1  0.703401  0.288116  0.287739  1
  O  O14  1  0.546599  0.529257  0.962261  1
  O  O15  1  0.962261  0.961884  0.546599  1
  O  O16  1  0.546023  0.953977  0.546023  1
  O  O17  1  0.957011  0.542989  0.957011  1
  O  O18  1  0.962261  0.529257  0.546599  1
  O  O19  1  0.546599  0.961884  0.962261  1
  O  O20  1  0.260270  0.239730  0.260270  1
  O  O21  1  0.989730  0.010270  0.989730  1
