# generated using pymatgen
data_Dy3Tm7(SnSb)3
_symmetry_space_group_name_H-M   'P 1'
_cell_length_a   6.34378800
_cell_length_b   8.90943209
_cell_length_c   8.90947800
_cell_angle_alpha   119.99983951
_cell_angle_beta   89.99981676
_cell_angle_gamma   90.00035068
_symmetry_Int_Tables_number   1
_chemical_formula_structural   Dy3Tm7(SnSb)3
_chemical_formula_sum   'Dy3 Tm7 Sn3 Sb3'
_cell_volume   436.09617420
_cell_formula_units_Z   1
loop_
 _symmetry_equiv_pos_site_id
 _symmetry_equiv_pos_as_xyz
  1  'x, y, z'
loop_
 _atom_site_type_symbol
 _atom_site_label
 _atom_site_symmetry_multiplicity
 _atom_site_fract_x
 _atom_site_fract_y
 _atom_site_fract_z
 _atom_site_occupancy
  Dy  Dy0  1  0.249998  0.758070  0.000000  1
  Dy  Dy1  1  0.250002  0.241940  0.241947  1
  Dy  Dy2  1  0.250002  0.999993  0.758053  1
  Tm  Tm3  1  0.501332  0.333340  0.666679  1
  Tm  Tm4  1  0.501332  0.666660  0.333321  1
  Tm  Tm5  1  0.998669  0.666659  0.333324  1
  Tm  Tm6  1  0.998669  0.333335  0.666676  1
  Tm  Tm7  1  0.750000  0.240829  0.000000  1
  Tm  Tm8  1  0.750001  0.759175  0.759163  1
  Tm  Tm9  1  0.750001  0.000013  0.240837  1
  Sn  Sn10  1  0.750003  0.606548  0.000000  1
  Sn  Sn11  1  0.750000  0.393452  0.393456  1
  Sn  Sn12  1  0.750000  0.999995  0.606544  1
  Sb  Sb13  1  0.249990  0.392633  0.000000  1
  Sb  Sb14  1  0.250003  0.607359  0.607358  1
  Sb  Sb15  1  0.250003  0.000001  0.392642  1
