# generated using pymatgen
data_La4Pr6Tc2I15
_symmetry_space_group_name_H-M   'P 1'
_cell_length_a   10.04896384
_cell_length_b   11.22308833
_cell_length_c   11.91826507
_cell_angle_alpha   91.51148035
_cell_angle_beta   113.70278114
_cell_angle_gamma   110.04889740
_symmetry_Int_Tables_number   1
_chemical_formula_structural   La4Pr6Tc2I15
_chemical_formula_sum   'La4 Pr6 Tc2 I15'
_cell_volume   1134.91640770
_cell_formula_units_Z   1
loop_
 _symmetry_equiv_pos_site_id
 _symmetry_equiv_pos_as_xyz
  1  'x, y, z'
loop_
 _atom_site_type_symbol
 _atom_site_label
 _atom_site_symmetry_multiplicity
 _atom_site_fract_x
 _atom_site_fract_y
 _atom_site_fract_z
 _atom_site_occupancy
  La  La0  1  0.839782  0.748243  0.175368  1
  La  La1  1  0.160218  0.251757  0.824632  1
  La  La2  1  0.976266  0.794133  0.908176  1
  La  La3  1  0.023734  0.205867  0.091824  1
  Pr  Pr4  1  0.229255  0.582682  0.054473  1
  Pr  Pr5  1  0.770745  0.417318  0.945527  1
  Pr  Pr6  1  0.300570  0.907957  0.278441  1
  Pr  Pr7  1  0.699430  0.092043  0.721559  1
  Pr  Pr8  1  0.088354  0.550062  0.328727  1
  Pr  Pr9  1  0.911646  0.449938  0.671273  1
  Tc  Tc10  1  0.020417  0.683668  0.120275  1
  Tc  Tc11  1  0.979583  0.316332  0.879725  1
  I  I12  1  0.335154  0.444216  0.299382  1
  I  I13  1  0.664846  0.555784  0.700618  1
  I  I14  1  0.208649  0.732299  0.815533  1
  I  I15  1  0.791351  0.267701  0.184467  1
  I  I16  1  0.143110  0.388149  0.581652  1
  I  I17  1  0.856890  0.611851  0.418348  1
  I  I18  1  0.387396  0.798614  0.530686  1
  I  I19  1  0.612604  0.201386  0.469314  1
  I  I20  1  0.267590  0.086381  0.056145  1
  I  I21  1  0.732410  0.913619  0.943855  1
  I  I22  1  0.560745  0.842137  0.224846  1
  I  I23  1  0.439255  0.157863  0.775154  1
  I  I24  1  0.093433  0.040135  0.337354  1
  I  I25  1  0.906567  0.959865  0.662646  1
  I  I26  1  0.500000  0.500000  0.000000  1
