# generated using pymatgen
data_La20Ir7Os4Pd
_symmetry_space_group_name_H-M   'P 1'
_cell_length_a   11.44219446
_cell_length_b   11.44219446
_cell_length_c   6.67611464
_cell_angle_alpha   90.05669436
_cell_angle_beta   90.05669436
_cell_angle_gamma   90.09656894
_symmetry_Int_Tables_number   1
_chemical_formula_structural   La20Ir7Os4Pd
_chemical_formula_sum   'La20 Ir7 Os4 Pd1'
_cell_volume   874.06029334
_cell_formula_units_Z   1
loop_
 _symmetry_equiv_pos_site_id
 _symmetry_equiv_pos_as_xyz
  1  'x, y, z'
loop_
 _atom_site_type_symbol
 _atom_site_label
 _atom_site_symmetry_multiplicity
 _atom_site_fract_x
 _atom_site_fract_y
 _atom_site_fract_z
 _atom_site_occupancy
  La  La0  1  0.294397  0.089631  0.387154  1
  La  La1  1  0.296175  0.909561  0.887058  1
  La  La2  1  0.700619  0.088006  0.877993  1
  La  La3  1  0.703051  0.905834  0.388879  1
  La  La4  1  0.589719  0.794557  0.887803  1
  La  La5  1  0.584598  0.205192  0.387648  1
  La  La6  1  0.409156  0.795395  0.387568  1
  La  La7  1  0.409686  0.205129  0.888278  1
  La  La8  1  0.205443  0.410281  0.612197  1
  La  La9  1  0.204605  0.590844  0.112432  1
  La  La10  1  0.794808  0.415402  0.112352  1
  La  La11  1  0.794871  0.590314  0.611722  1
  La  La12  1  0.910369  0.705603  0.112846  1
  La  La13  1  0.911994  0.299381  0.622007  1
  La  La14  1  0.090439  0.703825  0.612942  1
  La  La15  1  0.094166  0.296949  0.111121  1
  La  La16  1  0.002468  0.996994  0.501388  1
  La  La17  1  0.003006  0.997532  0.998612  1
  La  La18  1  0.499820  0.500179  0.999535  1
  La  La19  1  0.499821  0.500180  0.500465  1
  Ir  Ir20  1  0.849353  0.849625  0.749865  1
  Ir  Ir21  1  0.150375  0.150647  0.750135  1
  Ir  Ir22  1  0.152052  0.847948  0.250000  1
  Ir  Ir23  1  0.652717  0.347283  0.750000  1
  Ir  Ir24  1  0.651777  0.651606  0.249922  1
  Ir  Ir25  1  0.348394  0.348223  0.250078  1
  Ir  Ir26  1  0.348275  0.651725  0.750000  1
  Os  Os27  1  0.501544  0.000551  0.125749  1
  Os  Os28  1  0.500738  0.000626  0.625143  1
  Os  Os29  1  0.999374  0.499262  0.874857  1
  Os  Os30  1  0.999449  0.498456  0.374251  1
  Pd  Pd31  1  0.846742  0.153258  0.250000  1
