# generated using pymatgen
data_Sr2(Si2Pd7)3
_symmetry_space_group_name_H-M   'P 1'
_cell_length_a   8.74331757
_cell_length_b   8.74331712
_cell_length_c   8.74331700
_cell_angle_alpha   59.99999667
_cell_angle_beta   59.99999836
_cell_angle_gamma   59.99999285
_symmetry_Int_Tables_number   1
_chemical_formula_structural   Sr2(Si2Pd7)3
_chemical_formula_sum   'Sr2 Si6 Pd21'
_cell_volume   472.62171332
_cell_formula_units_Z   1
loop_
 _symmetry_equiv_pos_site_id
 _symmetry_equiv_pos_as_xyz
  1  'x, y, z'
loop_
 _atom_site_type_symbol
 _atom_site_label
 _atom_site_symmetry_multiplicity
 _atom_site_fract_x
 _atom_site_fract_y
 _atom_site_fract_z
 _atom_site_occupancy
  Sr  Sr0  1  0.750000  0.750000  0.750000  1
  Sr  Sr1  1  0.250000  0.250000  0.250000  1
  Si  Si2  1  0.734286  0.734286  0.265714  1
  Si  Si3  1  0.265714  0.734286  0.265714  1
  Si  Si4  1  0.734286  0.265714  0.265714  1
  Si  Si5  1  0.265714  0.265714  0.734286  1
  Si  Si6  1  0.734286  0.265714  0.734286  1
  Si  Si7  1  0.265714  0.734286  0.734286  1
  Pd  Pd8  1  0.000000  0.000000  0.000000  1
  Pd  Pd9  1  0.613366  0.613366  0.159902  1
  Pd  Pd10  1  0.613366  0.159902  0.613366  1
  Pd  Pd11  1  0.159902  0.613366  0.613366  1
  Pd  Pd12  1  0.613366  0.613366  0.613366  1
  Pd  Pd13  1  0.386634  0.386634  0.840098  1
  Pd  Pd14  1  0.386634  0.840098  0.386634  1
  Pd  Pd15  1  0.840098  0.386634  0.386634  1
  Pd  Pd16  1  0.386634  0.386634  0.386634  1
  Pd  Pd17  1  0.000000  0.000000  0.342531  1
  Pd  Pd18  1  0.657469  0.000000  0.342531  1
  Pd  Pd19  1  0.000000  0.657469  0.342531  1
  Pd  Pd20  1  0.657469  0.342531  0.000000  1
  Pd  Pd21  1  0.000000  0.342531  0.000000  1
  Pd  Pd22  1  0.000000  0.342531  0.657469  1
  Pd  Pd23  1  0.342531  0.657469  0.000000  1
  Pd  Pd24  1  0.342531  0.000000  0.657469  1
  Pd  Pd25  1  0.342531  0.000000  0.000000  1
  Pd  Pd26  1  0.000000  0.000000  0.657469  1
  Pd  Pd27  1  0.000000  0.657469  0.000000  1
  Pd  Pd28  1  0.657469  0.000000  0.000000  1
