# generated using pymatgen
data_Zr2AlInPt2
_symmetry_space_group_name_H-M   'P 1'
_cell_length_a   7.37234000
_cell_length_b   7.37234024
_cell_length_c   7.22536400
_cell_angle_alpha   90.00000000
_cell_angle_beta   90.00000000
_cell_angle_gamma   119.99999893
_symmetry_Int_Tables_number   1
_chemical_formula_structural   Zr2AlInPt2
_chemical_formula_sum   'Zr6 Al3 In3 Pt6'
_cell_volume   340.09566257
_cell_formula_units_Z   3
loop_
 _symmetry_equiv_pos_site_id
 _symmetry_equiv_pos_as_xyz
  1  'x, y, z'
loop_
 _atom_site_type_symbol
 _atom_site_label
 _atom_site_symmetry_multiplicity
 _atom_site_fract_x
 _atom_site_fract_y
 _atom_site_fract_z
 _atom_site_occupancy
  Zr  Zr0  1  0.387298  0.410662  0.745795  1
  Zr  Zr1  1  0.023366  0.612702  0.745795  1
  Zr  Zr2  1  0.589338  0.976634  0.745795  1
  Zr  Zr3  1  0.612702  0.023366  0.254205  1
  Zr  Zr4  1  0.976634  0.589338  0.254205  1
  Zr  Zr5  1  0.410662  0.387298  0.254205  1
  Al  Al6  1  0.718635  0.718635  0.500000  1
  Al  Al7  1  0.281365  0.000000  0.500000  1
  Al  Al8  1  0.000000  0.281365  0.500000  1
  In  In9  1  0.255683  0.000000  0.000000  1
  In  In10  1  0.744317  0.744317  0.000000  1
  In  In11  1  0.000000  0.255683  0.000000  1
  Pt  Pt12  1  0.666667  0.333333  0.960237  1
  Pt  Pt13  1  0.000000  0.000000  0.708301  1
  Pt  Pt14  1  0.666667  0.333333  0.534340  1
  Pt  Pt15  1  0.333333  0.666667  0.465660  1
  Pt  Pt16  1  0.333333  0.666667  0.039763  1
  Pt  Pt17  1  0.000000  0.000000  0.291699  1
