# generated using pymatgen
data_Nd8Zr2(IrRh)3
_symmetry_space_group_name_H-M   'P 1'
_cell_length_a   11.16586573
_cell_length_b   11.16727100
_cell_length_c   6.40454052
_cell_angle_alpha   90.00000000
_cell_angle_beta   89.84913238
_cell_angle_gamma   90.00000000
_symmetry_Int_Tables_number   1
_chemical_formula_structural   Nd8Zr2(IrRh)3
_chemical_formula_sum   'Nd16 Zr4 Ir6 Rh6'
_cell_volume   798.59378997
_cell_formula_units_Z   2
loop_
 _symmetry_equiv_pos_site_id
 _symmetry_equiv_pos_as_xyz
  1  'x, y, z'
loop_
 _atom_site_type_symbol
 _atom_site_label
 _atom_site_symmetry_multiplicity
 _atom_site_fract_x
 _atom_site_fract_y
 _atom_site_fract_z
 _atom_site_occupancy
  Nd  Nd0  1  0.085650  0.286179  0.121123  1
  Nd  Nd1  1  0.786856  0.412606  0.121459  1
  Nd  Nd2  1  0.212934  0.587024  0.120676  1
  Nd  Nd3  1  0.911242  0.712462  0.121087  1
  Nd  Nd4  1  0.414350  0.786179  0.378877  1
  Nd  Nd5  1  0.588758  0.212462  0.378913  1
  Nd  Nd6  1  0.287066  0.087024  0.379324  1
  Nd  Nd7  1  0.713144  0.912606  0.378541  1
  Nd  Nd8  1  0.413065  0.212918  0.878171  1
  Nd  Nd9  1  0.713061  0.087333  0.877934  1
  Nd  Nd10  1  0.287541  0.912865  0.878453  1
  Nd  Nd11  1  0.587476  0.787366  0.878165  1
  Nd  Nd12  1  0.086935  0.712918  0.621829  1
  Nd  Nd13  1  0.912524  0.287366  0.621835  1
  Nd  Nd14  1  0.212459  0.412865  0.621547  1
  Nd  Nd15  1  0.786939  0.587333  0.622066  1
  Zr  Zr16  1  0.999337  0.000268  0.999487  1
  Zr  Zr17  1  0.500732  0.500830  0.999474  1
  Zr  Zr18  1  0.500663  0.500268  0.500513  1
  Zr  Zr19  1  0.999268  0.000830  0.500526  1
  Ir  Ir20  1  0.639677  0.639792  0.249927  1
  Ir  Ir21  1  0.860323  0.139792  0.250073  1
  Ir  Ir22  1  0.360341  0.638957  0.750091  1
  Ir  Ir23  1  0.139659  0.138957  0.749909  1
  Ir  Ir24  1  0.861246  0.860559  0.750035  1
  Ir  Ir25  1  0.638754  0.360559  0.749965  1
  Rh  Rh26  1  0.140180  0.859969  0.249952  1
  Rh  Rh27  1  0.359820  0.359969  0.250048  1
  Rh  Rh28  1  0.001069  0.500708  0.379636  1
  Rh  Rh29  1  0.498931  0.000708  0.120364  1
  Rh  Rh30  1  0.499614  0.000164  0.619627  1
  Rh  Rh31  1  0.000386  0.500164  0.880373  1
