# generated using pymatgen
data_Al(S8Br)3
_symmetry_space_group_name_H-M   'P 1'
_cell_length_a   15.39793354
_cell_length_b   15.39793433
_cell_length_c   15.39793216
_cell_angle_alpha   118.76255408
_cell_angle_beta   118.76255873
_cell_angle_gamma   118.76255463
_symmetry_Int_Tables_number   1
_chemical_formula_structural   Al(S8Br)3
_chemical_formula_sum   'Al1 S24 Br3'
_cell_volume   1049.08340523
_cell_formula_units_Z   1
loop_
 _symmetry_equiv_pos_site_id
 _symmetry_equiv_pos_as_xyz
  1  'x, y, z'
loop_
 _atom_site_type_symbol
 _atom_site_label
 _atom_site_symmetry_multiplicity
 _atom_site_fract_x
 _atom_site_fract_y
 _atom_site_fract_z
 _atom_site_occupancy
  Al  Al0  1  0.952864  0.952864  0.952864  1
  S  S1  1  0.810885  0.524275  0.524275  1
  S  S2  1  0.524275  0.524275  0.810885  1
  S  S3  1  0.524275  0.810885  0.524275  1
  S  S4  1  0.248352  0.375083  0.638551  1
  S  S5  1  0.342848  0.939048  0.342848  1
  S  S6  1  0.342848  0.342848  0.939048  1
  S  S7  1  0.939048  0.342848  0.342848  1
  S  S8  1  0.121192  0.730264  0.248386  1
  S  S9  1  0.248386  0.121192  0.730264  1
  S  S10  1  0.730264  0.248386  0.121192  1
  S  S11  1  0.730264  0.121192  0.248386  1
  S  S12  1  0.248386  0.730264  0.121192  1
  S  S13  1  0.121192  0.248386  0.730264  1
  S  S14  1  0.344955  0.876119  0.524370  1
  S  S15  1  0.524370  0.344955  0.876119  1
  S  S16  1  0.876119  0.524370  0.344955  1
  S  S17  1  0.876119  0.344955  0.524370  1
  S  S18  1  0.524370  0.876119  0.344955  1
  S  S19  1  0.344955  0.524370  0.876119  1
  S  S20  1  0.248352  0.638552  0.375083  1
  S  S21  1  0.375083  0.248352  0.638552  1
  S  S22  1  0.638551  0.375083  0.248352  1
  S  S23  1  0.638552  0.248352  0.375083  1
  S  S24  1  0.375083  0.638552  0.248352  1
  Br  Br25  1  0.860329  0.006690  0.006690  1
  Br  Br26  1  0.006690  0.006690  0.860329  1
  Br  Br27  1  0.006690  0.860329  0.006690  1
