# generated using pymatgen
data_Ca2Tb4Si24Os3Ru5
_symmetry_space_group_name_H-M   'P 1'
_cell_length_a   10.14975476
_cell_length_b   10.14975522
_cell_length_c   8.16099327
_cell_angle_alpha   90.00858696
_cell_angle_beta   90.00858785
_cell_angle_gamma   132.54589541
_symmetry_Int_Tables_number   1
_chemical_formula_structural   Ca2Tb4Si24Os3Ru5
_chemical_formula_sum   'Ca2 Tb4 Si24 Os3 Ru5'
_cell_volume   619.39252640
_cell_formula_units_Z   1
loop_
 _symmetry_equiv_pos_site_id
 _symmetry_equiv_pos_as_xyz
  1  'x, y, z'
loop_
 _atom_site_type_symbol
 _atom_site_label
 _atom_site_symmetry_multiplicity
 _atom_site_fract_x
 _atom_site_fract_y
 _atom_site_fract_z
 _atom_site_occupancy
  Ca  Ca0  1  0.500059  0.499941  0.500000  1
  Ca  Ca1  1  0.999918  0.000082  0.000000  1
  Tb  Tb2  1  0.502217  0.002161  0.749938  1
  Tb  Tb3  1  0.997839  0.497783  0.250062  1
  Tb  Tb4  1  0.499405  0.999490  0.249948  1
  Tb  Tb5  1  0.000510  0.500595  0.750052  1
  Si  Si6  1  0.796967  0.203033  0.500000  1
  Si  Si7  1  0.297075  0.702925  0.000000  1
  Si  Si8  1  0.202908  0.797092  0.500000  1
  Si  Si9  1  0.703527  0.296473  0.000000  1
  Si  Si10  1  0.333483  0.332129  0.832453  1
  Si  Si11  1  0.667871  0.666517  0.167547  1
  Si  Si12  1  0.166969  0.168214  0.332760  1
  Si  Si13  1  0.831786  0.833031  0.667240  1
  Si  Si14  1  0.122660  0.891267  0.730146  1
  Si  Si15  1  0.108733  0.877340  0.269854  1
  Si  Si16  1  0.609887  0.377856  0.229245  1
  Si  Si17  1  0.622144  0.390113  0.770755  1
  Si  Si18  1  0.876915  0.109260  0.269540  1
  Si  Si19  1  0.890740  0.123085  0.730460  1
  Si  Si20  1  0.391673  0.622931  0.769910  1
  Si  Si21  1  0.377069  0.608327  0.230090  1
  Si  Si22  1  0.346174  0.114808  0.506891  1
  Si  Si23  1  0.885192  0.653826  0.493109  1
  Si  Si24  1  0.385868  0.154436  0.005508  1
  Si  Si25  1  0.845564  0.614132  0.994492  1
  Si  Si26  1  0.654129  0.885236  0.493640  1
  Si  Si27  1  0.114764  0.345871  0.506360  1
  Si  Si28  1  0.615106  0.847079  0.992949  1
  Si  Si29  1  0.152921  0.384894  0.007051  1
  Os  Os30  1  0.671397  0.328603  0.500000  1
  Os  Os31  1  0.171856  0.828144  0.000000  1
  Os  Os32  1  0.328138  0.671862  0.500000  1
  Ru  Ru33  1  0.828667  0.171333  0.000000  1
  Ru  Ru34  1  0.125556  0.125804  0.625973  1
  Ru  Ru35  1  0.874196  0.874444  0.374027  1
  Ru  Ru36  1  0.374294  0.374178  0.125633  1
  Ru  Ru37  1  0.625822  0.625706  0.874367  1
