# generated using pymatgen
data_Rb2Zr3(CuTe4)2
_symmetry_space_group_name_H-M   'P 1'
_cell_length_a   4.09116059
_cell_length_b   8.74481829
_cell_length_c   14.41773104
_cell_angle_alpha   93.62898792
_cell_angle_beta   98.26728069
_cell_angle_gamma   103.72620957
_symmetry_Int_Tables_number   1
_chemical_formula_structural   Rb2Zr3(CuTe4)2
_chemical_formula_sum   'Rb2 Zr3 Cu2 Te8'
_cell_volume   493.32433336
_cell_formula_units_Z   1
loop_
 _symmetry_equiv_pos_site_id
 _symmetry_equiv_pos_as_xyz
  1  'x, y, z'
loop_
 _atom_site_type_symbol
 _atom_site_label
 _atom_site_symmetry_multiplicity
 _atom_site_fract_x
 _atom_site_fract_y
 _atom_site_fract_z
 _atom_site_occupancy
  Rb  Rb0  1  0.863330  0.526668  0.197194  1
  Rb  Rb1  1  0.136670  0.473332  0.802805  1
  Zr  Zr2  1  0.500000  0.000000  0.000000  1
  Zr  Zr3  1  0.706775  0.060168  0.379636  1
  Zr  Zr4  1  0.293224  0.939832  0.620363  1
  Cu  Cu5  1  0.152183  0.087757  0.199207  1
  Cu  Cu6  1  0.847816  0.912244  0.800792  1
  Te  Te7  1  0.150719  0.241605  0.048407  1
  Te  Te8  1  0.546938  0.890694  0.189694  1
  Te  Te9  1  0.312902  0.293091  0.347998  1
  Te  Te10  1  0.107630  0.824524  0.421262  1
  Te  Te11  1  0.892370  0.175477  0.578737  1
  Te  Te12  1  0.687099  0.706910  0.652003  1
  Te  Te13  1  0.453062  0.109306  0.810306  1
  Te  Te14  1  0.849280  0.758394  0.951592  1
