# generated using pymatgen
data_TbDy9Si16Sn
_symmetry_space_group_name_H-M   'P 1'
_cell_length_a   11.12889810
_cell_length_b   11.07138379
_cell_length_c   11.12834802
_cell_angle_alpha   144.71050945
_cell_angle_beta   135.92303452
_cell_angle_gamma   57.78750627
_symmetry_Int_Tables_number   1
_chemical_formula_structural   TbDy9Si16Sn
_chemical_formula_sum   'Tb1 Dy9 Si16 Sn1'
_cell_volume   546.14625426
_cell_formula_units_Z   1
loop_
 _symmetry_equiv_pos_site_id
 _symmetry_equiv_pos_as_xyz
  1  'x, y, z'
loop_
 _atom_site_type_symbol
 _atom_site_label
 _atom_site_symmetry_multiplicity
 _atom_site_fract_x
 _atom_site_fract_y
 _atom_site_fract_z
 _atom_site_occupancy
  Tb  Tb0  1  0.756528  0.759807  0.517623  1
  Dy  Dy1  1  0.440940  0.971705  0.015623  1
  Dy  Dy2  1  0.848314  0.368775  0.018741  1
  Dy  Dy3  1  0.956098  0.971726  0.530758  1
  Dy  Dy4  1  0.150375  0.164070  0.516000  1
  Dy  Dy5  1  0.350000  0.368761  0.520462  1
  Dy  Dy6  1  0.242262  0.759813  0.003368  1
  Dy  Dy7  1  0.545178  0.558445  0.497257  1
  Dy  Dy8  1  0.061186  0.558464  0.013241  1
  Dy  Dy9  1  0.648047  0.164045  0.013691  1
  Si  Si10  1  0.199097  0.579692  0.380627  1
  Si  Si11  1  0.000385  0.084164  0.084209  1
  Si  Si12  1  0.697628  0.279989  0.582296  1
  Si  Si13  1  0.799854  0.177754  0.377947  1
  Si  Si14  1  0.895576  0.501339  0.606131  1
  Si  Si15  1  0.417620  0.871403  0.453316  1
  Si  Si16  1  0.104116  0.712876  0.609108  1
  Si  Si17  1  0.301267  0.894631  0.593301  1
  Si  Si18  1  0.578249  0.039434  0.460688  1
  Si  Si19  1  0.999595  0.430884  0.431669  1
  Si  Si20  1  0.882731  0.838795  0.956221  1
  Si  Si21  1  0.401132  0.499867  0.098411  1
  Si  Si22  1  0.117970  0.083543  0.965712  1
  Si  Si23  1  0.288113  0.238444  0.950302  1
  Si  Si24  1  0.499293  0.385275  0.885838  1
  Si  Si25  1  0.595569  0.704988  0.109035  1
  Sn  Sn26  1  0.722876  0.692809  0.969922  1
