# generated using pymatgen
data_Tb2DyIn3Rh2Au
_symmetry_space_group_name_H-M   'P 1'
_cell_length_a   7.77150633
_cell_length_b   7.77154934
_cell_length_c   3.81526000
_cell_angle_alpha   90.00000000
_cell_angle_beta   90.00000000
_cell_angle_gamma   119.96654150
_symmetry_Int_Tables_number   1
_chemical_formula_structural   Tb2DyIn3Rh2Au
_chemical_formula_sum   'Tb2 Dy1 In3 Rh2 Au1'
_cell_volume   199.62453076
_cell_formula_units_Z   1
loop_
 _symmetry_equiv_pos_site_id
 _symmetry_equiv_pos_as_xyz
  1  'x, y, z'
loop_
 _atom_site_type_symbol
 _atom_site_label
 _atom_site_symmetry_multiplicity
 _atom_site_fract_x
 _atom_site_fract_y
 _atom_site_fract_z
 _atom_site_occupancy
  Tb  Tb0  1  0.019496  0.606112  0.500000  1
  Tb  Tb1  1  0.586749  0.980541  0.500000  1
  Dy  Dy2  1  0.393498  0.413226  0.500000  1
  In  In3  1  0.002575  0.258325  0.000000  1
  In  In4  1  0.256219  0.998372  0.000000  1
  In  In5  1  0.741508  0.743403  0.000000  1
  Rh  Rh6  1  0.000289  0.000304  0.500000  1
  Rh  Rh7  1  0.333473  0.666227  0.000000  1
  Au  Au8  1  0.666194  0.333489  0.000000  1
