# generated using pymatgen
data_Tm3Si5
_symmetry_space_group_name_H-M   'P 1'
_cell_length_a   6.54546500
_cell_length_b   6.54546528
_cell_length_c   8.24408800
_cell_angle_alpha   90.00000000
_cell_angle_beta   90.00000000
_cell_angle_gamma   120.00000366
_symmetry_Int_Tables_number   1
_chemical_formula_structural   Tm3Si5
_chemical_formula_sum   'Tm6 Si10'
_cell_volume   305.88224065
_cell_formula_units_Z   2
loop_
 _symmetry_equiv_pos_site_id
 _symmetry_equiv_pos_as_xyz
  1  'x, y, z'
loop_
 _atom_site_type_symbol
 _atom_site_label
 _atom_site_symmetry_multiplicity
 _atom_site_fract_x
 _atom_site_fract_y
 _atom_site_fract_z
 _atom_site_occupancy
  Tm  Tm0  1  0.330077  0.000000  0.500000  1
  Tm  Tm1  1  0.669923  0.669923  0.500000  1
  Tm  Tm2  1  0.000000  0.330077  0.500000  1
  Tm  Tm3  1  0.000000  0.330077  0.000000  1
  Tm  Tm4  1  0.669923  0.669923  0.000000  1
  Tm  Tm5  1  0.330077  0.000000  0.000000  1
  Si  Si6  1  0.000000  0.000000  0.750000  1
  Si  Si7  1  0.668427  0.065929  0.750000  1
  Si  Si8  1  0.397502  0.331573  0.750000  1
  Si  Si9  1  0.934071  0.602498  0.750000  1
  Si  Si10  1  0.333333  0.666667  0.750000  1
  Si  Si11  1  0.000000  0.000000  0.250000  1
  Si  Si12  1  0.666667  0.333333  0.250000  1
  Si  Si13  1  0.331573  0.397502  0.250000  1
  Si  Si14  1  0.065929  0.668427  0.250000  1
  Si  Si15  1  0.602498  0.934071  0.250000  1
