# generated using pymatgen
data_Tb3Ho15(ErSn8)2
_symmetry_space_group_name_H-M   'P 1'
_cell_length_a   8.02669606
_cell_length_b   8.15484660
_cell_length_c   15.42558311
_cell_angle_alpha   90.00693072
_cell_angle_beta   90.12608088
_cell_angle_gamma   89.96748117
_symmetry_Int_Tables_number   1
_chemical_formula_structural   Tb3Ho15(ErSn8)2
_chemical_formula_sum   'Tb3 Ho15 Er2 Sn16'
_cell_volume   1009.70168211
_cell_formula_units_Z   1
loop_
 _symmetry_equiv_pos_site_id
 _symmetry_equiv_pos_as_xyz
  1  'x, y, z'
loop_
 _atom_site_type_symbol
 _atom_site_label
 _atom_site_symmetry_multiplicity
 _atom_site_fract_x
 _atom_site_fract_y
 _atom_site_fract_z
 _atom_site_occupancy
  Tb  Tb0  1  0.980540  0.820632  0.403431  1
  Tb  Tb1  1  0.519151  0.321209  0.596201  1
  Tb  Tb2  1  0.020048  0.178813  0.903596  1
  Ho  Ho3  1  0.367834  0.837531  0.877580  1
  Ho  Ho4  1  0.866621  0.663053  0.622840  1
  Ho  Ho5  1  0.633227  0.162383  0.376951  1
  Ho  Ho6  1  0.132504  0.337362  0.122462  1
  Ho  Ho7  1  0.632020  0.162359  0.122569  1
  Ho  Ho8  1  0.132901  0.337423  0.377220  1
  Ho  Ho9  1  0.367341  0.837538  0.622876  1
  Ho  Ho10  1  0.868524  0.662450  0.877400  1
  Ho  Ho11  1  0.521787  0.321324  0.902591  1
  Ho  Ho12  1  0.020821  0.179250  0.597084  1
  Ho  Ho13  1  0.479237  0.679167  0.403068  1
  Ho  Ho14  1  0.978444  0.820212  0.097404  1
  Ho  Ho15  1  0.478888  0.678613  0.096610  1
  Ho  Ho16  1  0.198700  0.503921  0.750252  1
  Ho  Ho17  1  0.698749  0.996667  0.750202  1
  Er  Er18  1  0.801620  0.496370  0.249647  1
  Er  Er19  1  0.301579  0.003474  0.249750  1
  Sn  Sn20  1  0.292744  0.035649  0.042314  1
  Sn  Sn21  1  0.793317  0.462515  0.458148  1
  Sn  Sn22  1  0.706235  0.962822  0.541665  1
  Sn  Sn23  1  0.207967  0.537328  0.958599  1
  Sn  Sn24  1  0.706073  0.961021  0.959092  1
  Sn  Sn25  1  0.204625  0.539232  0.541131  1
  Sn  Sn26  1  0.294899  0.038725  0.458739  1
  Sn  Sn27  1  0.792549  0.462478  0.041445  1
  Sn  Sn28  1  0.565189  0.618792  0.750225  1
  Sn  Sn29  1  0.065237  0.881807  0.750129  1
  Sn  Sn30  1  0.435720  0.382269  0.249903  1
  Sn  Sn31  1  0.935442  0.118192  0.249841  1
  Sn  Sn32  1  0.330489  0.148900  0.750195  1
  Sn  Sn33  1  0.830427  0.351555  0.749476  1
  Sn  Sn34  1  0.668613  0.850252  0.249811  1
  Sn  Sn35  1  0.169936  0.648714  0.249552  1
