# generated using pymatgen
data_Hf8Ti11TcGe16
_symmetry_space_group_name_H-M   'P 1'
_cell_length_a   6.74956501
_cell_length_b   6.86820501
_cell_length_c   13.08380100
_cell_angle_alpha   90.00000000
_cell_angle_beta   90.00000000
_cell_angle_gamma   90.00581459
_symmetry_Int_Tables_number   1
_chemical_formula_structural   Hf8Ti11TcGe16
_chemical_formula_sum   'Hf8 Ti11 Tc1 Ge16'
_cell_volume   606.53094364
_cell_formula_units_Z   1
loop_
 _symmetry_equiv_pos_site_id
 _symmetry_equiv_pos_as_xyz
  1  'x, y, z'
loop_
 _atom_site_type_symbol
 _atom_site_label
 _atom_site_symmetry_multiplicity
 _atom_site_fract_x
 _atom_site_fract_y
 _atom_site_fract_z
 _atom_site_occupancy
  Hf  Hf0  1  0.487808  0.674212  0.592997  1
  Hf  Hf1  1  0.989431  0.824866  0.907453  1
  Hf  Hf2  1  0.510474  0.324273  0.092712  1
  Hf  Hf3  1  0.009404  0.175785  0.407393  1
  Hf  Hf4  1  0.510474  0.324273  0.407288  1
  Hf  Hf5  1  0.009404  0.175785  0.092607  1
  Hf  Hf6  1  0.487808  0.674212  0.907003  1
  Hf  Hf7  1  0.989431  0.824866  0.592547  1
  Ti  Ti8  1  0.658152  0.165670  0.625134  1
  Ti  Ti9  1  0.157720  0.334444  0.874698  1
  Ti  Ti10  1  0.342681  0.833834  0.125595  1
  Ti  Ti11  1  0.841592  0.666925  0.374699  1
  Ti  Ti12  1  0.342681  0.833834  0.374405  1
  Ti  Ti13  1  0.841592  0.666925  0.125301  1
  Ti  Ti14  1  0.658152  0.165670  0.874866  1
  Ti  Ti15  1  0.157720  0.334444  0.625302  1
  Ti  Ti16  1  0.330879  0.007513  0.750000  1
  Ti  Ti17  1  0.169447  0.505303  0.250000  1
  Ti  Ti18  1  0.669212  0.994333  0.250000  1
  Tc  Tc19  1  0.832126  0.493641  0.750000  1
  Ge  Ge20  1  0.683872  0.959709  0.459162  1
  Ge  Ge21  1  0.183482  0.540881  0.040563  1
  Ge  Ge22  1  0.316811  0.039812  0.959417  1
  Ge  Ge23  1  0.816140  0.458610  0.540775  1
  Ge  Ge24  1  0.316811  0.039812  0.540583  1
  Ge  Ge25  1  0.816140  0.458610  0.959225  1
  Ge  Ge26  1  0.683872  0.959709  0.040838  1
  Ge  Ge27  1  0.183482  0.540881  0.459437  1
  Ge  Ge28  1  0.462327  0.380512  0.750000  1
  Ge  Ge29  1  0.960879  0.118719  0.750000  1
  Ge  Ge30  1  0.540531  0.620097  0.250000  1
  Ge  Ge31  1  0.039700  0.881048  0.250000  1
  Ge  Ge32  1  0.689123  0.853957  0.750000  1
  Ge  Ge33  1  0.190336  0.647380  0.750000  1
  Ge  Ge34  1  0.310784  0.145819  0.250000  1
  Ge  Ge35  1  0.809517  0.353635  0.250000  1
