# generated using pymatgen
data_DyY3Er4(ReC2)4
_symmetry_space_group_name_H-M   'P 1'
_cell_length_a   5.09323000
_cell_length_b   6.57798400
_cell_length_c   9.83284600
_cell_angle_alpha   90.00261178
_cell_angle_beta   90.00000000
_cell_angle_gamma   90.00000000
_symmetry_Int_Tables_number   1
_chemical_formula_structural   DyY3Er4(ReC2)4
_chemical_formula_sum   'Dy1 Y3 Er4 Re4 C8'
_cell_volume   329.43166285
_cell_formula_units_Z   1
loop_
 _symmetry_equiv_pos_site_id
 _symmetry_equiv_pos_as_xyz
  1  'x, y, z'
loop_
 _atom_site_type_symbol
 _atom_site_label
 _atom_site_symmetry_multiplicity
 _atom_site_fract_x
 _atom_site_fract_y
 _atom_site_fract_z
 _atom_site_occupancy
  Dy  Dy0  1  0.750000  0.033212  0.715753  1
  Y  Y1  1  0.250000  0.466619  0.215820  1
  Y  Y2  1  0.250000  0.966638  0.284226  1
  Y  Y3  1  0.750000  0.533363  0.784202  1
  Er  Er4  1  0.250000  0.822294  0.942673  1
  Er  Er5  1  0.250000  0.322357  0.557346  1
  Er  Er6  1  0.750000  0.177625  0.057286  1
  Er  Er7  1  0.750000  0.677875  0.442621  1
  Re  Re8  1  0.250000  0.278815  0.866459  1
  Re  Re9  1  0.250000  0.779034  0.633526  1
  Re  Re10  1  0.750000  0.721147  0.133399  1
  Re  Re11  1  0.750000  0.221129  0.366636  1
  C  C12  1  0.250000  0.046385  0.740653  1
  C  C13  1  0.250000  0.546392  0.759350  1
  C  C14  1  0.750000  0.953653  0.259321  1
  C  C15  1  0.750000  0.453613  0.240675  1
  C  C16  1  0.250000  0.674378  0.450380  1
  C  C17  1  0.250000  0.174223  0.049555  1
  C  C18  1  0.750000  0.325357  0.549853  1
  C  C19  1  0.750000  0.825892  0.950267  1
