# generated using pymatgen
data_Y6Tm10MgHg3Rh4
_symmetry_space_group_name_H-M   'P 1'
_cell_length_a   9.54410889
_cell_length_b   9.52159315
_cell_length_c   9.52159400
_cell_angle_alpha   60.00000401
_cell_angle_beta   60.07801256
_cell_angle_gamma   60.07800984
_symmetry_Int_Tables_number   1
_chemical_formula_structural   Y6Tm10MgHg3Rh4
_chemical_formula_sum   'Y6 Tm10 Mg1 Hg3 Rh4'
_cell_volume   612.56301176
_cell_formula_units_Z   1
loop_
 _symmetry_equiv_pos_site_id
 _symmetry_equiv_pos_as_xyz
  1  'x, y, z'
loop_
 _atom_site_type_symbol
 _atom_site_label
 _atom_site_symmetry_multiplicity
 _atom_site_fract_x
 _atom_site_fract_y
 _atom_site_fract_z
 _atom_site_occupancy
  Y  Y0  1  0.186249  0.812772  0.812772  1
  Y  Y1  1  0.811706  0.187579  0.187579  1
  Y  Y2  1  0.811706  0.187579  0.813137  1
  Y  Y3  1  0.186249  0.812772  0.188207  1
  Y  Y4  1  0.811706  0.813137  0.187579  1
  Y  Y5  1  0.186249  0.188207  0.812772  1
  Tm  Tm6  1  0.600997  0.598580  0.598580  1
  Tm  Tm7  1  0.600997  0.598580  0.201846  1
  Tm  Tm8  1  0.600997  0.201846  0.598580  1
  Tm  Tm9  1  0.190349  0.603218  0.603218  1
  Tm  Tm10  1  0.061386  0.438614  0.438614  1
  Tm  Tm11  1  0.434693  0.064381  0.064381  1
  Tm  Tm12  1  0.434693  0.064381  0.436543  1
  Tm  Tm13  1  0.061386  0.438614  0.061388  1
  Tm  Tm14  1  0.434693  0.436543  0.064381  1
  Tm  Tm15  1  0.061386  0.061388  0.438614  1
  Mg  Mg16  1  0.535225  0.821591  0.821591  1
  Hg  Hg17  1  0.831512  0.835432  0.835432  1
  Hg  Hg18  1  0.831512  0.835432  0.497623  1
  Hg  Hg19  1  0.831512  0.497623  0.835432  1
  Rh  Rh20  1  0.390926  0.394444  0.394444  1
  Rh  Rh21  1  0.390926  0.394444  0.820187  1
  Rh  Rh22  1  0.390926  0.820187  0.394444  1
  Rh  Rh23  1  0.822021  0.392660  0.392660  1
