# generated using pymatgen
data_Ti6Ga5PRu12
_symmetry_space_group_name_H-M   'P 1'
_cell_length_a   4.28855600
_cell_length_b   6.12295900
_cell_length_c   12.85245100
_cell_angle_alpha   90.00000000
_cell_angle_beta   89.99797713
_cell_angle_gamma   90.00000000
_symmetry_Int_Tables_number   1
_chemical_formula_structural   Ti6Ga5PRu12
_chemical_formula_sum   'Ti6 Ga5 P1 Ru12'
_cell_volume   337.48804521
_cell_formula_units_Z   1
loop_
 _symmetry_equiv_pos_site_id
 _symmetry_equiv_pos_as_xyz
  1  'x, y, z'
loop_
 _atom_site_type_symbol
 _atom_site_label
 _atom_site_symmetry_multiplicity
 _atom_site_fract_x
 _atom_site_fract_y
 _atom_site_fract_z
 _atom_site_occupancy
  Ti  Ti0  1  0.000000  0.000000  0.000000  1
  Ti  Ti1  1  0.499702  0.500001  0.168948  1
  Ti  Ti2  1  0.999745  0.000000  0.332720  1
  Ti  Ti3  1  0.499999  0.500001  0.500000  1
  Ti  Ti4  1  0.000253  0.000000  0.667280  1
  Ti  Ti5  1  0.500296  0.500001  0.831052  1
  Ga  Ga6  1  0.499725  0.000000  0.165864  1
  Ga  Ga7  1  0.999724  0.500001  0.332775  1
  Ga  Ga8  1  0.499999  0.000000  0.500000  1
  Ga  Ga9  1  0.000277  0.500001  0.667224  1
  Ga  Ga10  1  0.500275  0.000000  0.834136  1
  P  P11  1  0.000000  0.500001  0.000000  1
  Ru  Ru12  1  0.499999  0.257528  0.000000  1
  Ru  Ru13  1  0.499999  0.742472  0.000000  1
  Ru  Ru14  1  0.999751  0.256489  0.161194  1
  Ru  Ru15  1  0.999751  0.743511  0.161194  1
  Ru  Ru16  1  0.499747  0.248516  0.331957  1
  Ru  Ru17  1  0.499747  0.751484  0.331957  1
  Ru  Ru18  1  0.000000  0.250085  0.500000  1
  Ru  Ru19  1  0.000000  0.749915  0.500000  1
  Ru  Ru20  1  0.500253  0.248516  0.668043  1
  Ru  Ru21  1  0.500253  0.751484  0.668043  1
  Ru  Ru22  1  0.000249  0.256489  0.838806  1
  Ru  Ru23  1  0.000249  0.743511  0.838806  1
