# generated using pymatgen
data_Ho5SiSe4
_symmetry_space_group_name_H-M   'P 1'
_cell_length_a   7.06373813
_cell_length_b   7.06373800
_cell_length_c   7.06373837
_cell_angle_alpha   99.55905709
_cell_angle_beta   99.55905521
_cell_angle_gamma   131.90301182
_symmetry_Int_Tables_number   1
_chemical_formula_structural   Ho5SiSe4
_chemical_formula_sum   'Ho5 Si1 Se4'
_cell_volume   239.55453482
_cell_formula_units_Z   1
loop_
 _symmetry_equiv_pos_site_id
 _symmetry_equiv_pos_as_xyz
  1  'x, y, z'
loop_
 _atom_site_type_symbol
 _atom_site_label
 _atom_site_symmetry_multiplicity
 _atom_site_fract_x
 _atom_site_fract_y
 _atom_site_fract_z
 _atom_site_occupancy
  Ho  Ho0  1  0.404695  0.788729  0.193424  1
  Ho  Ho1  1  0.000000  0.000000  0.000000  1
  Ho  Ho2  1  0.595305  0.211271  0.806576  1
  Ho  Ho3  1  0.211271  0.404695  0.615965  1
  Ho  Ho4  1  0.788729  0.595305  0.384035  1
  Si  Si5  1  0.500000  0.500000  0.000000  1
  Se  Se6  1  0.096671  0.697959  0.794629  1
  Se  Se7  1  0.697959  0.903329  0.601287  1
  Se  Se8  1  0.302041  0.096671  0.398713  1
  Se  Se9  1  0.903329  0.302041  0.205371  1
