# generated using pymatgen
data_Zr8Ti9Si16W3
_symmetry_space_group_name_H-M   'P 1'
_cell_length_a   6.61464700
_cell_length_b   6.76985839
_cell_length_c   13.00493000
_cell_angle_alpha   90.00000000
_cell_angle_beta   90.00000000
_cell_angle_gamma   89.97900797
_symmetry_Int_Tables_number   1
_chemical_formula_structural   Zr8Ti9Si16W3
_chemical_formula_sum   'Zr8 Ti9 Si16 W3'
_cell_volume   582.36363281
_cell_formula_units_Z   1
loop_
 _symmetry_equiv_pos_site_id
 _symmetry_equiv_pos_as_xyz
  1  'x, y, z'
loop_
 _atom_site_type_symbol
 _atom_site_label
 _atom_site_symmetry_multiplicity
 _atom_site_fract_x
 _atom_site_fract_y
 _atom_site_fract_z
 _atom_site_occupancy
  Zr  Zr0  1  0.996072  0.172173  0.094484  1
  Zr  Zr1  1  0.001982  0.827977  0.905473  1
  Zr  Zr2  1  0.501962  0.673516  0.905801  1
  Zr  Zr3  1  0.001982  0.827977  0.594527  1
  Zr  Zr4  1  0.497935  0.327839  0.094175  1
  Zr  Zr5  1  0.996072  0.172173  0.405516  1
  Zr  Zr6  1  0.497935  0.327839  0.405825  1
  Zr  Zr7  1  0.501962  0.673516  0.594199  1
  Ti  Ti8  1  0.162453  0.492721  0.750000  1
  Ti  Ti9  1  0.335394  0.170331  0.624973  1
  Ti  Ti10  1  0.665099  0.830190  0.375087  1
  Ti  Ti11  1  0.164925  0.670243  0.374763  1
  Ti  Ti12  1  0.665099  0.830190  0.124913  1
  Ti  Ti13  1  0.834620  0.328253  0.624807  1
  Ti  Ti14  1  0.335394  0.170331  0.875027  1
  Ti  Ti15  1  0.834620  0.328253  0.875193  1
  Ti  Ti16  1  0.164925  0.670243  0.125237  1
  Si  Si17  1  0.037521  0.119365  0.750000  1
  Si  Si18  1  0.963687  0.881571  0.250000  1
  Si  Si19  1  0.464399  0.618186  0.250000  1
  Si  Si20  1  0.536341  0.381780  0.750000  1
  Si  Si21  1  0.296413  0.863027  0.750000  1
  Si  Si22  1  0.702329  0.136846  0.250000  1
  Si  Si23  1  0.203080  0.362076  0.250000  1
  Si  Si24  1  0.798112  0.635337  0.750000  1
  Si  Si25  1  0.168698  0.461078  0.538328  1
  Si  Si26  1  0.831753  0.539197  0.461290  1
  Si  Si27  1  0.330792  0.961252  0.461336  1
  Si  Si28  1  0.831753  0.539197  0.038710  1
  Si  Si29  1  0.669016  0.039281  0.538864  1
  Si  Si30  1  0.168698  0.461078  0.961672  1
  Si  Si31  1  0.669016  0.039281  0.961136  1
  Si  Si32  1  0.330792  0.961252  0.038664  1
  W  W33  1  0.838553  0.507781  0.250000  1
  W  W34  1  0.338455  0.991513  0.250000  1
  W  W35  1  0.662164  0.007135  0.750000  1
