# generated using pymatgen
data_Tm3Fe2Ni7P6
_symmetry_space_group_name_H-M   'P 1'
_cell_length_a   3.71935500
_cell_length_b   10.46136200
_cell_length_c   12.22323500
_cell_angle_alpha   90.00000000
_cell_angle_beta   90.00000000
_cell_angle_gamma   90.00000000
_symmetry_Int_Tables_number   1
_chemical_formula_structural   Tm3Fe2Ni7P6
_chemical_formula_sum   'Tm6 Fe4 Ni14 P12'
_cell_volume   475.60019523
_cell_formula_units_Z   2
loop_
 _symmetry_equiv_pos_site_id
 _symmetry_equiv_pos_as_xyz
  1  'x, y, z'
loop_
 _atom_site_type_symbol
 _atom_site_label
 _atom_site_symmetry_multiplicity
 _atom_site_fract_x
 _atom_site_fract_y
 _atom_site_fract_z
 _atom_site_occupancy
  Tm  Tm0  1  0.000000  0.500000  0.522336  1
  Tm  Tm1  1  0.500000  0.000000  0.477664  1
  Tm  Tm2  1  0.500000  0.817874  0.206642  1
  Tm  Tm3  1  0.500000  0.182126  0.206642  1
  Tm  Tm4  1  0.000000  0.682126  0.793358  1
  Tm  Tm5  1  0.000000  0.317874  0.793358  1
  Fe  Fe6  1  0.500000  0.500000  0.154884  1
  Fe  Fe7  1  0.000000  0.000000  0.845116  1
  Fe  Fe8  1  0.000000  0.500000  0.986271  1
  Fe  Fe9  1  0.500000  0.000000  0.013729  1
  Ni  Ni10  1  0.500000  0.500000  0.702373  1
  Ni  Ni11  1  0.000000  0.000000  0.297627  1
  Ni  Ni12  1  0.500000  0.330668  0.992120  1
  Ni  Ni13  1  0.500000  0.669332  0.992120  1
  Ni  Ni14  1  0.000000  0.169332  0.007880  1
  Ni  Ni15  1  0.000000  0.830668  0.007880  1
  Ni  Ni16  1  0.500000  0.302164  0.429314  1
  Ni  Ni17  1  0.500000  0.697836  0.429314  1
  Ni  Ni18  1  0.000000  0.197836  0.570686  1
  Ni  Ni19  1  0.000000  0.802164  0.570686  1
  Ni  Ni20  1  0.500000  0.879029  0.710227  1
  Ni  Ni21  1  0.500000  0.120971  0.710227  1
  Ni  Ni22  1  0.000000  0.620971  0.289773  1
  Ni  Ni23  1  0.000000  0.379029  0.289773  1
  P  P24  1  0.500000  0.500000  0.880228  1
  P  P25  1  0.000000  0.000000  0.119772  1
  P  P26  1  0.500000  0.500000  0.344773  1
  P  P27  1  0.000000  0.000000  0.655227  1
  P  P28  1  0.500000  0.315217  0.615051  1
  P  P29  1  0.500000  0.684783  0.615051  1
  P  P30  1  0.000000  0.184783  0.384949  1
  P  P31  1  0.000000  0.815217  0.384949  1
  P  P32  1  0.500000  0.851096  0.890422  1
  P  P33  1  0.500000  0.148904  0.890422  1
  P  P34  1  0.000000  0.648904  0.109578  1
  P  P35  1  0.000000  0.351096  0.109578  1
