# generated using pymatgen
data_Sm6Y3Er11Pb16
_symmetry_space_group_name_H-M   'P 1'
_cell_length_a   8.20476258
_cell_length_b   8.31485913
_cell_length_c   15.62544101
_cell_angle_alpha   90.11727701
_cell_angle_beta   89.72630521
_cell_angle_gamma   89.99911027
_symmetry_Int_Tables_number   1
_chemical_formula_structural   Sm6Y3Er11Pb16
_chemical_formula_sum   'Sm6 Y3 Er11 Pb16'
_cell_volume   1065.97576936
_cell_formula_units_Z   1
loop_
 _symmetry_equiv_pos_site_id
 _symmetry_equiv_pos_as_xyz
  1  'x, y, z'
loop_
 _atom_site_type_symbol
 _atom_site_label
 _atom_site_symmetry_multiplicity
 _atom_site_fract_x
 _atom_site_fract_y
 _atom_site_fract_z
 _atom_site_occupancy
  Sm  Sm0  1  0.526024  0.321811  0.096890  1
  Sm  Sm1  1  0.026678  0.177368  0.402066  1
  Sm  Sm2  1  0.525746  0.322807  0.402952  1
  Sm  Sm3  1  0.026242  0.177467  0.096879  1
  Sm  Sm4  1  0.475059  0.678517  0.903302  1
  Sm  Sm5  1  0.974285  0.821706  0.597374  1
  Y  Y6  1  0.132442  0.342367  0.622368  1
  Y  Y7  1  0.470977  0.677703  0.598617  1
  Y  Y8  1  0.971117  0.822872  0.901564  1
  Er  Er9  1  0.633641  0.158181  0.622954  1
  Er  Er10  1  0.133760  0.342317  0.877468  1
  Er  Er11  1  0.367437  0.842372  0.122379  1
  Er  Er12  1  0.867687  0.657951  0.377667  1
  Er  Er13  1  0.367885  0.841895  0.377222  1
  Er  Er14  1  0.867515  0.658133  0.122277  1
  Er  Er15  1  0.632982  0.156628  0.877293  1
  Er  Er16  1  0.799718  0.495418  0.750202  1
  Er  Er17  1  0.300088  0.004639  0.750368  1
  Er  Er18  1  0.200400  0.505388  0.249928  1
  Er  Er19  1  0.700508  0.994778  0.249794  1
  Pb  Pb20  1  0.708518  0.960585  0.456988  1
  Pb  Pb21  1  0.208042  0.539906  0.043062  1
  Pb  Pb22  1  0.289490  0.037532  0.956566  1
  Pb  Pb23  1  0.787204  0.463471  0.543630  1
  Pb  Pb24  1  0.293837  0.037509  0.543097  1
  Pb  Pb25  1  0.793420  0.460552  0.956735  1
  Pb  Pb26  1  0.709802  0.958741  0.041849  1
  Pb  Pb27  1  0.209736  0.541663  0.457231  1
  Pb  Pb28  1  0.438627  0.373588  0.750671  1
  Pb  Pb29  1  0.937645  0.125796  0.750642  1
  Pb  Pb30  1  0.562725  0.626904  0.249744  1
  Pb  Pb31  1  0.062593  0.873020  0.249972  1
  Pb  Pb32  1  0.660933  0.845396  0.749154  1
  Pb  Pb33  1  0.161355  0.654832  0.751206  1
  Pb  Pb34  1  0.338071  0.153125  0.249974  1
  Pb  Pb35  1  0.837812  0.347062  0.249914  1
