# generated using pymatgen
data_SmHo7(Si4W3)4
_symmetry_space_group_name_H-M   'P 1'
_cell_length_a   6.76753509
_cell_length_b   6.93205741
_cell_length_c   12.89218941
_cell_angle_alpha   89.94842608
_cell_angle_beta   90.00692506
_cell_angle_gamma   89.95899465
_symmetry_Int_Tables_number   1
_chemical_formula_structural   SmHo7(Si4W3)4
_chemical_formula_sum   'Sm1 Ho7 Si16 W12'
_cell_volume   604.81012683
_cell_formula_units_Z   1
loop_
 _symmetry_equiv_pos_site_id
 _symmetry_equiv_pos_as_xyz
  1  'x, y, z'
loop_
 _atom_site_type_symbol
 _atom_site_label
 _atom_site_symmetry_multiplicity
 _atom_site_fract_x
 _atom_site_fract_y
 _atom_site_fract_z
 _atom_site_occupancy
  Sm  Sm0  1  0.996074  0.832847  0.592525  1
  Ho  Ho1  1  0.495325  0.667552  0.593422  1
  Ho  Ho2  1  0.995581  0.832251  0.906557  1
  Ho  Ho3  1  0.504856  0.332118  0.093514  1
  Ho  Ho4  1  0.004887  0.167940  0.406136  1
  Ho  Ho5  1  0.504765  0.332603  0.406364  1
  Ho  Ho6  1  0.004540  0.168016  0.093446  1
  Ho  Ho7  1  0.495349  0.667683  0.907000  1
  Si  Si8  1  0.660728  0.958128  0.452381  1
  Si  Si9  1  0.162059  0.542145  0.046957  1
  Si  Si10  1  0.338157  0.042192  0.953335  1
  Si  Si11  1  0.837193  0.455411  0.546610  1
  Si  Si12  1  0.340330  0.043536  0.546441  1
  Si  Si13  1  0.838153  0.458082  0.953178  1
  Si  Si14  1  0.661940  0.957753  0.047001  1
  Si  Si15  1  0.162335  0.541176  0.452295  1
  Si  Si16  1  0.463554  0.371057  0.750396  1
  Si  Si17  1  0.963460  0.130579  0.750614  1
  Si  Si18  1  0.536093  0.629113  0.249675  1
  Si  Si19  1  0.036138  0.870823  0.250041  1
  Si  Si20  1  0.695550  0.866633  0.750830  1
  Si  Si21  1  0.198025  0.632117  0.750855  1
  Si  Si22  1  0.303129  0.133803  0.249925  1
  Si  Si23  1  0.802918  0.366211  0.249888  1
  W  W24  1  0.666515  0.164422  0.626198  1
  W  W25  1  0.167979  0.336422  0.874788  1
  W  W26  1  0.331709  0.836583  0.125440  1
  W  W27  1  0.831325  0.662542  0.373796  1
  W  W28  1  0.332573  0.836301  0.373897  1
  W  W29  1  0.832250  0.663386  0.125545  1
  W  W30  1  0.667917  0.163664  0.874946  1
  W  W31  1  0.168249  0.336587  0.625505  1
  W  W32  1  0.833519  0.499130  0.750389  1
  W  W33  1  0.334411  0.001181  0.750458  1
  W  W34  1  0.166148  0.500222  0.249796  1
  W  W35  1  0.666263  0.999791  0.249852  1
