# generated using pymatgen
data_SmDyAl20(FeRh)2
_symmetry_space_group_name_H-M   'P 1'
_cell_length_a   6.82455401
_cell_length_b   6.82455422
_cell_length_c   9.11632911
_cell_angle_alpha   90.23606476
_cell_angle_beta   90.23606403
_cell_angle_gamma   97.20389314
_symmetry_Int_Tables_number   1
_chemical_formula_structural   SmDyAl20(FeRh)2
_chemical_formula_sum   'Sm1 Dy1 Al20 Fe2 Rh2'
_cell_volume   421.22902196
_cell_formula_units_Z   1
loop_
 _symmetry_equiv_pos_site_id
 _symmetry_equiv_pos_as_xyz
  1  'x, y, z'
loop_
 _atom_site_type_symbol
 _atom_site_label
 _atom_site_symmetry_multiplicity
 _atom_site_fract_x
 _atom_site_fract_y
 _atom_site_fract_z
 _atom_site_occupancy
  Sm  Sm0  1  0.873777  0.126223  0.750000  1
  Dy  Dy1  1  0.127208  0.872792  0.250000  1
  Al  Al2  1  0.620021  0.372653  0.548968  1
  Al  Al3  1  0.379494  0.627819  0.450471  1
  Al  Al4  1  0.372181  0.620506  0.049529  1
  Al  Al5  1  0.627347  0.379979  0.951032  1
  Al  Al6  1  0.229471  0.221697  0.496265  1
  Al  Al7  1  0.770629  0.777917  0.502691  1
  Al  Al8  1  0.778303  0.770529  0.003735  1
  Al  Al9  1  0.222083  0.229371  0.997309  1
  Al  Al10  1  0.847889  0.160663  0.100559  1
  Al  Al11  1  0.152746  0.838808  0.900275  1
  Al  Al12  1  0.161192  0.847254  0.599725  1
  Al  Al13  1  0.839337  0.152111  0.399441  1
  Al  Al14  1  0.861201  0.587745  0.753751  1
  Al  Al15  1  0.139023  0.413535  0.246264  1
  Al  Al16  1  0.412255  0.138799  0.746249  1
  Al  Al17  1  0.586465  0.860977  0.253736  1
  Al  Al18  1  0.223599  0.480731  0.754860  1
  Al  Al19  1  0.777062  0.520072  0.245184  1
  Al  Al20  1  0.519269  0.776401  0.745140  1
  Al  Al21  1  0.479928  0.222938  0.254816  1
  Fe  Fe22  1  0.000023  0.500271  0.000457  1
  Fe  Fe23  1  0.499729  0.999977  0.499543  1
  Rh  Rh24  1  0.000011  0.500242  0.499504  1
  Rh  Rh25  1  0.499758  0.999989  0.000496  1
