# generated using pymatgen
data_SrLaIO2
_symmetry_space_group_name_H-M   'P 1'
_cell_length_a   7.55959346
_cell_length_b   7.55959370
_cell_length_c   6.02061400
_cell_angle_alpha   90.00000000
_cell_angle_beta   90.00000000
_cell_angle_gamma   132.89383979
_symmetry_Int_Tables_number   1
_chemical_formula_structural   SrLaIO2
_chemical_formula_sum   'Sr2 La2 I2 O4'
_cell_volume   252.06591744
_cell_formula_units_Z   2
loop_
 _symmetry_equiv_pos_site_id
 _symmetry_equiv_pos_as_xyz
  1  'x, y, z'
loop_
 _atom_site_type_symbol
 _atom_site_label
 _atom_site_symmetry_multiplicity
 _atom_site_fract_x
 _atom_site_fract_y
 _atom_site_fract_z
 _atom_site_occupancy
  Sr  Sr0  1  0.918939  0.081061  0.750000  1
  Sr  Sr1  1  0.081061  0.918939  0.250000  1
  La  La2  1  0.574427  0.425573  0.750000  1
  La  La3  1  0.425573  0.574427  0.250000  1
  I  I4  1  0.246517  0.753483  0.750000  1
  I  I5  1  0.753483  0.246517  0.250000  1
  O  O6  1  0.264286  0.264286  0.000000  1
  O  O7  1  0.264286  0.264286  0.500000  1
  O  O8  1  0.735714  0.735714  0.500000  1
  O  O9  1  0.735714  0.735714  0.000000  1
