# generated using pymatgen
data_PaAl10FeTc
_symmetry_space_group_name_H-M   'P 1'
_cell_length_a   6.82438742
_cell_length_b   6.82438742
_cell_length_c   9.06574778
_cell_angle_alpha   90.37538934
_cell_angle_beta   90.37539197
_cell_angle_gamma   97.68834309
_symmetry_Int_Tables_number   1
_chemical_formula_structural   PaAl10FeTc
_chemical_formula_sum   'Pa2 Al20 Fe2 Tc2'
_cell_volume   418.39615614
_cell_formula_units_Z   2
loop_
 _symmetry_equiv_pos_site_id
 _symmetry_equiv_pos_as_xyz
  1  'x, y, z'
loop_
 _atom_site_type_symbol
 _atom_site_label
 _atom_site_symmetry_multiplicity
 _atom_site_fract_x
 _atom_site_fract_y
 _atom_site_fract_z
 _atom_site_occupancy
  Pa  Pa0  1  0.127664  0.872336  0.250000  1
  Pa  Pa1  1  0.872336  0.127664  0.750000  1
  Al  Al2  1  0.220147  0.479277  0.748827  1
  Al  Al3  1  0.378173  0.625887  0.049547  1
  Al  Al4  1  0.846156  0.160998  0.400407  1
  Al  Al5  1  0.136950  0.409717  0.253927  1
  Al  Al6  1  0.520723  0.779853  0.751173  1
  Al  Al7  1  0.621827  0.374113  0.950453  1
  Al  Al8  1  0.779853  0.520723  0.251173  1
  Al  Al9  1  0.625887  0.378173  0.549547  1
  Al  Al10  1  0.153844  0.839002  0.599593  1
  Al  Al11  1  0.590283  0.863050  0.246073  1
  Al  Al12  1  0.409717  0.136950  0.753927  1
  Al  Al13  1  0.479277  0.220147  0.248827  1
  Al  Al14  1  0.777605  0.770883  0.496589  1
  Al  Al15  1  0.770883  0.777605  0.996589  1
  Al  Al16  1  0.863050  0.590283  0.746073  1
  Al  Al17  1  0.839002  0.153844  0.099593  1
  Al  Al18  1  0.374113  0.621827  0.450453  1
  Al  Al19  1  0.160998  0.846156  0.900407  1
  Al  Al20  1  0.229117  0.222395  0.003411  1
  Al  Al21  1  0.222395  0.229117  0.503411  1
  Fe  Fe22  1  0.000000  0.500000  0.500000  1
  Fe  Fe23  1  0.500000  0.000000  0.000000  1
  Tc  Tc24  1  0.000000  0.500000  0.000000  1
  Tc  Tc25  1  0.500000  0.000000  0.500000  1
