# generated using pymatgen
data_Sr20(Ga3Pb)3
_symmetry_space_group_name_H-M   'P 1'
_cell_length_a   8.55999000
_cell_length_b   8.55999000
_cell_length_c   16.00850400
_cell_angle_alpha   90.00000000
_cell_angle_beta   90.00000000
_cell_angle_gamma   90.00000000
_symmetry_Int_Tables_number   1
_chemical_formula_structural   Sr20(Ga3Pb)3
_chemical_formula_sum   'Sr20 Ga9 Pb3'
_cell_volume   1172.99797804
_cell_formula_units_Z   1
loop_
 _symmetry_equiv_pos_site_id
 _symmetry_equiv_pos_as_xyz
  1  'x, y, z'
loop_
 _atom_site_type_symbol
 _atom_site_label
 _atom_site_symmetry_multiplicity
 _atom_site_fract_x
 _atom_site_fract_y
 _atom_site_fract_z
 _atom_site_occupancy
  Sr  Sr0  1  0.680878  0.174490  0.107672  1
  Sr  Sr1  1  0.178652  0.677533  0.611351  1
  Sr  Sr2  1  0.319122  0.825510  0.107672  1
  Sr  Sr3  1  0.821348  0.322467  0.611351  1
  Sr  Sr4  1  0.825510  0.680878  0.107672  1
  Sr  Sr5  1  0.322467  0.178652  0.611351  1
  Sr  Sr6  1  0.174490  0.319122  0.107672  1
  Sr  Sr7  1  0.677533  0.821348  0.611351  1
  Sr  Sr8  1  0.825510  0.319122  0.892328  1
  Sr  Sr9  1  0.322467  0.821348  0.388649  1
  Sr  Sr10  1  0.174490  0.680878  0.892328  1
  Sr  Sr11  1  0.677533  0.178652  0.388649  1
  Sr  Sr12  1  0.680878  0.825510  0.892328  1
  Sr  Sr13  1  0.178652  0.322467  0.388649  1
  Sr  Sr14  1  0.319122  0.174490  0.892328  1
  Sr  Sr15  1  0.821348  0.677533  0.388649  1
  Sr  Sr16  1  0.500000  0.500000  0.755514  1
  Sr  Sr17  1  0.000000  0.000000  0.249527  1
  Sr  Sr18  1  0.000000  0.000000  0.750473  1
  Sr  Sr19  1  0.500000  0.500000  0.244486  1
  Ga  Ga20  1  0.604697  0.105322  0.751235  1
  Ga  Ga21  1  0.105322  0.604697  0.248765  1
  Ga  Ga22  1  0.894678  0.395303  0.248765  1
  Ga  Ga23  1  0.395303  0.894678  0.751235  1
  Ga  Ga24  1  0.894678  0.604697  0.751235  1
  Ga  Ga25  1  0.395303  0.105322  0.248765  1
  Ga  Ga26  1  0.105322  0.395303  0.751235  1
  Ga  Ga27  1  0.604697  0.894678  0.248765  1
  Ga  Ga28  1  0.000000  0.000000  0.000000  1
  Pb  Pb29  1  0.500000  0.500000  0.500000  1
  Pb  Pb30  1  0.500000  0.500000  0.000000  1
  Pb  Pb31  1  0.000000  0.000000  0.500000  1
