# generated using pymatgen
data_Hf8ReNi2Rh
_symmetry_space_group_name_H-M   'P 1'
_cell_length_a   8.60235776
_cell_length_b   8.62611851
_cell_length_c   8.62611780
_cell_angle_alpha   60.11857472
_cell_angle_beta   60.12956140
_cell_angle_gamma   60.12956352
_symmetry_Int_Tables_number   1
_chemical_formula_structural   Hf8ReNi2Rh
_chemical_formula_sum   'Hf16 Re2 Ni4 Rh2'
_cell_volume   453.91049505
_cell_formula_units_Z   2
loop_
 _symmetry_equiv_pos_site_id
 _symmetry_equiv_pos_as_xyz
  1  'x, y, z'
loop_
 _atom_site_type_symbol
 _atom_site_label
 _atom_site_symmetry_multiplicity
 _atom_site_fract_x
 _atom_site_fract_y
 _atom_site_fract_z
 _atom_site_occupancy
  Hf  Hf0  1  0.688369  0.103880  0.103880  1
  Hf  Hf1  1  0.107295  0.677740  0.107563  1
  Hf  Hf2  1  0.107295  0.107563  0.677740  1
  Hf  Hf3  1  0.103862  0.104077  0.104077  1
  Hf  Hf4  1  0.314639  0.315924  0.690626  1
  Hf  Hf5  1  0.678806  0.690604  0.315913  1
  Hf  Hf6  1  0.314639  0.690626  0.315924  1
  Hf  Hf7  1  0.678806  0.315913  0.690604  1
  Hf  Hf8  1  0.683917  0.316023  0.316023  1
  Hf  Hf9  1  0.313175  0.686821  0.686821  1
  Hf  Hf10  1  0.951043  0.947683  0.550582  1
  Hf  Hf11  1  0.550645  0.550606  0.947580  1
  Hf  Hf12  1  0.951043  0.550582  0.947683  1
  Hf  Hf13  1  0.550645  0.947580  0.550606  1
  Hf  Hf14  1  0.546600  0.953423  0.953423  1
  Hf  Hf15  1  0.948757  0.551215  0.551215  1
  Re  Re16  1  0.335405  0.997699  0.331601  1
  Re  Re17  1  0.335405  0.331601  0.997699  1
  Ni  Ni18  1  0.319511  0.891848  0.891848  1
  Ni  Ni19  1  0.894375  0.323197  0.888258  1
  Ni  Ni20  1  0.894375  0.888258  0.323197  1
  Ni  Ni21  1  0.896492  0.892000  0.892000  1
  Rh  Rh22  1  0.996911  0.332571  0.332571  1
  Rh  Rh23  1  0.337984  0.332561  0.332561  1
