# generated using pymatgen
data_Tb5SmC2Br7
_symmetry_space_group_name_H-M   'P 1'
_cell_length_a   10.59909782
_cell_length_b   10.59909726
_cell_length_c   12.05091960
_cell_angle_alpha   57.59249037
_cell_angle_beta   57.59249296
_cell_angle_gamma   20.89700546
_symmetry_Int_Tables_number   1
_chemical_formula_structural   Tb5SmC2Br7
_chemical_formula_sum   'Tb5 Sm1 C2 Br7'
_cell_volume   404.88023638
_cell_formula_units_Z   1
loop_
 _symmetry_equiv_pos_site_id
 _symmetry_equiv_pos_as_xyz
  1  'x, y, z'
loop_
 _atom_site_type_symbol
 _atom_site_label
 _atom_site_symmetry_multiplicity
 _atom_site_fract_x
 _atom_site_fract_y
 _atom_site_fract_z
 _atom_site_occupancy
  Tb  Tb0  1  0.313270  0.313270  0.365953  1
  Tb  Tb1  1  0.131542  0.131542  0.442013  1
  Tb  Tb2  1  0.867964  0.867964  0.558277  1
  Tb  Tb3  1  0.687280  0.687280  0.633891  1
  Tb  Tb4  1  0.769612  0.769612  0.164752  1
  Sm  Sm5  1  0.229898  0.229898  0.838382  1
  C  C6  1  0.280734  0.280734  0.603163  1
  C  C7  1  0.719991  0.719991  0.392997  1
  Br  Br8  1  0.164231  0.164231  0.166038  1
  Br  Br9  1  0.839084  0.839084  0.834127  1
  Br  Br10  1  0.059632  0.059632  0.717202  1
  Br  Br11  1  0.940523  0.940523  0.281903  1
  Br  Br12  1  0.500290  0.500290  0.499663  1
  Br  Br13  1  0.388292  0.388292  0.069894  1
  Br  Br14  1  0.607657  0.607657  0.931745  1
