# generated using pymatgen
data_DyZr2(AlFe2)3
_symmetry_space_group_name_H-M   'P 1'
_cell_length_a   8.57693843
_cell_length_b   8.57693726
_cell_length_c   8.57693900
_cell_angle_alpha   34.58404445
_cell_angle_beta   34.58405576
_cell_angle_gamma   34.58404626
_symmetry_Int_Tables_number   1
_chemical_formula_structural   DyZr2(AlFe2)3
_chemical_formula_sum   'Dy1 Zr2 Al3 Fe6'
_cell_volume   181.38039310
_cell_formula_units_Z   1
loop_
 _symmetry_equiv_pos_site_id
 _symmetry_equiv_pos_as_xyz
  1  'x, y, z'
loop_
 _atom_site_type_symbol
 _atom_site_label
 _atom_site_symmetry_multiplicity
 _atom_site_fract_x
 _atom_site_fract_y
 _atom_site_fract_z
 _atom_site_occupancy
  Dy  Dy0  1  0.000000  0.000000  0.000000  1
  Zr  Zr1  1  0.140527  0.140527  0.140527  1
  Zr  Zr2  1  0.859473  0.859473  0.859473  1
  Al  Al3  1  0.500000  0.500000  0.500000  1
  Al  Al4  1  0.334606  0.334606  0.334606  1
  Al  Al5  1  0.665394  0.665394  0.665394  1
  Fe  Fe6  1  0.074635  0.589332  0.589332  1
  Fe  Fe7  1  0.589332  0.589332  0.074635  1
  Fe  Fe8  1  0.589332  0.074635  0.589332  1
  Fe  Fe9  1  0.410668  0.925365  0.410668  1
  Fe  Fe10  1  0.925365  0.410668  0.410668  1
  Fe  Fe11  1  0.410668  0.410668  0.925365  1
