# generated using pymatgen
data_Dy7Tm3(Bi2Rh)2
_symmetry_space_group_name_H-M   'P 1'
_cell_length_a   7.96505600
_cell_length_b   8.99360261
_cell_length_c   12.44185637
_cell_angle_alpha   89.95152138
_cell_angle_beta   90.13258464
_cell_angle_gamma   90.07296919
_symmetry_Int_Tables_number   1
_chemical_formula_structural   Dy7Tm3(Bi2Rh)2
_chemical_formula_sum   'Dy14 Tm6 Bi8 Rh4'
_cell_volume   891.26333692
_cell_formula_units_Z   2
loop_
 _symmetry_equiv_pos_site_id
 _symmetry_equiv_pos_as_xyz
  1  'x, y, z'
loop_
 _atom_site_type_symbol
 _atom_site_label
 _atom_site_symmetry_multiplicity
 _atom_site_fract_x
 _atom_site_fract_y
 _atom_site_fract_z
 _atom_site_occupancy
  Dy  Dy0  1  0.841502  0.750375  0.793575  1
  Dy  Dy1  1  0.158498  0.249625  0.206425  1
  Dy  Dy2  1  0.342120  0.249836  0.705936  1
  Dy  Dy3  1  0.657880  0.750164  0.294064  1
  Dy  Dy4  1  0.375611  0.750029  0.692591  1
  Dy  Dy5  1  0.624389  0.249971  0.307409  1
  Dy  Dy6  1  0.875349  0.249453  0.806719  1
  Dy  Dy7  1  0.124651  0.750547  0.193281  1
  Dy  Dy8  1  0.952345  0.750103  0.501516  1
  Dy  Dy9  1  0.047655  0.249897  0.498484  1
  Dy  Dy10  1  0.452921  0.249134  0.998583  1
  Dy  Dy11  1  0.547079  0.750866  0.001417  1
  Dy  Dy12  1  0.821987  0.458753  0.065872  1
  Dy  Dy13  1  0.178013  0.541247  0.934128  1
  Tm  Tm14  1  0.674998  0.041476  0.565309  1
  Tm  Tm15  1  0.325002  0.958524  0.434691  1
  Tm  Tm16  1  0.175104  0.958297  0.934645  1
  Tm  Tm17  1  0.325047  0.541434  0.434813  1
  Tm  Tm18  1  0.824896  0.041703  0.065355  1
  Tm  Tm19  1  0.674953  0.458566  0.565187  1
  Bi  Bi20  1  0.569429  0.491388  0.826287  1
  Bi  Bi21  1  0.430571  0.508612  0.173713  1
  Bi  Bi22  1  0.068013  0.508432  0.673227  1
  Bi  Bi23  1  0.431684  0.991508  0.173609  1
  Bi  Bi24  1  0.931987  0.491568  0.326773  1
  Bi  Bi25  1  0.568316  0.008492  0.826391  1
  Bi  Bi26  1  0.931697  0.008480  0.326585  1
  Bi  Bi27  1  0.068303  0.991520  0.673415  1
  Rh  Rh28  1  0.569891  0.750002  0.509596  1
  Rh  Rh29  1  0.430109  0.249998  0.490404  1
  Rh  Rh30  1  0.070540  0.248158  0.990057  1
  Rh  Rh31  1  0.929460  0.751842  0.009943  1
