# generated using pymatgen
data_Ac8TbSmIn6
_symmetry_space_group_name_H-M   'P 1'
_cell_length_a   6.64144134
_cell_length_b   9.84102199
_cell_length_c   9.84102300
_cell_angle_alpha   83.53801297
_cell_angle_beta   70.09796147
_cell_angle_gamma   70.09796088
_symmetry_Int_Tables_number   1
_chemical_formula_structural   Ac8TbSmIn6
_chemical_formula_sum   'Ac8 Tb1 Sm1 In6'
_cell_volume   568.65702896
_cell_formula_units_Z   1
loop_
 _symmetry_equiv_pos_site_id
 _symmetry_equiv_pos_as_xyz
  1  'x, y, z'
loop_
 _atom_site_type_symbol
 _atom_site_label
 _atom_site_symmetry_multiplicity
 _atom_site_fract_x
 _atom_site_fract_y
 _atom_site_fract_z
 _atom_site_occupancy
  Ac  Ac0  1  0.719372  0.867798  0.693168  1
  Ac  Ac1  1  0.281404  0.132213  0.306718  1
  Ac  Ac2  1  0.780628  0.306832  0.132202  1
  Ac  Ac3  1  0.218596  0.693282  0.867787  1
  Ac  Ac4  1  0.586465  0.695034  0.132517  1
  Ac  Ac5  1  0.413384  0.305027  0.867278  1
  Ac  Ac6  1  0.086616  0.132722  0.694973  1
  Ac  Ac7  1  0.913535  0.867483  0.304966  1
  Tb  Tb8  1  0.750000  0.500296  0.499704  1
  Sm  Sm9  1  0.250000  0.499590  0.500410  1
  In  In10  1  0.154817  0.499629  0.193084  1
  In  In11  1  0.845309  0.500102  0.806816  1
  In  In12  1  0.345183  0.806916  0.500371  1
  In  In13  1  0.654691  0.193184  0.499898  1
  In  In14  1  0.250000  0.999339  0.000661  1
  In  In15  1  0.750000  0.000554  0.999446  1
