# generated using pymatgen
data_Er4LuHgBiAu
_symmetry_space_group_name_H-M   'P 1'
_cell_length_a   8.65045392
_cell_length_b   8.65045475
_cell_length_c   8.69827452
_cell_angle_alpha   123.77148703
_cell_angle_beta   123.77148888
_cell_angle_gamma   83.22849108
_symmetry_Int_Tables_number   1
_chemical_formula_structural   Er4LuHgBiAu
_chemical_formula_sum   'Er8 Lu2 Hg2 Bi2 Au2'
_cell_volume   432.22427085
_cell_formula_units_Z   2
loop_
 _symmetry_equiv_pos_site_id
 _symmetry_equiv_pos_as_xyz
  1  'x, y, z'
loop_
 _atom_site_type_symbol
 _atom_site_label
 _atom_site_symmetry_multiplicity
 _atom_site_fract_x
 _atom_site_fract_y
 _atom_site_fract_z
 _atom_site_occupancy
  Er  Er0  1  0.506581  0.006581  0.796974  1
  Er  Er1  1  0.209606  0.709606  0.203026  1
  Er  Er2  1  0.017469  0.199061  0.500000  1
  Er  Er3  1  0.699061  0.517469  0.500000  1
  Er  Er4  1  0.493419  0.993419  0.203026  1
  Er  Er5  1  0.790394  0.290394  0.796974  1
  Er  Er6  1  0.982531  0.800939  0.500000  1
  Er  Er7  1  0.300939  0.482531  0.500000  1
  Lu  Lu8  1  0.500000  0.500000  0.000000  1
  Lu  Lu9  1  0.000000  0.000000  0.000000  1
  Hg  Hg10  1  0.140975  0.640975  0.781949  1
  Hg  Hg11  1  0.859025  0.359025  0.218051  1
  Bi  Bi12  1  0.250000  0.250000  0.000000  1
  Bi  Bi13  1  0.750000  0.750000  0.000000  1
  Au  Au14  1  0.638060  0.861940  0.500000  1
  Au  Au15  1  0.361940  0.138060  0.500000  1
