# generated using pymatgen
data_Rb2TiV5Si4(P6O25)2
_symmetry_space_group_name_H-M   'P 1'
_cell_length_a   8.34764800
_cell_length_b   8.34764780
_cell_length_c   17.40769500
_cell_angle_alpha   90.00000000
_cell_angle_beta   90.00000000
_cell_angle_gamma   120.00000079
_symmetry_Int_Tables_number   1
_chemical_formula_structural   Rb2TiV5Si4(P6O25)2
_chemical_formula_sum   'Rb2 Ti1 V5 Si4 P12 O50'
_cell_volume   1050.50988169
_cell_formula_units_Z   1
loop_
 _symmetry_equiv_pos_site_id
 _symmetry_equiv_pos_as_xyz
  1  'x, y, z'
loop_
 _atom_site_type_symbol
 _atom_site_label
 _atom_site_symmetry_multiplicity
 _atom_site_fract_x
 _atom_site_fract_y
 _atom_site_fract_z
 _atom_site_occupancy
  Rb  Rb0  1  0.666667  0.333333  0.750138  1
  Rb  Rb1  1  0.333333  0.666667  0.251500  1
  Ti  Ti2  1  0.333333  0.666667  0.023999  1
  V  V3  1  0.333333  0.666667  0.749946  1
  V  V4  1  0.666667  0.333333  0.250789  1
  V  V5  1  0.666667  0.333333  0.523586  1
  V  V6  1  0.333333  0.666667  0.477437  1
  V  V7  1  0.666667  0.333333  0.976358  1
  Si  Si8  1  0.000000  0.000000  0.589388  1
  Si  Si9  1  0.000000  0.000000  0.405523  1
  Si  Si10  1  0.000000  0.000000  0.910311  1
  Si  Si11  1  0.000000  0.000000  0.094396  1
  P  P12  1  0.334185  0.387250  0.609500  1
  P  P13  1  0.668111  0.616464  0.390649  1
  P  P14  1  0.612750  0.946935  0.609500  1
  P  P15  1  0.334439  0.947673  0.889743  1
  P  P16  1  0.383536  0.051646  0.390649  1
  P  P17  1  0.669614  0.053589  0.110386  1
  P  P18  1  0.053065  0.665815  0.609500  1
  P  P19  1  0.613234  0.665561  0.889743  1
  P  P20  1  0.948354  0.331889  0.390649  1
  P  P21  1  0.383975  0.330386  0.110386  1
  P  P22  1  0.052327  0.386766  0.889743  1
  P  P23  1  0.946411  0.616025  0.110386  1
  O  O24  1  0.826466  0.016144  0.623027  1
  O  O25  1  0.170084  0.977085  0.371749  1
  O  O26  1  0.983856  0.810321  0.623027  1
  O  O27  1  0.827311  0.809746  0.876563  1
  O  O28  1  0.022915  0.193000  0.371749  1
  O  O29  1  0.170012  0.192586  0.128474  1
  O  O30  1  0.189679  0.173534  0.623027  1
  O  O31  1  0.982436  0.172689  0.876563  1
  O  O32  1  0.807000  0.829916  0.371749  1
  O  O33  1  0.022573  0.829988  0.128474  1
  O  O34  1  0.190254  0.017564  0.876563  1
  O  O35  1  0.807414  0.977427  0.128474  1
  O  O36  1  0.335992  0.476484  0.686705  1
  O  O37  1  0.649138  0.518454  0.313432  1
  O  O38  1  0.523516  0.859508  0.686705  1
  O  O39  1  0.336603  0.860886  0.812265  1
  O  O40  1  0.481546  0.130685  0.313432  1
  O  O41  1  0.651858  0.132017  0.187831  1
  O  O42  1  0.140492  0.664008  0.686705  1
  O  O43  1  0.524283  0.663397  0.812265  1
  O  O44  1  0.869315  0.350862  0.313432  1
  O  O45  1  0.480159  0.348142  0.187831  1
  O  O46  1  0.139114  0.475717  0.812265  1
  O  O47  1  0.867983  0.519841  0.187831  1
  O  O48  1  0.590444  0.113611  0.594759  1
  O  O49  1  0.396094  0.877726  0.408927  1
  O  O50  1  0.886389  0.476833  0.594759  1
  O  O51  1  0.590924  0.476688  0.904774  1
  O  O52  1  0.122274  0.518368  0.408927  1
  O  O53  1  0.397620  0.517263  0.091104  1
  O  O54  1  0.523167  0.409556  0.594759  1
  O  O55  1  0.885764  0.409076  0.904774  1
  O  O56  1  0.481632  0.603906  0.408927  1
  O  O57  1  0.119643  0.602380  0.091104  1
  O  O58  1  0.523312  0.114236  0.904774  1
  O  O59  1  0.482737  0.880357  0.091104  1
  O  O60  1  0.259415  0.448790  0.541158  1
  O  O61  1  0.750860  0.559521  0.455456  1
  O  O62  1  0.551210  0.810625  0.541158  1
  O  O63  1  0.259966  0.808917  0.957021  1
  O  O64  1  0.440479  0.191338  0.455456  1
  O  O65  1  0.751594  0.192757  0.045405  1
  O  O66  1  0.189375  0.740585  0.541158  1
  O  O67  1  0.548951  0.740034  0.957021  1
  O  O68  1  0.808662  0.249140  0.455456  1
  O  O69  1  0.441162  0.248406  0.045405  1
  O  O70  1  0.191083  0.451049  0.957021  1
  O  O71  1  0.807243  0.558838  0.045405  1
  O  O72  1  0.000000  0.000000  0.497466  1
  O  O73  1  0.000000  0.000000  0.002381  1
