# generated using pymatgen
data_Nd3Mg3Hg2Ge
_symmetry_space_group_name_H-M   'P 1'
_cell_length_a   7.67474600
_cell_length_b   7.67474513
_cell_length_c   4.48820700
_cell_angle_alpha   90.00000000
_cell_angle_beta   90.00000000
_cell_angle_gamma   120.00000375
_symmetry_Int_Tables_number   1
_chemical_formula_structural   Nd3Mg3Hg2Ge
_chemical_formula_sum   'Nd3 Mg3 Hg2 Ge1'
_cell_volume   228.94516022
_cell_formula_units_Z   1
loop_
 _symmetry_equiv_pos_site_id
 _symmetry_equiv_pos_as_xyz
  1  'x, y, z'
loop_
 _atom_site_type_symbol
 _atom_site_label
 _atom_site_symmetry_multiplicity
 _atom_site_fract_x
 _atom_site_fract_y
 _atom_site_fract_z
 _atom_site_occupancy
  Nd  Nd0  1  0.580478  0.006768  0.000000  1
  Nd  Nd1  1  0.993232  0.573708  0.000000  1
  Nd  Nd2  1  0.426292  0.419522  0.000000  1
  Mg  Mg3  1  0.247041  0.999987  0.500000  1
  Mg  Mg4  1  0.000013  0.247054  0.500000  1
  Mg  Mg5  1  0.752946  0.752959  0.500000  1
  Hg  Hg6  1  0.333333  0.666667  0.500000  1
  Hg  Hg7  1  0.000000  0.000000  0.000000  1
  Ge  Ge8  1  0.666667  0.333333  0.500000  1
