# generated using pymatgen
data_Er8Ge(PdPt3)6
_symmetry_space_group_name_H-M   'P 1'
_cell_length_a   8.32163600
_cell_length_b   8.31735000
_cell_length_c   8.33358000
_cell_angle_alpha   90.00000000
_cell_angle_beta   90.00000000
_cell_angle_gamma   89.99933885
_symmetry_Int_Tables_number   1
_chemical_formula_structural   Er8Ge(PdPt3)6
_chemical_formula_sum   'Er8 Ge1 Pd6 Pt18'
_cell_volume   576.80006596
_cell_formula_units_Z   1
loop_
 _symmetry_equiv_pos_site_id
 _symmetry_equiv_pos_as_xyz
  1  'x, y, z'
loop_
 _atom_site_type_symbol
 _atom_site_label
 _atom_site_symmetry_multiplicity
 _atom_site_fract_x
 _atom_site_fract_y
 _atom_site_fract_z
 _atom_site_occupancy
  Er  Er0  1  0.252962  0.253067  0.253263  1
  Er  Er1  1  0.746685  0.746658  0.746594  1
  Er  Er2  1  0.746685  0.746658  0.253406  1
  Er  Er3  1  0.747034  0.253318  0.746816  1
  Er  Er4  1  0.252962  0.253067  0.746737  1
  Er  Er5  1  0.253277  0.746917  0.253483  1
  Er  Er6  1  0.253277  0.746917  0.746517  1
  Er  Er7  1  0.747034  0.253318  0.253184  1
  Ge  Ge8  1  0.000133  0.000328  0.000000  1
  Pd  Pd9  1  0.740623  0.999959  0.500000  1
  Pd  Pd10  1  0.999959  0.500054  0.259838  1
  Pd  Pd11  1  0.999959  0.500054  0.740162  1
  Pd  Pd12  1  0.000003  0.710602  0.000000  1
  Pd  Pd13  1  0.999832  0.999821  0.289982  1
  Pd  Pd14  1  0.999832  0.999821  0.710018  1
  Pt  Pt15  1  0.259322  0.499813  0.000000  1
  Pt  Pt16  1  0.740729  0.499830  0.000000  1
  Pt  Pt17  1  0.000128  0.259772  0.500000  1
  Pt  Pt18  1  0.500005  0.259690  0.000000  1
  Pt  Pt19  1  0.000131  0.740052  0.500000  1
  Pt  Pt20  1  0.500001  0.739907  0.000000  1
  Pt  Pt21  1  0.500074  0.999984  0.260137  1
  Pt  Pt22  1  0.259276  0.999960  0.500000  1
  Pt  Pt23  1  0.500074  0.999984  0.739863  1
  Pt  Pt24  1  0.252511  0.500061  0.500000  1
  Pt  Pt25  1  0.747517  0.500050  0.500000  1
  Pt  Pt26  1  0.499970  0.252874  0.500000  1
  Pt  Pt27  1  0.499959  0.747183  0.500000  1
  Pt  Pt28  1  0.500051  0.500042  0.253043  1
  Pt  Pt29  1  0.500051  0.500042  0.746957  1
  Pt  Pt30  1  0.288952  0.999736  0.000000  1
  Pt  Pt31  1  0.710968  0.999745  0.000000  1
  Pt  Pt32  1  0.000022  0.290718  0.000000  1
