# generated using pymatgen
data_Er3Tm2Os2C7
_symmetry_space_group_name_H-M   'P 1'
_cell_length_a   8.08394298
_cell_length_b   8.09677888
_cell_length_c   3.47810900
_cell_angle_alpha   90.00000000
_cell_angle_beta   90.00000000
_cell_angle_gamma   121.67141022
_symmetry_Int_Tables_number   1
_chemical_formula_structural   Er3Tm2Os2C7
_chemical_formula_sum   'Er3 Tm2 Os2 C7'
_cell_volume   193.75174700
_cell_formula_units_Z   1
loop_
 _symmetry_equiv_pos_site_id
 _symmetry_equiv_pos_as_xyz
  1  'x, y, z'
loop_
 _atom_site_type_symbol
 _atom_site_label
 _atom_site_symmetry_multiplicity
 _atom_site_fract_x
 _atom_site_fract_y
 _atom_site_fract_z
 _atom_site_occupancy
  Er  Er0  1  0.500000  0.500000  0.000000  1
  Er  Er1  1  0.662989  0.922486  0.500000  1
  Er  Er2  1  0.337011  0.077514  0.500000  1
  Tm  Tm3  1  0.077892  0.339234  0.500000  1
  Tm  Tm4  1  0.922108  0.660766  0.500000  1
  Os  Os5  1  0.714002  0.285919  0.000000  1
  Os  Os6  1  0.285998  0.714081  0.000000  1
  C  C7  1  0.630155  0.369893  0.500000  1
  C  C8  1  0.369845  0.630107  0.500000  1
  C  C9  1  0.000000  0.000000  0.000000  1
  C  C10  1  0.171243  0.173422  0.000000  1
  C  C11  1  0.828757  0.826578  0.000000  1
  C  C12  1  0.000000  0.500000  0.000000  1
  C  C13  1  0.500000  0.000000  0.000000  1
