# generated using pymatgen
data_Ta12Cr11IrN4
_symmetry_space_group_name_H-M   'P 1'
_cell_length_a   8.12676494
_cell_length_b   8.11929651
_cell_length_c   8.11929700
_cell_angle_alpha   60.00000208
_cell_angle_beta   60.03039741
_cell_angle_gamma   60.03039534
_symmetry_Int_Tables_number   1
_chemical_formula_structural   Ta12Cr11IrN4
_chemical_formula_sum   'Ta12 Cr11 Ir1 N4'
_cell_volume   378.99974414
_cell_formula_units_Z   1
loop_
 _symmetry_equiv_pos_site_id
 _symmetry_equiv_pos_as_xyz
  1  'x, y, z'
loop_
 _atom_site_type_symbol
 _atom_site_label
 _atom_site_symmetry_multiplicity
 _atom_site_fract_x
 _atom_site_fract_y
 _atom_site_fract_z
 _atom_site_occupancy
  Ta  Ta0  1  0.807302  0.808227  0.192235  1
  Ta  Ta1  1  0.193579  0.193226  0.806598  1
  Ta  Ta2  1  0.807302  0.192235  0.808227  1
  Ta  Ta3  1  0.193579  0.806598  0.193226  1
  Ta  Ta4  1  0.193579  0.806598  0.806598  1
  Ta  Ta5  1  0.807302  0.192235  0.192235  1
  Ta  Ta6  1  0.442591  0.442867  0.057271  1
  Ta  Ta7  1  0.059070  0.050320  0.445305  1
  Ta  Ta8  1  0.442591  0.057271  0.442867  1
  Ta  Ta9  1  0.059070  0.445305  0.050320  1
  Ta  Ta10  1  0.059070  0.445305  0.445305  1
  Ta  Ta11  1  0.442591  0.057271  0.057271  1
  Cr  Cr12  1  0.127207  0.624264  0.624264  1
  Cr  Cr13  1  0.626280  0.111852  0.630934  1
  Cr  Cr14  1  0.626280  0.630934  0.111852  1
  Cr  Cr15  1  0.626280  0.630934  0.630934  1
  Cr  Cr16  1  0.418977  0.734077  0.423473  1
  Cr  Cr17  1  0.418977  0.423473  0.734077  1
  Cr  Cr18  1  0.418977  0.423473  0.423473  1
  Cr  Cr19  1  0.503701  0.832100  0.832100  1
  Cr  Cr20  1  0.828137  0.513394  0.829235  1
  Cr  Cr21  1  0.828137  0.829235  0.513394  1
  Cr  Cr22  1  0.828137  0.829235  0.829235  1
  Ir  Ir23  1  0.742973  0.419009  0.419009  1
  N  N24  1  0.626070  0.124643  0.124643  1
  N  N25  1  0.124081  0.624323  0.125798  1
  N  N26  1  0.124081  0.125798  0.624323  1
  N  N27  1  0.124081  0.125798  0.125798  1
