# generated using pymatgen
data_Er4Tm4Re(B8Rh)3
_symmetry_space_group_name_H-M   'P 1'
_cell_length_a   3.64025400
_cell_length_b   9.10604070
_cell_length_c   11.45940590
_cell_angle_alpha   90.18424460
_cell_angle_beta   90.00000000
_cell_angle_gamma   90.00000000
_symmetry_Int_Tables_number   1
_chemical_formula_structural   Er4Tm4Re(B8Rh)3
_chemical_formula_sum   'Er4 Tm4 Re1 B24 Rh3'
_cell_volume   379.85787304
_cell_formula_units_Z   1
loop_
 _symmetry_equiv_pos_site_id
 _symmetry_equiv_pos_as_xyz
  1  'x, y, z'
loop_
 _atom_site_type_symbol
 _atom_site_label
 _atom_site_symmetry_multiplicity
 _atom_site_fract_x
 _atom_site_fract_y
 _atom_site_fract_z
 _atom_site_occupancy
  Er  Er0  1  0.000000  0.321824  0.414416  1
  Er  Er1  1  0.000000  0.682063  0.589450  1
  Er  Er2  1  0.000000  0.820949  0.082488  1
  Er  Er3  1  0.000000  0.175911  0.913330  1
  Tm  Tm4  1  0.000000  0.943486  0.371820  1
  Tm  Tm5  1  0.000000  0.054722  0.626944  1
  Tm  Tm6  1  0.000000  0.443184  0.127664  1
  Tm  Tm7  1  0.000000  0.556675  0.873815  1
  Re  Re8  1  0.000000  0.861715  0.820725  1
  B  B9  1  0.500000  0.554971  0.434690  1
  B  B10  1  0.500000  0.446646  0.565880  1
  B  B11  1  0.500000  0.053810  0.066186  1
  B  B12  1  0.500000  0.946429  0.933705  1
  B  B13  1  0.500000  0.750111  0.420848  1
  B  B14  1  0.500000  0.250573  0.579220  1
  B  B15  1  0.500000  0.249462  0.079693  1
  B  B16  1  0.500000  0.750350  0.919659  1
  B  B17  1  0.500000  0.792559  0.263607  1
  B  B18  1  0.500000  0.207570  0.734952  1
  B  B19  1  0.500000  0.293688  0.236436  1
  B  B20  1  0.500000  0.706942  0.765112  1
  B  B21  1  0.500000  0.631213  0.183250  1
  B  B22  1  0.500000  0.367799  0.816949  1
  B  B23  1  0.500000  0.132535  0.316561  1
  B  B24  1  0.500000  0.868744  0.684587  1
  B  B25  1  0.500000  0.982026  0.212629  1
  B  B26  1  0.500000  0.017523  0.786672  1
  B  B27  1  0.500000  0.482285  0.287321  1
  B  B28  1  0.500000  0.517211  0.713166  1
  B  B29  1  0.500000  0.605097  0.029797  1
  B  B30  1  0.500000  0.392542  0.971514  1
  B  B31  1  0.500000  0.106715  0.470277  1
  B  B32  1  0.500000  0.894220  0.527793  1
  Rh  Rh33  1  0.000000  0.638749  0.320908  1
  Rh  Rh34  1  0.000000  0.361234  0.679161  1
  Rh  Rh35  1  0.000000  0.138465  0.178775  1
