# generated using pymatgen
data_Nd2TaIr3
_symmetry_space_group_name_H-M   'P 1'
_cell_length_a   5.77244164
_cell_length_b   5.31589018
_cell_length_c   5.77244200
_cell_angle_alpha   57.11584878
_cell_angle_beta   59.99999795
_cell_angle_gamma   57.11584214
_symmetry_Int_Tables_number   1
_chemical_formula_structural   Nd2TaIr3
_chemical_formula_sum   'Nd2 Ta1 Ir3'
_cell_volume   119.50960287
_cell_formula_units_Z   1
loop_
 _symmetry_equiv_pos_site_id
 _symmetry_equiv_pos_as_xyz
  1  'x, y, z'
loop_
 _atom_site_type_symbol
 _atom_site_label
 _atom_site_symmetry_multiplicity
 _atom_site_fract_x
 _atom_site_fract_y
 _atom_site_fract_z
 _atom_site_occupancy
  Nd  Nd0  1  0.750025  0.749925  0.750025  1
  Nd  Nd1  1  0.499975  0.500075  0.499975  1
  Ta  Ta2  1  0.125000  0.625000  0.125000  1
  Ir  Ir3  1  0.125000  0.125000  0.625000  1
  Ir  Ir4  1  0.625000  0.125000  0.125000  1
  Ir  Ir5  1  0.125000  0.125000  0.125000  1
