# generated using pymatgen
data_PrGd3(TcB4)4
_symmetry_space_group_name_H-M   'P 1'
_cell_length_a   3.63197100
_cell_length_b   6.01499246
_cell_length_c   11.64623266
_cell_angle_alpha   90.12437393
_cell_angle_beta   90.00000000
_cell_angle_gamma   90.00000000
_symmetry_Int_Tables_number   1
_chemical_formula_structural   PrGd3(TcB4)4
_chemical_formula_sum   'Pr1 Gd3 Tc4 B16'
_cell_volume   254.42623894
_cell_formula_units_Z   1
loop_
 _symmetry_equiv_pos_site_id
 _symmetry_equiv_pos_as_xyz
  1  'x, y, z'
loop_
 _atom_site_type_symbol
 _atom_site_label
 _atom_site_symmetry_multiplicity
 _atom_site_fract_x
 _atom_site_fract_y
 _atom_site_fract_z
 _atom_site_occupancy
  Pr  Pr0  1  0.000000  0.873620  0.848958  1
  Gd  Gd1  1  0.000000  0.626739  0.349693  1
  Gd  Gd2  1  0.000000  0.373521  0.649561  1
  Gd  Gd3  1  0.000000  0.126630  0.151203  1
  Tc  Tc4  1  0.000000  0.631085  0.088496  1
  Tc  Tc5  1  0.000000  0.368294  0.914126  1
  Tc  Tc6  1  0.000000  0.132611  0.412432  1
  Tc  Tc7  1  0.000000  0.867643  0.585177  1
  B  B8  1  0.500000  0.785954  0.185415  1
  B  B9  1  0.500000  0.218048  0.815034  1
  B  B10  1  0.500000  0.285723  0.315438  1
  B  B11  1  0.500000  0.713480  0.682234  1
  B  B12  1  0.500000  0.861965  0.034024  1
  B  B13  1  0.500000  0.138530  0.969874  1
  B  B14  1  0.500000  0.363208  0.467736  1
  B  B15  1  0.500000  0.636535  0.530555  1
  B  B16  1  0.500000  0.887337  0.452583  1
  B  B17  1  0.500000  0.113361  0.545443  1
  B  B18  1  0.500000  0.386325  0.048311  1
  B  B19  1  0.500000  0.609671  0.955275  1
  B  B20  1  0.500000  0.976563  0.308306  1
  B  B21  1  0.500000  0.025700  0.688998  1
  B  B22  1  0.500000  0.476382  0.192553  1
  B  B23  1  0.500000  0.521076  0.808577  1
