# generated using pymatgen
data_Dy4Er3Tm3Ru4
_symmetry_space_group_name_H-M   'P 1'
_cell_length_a   6.29471108
_cell_length_b   7.23310990
_cell_length_c   8.40659066
_cell_angle_alpha   96.80946375
_cell_angle_beta   112.03586080
_cell_angle_gamma   89.89900636
_symmetry_Int_Tables_number   1
_chemical_formula_structural   Dy4Er3Tm3Ru4
_chemical_formula_sum   'Dy4 Er3 Tm3 Ru4'
_cell_volume   351.91190299
_cell_formula_units_Z   1
loop_
 _symmetry_equiv_pos_site_id
 _symmetry_equiv_pos_as_xyz
  1  'x, y, z'
loop_
 _atom_site_type_symbol
 _atom_site_label
 _atom_site_symmetry_multiplicity
 _atom_site_fract_x
 _atom_site_fract_y
 _atom_site_fract_z
 _atom_site_occupancy
  Dy  Dy0  1  0.789868  0.083400  0.812553  1
  Dy  Dy1  1  0.977089  0.416449  0.187333  1
  Dy  Dy2  1  0.209897  0.916393  0.187475  1
  Dy  Dy3  1  0.023203  0.583806  0.812664  1
  Er  Er4  1  0.205519  0.184901  0.566028  1
  Er  Er5  1  0.639815  0.315525  0.434470  1
  Er  Er6  1  0.794738  0.814989  0.434122  1
  Tm  Tm7  1  0.360250  0.684397  0.565791  1
  Tm  Tm8  1  0.420106  0.249678  0.999819  1
  Tm  Tm9  1  0.579799  0.750297  0.999904  1
  Ru  Ru10  1  0.600862  0.425054  0.779306  1
  Ru  Ru11  1  0.821431  0.076161  0.220149  1
  Ru  Ru12  1  0.398758  0.575389  0.220821  1
  Ru  Ru13  1  0.178665  0.923561  0.779565  1
