# generated using pymatgen
data_La2NdSn6Ru
_symmetry_space_group_name_H-M   'P 1'
_cell_length_a   8.77812313
_cell_length_b   8.77812345
_cell_length_c   13.54013700
_cell_angle_alpha   90.00000000
_cell_angle_beta   90.00000000
_cell_angle_gamma   148.52190939
_symmetry_Int_Tables_number   1
_chemical_formula_structural   La2NdSn6Ru
_chemical_formula_sum   'La4 Nd2 Sn12 Ru2'
_cell_volume   544.80413430
_cell_formula_units_Z   2
loop_
 _symmetry_equiv_pos_site_id
 _symmetry_equiv_pos_as_xyz
  1  'x, y, z'
loop_
 _atom_site_type_symbol
 _atom_site_label
 _atom_site_symmetry_multiplicity
 _atom_site_fract_x
 _atom_site_fract_y
 _atom_site_fract_z
 _atom_site_occupancy
  La  La0  1  0.399236  0.600764  0.404622  1
  La  La1  1  0.600764  0.399236  0.595378  1
  La  La2  1  0.399236  0.600764  0.095378  1
  La  La3  1  0.600764  0.399236  0.904622  1
  Nd  Nd4  1  0.602404  0.397596  0.250000  1
  Nd  Nd5  1  0.397596  0.602404  0.750000  1
  Sn  Sn6  1  0.926837  0.073163  0.923054  1
  Sn  Sn7  1  0.073163  0.926837  0.076946  1
  Sn  Sn8  1  0.926837  0.073163  0.576946  1
  Sn  Sn9  1  0.073163  0.926837  0.423054  1
  Sn  Sn10  1  0.960160  0.039840  0.250000  1
  Sn  Sn11  1  0.039840  0.960160  0.750000  1
  Sn  Sn12  1  0.744838  0.255163  0.432021  1
  Sn  Sn13  1  0.255163  0.744837  0.567979  1
  Sn  Sn14  1  0.744838  0.255163  0.067979  1
  Sn  Sn15  1  0.255163  0.744837  0.932021  1
  Sn  Sn16  1  0.233386  0.766614  0.250000  1
  Sn  Sn17  1  0.766614  0.233386  0.750000  1
  Ru  Ru18  1  0.801588  0.198412  0.250000  1
  Ru  Ru19  1  0.198412  0.801588  0.750000  1
