# generated using pymatgen
data_Ho3Er3Lu2(CdIr)2
_symmetry_space_group_name_H-M   'P 1'
_cell_length_a   9.54765185
_cell_length_b   9.54074792
_cell_length_c   9.54074750
_cell_angle_alpha   60.04788797
_cell_angle_beta   59.97605580
_cell_angle_gamma   59.97605596
_symmetry_Int_Tables_number   1
_chemical_formula_structural   Ho3Er3Lu2(CdIr)2
_chemical_formula_sum   'Ho6 Er6 Lu4 Cd4 Ir4'
_cell_volume   614.53403916
_cell_formula_units_Z   2
loop_
 _symmetry_equiv_pos_site_id
 _symmetry_equiv_pos_as_xyz
  1  'x, y, z'
loop_
 _atom_site_type_symbol
 _atom_site_label
 _atom_site_symmetry_multiplicity
 _atom_site_fract_x
 _atom_site_fract_y
 _atom_site_fract_z
 _atom_site_occupancy
  Ho  Ho0  1  0.188461  0.811539  0.811539  1
  Ho  Ho1  1  0.811539  0.188461  0.188461  1
  Ho  Ho2  1  0.811622  0.188378  0.811622  1
  Ho  Ho3  1  0.188378  0.811622  0.188378  1
  Ho  Ho4  1  0.811622  0.811622  0.188378  1
  Ho  Ho5  1  0.188378  0.188378  0.811622  1
  Er  Er6  1  0.599047  0.599600  0.599600  1
  Er  Er7  1  0.599600  0.599047  0.201754  1
  Er  Er8  1  0.599600  0.201754  0.599047  1
  Er  Er9  1  0.201754  0.599600  0.599600  1
  Er  Er10  1  0.061857  0.438143  0.438143  1
  Er  Er11  1  0.438143  0.061857  0.061857  1
  Lu  Lu12  1  0.438246  0.061754  0.438246  1
  Lu  Lu13  1  0.061754  0.438246  0.061754  1
  Lu  Lu14  1  0.438246  0.438246  0.061754  1
  Lu  Lu15  1  0.061754  0.061754  0.438246  1
  Cd  Cd16  1  0.830654  0.830428  0.830428  1
  Cd  Cd17  1  0.830428  0.830654  0.508489  1
  Cd  Cd18  1  0.830428  0.508489  0.830654  1
  Cd  Cd19  1  0.508489  0.830428  0.830428  1
  Ir  Ir20  1  0.392438  0.390798  0.390798  1
  Ir  Ir21  1  0.390798  0.392438  0.825968  1
  Ir  Ir22  1  0.390798  0.825968  0.392438  1
  Ir  Ir23  1  0.825968  0.390798  0.390798  1
