# generated using pymatgen
data_ErTm9Ru3Rh
_symmetry_space_group_name_H-M   'P 1'
_cell_length_a   6.24439926
_cell_length_b   7.24085933
_cell_length_c   8.33892810
_cell_angle_alpha   96.83039610
_cell_angle_beta   111.90014954
_cell_angle_gamma   90.06652178
_symmetry_Int_Tables_number   1
_chemical_formula_structural   ErTm9Ru3Rh
_chemical_formula_sum   'Er1 Tm9 Ru3 Rh1'
_cell_volume   346.92666821
_cell_formula_units_Z   1
loop_
 _symmetry_equiv_pos_site_id
 _symmetry_equiv_pos_as_xyz
  1  'x, y, z'
loop_
 _atom_site_type_symbol
 _atom_site_label
 _atom_site_symmetry_multiplicity
 _atom_site_fract_x
 _atom_site_fract_y
 _atom_site_fract_z
 _atom_site_occupancy
  Er  Er0  1  0.792366  0.081774  0.814846  1
  Tm  Tm1  1  0.979641  0.415280  0.188770  1
  Tm  Tm2  1  0.208740  0.915486  0.186112  1
  Tm  Tm3  1  0.024664  0.585835  0.814826  1
  Tm  Tm4  1  0.203238  0.182824  0.563422  1
  Tm  Tm5  1  0.642521  0.315591  0.432962  1
  Tm  Tm6  1  0.793287  0.815286  0.434802  1
  Tm  Tm7  1  0.356911  0.686139  0.563567  1
  Tm  Tm8  1  0.418824  0.249247  0.000933  1
  Tm  Tm9  1  0.580580  0.751905  0.001247  1
  Ru  Ru10  1  0.823928  0.077224  0.219612  1
  Ru  Ru11  1  0.395986  0.575939  0.220632  1
  Ru  Ru12  1  0.178031  0.923509  0.779573  1
  Rh  Rh13  1  0.601282  0.423961  0.778695  1
