# generated using pymatgen
data_Tb3CePdRh3Pb2
_symmetry_space_group_name_H-M   'P 1'
_cell_length_a   7.81956199
_cell_length_b   7.81956231
_cell_length_c   3.64731300
_cell_angle_alpha   90.00000000
_cell_angle_beta   90.00000000
_cell_angle_gamma   91.31196932
_symmetry_Int_Tables_number   1
_chemical_formula_structural   Tb3CePdRh3Pb2
_chemical_formula_sum   'Tb3 Ce1 Pd1 Rh3 Pb2'
_cell_volume   222.95850321
_cell_formula_units_Z   1
loop_
 _symmetry_equiv_pos_site_id
 _symmetry_equiv_pos_as_xyz
  1  'x, y, z'
loop_
 _atom_site_type_symbol
 _atom_site_label
 _atom_site_symmetry_multiplicity
 _atom_site_fract_x
 _atom_site_fract_y
 _atom_site_fract_z
 _atom_site_occupancy
  Tb  Tb0  1  0.662423  0.162423  0.500000  1
  Tb  Tb1  1  0.178031  0.330079  0.500000  1
  Tb  Tb2  1  0.830079  0.678031  0.500000  1
  Ce  Ce3  1  0.327338  0.827338  0.500000  1
  Pd  Pd4  1  0.879719  0.379719  0.000000  1
  Rh  Rh5  1  0.363205  0.117262  0.000000  1
  Rh  Rh6  1  0.142401  0.642401  0.000000  1
  Rh  Rh7  1  0.617262  0.863205  0.000000  1
  Pb  Pb8  1  0.995373  0.004168  0.000000  1
  Pb  Pb9  1  0.504168  0.495373  0.000000  1
