# generated using pymatgen
data_Ac3(Mg2Sn)2
_symmetry_space_group_name_H-M   'P 1'
_cell_length_a   8.01826700
_cell_length_b   8.01826819
_cell_length_c   5.02994800
_cell_angle_alpha   90.00000000
_cell_angle_beta   90.00000000
_cell_angle_gamma   119.99999922
_symmetry_Int_Tables_number   1
_chemical_formula_structural   Ac3(Mg2Sn)2
_chemical_formula_sum   'Ac3 Mg4 Sn2'
_cell_volume   280.06266828
_cell_formula_units_Z   1
loop_
 _symmetry_equiv_pos_site_id
 _symmetry_equiv_pos_as_xyz
  1  'x, y, z'
loop_
 _atom_site_type_symbol
 _atom_site_label
 _atom_site_symmetry_multiplicity
 _atom_site_fract_x
 _atom_site_fract_y
 _atom_site_fract_z
 _atom_site_occupancy
  Ac  Ac0  1  0.426017  0.426017  0.500000  1
  Ac  Ac1  1  0.573983  0.000000  0.500000  1
  Ac  Ac2  1  0.000000  0.573983  0.500000  1
  Mg  Mg3  1  0.758709  0.758709  0.000000  1
  Mg  Mg4  1  0.241291  0.000000  0.000000  1
  Mg  Mg5  1  0.000000  0.241291  0.000000  1
  Mg  Mg6  1  0.000000  0.000000  0.500000  1
  Sn  Sn7  1  0.666667  0.333333  0.000000  1
  Sn  Sn8  1  0.333333  0.666667  0.000000  1
