# generated using pymatgen
data_YHo2Al12Os3Rh
_symmetry_space_group_name_H-M   'P 1'
_cell_length_a   8.79202790
_cell_length_b   8.86856054
_cell_length_c   9.59577700
_cell_angle_alpha   90.00000000
_cell_angle_beta   90.00000000
_cell_angle_gamma   120.29938519
_symmetry_Int_Tables_number   1
_chemical_formula_structural   YHo2Al12Os3Rh
_chemical_formula_sum   'Y2 Ho4 Al24 Os6 Rh2'
_cell_volume   646.00349682
_cell_formula_units_Z   2
loop_
 _symmetry_equiv_pos_site_id
 _symmetry_equiv_pos_as_xyz
  1  'x, y, z'
loop_
 _atom_site_type_symbol
 _atom_site_label
 _atom_site_symmetry_multiplicity
 _atom_site_fract_x
 _atom_site_fract_y
 _atom_site_fract_z
 _atom_site_occupancy
  Y  Y0  1  0.198853  0.813847  0.250000  1
  Y  Y1  1  0.801147  0.186153  0.750000  1
  Ho  Ho2  1  0.200237  0.386300  0.250000  1
  Ho  Ho3  1  0.799763  0.613700  0.750000  1
  Ho  Ho4  1  0.610769  0.805048  0.250000  1
  Ho  Ho5  1  0.389231  0.194952  0.750000  1
  Al  Al6  1  0.334003  0.666933  0.021885  1
  Al  Al7  1  0.665997  0.333067  0.978115  1
  Al  Al8  1  0.665997  0.333067  0.521885  1
  Al  Al9  1  0.334003  0.666933  0.478115  1
  Al  Al10  1  0.163200  0.326150  0.576495  1
  Al  Al11  1  0.836800  0.673850  0.423505  1
  Al  Al12  1  0.671378  0.835395  0.575064  1
  Al  Al13  1  0.836800  0.673850  0.076495  1
  Al  Al14  1  0.328622  0.164605  0.424936  1
  Al  Al15  1  0.163200  0.326150  0.923505  1
  Al  Al16  1  0.162958  0.837429  0.576987  1
  Al  Al17  1  0.328622  0.164605  0.075064  1
  Al  Al18  1  0.837042  0.162571  0.423013  1
  Al  Al19  1  0.671378  0.835395  0.924936  1
  Al  Al20  1  0.837042  0.162571  0.076987  1
  Al  Al21  1  0.162958  0.837429  0.923013  1
  Al  Al22  1  0.565298  0.126035  0.250000  1
  Al  Al23  1  0.434702  0.873965  0.750000  1
  Al  Al24  1  0.880396  0.440057  0.250000  1
  Al  Al25  1  0.119604  0.559943  0.750000  1
  Al  Al26  1  0.564872  0.439228  0.250000  1
  Al  Al27  1  0.435128  0.560772  0.750000  1
  Al  Al28  1  0.001936  0.002163  0.250000  1
  Al  Al29  1  0.998064  0.997837  0.750000  1
  Os  Os30  1  0.500000  0.000000  0.000000  1
  Os  Os31  1  0.500000  0.000000  0.500000  1
  Os  Os32  1  0.500000  0.500000  0.000000  1
  Os  Os33  1  0.500000  0.500000  0.500000  1
  Os  Os34  1  0.000000  0.000000  0.000000  1
  Os  Os35  1  0.000000  0.000000  0.500000  1
  Rh  Rh36  1  0.000000  0.500000  0.000000  1
  Rh  Rh37  1  0.000000  0.500000  0.500000  1
