# generated using pymatgen
data_Be(Si5Rh4)3
_symmetry_space_group_name_H-M   'P 1'
_cell_length_a   19.09843853
_cell_length_b   3.54127500
_cell_length_c   5.95561537
_cell_angle_alpha   90.00000000
_cell_angle_beta   90.23479306
_cell_angle_gamma   90.00000000
_symmetry_Int_Tables_number   1
_chemical_formula_structural   Be(Si5Rh4)3
_chemical_formula_sum   'Be1 Si15 Rh12'
_cell_volume   402.79169723
_cell_formula_units_Z   1
loop_
 _symmetry_equiv_pos_site_id
 _symmetry_equiv_pos_as_xyz
  1  'x, y, z'
loop_
 _atom_site_type_symbol
 _atom_site_label
 _atom_site_symmetry_multiplicity
 _atom_site_fract_x
 _atom_site_fract_y
 _atom_site_fract_z
 _atom_site_occupancy
  Be  Be0  1  0.550522  0.750000  0.010040  1
  Si  Si1  1  0.909942  0.250001  0.072009  1
  Si  Si2  1  0.634632  0.250001  0.104740  1
  Si  Si3  1  0.233893  0.750000  0.228268  1
  Si  Si4  1  0.728573  0.750000  0.260976  1
  Si  Si5  1  0.143031  0.250001  0.383681  1
  Si  Si6  1  0.411877  0.250001  0.427983  1
  Si  Si7  1  0.049291  0.750000  0.482709  1
  Si  Si8  1  0.949894  0.250001  0.516061  1
  Si  Si9  1  0.587943  0.750000  0.579782  1
  Si  Si10  1  0.855798  0.750000  0.615892  1
  Si  Si11  1  0.269116  0.250001  0.733851  1
  Si  Si12  1  0.765514  0.250001  0.770298  1
  Si  Si13  1  0.361604  0.750000  0.891267  1
  Si  Si14  1  0.089453  0.750000  0.927613  1
  Si  Si15  1  0.458248  0.250001  0.987824  1
  Rh  Rh16  1  0.176382  0.250001  0.007269  1
  Rh  Rh17  1  0.326027  0.250001  0.119937  1
  Rh  Rh18  1  0.031985  0.250001  0.188154  1
  Rh  Rh19  1  0.532498  0.250001  0.324515  1
  Rh  Rh20  1  0.825935  0.250001  0.383337  1
  Rh  Rh21  1  0.677104  0.250001  0.483968  1
  Rh  Rh22  1  0.322692  0.750000  0.513280  1
  Rh  Rh23  1  0.173821  0.750000  0.616580  1
  Rh  Rh24  1  0.466950  0.750000  0.688914  1
  Rh  Rh25  1  0.967961  0.750000  0.809479  1
  Rh  Rh26  1  0.675401  0.750000  0.878600  1
  Rh  Rh27  1  0.823911  0.750000  0.992977  1
