# generated using pymatgen
data_TiTcSn4
_symmetry_space_group_name_H-M   'P 1'
_cell_length_a   5.53739900
_cell_length_b   5.53739944
_cell_length_c   14.31739400
_cell_angle_alpha   90.00000000
_cell_angle_beta   90.00000000
_cell_angle_gamma   119.99999141
_symmetry_Int_Tables_number   1
_chemical_formula_structural   TiTcSn4
_chemical_formula_sum   'Ti3 Tc3 Sn12'
_cell_volume   380.19492555
_cell_formula_units_Z   3
loop_
 _symmetry_equiv_pos_site_id
 _symmetry_equiv_pos_as_xyz
  1  'x, y, z'
loop_
 _atom_site_type_symbol
 _atom_site_label
 _atom_site_symmetry_multiplicity
 _atom_site_fract_x
 _atom_site_fract_y
 _atom_site_fract_z
 _atom_site_occupancy
  Ti  Ti0  1  0.500000  0.000000  0.500000  1
  Ti  Ti1  1  0.000000  0.500000  0.166667  1
  Ti  Ti2  1  0.500000  0.500000  0.833333  1
  Tc  Tc3  1  0.000000  0.000000  0.500000  1
  Tc  Tc4  1  0.000000  0.000000  0.166667  1
  Tc  Tc5  1  0.000000  0.000000  0.833333  1
  Sn  Sn6  1  0.168285  0.336570  0.000000  1
  Sn  Sn7  1  0.663430  0.831715  0.666667  1
  Sn  Sn8  1  0.831715  0.663430  0.000000  1
  Sn  Sn9  1  0.336570  0.168285  0.666667  1
  Sn  Sn10  1  0.168285  0.831715  0.333333  1
  Sn  Sn11  1  0.831715  0.168285  0.333333  1
  Sn  Sn12  1  0.500000  0.000000  0.892098  1
  Sn  Sn13  1  0.000000  0.500000  0.558765  1
  Sn  Sn14  1  0.000000  0.500000  0.774568  1
  Sn  Sn15  1  0.500000  0.500000  0.225432  1
  Sn  Sn16  1  0.500000  0.000000  0.107902  1
  Sn  Sn17  1  0.500000  0.500000  0.441235  1
