# generated using pymatgen
data_Hf2GaPdRh4
_symmetry_space_group_name_H-M   'P 1'
_cell_length_a   4.13232600
_cell_length_b   5.53243702
_cell_length_c   10.93300373
_cell_angle_alpha   89.02651861
_cell_angle_beta   90.00000000
_cell_angle_gamma   90.00000000
_symmetry_Int_Tables_number   1
_chemical_formula_structural   Hf2GaPdRh4
_chemical_formula_sum   'Hf4 Ga2 Pd2 Rh8'
_cell_volume   249.91243290
_cell_formula_units_Z   2
loop_
 _symmetry_equiv_pos_site_id
 _symmetry_equiv_pos_as_xyz
  1  'x, y, z'
loop_
 _atom_site_type_symbol
 _atom_site_label
 _atom_site_symmetry_multiplicity
 _atom_site_fract_x
 _atom_site_fract_y
 _atom_site_fract_z
 _atom_site_occupancy
  Hf  Hf0  1  0.500000  0.175216  0.637973  1
  Hf  Hf1  1  0.500000  0.824784  0.362027  1
  Hf  Hf2  1  0.500000  0.691043  0.864311  1
  Hf  Hf3  1  0.500000  0.308957  0.135689  1
  Ga  Ga4  1  0.000000  0.500000  0.500000  1
  Ga  Ga5  1  0.000000  0.000000  0.000000  1
  Pd  Pd6  1  0.000000  0.434583  0.745741  1
  Pd  Pd7  1  0.000000  0.565417  0.254259  1
  Rh  Rh8  1  0.500000  0.195165  0.889334  1
  Rh  Rh9  1  0.500000  0.804835  0.110666  1
  Rh  Rh10  1  0.500000  0.687789  0.608827  1
  Rh  Rh11  1  0.500000  0.312211  0.391173  1
  Rh  Rh12  1  0.000000  0.000000  0.500000  1
  Rh  Rh13  1  0.000000  0.500000  0.000000  1
  Rh  Rh14  1  0.000000  0.066045  0.244364  1
  Rh  Rh15  1  0.000000  0.933955  0.755636  1
