# generated using pymatgen
data_Hf6Ti2Mn3Os
_symmetry_space_group_name_H-M   'P 1'
_cell_length_a   8.42322626
_cell_length_b   8.40701421
_cell_length_c   8.40701380
_cell_angle_alpha   59.89108513
_cell_angle_beta   59.93618939
_cell_angle_gamma   59.93619358
_symmetry_Int_Tables_number   1
_chemical_formula_structural   Hf6Ti2Mn3Os
_chemical_formula_sum   'Hf12 Ti4 Mn6 Os2'
_cell_volume   420.21292918
_cell_formula_units_Z   2
loop_
 _symmetry_equiv_pos_site_id
 _symmetry_equiv_pos_as_xyz
  1  'x, y, z'
loop_
 _atom_site_type_symbol
 _atom_site_label
 _atom_site_symmetry_multiplicity
 _atom_site_fract_x
 _atom_site_fract_y
 _atom_site_fract_z
 _atom_site_occupancy
  Hf  Hf0  1  0.432116  0.817884  0.817884  1
  Hf  Hf1  1  0.816757  0.433243  0.433243  1
  Hf  Hf2  1  0.817028  0.433198  0.817659  1
  Hf  Hf3  1  0.432114  0.817659  0.433198  1
  Hf  Hf4  1  0.817028  0.817659  0.433198  1
  Hf  Hf5  1  0.432114  0.433198  0.817659  1
  Hf  Hf6  1  0.566956  0.183044  0.183044  1
  Hf  Hf7  1  0.181830  0.568170  0.568170  1
  Hf  Hf8  1  0.182553  0.563892  0.182727  1
  Hf  Hf9  1  0.570828  0.182727  0.563892  1
  Hf  Hf10  1  0.182553  0.182727  0.563892  1
  Hf  Hf11  1  0.570828  0.563892  0.182727  1
  Ti  Ti12  1  0.995695  0.000257  0.508354  1
  Ti  Ti13  1  0.995695  0.508354  0.000257  1
  Ti  Ti14  1  0.514654  0.996332  0.996332  1
  Ti  Ti15  1  0.992681  0.996332  0.996332  1
  Mn  Mn16  1  0.875135  0.208762  0.208762  1
  Mn  Mn17  1  0.207341  0.208762  0.208762  1
  Mn  Mn18  1  0.791607  0.790803  0.125984  1
  Mn  Mn19  1  0.791607  0.125984  0.790803  1
  Mn  Mn20  1  0.125274  0.791277  0.791277  1
  Mn  Mn21  1  0.792173  0.791277  0.791277  1
  Os  Os22  1  0.207716  0.209832  0.874735  1
  Os  Os23  1  0.207716  0.874735  0.209832  1
