# generated using pymatgen
data_U3MnCo5SiB2
_symmetry_space_group_name_H-M   'P 1'
_cell_length_a   5.10776196
_cell_length_b   5.16426236
_cell_length_c   13.10569586
_cell_angle_alpha   90.68128160
_cell_angle_beta   89.65558999
_cell_angle_gamma   120.36659122
_symmetry_Int_Tables_number   1
_chemical_formula_structural   U3MnCo5SiB2
_chemical_formula_sum   'U6 Mn2 Co10 Si2 B4'
_cell_volume   298.25160409
_cell_formula_units_Z   2
loop_
 _symmetry_equiv_pos_site_id
 _symmetry_equiv_pos_as_xyz
  1  'x, y, z'
loop_
 _atom_site_type_symbol
 _atom_site_label
 _atom_site_symmetry_multiplicity
 _atom_site_fract_x
 _atom_site_fract_y
 _atom_site_fract_z
 _atom_site_occupancy
  U  U0  1  0.331211  0.666275  0.248221  1
  U  U1  1  0.668789  0.335062  0.748221  1
  U  U2  1  0.329055  0.662951  0.039661  1
  U  U3  1  0.670945  0.333895  0.539661  1
  U  U4  1  0.676138  0.345697  0.965762  1
  U  U5  1  0.323862  0.669559  0.465762  1
  Mn  Mn6  1  0.830782  0.663319  0.140007  1
  Mn  Mn7  1  0.169218  0.832538  0.640007  1
  Co  Co8  1  0.668709  0.833019  0.644100  1
  Co  Co9  1  0.331291  0.164310  0.144100  1
  Co  Co10  1  0.832583  0.164021  0.144474  1
  Co  Co11  1  0.170087  0.335658  0.856131  1
  Co  Co12  1  0.172155  0.837274  0.856238  1
  Co  Co13  1  0.167417  0.331438  0.644474  1
  Co  Co14  1  0.669285  0.837213  0.856221  1
  Co  Co15  1  0.330715  0.167929  0.356221  1
  Co  Co16  1  0.827845  0.665119  0.356238  1
  Co  Co17  1  0.829913  0.165571  0.356131  1
  Si  Si18  1  0.001319  0.000459  0.999267  1
  Si  Si19  1  0.998681  0.999140  0.499267  1
  B  B20  1  0.994766  0.991840  0.249892  1
  B  B21  1  0.005234  0.997073  0.749892  1
  B  B22  1  0.334351  0.667497  0.750026  1
  B  B23  1  0.665649  0.333145  0.250026  1
