# generated using pymatgen
data_Pr16Cd4Co3Os
_symmetry_space_group_name_H-M   'P 1'
_cell_length_a   9.99219190
_cell_length_b   9.91736446
_cell_length_c   9.91736500
_cell_angle_alpha   60.00000154
_cell_angle_beta   60.24741448
_cell_angle_gamma   60.24741277
_symmetry_Int_Tables_number   1
_chemical_formula_structural   Pr16Cd4Co3Os
_chemical_formula_sum   'Pr16 Cd4 Co3 Os1'
_cell_volume   697.51310841
_cell_formula_units_Z   1
loop_
 _symmetry_equiv_pos_site_id
 _symmetry_equiv_pos_as_xyz
  1  'x, y, z'
loop_
 _atom_site_type_symbol
 _atom_site_label
 _atom_site_symmetry_multiplicity
 _atom_site_fract_x
 _atom_site_fract_y
 _atom_site_fract_z
 _atom_site_occupancy
  Pr  Pr0  1  0.341967  0.347648  0.347648  1
  Pr  Pr1  1  0.341967  0.347648  0.962736  1
  Pr  Pr2  1  0.341967  0.962736  0.347648  1
  Pr  Pr3  1  0.963272  0.345576  0.345576  1
  Pr  Pr4  1  0.814241  0.189014  0.189014  1
  Pr  Pr5  1  0.189969  0.810739  0.810739  1
  Pr  Pr6  1  0.189969  0.810739  0.188552  1
  Pr  Pr7  1  0.814241  0.189014  0.807733  1
  Pr  Pr8  1  0.189969  0.188552  0.810739  1
  Pr  Pr9  1  0.814241  0.807733  0.189014  1
  Pr  Pr10  1  0.937524  0.562444  0.562444  1
  Pr  Pr11  1  0.563871  0.939559  0.939559  1
  Pr  Pr12  1  0.563871  0.939559  0.557011  1
  Pr  Pr13  1  0.937524  0.562444  0.937590  1
  Pr  Pr14  1  0.563871  0.557011  0.939559  1
  Pr  Pr15  1  0.937524  0.937590  0.562444  1
  Cd  Cd16  1  0.579954  0.578803  0.578803  1
  Cd  Cd17  1  0.579954  0.578803  0.262440  1
  Cd  Cd18  1  0.579954  0.262440  0.578803  1
  Cd  Cd19  1  0.261195  0.579602  0.579602  1
  Co  Co20  1  0.138065  0.140210  0.140210  1
  Co  Co21  1  0.138065  0.140210  0.581516  1
  Co  Co22  1  0.138065  0.581516  0.140210  1
  Os  Os23  1  0.578760  0.140413  0.140413  1
