# generated using pymatgen
data_Sc16InGa5Fe2
_symmetry_space_group_name_H-M   'P 1'
_cell_length_a   9.45506096
_cell_length_b   9.45512689
_cell_length_c   6.37410664
_cell_angle_alpha   90.07022845
_cell_angle_beta   89.92786588
_cell_angle_gamma   120.01955991
_symmetry_Int_Tables_number   1
_chemical_formula_structural   Sc16InGa5Fe2
_chemical_formula_sum   'Sc16 In1 Ga5 Fe2'
_cell_volume   493.39594003
_cell_formula_units_Z   1
loop_
 _symmetry_equiv_pos_site_id
 _symmetry_equiv_pos_as_xyz
  1  'x, y, z'
loop_
 _atom_site_type_symbol
 _atom_site_label
 _atom_site_symmetry_multiplicity
 _atom_site_fract_x
 _atom_site_fract_y
 _atom_site_fract_z
 _atom_site_occupancy
  Sc  Sc0  1  0.532335  0.064758  0.524394  1
  Sc  Sc1  1  0.935253  0.467665  0.524408  1
  Sc  Sc2  1  0.532437  0.467531  0.529391  1
  Sc  Sc3  1  0.475852  0.939516  0.022512  1
  Sc  Sc4  1  0.060482  0.524146  0.022508  1
  Sc  Sc5  1  0.466856  0.533192  0.023968  1
  Sc  Sc6  1  0.175254  0.349274  0.730149  1
  Sc  Sc7  1  0.650761  0.824755  0.730098  1
  Sc  Sc8  1  0.175534  0.824453  0.739589  1
  Sc  Sc9  1  0.815105  0.644052  0.227562  1
  Sc  Sc10  1  0.355897  0.184798  0.227509  1
  Sc  Sc11  1  0.824966  0.175083  0.232136  1
  Sc  Sc12  1  0.666733  0.333274  0.899425  1
  Sc  Sc13  1  0.336899  0.663145  0.404852  1
  Sc  Sc14  1  0.997640  0.002404  0.509377  1
  Sc  Sc15  1  0.997148  0.002840  0.006291  1
  In  In16  1  0.163508  0.836361  0.267214  1
  Ga  Ga17  1  0.837218  0.674404  0.767416  1
  Ga  Ga18  1  0.325563  0.162759  0.767370  1
  Ga  Ga19  1  0.836843  0.163150  0.768145  1
  Ga  Ga20  1  0.161978  0.325637  0.267961  1
  Ga  Ga21  1  0.674425  0.838094  0.267897  1
  Fe  Fe22  1  0.667314  0.332668  0.297601  1
  Fe  Fe23  1  0.334001  0.666042  0.797908  1
