# generated using pymatgen
data_Nd3PaAl14(Ga2Ir3)2
_symmetry_space_group_name_H-M   'P 1'
_cell_length_a   7.60656327
_cell_length_b   7.59809137
_cell_length_c   9.58177100
_cell_angle_alpha   90.00000000
_cell_angle_beta   90.00000000
_cell_angle_gamma   119.54370060
_symmetry_Int_Tables_number   1
_chemical_formula_structural   Nd3PaAl14(Ga2Ir3)2
_chemical_formula_sum   'Nd3 Pa1 Al14 Ga4 Ir6'
_cell_volume   481.77912771
_cell_formula_units_Z   1
loop_
 _symmetry_equiv_pos_site_id
 _symmetry_equiv_pos_as_xyz
  1  'x, y, z'
loop_
 _atom_site_type_symbol
 _atom_site_label
 _atom_site_symmetry_multiplicity
 _atom_site_fract_x
 _atom_site_fract_y
 _atom_site_fract_z
 _atom_site_occupancy
  Nd  Nd0  1  0.004763  0.329780  0.750000  1
  Nd  Nd1  1  0.673039  0.995128  0.250000  1
  Nd  Nd2  1  0.330310  0.004460  0.750000  1
  Pa  Pa3  1  0.997456  0.674540  0.250000  1
  Al  Al4  1  0.001485  0.334439  0.075127  1
  Al  Al5  1  0.996275  0.664676  0.927588  1
  Al  Al6  1  0.996275  0.664676  0.572412  1
  Al  Al7  1  0.337990  0.003733  0.424644  1
  Al  Al8  1  0.001485  0.334439  0.424873  1
  Al  Al9  1  0.665254  0.996655  0.571303  1
  Al  Al10  1  0.665254  0.996655  0.928697  1
  Al  Al11  1  0.337990  0.003733  0.075356  1
  Al  Al12  1  0.334148  0.334258  0.547905  1
  Al  Al13  1  0.663125  0.664261  0.442844  1
  Al  Al14  1  0.663125  0.664261  0.057156  1
  Al  Al15  1  0.334148  0.334258  0.952095  1
  Al  Al16  1  0.334510  0.545827  0.250000  1
  Al  Al17  1  0.549071  0.341636  0.250000  1
  Ga  Ga18  1  0.137278  0.135019  0.250000  1
  Ga  Ga19  1  0.870198  0.870878  0.750000  1
  Ga  Ga20  1  0.658783  0.453173  0.750000  1
  Ga  Ga21  1  0.452816  0.659623  0.750000  1
  Ir  Ir22  1  0.672620  0.331165  0.004685  1
  Ir  Ir23  1  0.326214  0.670414  0.005029  1
  Ir  Ir24  1  0.326214  0.670414  0.494971  1
  Ir  Ir25  1  0.672620  0.331165  0.495315  1
  Ir  Ir26  1  0.998778  0.995367  0.004094  1
  Ir  Ir27  1  0.998778  0.995367  0.495906  1
