# generated using pymatgen
data_Cs12Mn3WS16
_symmetry_space_group_name_H-M   'P 1'
_cell_length_a   9.83232374
_cell_length_b   9.82170928
_cell_length_c   11.88213000
_cell_angle_alpha   90.00000000
_cell_angle_beta   90.00000000
_cell_angle_gamma   90.36190794
_symmetry_Int_Tables_number   1
_chemical_formula_structural   Cs12Mn3WS16
_chemical_formula_sum   'Cs12 Mn3 W1 S16'
_cell_volume   1147.43708080
_cell_formula_units_Z   1
loop_
 _symmetry_equiv_pos_site_id
 _symmetry_equiv_pos_as_xyz
  1  'x, y, z'
loop_
 _atom_site_type_symbol
 _atom_site_label
 _atom_site_symmetry_multiplicity
 _atom_site_fract_x
 _atom_site_fract_y
 _atom_site_fract_z
 _atom_site_occupancy
  Cs  Cs0  1  0.417752  0.862960  0.750000  1
  Cs  Cs1  1  0.585638  0.149857  0.250000  1
  Cs  Cs2  1  0.101664  0.341150  0.750000  1
  Cs  Cs3  1  0.696427  0.529380  0.962074  1
  Cs  Cs4  1  0.294513  0.454701  0.047362  1
  Cs  Cs5  1  0.907350  0.649186  0.250000  1
  Cs  Cs6  1  0.216002  0.962036  0.050358  1
  Cs  Cs7  1  0.294513  0.454701  0.452638  1
  Cs  Cs8  1  0.216002  0.962036  0.449642  1
  Cs  Cs9  1  0.696427  0.529380  0.537926  1
  Cs  Cs10  1  0.783100  0.053729  0.535240  1
  Cs  Cs11  1  0.783100  0.053729  0.964760  1
  Mn  Mn12  1  0.517628  0.277601  0.750000  1
  Mn  Mn13  1  0.015641  0.225512  0.250000  1
  Mn  Mn14  1  0.484312  0.722674  0.250000  1
  W  W15  1  0.982733  0.773305  0.750000  1
  S  S16  1  0.563093  0.520453  0.250000  1
  S  S17  1  0.068779  0.982528  0.750000  1
  S  S18  1  0.453946  0.178403  0.904113  1
  S  S19  1  0.048582  0.665200  0.596533  1
  S  S20  1  0.437465  0.481376  0.750000  1
  S  S21  1  0.953067  0.327603  0.100278  1
  S  S22  1  0.548991  0.824703  0.399502  1
  S  S23  1  0.758453  0.785314  0.750000  1
  S  S24  1  0.048582  0.665200  0.903467  1
  S  S25  1  0.267719  0.712346  0.250000  1
  S  S26  1  0.548991  0.824703  0.100498  1
  S  S27  1  0.232180  0.213289  0.250000  1
  S  S28  1  0.736064  0.287291  0.750000  1
  S  S29  1  0.453946  0.178403  0.595887  1
  S  S30  1  0.934269  0.023650  0.250000  1
  S  S31  1  0.953067  0.327603  0.399722  1
