# generated using pymatgen
data_Ca2La11Pr3(CdIr)4
_symmetry_space_group_name_H-M   'P 1'
_cell_length_a   10.10276324
_cell_length_b   10.09165222
_cell_length_c   10.10634668
_cell_angle_alpha   59.80296255
_cell_angle_beta   59.91454061
_cell_angle_gamma   59.94000954
_symmetry_Int_Tables_number   1
_chemical_formula_structural   Ca2La11Pr3(CdIr)4
_chemical_formula_sum   'Ca2 La11 Pr3 Cd4 Ir4'
_cell_volume   726.69783452
_cell_formula_units_Z   1
loop_
 _symmetry_equiv_pos_site_id
 _symmetry_equiv_pos_as_xyz
  1  'x, y, z'
loop_
 _atom_site_type_symbol
 _atom_site_label
 _atom_site_symmetry_multiplicity
 _atom_site_fract_x
 _atom_site_fract_y
 _atom_site_fract_z
 _atom_site_occupancy
  Ca  Ca0  1  0.563522  0.937728  0.937230  1
  Ca  Ca1  1  0.563260  0.938106  0.562359  1
  La  La2  1  0.345070  0.347542  0.345569  1
  La  La3  1  0.346736  0.348562  0.958225  1
  La  La4  1  0.346139  0.958653  0.347716  1
  La  La5  1  0.959596  0.346932  0.344774  1
  La  La6  1  0.809457  0.188941  0.192736  1
  La  La7  1  0.194699  0.805203  0.809396  1
  La  La8  1  0.192430  0.809122  0.188420  1
  La  La9  1  0.808754  0.189814  0.809154  1
  La  La10  1  0.195547  0.187100  0.809201  1
  La  La11  1  0.806805  0.806516  0.193532  1
  La  La12  1  0.938233  0.561324  0.564880  1
  Pr  Pr13  1  0.935442  0.562902  0.937904  1
  Pr  Pr14  1  0.563314  0.564981  0.936398  1
  Pr  Pr15  1  0.935701  0.939615  0.564829  1
  Cd  Cd16  1  0.579171  0.578850  0.579498  1
  Cd  Cd17  1  0.580957  0.578427  0.259838  1
  Cd  Cd18  1  0.580936  0.262927  0.577950  1
  Cd  Cd19  1  0.260853  0.578333  0.580199  1
  Ir  Ir20  1  0.139088  0.142833  0.139640  1
  Ir  Ir21  1  0.137730  0.142718  0.579343  1
  Ir  Ir22  1  0.138836  0.578988  0.141369  1
  Ir  Ir23  1  0.577720  0.143884  0.139839  1
