# generated using pymatgen
data_Sr2Li3PrPt3
_symmetry_space_group_name_H-M   'P 1'
_cell_length_a   7.53795014
_cell_length_b   7.49940197
_cell_length_c   4.23096600
_cell_angle_alpha   90.00000000
_cell_angle_beta   90.00000000
_cell_angle_gamma   119.83095800
_symmetry_Int_Tables_number   1
_chemical_formula_structural   Sr2Li3PrPt3
_chemical_formula_sum   'Sr2 Li3 Pr1 Pt3'
_cell_volume   207.48528924
_cell_formula_units_Z   1
loop_
 _symmetry_equiv_pos_site_id
 _symmetry_equiv_pos_as_xyz
  1  'x, y, z'
loop_
 _atom_site_type_symbol
 _atom_site_label
 _atom_site_symmetry_multiplicity
 _atom_site_fract_x
 _atom_site_fract_y
 _atom_site_fract_z
 _atom_site_occupancy
  Sr  Sr0  1  0.413515  0.414768  0.000000  1
  Sr  Sr1  1  0.586485  0.001253  0.000000  1
  Li  Li2  1  0.773357  0.768013  0.500000  1
  Li  Li3  1  0.226643  0.994656  0.500000  1
  Li  Li4  1  0.000000  0.229810  0.500000  1
  Pr  Pr5  1  0.000000  0.593714  0.000000  1
  Pt  Pt6  1  0.000000  0.982563  0.000000  1
  Pt  Pt7  1  0.692713  0.353967  0.500000  1
  Pt  Pt8  1  0.307287  0.661255  0.500000  1
