# generated using pymatgen
data_TmLu3Al17GaRh6
_symmetry_space_group_name_H-M   'P 1'
_cell_length_a   7.50994448
_cell_length_b   7.51089273
_cell_length_c   9.42244500
_cell_angle_alpha   90.00000000
_cell_angle_beta   90.00000000
_cell_angle_gamma   119.32186352
_symmetry_Int_Tables_number   1
_chemical_formula_structural   TmLu3Al17GaRh6
_chemical_formula_sum   'Tm1 Lu3 Al17 Ga1 Rh6'
_cell_volume   463.39339570
_cell_formula_units_Z   1
loop_
 _symmetry_equiv_pos_site_id
 _symmetry_equiv_pos_as_xyz
  1  'x, y, z'
loop_
 _atom_site_type_symbol
 _atom_site_label
 _atom_site_symmetry_multiplicity
 _atom_site_fract_x
 _atom_site_fract_y
 _atom_site_fract_z
 _atom_site_occupancy
  Tm  Tm0  1  0.994211  0.673808  0.250000  1
  Lu  Lu1  1  0.004771  0.327771  0.750000  1
  Lu  Lu2  1  0.673697  0.994302  0.250000  1
  Lu  Lu3  1  0.327849  0.004779  0.750000  1
  Al  Al4  1  0.872093  0.872146  0.750000  1
  Al  Al5  1  0.000861  0.335685  0.074848  1
  Al  Al6  1  0.999526  0.664250  0.924312  1
  Al  Al7  1  0.999526  0.664250  0.575688  1
  Al  Al8  1  0.336306  0.001096  0.425141  1
  Al  Al9  1  0.000861  0.335685  0.425152  1
  Al  Al10  1  0.664262  0.999556  0.575399  1
  Al  Al11  1  0.664262  0.999556  0.924601  1
  Al  Al12  1  0.336306  0.001096  0.074859  1
  Al  Al13  1  0.332604  0.332607  0.554823  1
  Al  Al14  1  0.666293  0.666585  0.448393  1
  Al  Al15  1  0.666293  0.666585  0.051607  1
  Al  Al16  1  0.332604  0.332607  0.945177  1
  Al  Al17  1  0.338455  0.551118  0.250000  1
  Al  Al18  1  0.661333  0.449429  0.750000  1
  Al  Al19  1  0.550848  0.337964  0.250000  1
  Al  Al20  1  0.449515  0.661390  0.750000  1
  Ga  Ga21  1  0.130177  0.130362  0.250000  1
  Rh  Rh22  1  0.671781  0.327362  0.000066  1
  Rh  Rh23  1  0.327447  0.671803  0.000042  1
  Rh  Rh24  1  0.327447  0.671803  0.499958  1
  Rh  Rh25  1  0.671781  0.327362  0.499934  1
  Rh  Rh26  1  0.999444  0.999523  0.997465  1
  Rh  Rh27  1  0.999444  0.999523  0.502535  1
