# generated using pymatgen
data_LiTh2Ni9
_symmetry_space_group_name_H-M   'P 1'
_cell_length_a   8.56791796
_cell_length_b   8.56791778
_cell_length_c   8.56791798
_cell_angle_alpha   33.38709923
_cell_angle_beta   33.38709974
_cell_angle_gamma   33.38710036
_symmetry_Int_Tables_number   1
_chemical_formula_structural   LiTh2Ni9
_chemical_formula_sum   'Li1 Th2 Ni9'
_cell_volume   169.60362771
_cell_formula_units_Z   1
loop_
 _symmetry_equiv_pos_site_id
 _symmetry_equiv_pos_as_xyz
  1  'x, y, z'
loop_
 _atom_site_type_symbol
 _atom_site_label
 _atom_site_symmetry_multiplicity
 _atom_site_fract_x
 _atom_site_fract_y
 _atom_site_fract_z
 _atom_site_occupancy
  Li  Li0  1  0.137750  0.137750  0.137750  1
  Th  Th1  1  0.854096  0.854096  0.854096  1
  Th  Th2  1  0.006737  0.006737  0.006737  1
  Ni  Ni3  1  0.416220  0.918289  0.416220  1
  Ni  Ni4  1  0.416220  0.416220  0.918289  1
  Ni  Ni5  1  0.918289  0.416220  0.416220  1
  Ni  Ni6  1  0.583262  0.085317  0.583262  1
  Ni  Ni7  1  0.583262  0.583262  0.085317  1
  Ni  Ni8  1  0.085317  0.583262  0.583262  1
  Ni  Ni9  1  0.667036  0.667036  0.667036  1
  Ni  Ni10  1  0.332723  0.332723  0.332723  1
  Ni  Ni11  1  0.499087  0.499087  0.499087  1
