# generated using pymatgen
data_Ca20Cd3Ag5Ir4
_symmetry_space_group_name_H-M   'P 1'
_cell_length_a   7.90328347
_cell_length_b   7.90328442
_cell_length_c   14.91800400
_cell_angle_alpha   90.00000000
_cell_angle_beta   90.00000000
_cell_angle_gamma   88.02310485
_symmetry_Int_Tables_number   1
_chemical_formula_structural   Ca20Cd3Ag5Ir4
_chemical_formula_sum   'Ca20 Cd3 Ag5 Ir4'
_cell_volume   931.25223785
_cell_formula_units_Z   1
loop_
 _symmetry_equiv_pos_site_id
 _symmetry_equiv_pos_as_xyz
  1  'x, y, z'
loop_
 _atom_site_type_symbol
 _atom_site_label
 _atom_site_symmetry_multiplicity
 _atom_site_fract_x
 _atom_site_fract_y
 _atom_site_fract_z
 _atom_site_occupancy
  Ca  Ca0  1  0.660459  0.152964  0.112604  1
  Ca  Ca1  1  0.157124  0.655499  0.615360  1
  Ca  Ca2  1  0.339541  0.847036  0.112604  1
  Ca  Ca3  1  0.842876  0.344501  0.615360  1
  Ca  Ca4  1  0.821982  0.685477  0.113217  1
  Ca  Ca5  1  0.318342  0.182857  0.615250  1
  Ca  Ca6  1  0.178018  0.314523  0.113217  1
  Ca  Ca7  1  0.681658  0.817143  0.615250  1
  Ca  Ca8  1  0.847036  0.339541  0.887396  1
  Ca  Ca9  1  0.344501  0.842876  0.384640  1
  Ca  Ca10  1  0.152964  0.660459  0.887396  1
  Ca  Ca11  1  0.655499  0.157124  0.384640  1
  Ca  Ca12  1  0.685477  0.821982  0.886783  1
  Ca  Ca13  1  0.182857  0.318342  0.384750  1
  Ca  Ca14  1  0.314523  0.178018  0.886783  1
  Ca  Ca15  1  0.817143  0.681658  0.384750  1
  Ca  Ca16  1  0.500000  0.500000  0.753476  1
  Ca  Ca17  1  0.000000  0.000000  0.251233  1
  Ca  Ca18  1  0.000000  0.000000  0.748767  1
  Ca  Ca19  1  0.500000  0.500000  0.246524  1
  Cd  Cd20  1  0.500000  0.500000  0.500000  1
  Cd  Cd21  1  0.500000  0.500000  0.000000  1
  Cd  Cd22  1  0.000000  0.000000  0.500000  1
  Ag  Ag23  1  0.624312  0.125414  0.751057  1
  Ag  Ag24  1  0.125414  0.624312  0.248943  1
  Ag  Ag25  1  0.874586  0.375688  0.248943  1
  Ag  Ag26  1  0.375688  0.874586  0.751057  1
  Ag  Ag27  1  0.000000  0.000000  0.000000  1
  Ir  Ir28  1  0.877186  0.623359  0.751570  1
  Ir  Ir29  1  0.376641  0.122814  0.248430  1
  Ir  Ir30  1  0.122814  0.376641  0.751570  1
  Ir  Ir31  1  0.623359  0.877186  0.248430  1
