# generated using pymatgen
data_LaPr4Tc3(P3Ir4)4
_symmetry_space_group_name_H-M   'P 1'
_cell_length_a   12.74636500
_cell_length_b   12.74627058
_cell_length_c   4.07950800
_cell_angle_alpha   90.00000000
_cell_angle_beta   90.00000000
_cell_angle_gamma   120.00025284
_symmetry_Int_Tables_number   1
_chemical_formula_structural   LaPr4Tc3(P3Ir4)4
_chemical_formula_sum   'La1 Pr4 Tc3 P12 Ir16'
_cell_volume   573.99326737
_cell_formula_units_Z   1
loop_
 _symmetry_equiv_pos_site_id
 _symmetry_equiv_pos_as_xyz
  1  'x, y, z'
loop_
 _atom_site_type_symbol
 _atom_site_label
 _atom_site_symmetry_multiplicity
 _atom_site_fract_x
 _atom_site_fract_y
 _atom_site_fract_z
 _atom_site_occupancy
  La  La0  1  0.816333  0.000000  0.500000  1
  Pr  Pr1  1  0.000170  0.815199  0.500000  1
  Pr  Pr2  1  0.184971  0.184801  0.500000  1
  Pr  Pr3  1  0.333285  0.666716  0.000000  1
  Pr  Pr4  1  0.666570  0.333284  0.000000  1
  Tc  Tc5  1  0.000215  0.292412  0.500000  1
  Tc  Tc6  1  0.707803  0.707588  0.500000  1
  Tc  Tc7  1  0.291939  0.000000  0.500000  1
  P  P8  1  0.000484  0.184137  0.000000  1
  P  P9  1  0.816347  0.815863  0.000000  1
  P  P10  1  0.183576  0.000000  0.000000  1
  P  P11  1  0.521051  0.693900  0.500000  1
  P  P12  1  0.306059  0.827143  0.500000  1
  P  P13  1  0.172925  0.479146  0.500000  1
  P  P14  1  0.478916  0.172857  0.500000  1
  P  P15  1  0.693779  0.520854  0.500000  1
  P  P16  1  0.827151  0.306100  0.500000  1
  P  P17  1  0.000011  0.636009  0.000000  1
  P  P18  1  0.364002  0.363991  0.000000  1
  P  P19  1  0.635444  0.000000  0.000000  1
  Ir  Ir20  1  0.619361  0.802298  0.000000  1
  Ir  Ir21  1  0.197176  0.816991  0.000000  1
  Ir  Ir22  1  0.183065  0.380175  0.000000  1
  Ir  Ir23  1  0.380185  0.183009  0.000000  1
  Ir  Ir24  1  0.802889  0.619825  0.000000  1
  Ir  Ir25  1  0.817063  0.197702  0.000000  1
  Ir  Ir26  1  0.506509  0.872555  0.500000  1
  Ir  Ir27  1  0.127479  0.634163  0.500000  1
  Ir  Ir28  1  0.365826  0.493376  0.500000  1
  Ir  Ir29  1  0.493317  0.365837  0.500000  1
  Ir  Ir30  1  0.872452  0.506624  0.500000  1
  Ir  Ir31  1  0.633954  0.127445  0.500000  1
  Ir  Ir32  1  0.000076  0.000000  0.000000  1
  Ir  Ir33  1  0.999935  0.454965  0.000000  1
  Ir  Ir34  1  0.544971  0.545035  0.000000  1
  Ir  Ir35  1  0.454711  0.000000  0.000000  1
