# generated using pymatgen
data_Mg4Ge3As3Ir7
_symmetry_space_group_name_H-M   'P 1'
_cell_length_a   7.07744998
_cell_length_b   7.07745059
_cell_length_c   7.07745031
_cell_angle_alpha   109.48240348
_cell_angle_beta   110.08493638
_cell_angle_gamma   108.84867383
_symmetry_Int_Tables_number   1
_chemical_formula_structural   Mg4Ge3As3Ir7
_chemical_formula_sum   'Mg4 Ge3 As3 Ir7'
_cell_volume   272.87143274
_cell_formula_units_Z   1
loop_
 _symmetry_equiv_pos_site_id
 _symmetry_equiv_pos_as_xyz
  1  'x, y, z'
loop_
 _atom_site_type_symbol
 _atom_site_label
 _atom_site_symmetry_multiplicity
 _atom_site_fract_x
 _atom_site_fract_y
 _atom_site_fract_z
 _atom_site_occupancy
  Mg  Mg0  1  0.999923  0.998610  0.500460  1
  Mg  Mg1  1  0.498150  0.998610  0.998687  1
  Mg  Mg2  1  0.000077  0.500537  0.998687  1
  Mg  Mg3  1  0.501850  0.500537  0.500460  1
  Ge  Ge4  1  0.689593  0.689229  0.999636  1
  Ge  Ge5  1  0.310407  0.310043  0.999636  1
  Ge  Ge6  1  0.000000  0.691843  0.691843  1
  As  As7  1  0.000000  0.314478  0.314478  1
  As  As8  1  0.688466  0.999416  0.687882  1
  As  As9  1  0.311534  0.999416  0.310950  1
  Ir  Ir10  1  0.000000  0.001041  0.001041  1
  Ir  Ir11  1  0.249564  0.499144  0.748707  1
  Ir  Ir12  1  0.749596  0.249343  0.499747  1
  Ir  Ir13  1  0.500000  0.248419  0.748419  1
  Ir  Ir14  1  0.500000  0.750038  0.250038  1
  Ir  Ir15  1  0.750436  0.499144  0.249580  1
  Ir  Ir16  1  0.250404  0.750152  0.499747  1
