# generated using pymatgen
data_Ho3Sc(CdHg3)2
_symmetry_space_group_name_H-M   'P 1'
_cell_length_a   5.11540700
_cell_length_b   7.23844300
_cell_length_c   15.44804600
_cell_angle_alpha   90.00001583
_cell_angle_beta   89.99789428
_cell_angle_gamma   90.00009499
_symmetry_Int_Tables_number   1
_chemical_formula_structural   Ho3Sc(CdHg3)2
_chemical_formula_sum   'Ho6 Sc2 Cd4 Hg12'
_cell_volume   572.00378987
_cell_formula_units_Z   2
loop_
 _symmetry_equiv_pos_site_id
 _symmetry_equiv_pos_as_xyz
  1  'x, y, z'
loop_
 _atom_site_type_symbol
 _atom_site_label
 _atom_site_symmetry_multiplicity
 _atom_site_fract_x
 _atom_site_fract_y
 _atom_site_fract_z
 _atom_site_occupancy
  Ho  Ho0  1  0.999995  0.999999  0.991737  1
  Ho  Ho1  1  0.499952  0.499999  0.174888  1
  Ho  Ho2  1  0.999943  0.000001  0.339967  1
  Ho  Ho3  1  0.500001  0.499999  0.499280  1
  Ho  Ho4  1  0.000045  0.000000  0.667405  1
  Ho  Ho5  1  0.500073  0.500000  0.826680  1
  Sc  Sc6  1  0.999991  0.499999  0.003195  1
  Sc  Sc7  1  0.499951  0.999998  0.163418  1
  Cd  Cd8  1  0.999917  0.500001  0.336350  1
  Cd  Cd9  1  0.499995  0.000000  0.499821  1
  Cd  Cd10  1  0.000053  0.500000  0.666941  1
  Cd  Cd11  1  0.500076  0.000001  0.830373  1
  Hg  Hg12  1  0.500001  0.258703  0.004170  1
  Hg  Hg13  1  0.499997  0.741296  0.004171  1
  Hg  Hg14  1  0.999936  0.241264  0.162492  1
  Hg  Hg15  1  0.999936  0.758735  0.162494  1
  Hg  Hg16  1  0.499949  0.241376  0.329109  1
  Hg  Hg17  1  0.499933  0.758624  0.329109  1
  Hg  Hg18  1  0.999984  0.252342  0.501843  1
  Hg  Hg19  1  0.000023  0.747660  0.501844  1
  Hg  Hg20  1  0.500076  0.247680  0.664843  1
  Hg  Hg21  1  0.500031  0.752321  0.664842  1
  Hg  Hg22  1  0.000063  0.258621  0.837514  1
  Hg  Hg23  1  0.000076  0.741381  0.837513  1
