# generated using pymatgen
data_Li2Co3Ni9P7
_symmetry_space_group_name_H-M   'P 1'
_cell_length_a   9.02877500
_cell_length_b   9.02877567
_cell_length_c   3.49376400
_cell_angle_alpha   90.00000000
_cell_angle_beta   90.00000000
_cell_angle_gamma   120.00000121
_symmetry_Int_Tables_number   1
_chemical_formula_structural   Li2Co3Ni9P7
_chemical_formula_sum   'Li2 Co3 Ni9 P7'
_cell_volume   246.65043455
_cell_formula_units_Z   1
loop_
 _symmetry_equiv_pos_site_id
 _symmetry_equiv_pos_as_xyz
  1  'x, y, z'
loop_
 _atom_site_type_symbol
 _atom_site_label
 _atom_site_symmetry_multiplicity
 _atom_site_fract_x
 _atom_site_fract_y
 _atom_site_fract_z
 _atom_site_occupancy
  Li  Li0  1  0.000000  0.000000  0.000000  1
  Li  Li1  1  0.333333  0.666667  0.500000  1
  Co  Co2  1  0.782335  0.175130  0.000000  1
  Co  Co3  1  0.392795  0.217665  0.000000  1
  Co  Co4  1  0.824870  0.607205  0.000000  1
  Ni  Ni5  1  0.292562  0.896546  0.000000  1
  Ni  Ni6  1  0.603984  0.707438  0.000000  1
  Ni  Ni7  1  0.103454  0.396016  0.000000  1
  Ni  Ni8  1  0.720463  0.947303  0.500000  1
  Ni  Ni9  1  0.226841  0.279537  0.500000  1
  Ni  Ni10  1  0.052697  0.773159  0.500000  1
  Ni  Ni11  1  0.535883  0.106580  0.500000  1
  Ni  Ni12  1  0.570697  0.464117  0.500000  1
  Ni  Ni13  1  0.893420  0.429303  0.500000  1
  P  P14  1  0.545798  0.919037  0.000000  1
  P  P15  1  0.373239  0.454202  0.000000  1
  P  P16  1  0.080963  0.626761  0.000000  1
  P  P17  1  0.953545  0.211287  0.500000  1
  P  P18  1  0.257742  0.046455  0.500000  1
  P  P19  1  0.788713  0.742258  0.500000  1
  P  P20  1  0.666667  0.333333  0.000000  1
