# generated using pymatgen
data_PaFeNiP2
_symmetry_space_group_name_H-M   'P 1'
_cell_length_a   4.00941500
_cell_length_b   4.00941500
_cell_length_c   8.85071500
_cell_angle_alpha   90.00000000
_cell_angle_beta   90.00000000
_cell_angle_gamma   90.00000000
_symmetry_Int_Tables_number   1
_chemical_formula_structural   PaFeNiP2
_chemical_formula_sum   'Pa2 Fe2 Ni2 P4'
_cell_volume   142.27886040
_cell_formula_units_Z   2
loop_
 _symmetry_equiv_pos_site_id
 _symmetry_equiv_pos_as_xyz
  1  'x, y, z'
loop_
 _atom_site_type_symbol
 _atom_site_label
 _atom_site_symmetry_multiplicity
 _atom_site_fract_x
 _atom_site_fract_y
 _atom_site_fract_z
 _atom_site_occupancy
  Pa  Pa0  1  0.500000  0.000000  0.243961  1
  Pa  Pa1  1  0.000000  0.500000  0.756039  1
  Fe  Fe2  1  0.500000  0.000000  0.886709  1
  Fe  Fe3  1  0.000000  0.500000  0.113291  1
  Ni  Ni4  1  0.500000  0.500000  0.500000  1
  Ni  Ni5  1  0.000000  0.000000  0.500000  1
  P  P6  1  0.000000  0.500000  0.364282  1
  P  P7  1  0.500000  0.500000  0.000000  1
  P  P8  1  0.000000  0.000000  0.000000  1
  P  P9  1  0.500000  0.000000  0.635718  1
