# generated using pymatgen
data_Tm2UAl2GaRu3
_symmetry_space_group_name_H-M   'P 1'
_cell_length_a   6.82885801
_cell_length_b   6.83382743
_cell_length_c   3.99443400
_cell_angle_alpha   90.00000000
_cell_angle_beta   90.00000000
_cell_angle_gamma   116.52060704
_symmetry_Int_Tables_number   1
_chemical_formula_structural   Tm2UAl2GaRu3
_chemical_formula_sum   'Tm2 U1 Al2 Ga1 Ru3'
_cell_volume   166.79407170
_cell_formula_units_Z   1
loop_
 _symmetry_equiv_pos_site_id
 _symmetry_equiv_pos_as_xyz
  1  'x, y, z'
loop_
 _atom_site_type_symbol
 _atom_site_label
 _atom_site_symmetry_multiplicity
 _atom_site_fract_x
 _atom_site_fract_y
 _atom_site_fract_z
 _atom_site_occupancy
  Tm  Tm0  1  0.418889  0.006471  0.500000  1
  Tm  Tm1  1  0.005686  0.414808  0.500000  1
  U  U2  1  0.608731  0.609663  0.500000  1
  Al  Al3  1  0.027685  0.750957  0.000000  1
  Al  Al4  1  0.210243  0.208962  0.000000  1
  Ga  Ga5  1  0.748188  0.030635  0.000000  1
  Ru  Ru6  1  0.375009  0.635673  0.000000  1
  Ru  Ru7  1  0.638855  0.380179  0.000000  1
  Ru  Ru8  1  0.966715  0.962650  0.500000  1
