# generated using pymatgen
data_Nb6Ga4CoReC2
_symmetry_space_group_name_H-M   'P 1'
_cell_length_a   8.29855743
_cell_length_b   8.29855827
_cell_length_c   8.32718700
_cell_angle_alpha   59.88581831
_cell_angle_beta   59.88581493
_cell_angle_gamma   59.87877618
_symmetry_Int_Tables_number   1
_chemical_formula_structural   Nb6Ga4CoReC2
_chemical_formula_sum   'Nb12 Ga8 Co2 Re2 C4'
_cell_volume   404.42573965
_cell_formula_units_Z   2
loop_
 _symmetry_equiv_pos_site_id
 _symmetry_equiv_pos_as_xyz
  1  'x, y, z'
loop_
 _atom_site_type_symbol
 _atom_site_label
 _atom_site_symmetry_multiplicity
 _atom_site_fract_x
 _atom_site_fract_y
 _atom_site_fract_z
 _atom_site_occupancy
  Nb  Nb0  1  0.700957  0.304524  0.688657  1
  Nb  Nb1  1  0.945476  0.549043  0.561343  1
  Nb  Nb2  1  0.549043  0.945476  0.944138  1
  Nb  Nb3  1  0.945476  0.549043  0.944138  1
  Nb  Nb4  1  0.558474  0.558474  0.941526  1
  Nb  Nb5  1  0.949427  0.949427  0.550573  1
  Nb  Nb6  1  0.691526  0.691526  0.308474  1
  Nb  Nb7  1  0.304524  0.700957  0.688657  1
  Nb  Nb8  1  0.700957  0.304524  0.305862  1
  Nb  Nb9  1  0.300573  0.300573  0.699427  1
  Nb  Nb10  1  0.549043  0.945476  0.561343  1
  Nb  Nb11  1  0.304524  0.700957  0.305862  1
  Ga  Ga12  1  0.341920  0.341920  0.324392  1
  Ga  Ga13  1  0.254110  0.902209  0.921840  1
  Ga  Ga14  1  0.902209  0.254110  0.921840  1
  Ga  Ga15  1  0.908080  0.908080  0.258230  1
  Ga  Ga16  1  0.347791  0.995890  0.328160  1
  Ga  Ga17  1  0.341920  0.341920  0.991770  1
  Ga  Ga18  1  0.995890  0.347791  0.328160  1
  Ga  Ga19  1  0.908080  0.908080  0.925608  1
  Co  Co20  1  0.625000  0.125000  0.125000  1
  Co  Co21  1  0.125000  0.625000  0.125000  1
  Re  Re22  1  0.125000  0.125000  0.125000  1
  Re  Re23  1  0.125000  0.125000  0.625000  1
  C  C24  1  0.625000  0.625000  0.625000  1
  C  C25  1  0.125000  0.625000  0.625000  1
  C  C26  1  0.625000  0.125000  0.625000  1
  C  C27  1  0.625000  0.625000  0.125000  1
