# generated using pymatgen
data_Y3Er(Ni7P4)2
_symmetry_space_group_name_H-M   'P 1'
_cell_length_a   3.68887200
_cell_length_b   9.13895790
_cell_length_c   10.24532514
_cell_angle_alpha   90.07394478
_cell_angle_beta   90.00000000
_cell_angle_gamma   90.00000000
_symmetry_Int_Tables_number   1
_chemical_formula_structural   Y3Er(Ni7P4)2
_chemical_formula_sum   'Y3 Er1 Ni14 P8'
_cell_volume   345.39468180
_cell_formula_units_Z   1
loop_
 _symmetry_equiv_pos_site_id
 _symmetry_equiv_pos_as_xyz
  1  'x, y, z'
loop_
 _atom_site_type_symbol
 _atom_site_label
 _atom_site_symmetry_multiplicity
 _atom_site_fract_x
 _atom_site_fract_y
 _atom_site_fract_z
 _atom_site_occupancy
  Y  Y0  1  0.500000  0.941446  0.895493  1
  Y  Y1  1  0.000000  0.435633  0.178536  1
  Y  Y2  1  0.500000  0.564439  0.678542  1
  Er  Er3  1  0.000000  0.058394  0.395428  1
  Ni  Ni4  1  0.000000  0.056946  0.698888  1
  Ni  Ni5  1  0.500000  0.943369  0.200065  1
  Ni  Ni6  1  0.000000  0.726369  0.509784  1
  Ni  Ni7  1  0.500000  0.273761  0.009983  1
  Ni  Ni8  1  0.000000  0.096385  0.094144  1
  Ni  Ni9  1  0.500000  0.903962  0.593338  1
  Ni  Ni10  1  0.000000  0.746352  0.273831  1
  Ni  Ni11  1  0.500000  0.253922  0.773484  1
  Ni  Ni12  1  0.000000  0.306211  0.602370  1
  Ni  Ni13  1  0.500000  0.693625  0.102851  1
  Ni  Ni14  1  0.000000  0.685340  0.911655  1
  Ni  Ni15  1  0.500000  0.313713  0.411516  1
  Ni  Ni16  1  0.000000  0.416926  0.870290  1
  Ni  Ni17  1  0.500000  0.583229  0.370378  1
  P  P18  1  0.000000  0.179954  0.889679  1
  P  P19  1  0.500000  0.820868  0.389723  1
  P  P20  1  0.000000  0.844801  0.083856  1
  P  P21  1  0.500000  0.154741  0.583043  1
  P  P22  1  0.000000  0.809699  0.714208  1
  P  P23  1  0.500000  0.189858  0.214845  1
  P  P24  1  0.000000  0.480441  0.461130  1
  P  P25  1  0.500000  0.519615  0.961136  1
