# generated using pymatgen
data_Ce4In2Ir3Rh
_symmetry_space_group_name_H-M   'P 1'
_cell_length_a   7.70920645
_cell_length_b   7.70920645
_cell_length_c   3.73109200
_cell_angle_alpha   90.00000000
_cell_angle_beta   90.00000000
_cell_angle_gamma   90.03901865
_symmetry_Int_Tables_number   1
_chemical_formula_structural   Ce4In2Ir3Rh
_chemical_formula_sum   'Ce4 In2 Ir3 Rh1'
_cell_volume   221.74570105
_cell_formula_units_Z   1
loop_
 _symmetry_equiv_pos_site_id
 _symmetry_equiv_pos_as_xyz
  1  'x, y, z'
loop_
 _atom_site_type_symbol
 _atom_site_label
 _atom_site_symmetry_multiplicity
 _atom_site_fract_x
 _atom_site_fract_y
 _atom_site_fract_z
 _atom_site_occupancy
  Ce  Ce0  1  0.671395  0.169366  0.500000  1
  Ce  Ce1  1  0.330634  0.828605  0.500000  1
  Ce  Ce2  1  0.168956  0.331044  0.500000  1
  Ce  Ce3  1  0.830159  0.669841  0.500000  1
  In  In4  1  0.000190  0.000143  0.000000  1
  In  In5  1  0.499857  0.499810  0.000000  1
  Ir  Ir6  1  0.135408  0.634527  0.000000  1
  Ir  Ir7  1  0.865473  0.364592  0.000000  1
  Ir  Ir8  1  0.634095  0.865905  0.000000  1
  Rh  Rh9  1  0.363832  0.136168  0.000000  1
