# generated using pymatgen
data_Eu2InIr2
_symmetry_space_group_name_H-M   'P 1'
_cell_length_a   5.94800564
_cell_length_b   5.94800566
_cell_length_c   8.22855732
_cell_angle_alpha   77.31246762
_cell_angle_beta   77.31246450
_cell_angle_gamma   58.40593779
_symmetry_Int_Tables_number   1
_chemical_formula_structural   Eu2InIr2
_chemical_formula_sum   'Eu4 In2 Ir4'
_cell_volume   239.98960147
_cell_formula_units_Z   2
loop_
 _symmetry_equiv_pos_site_id
 _symmetry_equiv_pos_as_xyz
  1  'x, y, z'
loop_
 _atom_site_type_symbol
 _atom_site_label
 _atom_site_symmetry_multiplicity
 _atom_site_fract_x
 _atom_site_fract_y
 _atom_site_fract_z
 _atom_site_occupancy
  Eu  Eu0  1  0.796098  0.495505  0.354061  1
  Eu  Eu1  1  0.504495  0.203902  0.145939  1
  Eu  Eu2  1  0.203902  0.504495  0.645939  1
  Eu  Eu3  1  0.495505  0.796098  0.854061  1
  In  In4  1  0.126718  0.873282  0.250000  1
  In  In5  1  0.873282  0.126718  0.750000  1
  Ir  Ir6  1  0.008241  0.703718  0.009556  1
  Ir  Ir7  1  0.296282  0.991759  0.490444  1
  Ir  Ir8  1  0.991759  0.296282  0.990444  1
  Ir  Ir9  1  0.703718  0.008241  0.509556  1
