# generated using pymatgen
data_TbNdP7Ru12
_symmetry_space_group_name_H-M   'P 1'
_cell_length_a   9.44420200
_cell_length_b   9.44420076
_cell_length_c   3.96704100
_cell_angle_alpha   90.00000000
_cell_angle_beta   90.00000000
_cell_angle_gamma   119.99999733
_symmetry_Int_Tables_number   1
_chemical_formula_structural   TbNdP7Ru12
_chemical_formula_sum   'Tb1 Nd1 P7 Ru12'
_cell_volume   306.42755124
_cell_formula_units_Z   1
loop_
 _symmetry_equiv_pos_site_id
 _symmetry_equiv_pos_as_xyz
  1  'x, y, z'
loop_
 _atom_site_type_symbol
 _atom_site_label
 _atom_site_symmetry_multiplicity
 _atom_site_fract_x
 _atom_site_fract_y
 _atom_site_fract_z
 _atom_site_occupancy
  Tb  Tb0  1  0.666667  0.333333  0.500000  1
  Nd  Nd1  1  0.333333  0.666667  0.000000  1
  P  P2  1  0.604225  0.718340  0.500000  1
  P  P3  1  0.000000  0.000000  0.000000  1
  P  P4  1  0.281660  0.885885  0.500000  1
  P  P5  1  0.114115  0.395775  0.500000  1
  P  P6  1  0.886720  0.572996  0.000000  1
  P  P7  1  0.427004  0.313723  0.000000  1
  P  P8  1  0.686277  0.113280  0.000000  1
  Ru  Ru9  1  0.559333  0.953915  0.500000  1
  Ru  Ru10  1  0.394584  0.440667  0.500000  1
  Ru  Ru11  1  0.914566  0.120062  0.500000  1
  Ru  Ru12  1  0.205496  0.085434  0.500000  1
  Ru  Ru13  1  0.879938  0.794504  0.500000  1
  Ru  Ru14  1  0.728982  0.892736  0.000000  1
  Ru  Ru15  1  0.107264  0.836244  0.000000  1
  Ru  Ru16  1  0.163756  0.271018  0.000000  1
  Ru  Ru17  1  0.422162  0.067787  0.000000  1
  Ru  Ru18  1  0.932213  0.354377  0.000000  1
  Ru  Ru19  1  0.645623  0.577838  0.000000  1
  Ru  Ru20  1  0.046085  0.605416  0.500000  1
