# generated using pymatgen
data_Tm2LuAl9Si3Os4
_symmetry_space_group_name_H-M   'P 1'
_cell_length_a   8.68228600
_cell_length_b   8.65289483
_cell_length_c   9.47783500
_cell_angle_alpha   90.00000000
_cell_angle_beta   90.00000000
_cell_angle_gamma   120.11242525
_symmetry_Int_Tables_number   1
_chemical_formula_structural   Tm2LuAl9Si3Os4
_chemical_formula_sum   'Tm4 Lu2 Al18 Si6 Os8'
_cell_volume   615.94533845
_cell_formula_units_Z   2
loop_
 _symmetry_equiv_pos_site_id
 _symmetry_equiv_pos_as_xyz
  1  'x, y, z'
loop_
 _atom_site_type_symbol
 _atom_site_label
 _atom_site_symmetry_multiplicity
 _atom_site_fract_x
 _atom_site_fract_y
 _atom_site_fract_z
 _atom_site_occupancy
  Tm  Tm0  1  0.607807  0.806564  0.250000  1
  Tm  Tm1  1  0.392193  0.193436  0.750000  1
  Tm  Tm2  1  0.198759  0.806564  0.250000  1
  Tm  Tm3  1  0.801241  0.193436  0.750000  1
  Lu  Lu4  1  0.195095  0.390191  0.250000  1
  Lu  Lu5  1  0.804905  0.609809  0.750000  1
  Al  Al6  1  0.164810  0.329621  0.579005  1
  Al  Al7  1  0.835190  0.670379  0.420995  1
  Al  Al8  1  0.670803  0.834732  0.577806  1
  Al  Al9  1  0.835190  0.670379  0.079005  1
  Al  Al10  1  0.329197  0.165268  0.422194  1
  Al  Al11  1  0.164810  0.329621  0.920995  1
  Al  Al12  1  0.163929  0.834732  0.577806  1
  Al  Al13  1  0.329197  0.165268  0.077806  1
  Al  Al14  1  0.836071  0.165268  0.422194  1
  Al  Al15  1  0.670803  0.834732  0.922194  1
  Al  Al16  1  0.836071  0.165268  0.077806  1
  Al  Al17  1  0.163929  0.834732  0.922194  1
  Al  Al18  1  0.873376  0.433353  0.250000  1
  Al  Al19  1  0.126624  0.566647  0.750000  1
  Al  Al20  1  0.559978  0.433353  0.250000  1
  Al  Al21  1  0.440022  0.566647  0.750000  1
  Al  Al22  1  0.999827  0.999655  0.250000  1
  Al  Al23  1  0.000173  0.000345  0.750000  1
  Si  Si24  1  0.331906  0.663811  0.040249  1
  Si  Si25  1  0.668094  0.336189  0.959751  1
  Si  Si26  1  0.668094  0.336189  0.540249  1
  Si  Si27  1  0.331906  0.663811  0.459751  1
  Si  Si28  1  0.563082  0.126164  0.250000  1
  Si  Si29  1  0.436918  0.873836  0.750000  1
  Os  Os30  1  0.500000  0.000000  0.000000  1
  Os  Os31  1  0.000000  0.500000  0.000000  1
  Os  Os32  1  0.500000  0.000000  0.500000  1
  Os  Os33  1  0.500000  0.500000  0.000000  1
  Os  Os34  1  0.000000  0.500000  0.500000  1
  Os  Os35  1  0.500000  0.500000  0.500000  1
  Os  Os36  1  0.000000  0.000000  0.000000  1
  Os  Os37  1  0.000000  0.000000  0.500000  1
