# generated using pymatgen
data_Hf6AlRhPb
_symmetry_space_group_name_H-M   'P 1'
_cell_length_a   8.06957900
_cell_length_b   8.06957803
_cell_length_c   3.36448700
_cell_angle_alpha   90.00000000
_cell_angle_beta   90.00000000
_cell_angle_gamma   120.00000809
_symmetry_Int_Tables_number   1
_chemical_formula_structural   Hf6AlRhPb
_chemical_formula_sum   'Hf6 Al1 Rh1 Pb1'
_cell_volume   189.73661741
_cell_formula_units_Z   1
loop_
 _symmetry_equiv_pos_site_id
 _symmetry_equiv_pos_as_xyz
  1  'x, y, z'
loop_
 _atom_site_type_symbol
 _atom_site_label
 _atom_site_symmetry_multiplicity
 _atom_site_fract_x
 _atom_site_fract_y
 _atom_site_fract_z
 _atom_site_occupancy
  Hf  Hf0  1  0.993577  0.740374  0.500000  1
  Hf  Hf1  1  0.259626  0.253204  0.500000  1
  Hf  Hf2  1  0.746796  0.006423  0.500000  1
  Hf  Hf3  1  0.981746  0.387249  0.000000  1
  Hf  Hf4  1  0.612751  0.594496  0.000000  1
  Hf  Hf5  1  0.405504  0.018254  0.000000  1
  Al  Al6  1  0.666667  0.333333  0.500000  1
  Rh  Rh7  1  0.000000  0.000000  0.000000  1
  Pb  Pb8  1  0.333333  0.666667  0.500000  1
