# generated using pymatgen
data_Nd3In2Pd3Pb
_symmetry_space_group_name_H-M   'P 1'
_cell_length_a   7.83247463
_cell_length_b   7.83247410
_cell_length_c   4.03801600
_cell_angle_alpha   90.00000000
_cell_angle_beta   90.00000000
_cell_angle_gamma   119.41337547
_symmetry_Int_Tables_number   1
_chemical_formula_structural   Nd3In2Pd3Pb
_chemical_formula_sum   'Nd3 In2 Pd3 Pb1'
_cell_volume   215.79113974
_cell_formula_units_Z   1
loop_
 _symmetry_equiv_pos_site_id
 _symmetry_equiv_pos_as_xyz
  1  'x, y, z'
loop_
 _atom_site_type_symbol
 _atom_site_label
 _atom_site_symmetry_multiplicity
 _atom_site_fract_x
 _atom_site_fract_y
 _atom_site_fract_z
 _atom_site_occupancy
  Nd  Nd0  1  0.003121  0.590703  0.000000  1
  Nd  Nd1  1  0.405835  0.405835  0.000000  1
  Nd  Nd2  1  0.590703  0.003121  0.000000  1
  In  In3  1  0.001180  0.255883  0.500000  1
  In  In4  1  0.255883  0.001180  0.500000  1
  Pd  Pd5  1  0.325219  0.663846  0.500000  1
  Pd  Pd6  1  0.009242  0.009242  0.000000  1
  Pd  Pd7  1  0.663846  0.325219  0.500000  1
  Pb  Pb8  1  0.744971  0.744971  0.500000  1
