# generated using pymatgen
data_Ce3ErMg2(SnRu2)2
_symmetry_space_group_name_H-M   'P 1'
_cell_length_a   6.25421547
_cell_length_b   6.25421606
_cell_length_c   9.92030959
_cell_angle_alpha   76.75581024
_cell_angle_beta   76.75581089
_cell_angle_gamma   45.20459768
_symmetry_Int_Tables_number   1
_chemical_formula_structural   Ce3ErMg2(SnRu2)2
_chemical_formula_sum   'Ce3 Er1 Mg2 Sn2 Ru4'
_cell_volume   266.74659526
_cell_formula_units_Z   1
loop_
 _symmetry_equiv_pos_site_id
 _symmetry_equiv_pos_as_xyz
  1  'x, y, z'
loop_
 _atom_site_type_symbol
 _atom_site_label
 _atom_site_symmetry_multiplicity
 _atom_site_fract_x
 _atom_site_fract_y
 _atom_site_fract_z
 _atom_site_occupancy
  Ce  Ce0  1  0.864556  0.864556  0.419078  1
  Ce  Ce1  1  0.869051  0.869051  0.916614  1
  Ce  Ce2  1  0.144204  0.144204  0.087357  1
  Er  Er3  1  0.123023  0.123023  0.594115  1
  Mg  Mg4  1  0.427622  0.427622  0.153048  1
  Mg  Mg5  1  0.409849  0.409849  0.653742  1
  Sn  Sn6  1  0.576657  0.576657  0.844823  1
  Sn  Sn7  1  0.581230  0.581230  0.366111  1
  Ru  Ru8  1  0.810247  0.810247  0.157742  1
  Ru  Ru9  1  0.198988  0.198988  0.303587  1
  Ru  Ru10  1  0.193077  0.193077  0.843563  1
  Ru  Ru11  1  0.801497  0.801497  0.660218  1
