# generated using pymatgen
data_PrSn5HgIr4
_symmetry_space_group_name_H-M   'P 1'
_cell_length_a   6.90170115
_cell_length_b   7.20007162
_cell_length_c   7.03420755
_cell_angle_alpha   121.09393509
_cell_angle_beta   119.69846287
_cell_angle_gamma   89.45658010
_symmetry_Int_Tables_number   1
_chemical_formula_structural   PrSn5HgIr4
_chemical_formula_sum   'Pr1 Sn5 Hg1 Ir4'
_cell_volume   245.33120253
_cell_formula_units_Z   1
loop_
 _symmetry_equiv_pos_site_id
 _symmetry_equiv_pos_as_xyz
  1  'x, y, z'
loop_
 _atom_site_type_symbol
 _atom_site_label
 _atom_site_symmetry_multiplicity
 _atom_site_fract_x
 _atom_site_fract_y
 _atom_site_fract_z
 _atom_site_occupancy
  Pr  Pr0  1  0.007559  0.001741  0.000000  1
  Sn  Sn1  1  0.130246  0.458952  0.000000  1
  Sn  Sn2  1  0.874720  0.875727  0.338847  1
  Sn  Sn3  1  0.501208  0.003882  0.507087  1
  Sn  Sn4  1  0.994120  0.496795  0.492913  1
  Sn  Sn5  1  0.535873  0.536880  0.661154  1
  Hg  Hg6  1  0.465135  0.114500  0.000000  1
  Ir  Ir7  1  0.755535  0.408502  0.000000  1
  Ir  Ir8  1  0.393300  0.741133  0.000000  1
  Ir  Ir9  1  0.608616  0.618408  0.374927  1
  Ir  Ir10  1  0.233689  0.243481  0.625074  1
