# generated using pymatgen
data_Ti5Al16GaCo2Pt5
_symmetry_space_group_name_H-M   'P 1'
_cell_length_a   8.53487815
_cell_length_b   8.58628755
_cell_length_c   8.58568937
_cell_angle_alpha   59.60655775
_cell_angle_beta   60.24582604
_cell_angle_gamma   60.19324400
_symmetry_Int_Tables_number   1
_chemical_formula_structural   Ti5Al16GaCo2Pt5
_chemical_formula_sum   'Ti5 Al16 Ga1 Co2 Pt5'
_cell_volume   445.01994070
_cell_formula_units_Z   1
loop_
 _symmetry_equiv_pos_site_id
 _symmetry_equiv_pos_as_xyz
  1  'x, y, z'
loop_
 _atom_site_type_symbol
 _atom_site_label
 _atom_site_symmetry_multiplicity
 _atom_site_fract_x
 _atom_site_fract_y
 _atom_site_fract_z
 _atom_site_occupancy
  Ti  Ti0  1  0.710317  0.289053  0.710629  1
  Ti  Ti1  1  0.706752  0.712117  0.293248  1
  Ti  Ti2  1  0.314008  0.690224  0.685992  1
  Ti  Ti3  1  0.289371  0.709999  0.289683  1
  Ti  Ti4  1  0.288716  0.289156  0.711284  1
  Al  Al5  1  0.655317  0.110454  0.120839  1
  Al  Al6  1  0.126065  0.637351  0.112953  1
  Al  Al7  1  0.136602  0.108189  0.633126  1
  Al  Al8  1  0.117935  0.111421  0.113536  1
  Al  Al9  1  0.366874  0.877916  0.863398  1
  Al  Al10  1  0.886464  0.342894  0.882065  1
  Al  Al11  1  0.879161  0.886610  0.344683  1
  Al  Al12  1  0.887047  0.876370  0.873935  1
  Al  Al13  1  0.936351  0.343226  0.341983  1
  Al  Al14  1  0.355164  0.969318  0.335398  1
  Al  Al15  1  0.351886  0.331306  0.965366  1
  Al  Al16  1  0.385577  0.326174  0.348148  1
  Al  Al17  1  0.034634  0.648559  0.648114  1
  Al  Al18  1  0.651852  0.059897  0.614423  1
  Al  Al19  1  0.658017  0.621560  0.063649  1
  Al  Al20  1  0.664602  0.659877  0.644836  1
  Ga  Ga21  1  0.534902  0.463559  0.465098  1
  Co  Co22  1  0.011437  0.989776  0.988563  1
  Co  Co23  1  0.505445  0.985936  0.494555  1
  Pt  Pt24  1  0.511081  0.987864  0.988235  1
  Pt  Pt25  1  0.504172  0.495685  0.991323  1
  Pt  Pt26  1  0.011765  0.487180  0.488919  1
  Pt  Pt27  1  0.009807  0.497146  0.990193  1
  Pt  Pt28  1  0.008677  0.991180  0.495828  1
