# generated using pymatgen
data_Pr16MgCd3Ir3Os
_symmetry_space_group_name_H-M   'P 1'
_cell_length_a   10.07220443
_cell_length_b   10.07220480
_cell_length_c   10.07220507
_cell_angle_alpha   59.67770152
_cell_angle_beta   59.67770294
_cell_angle_gamma   59.67770365
_symmetry_Int_Tables_number   1
_chemical_formula_structural   Pr16MgCd3Ir3Os
_chemical_formula_sum   'Pr16 Mg1 Cd3 Ir3 Os1'
_cell_volume   717.24422193
_cell_formula_units_Z   1
loop_
 _symmetry_equiv_pos_site_id
 _symmetry_equiv_pos_as_xyz
  1  'x, y, z'
loop_
 _atom_site_type_symbol
 _atom_site_label
 _atom_site_symmetry_multiplicity
 _atom_site_fract_x
 _atom_site_fract_y
 _atom_site_fract_z
 _atom_site_occupancy
  Pr  Pr0  1  0.348343  0.348343  0.348343  1
  Pr  Pr1  1  0.346346  0.346346  0.958922  1
  Pr  Pr2  1  0.346346  0.958922  0.346346  1
  Pr  Pr3  1  0.958922  0.346346  0.346346  1
  Pr  Pr4  1  0.810289  0.191190  0.191190  1
  Pr  Pr5  1  0.189346  0.809716  0.809716  1
  Pr  Pr6  1  0.191190  0.810289  0.191190  1
  Pr  Pr7  1  0.809716  0.189346  0.809716  1
  Pr  Pr8  1  0.191190  0.191190  0.810289  1
  Pr  Pr9  1  0.809716  0.809716  0.189346  1
  Pr  Pr10  1  0.939002  0.561628  0.561628  1
  Pr  Pr11  1  0.557402  0.940660  0.940660  1
  Pr  Pr12  1  0.561628  0.939002  0.561628  1
  Pr  Pr13  1  0.940660  0.557402  0.940660  1
  Pr  Pr14  1  0.561628  0.561628  0.939002  1
  Pr  Pr15  1  0.940660  0.940660  0.557402  1
  Mg  Mg16  1  0.574740  0.574740  0.574740  1
  Cd  Cd17  1  0.580237  0.580237  0.258920  1
  Cd  Cd18  1  0.580237  0.258920  0.580237  1
  Cd  Cd19  1  0.258920  0.580237  0.580237  1
  Ir  Ir20  1  0.142607  0.142607  0.577585  1
  Ir  Ir21  1  0.142607  0.577585  0.142607  1
  Ir  Ir22  1  0.577585  0.142607  0.142607  1
  Os  Os23  1  0.140678  0.140678  0.140678  1
