# generated using pymatgen
data_Ce3PrZn3Ir11
_symmetry_space_group_name_H-M   'P 1'
_cell_length_a   13.06056535
_cell_length_b   13.06056527
_cell_length_c   13.06056500
_cell_angle_alpha   24.15137104
_cell_angle_beta   24.15137187
_cell_angle_gamma   24.15137096
_symmetry_Int_Tables_number   1
_chemical_formula_structural   Ce3PrZn3Ir11
_chemical_formula_sum   'Ce3 Pr1 Zn3 Ir11'
_cell_volume   327.76192848
_cell_formula_units_Z   1
loop_
 _symmetry_equiv_pos_site_id
 _symmetry_equiv_pos_as_xyz
  1  'x, y, z'
loop_
 _atom_site_type_symbol
 _atom_site_label
 _atom_site_symmetry_multiplicity
 _atom_site_fract_x
 _atom_site_fract_y
 _atom_site_fract_z
 _atom_site_occupancy
  Ce  Ce0  1  0.050881  0.050881  0.050881  1
  Ce  Ce1  1  0.855111  0.855111  0.855111  1
  Ce  Ce2  1  0.148102  0.148102  0.148102  1
  Pr  Pr3  1  0.952937  0.952937  0.952937  1
  Zn  Zn4  1  0.721433  0.721433  0.721433  1
  Zn  Zn5  1  0.278146  0.278146  0.278146  1
  Zn  Zn6  1  0.609339  0.609339  0.609339  1
  Ir  Ir7  1  0.499968  0.499968  0.499968  1
  Ir  Ir8  1  0.387826  0.387826  0.387826  1
  Ir  Ir9  1  0.501290  0.501290  0.996962  1
  Ir  Ir10  1  0.996962  0.501290  0.501290  1
  Ir  Ir11  1  0.501290  0.996962  0.501290  1
  Ir  Ir12  1  0.384326  0.895195  0.384326  1
  Ir  Ir13  1  0.384326  0.384326  0.895195  1
  Ir  Ir14  1  0.895195  0.384326  0.384326  1
  Ir  Ir15  1  0.614226  0.104418  0.614226  1
  Ir  Ir16  1  0.614226  0.614226  0.104418  1
  Ir  Ir17  1  0.104418  0.614226  0.614226  1
