# generated using pymatgen
data_Ho20(Ir3Ru)3
_symmetry_space_group_name_H-M   'P 1'
_cell_length_a   10.80597200
_cell_length_b   10.80597200
_cell_length_c   6.39995400
_cell_angle_alpha   90.00000000
_cell_angle_beta   90.00000000
_cell_angle_gamma   90.00000000
_symmetry_Int_Tables_number   1
_chemical_formula_structural   Ho20(Ir3Ru)3
_chemical_formula_sum   'Ho20 Ir9 Ru3'
_cell_volume   747.31642616
_cell_formula_units_Z   1
loop_
 _symmetry_equiv_pos_site_id
 _symmetry_equiv_pos_as_xyz
  1  'x, y, z'
loop_
 _atom_site_type_symbol
 _atom_site_label
 _atom_site_symmetry_multiplicity
 _atom_site_fract_x
 _atom_site_fract_y
 _atom_site_fract_z
 _atom_site_occupancy
  Ho  Ho0  1  0.293544  0.086527  0.377571  1
  Ho  Ho1  1  0.293566  0.913701  0.877837  1
  Ho  Ho2  1  0.706434  0.086299  0.877837  1
  Ho  Ho3  1  0.706456  0.913473  0.377571  1
  Ho  Ho4  1  0.586299  0.793566  0.877837  1
  Ho  Ho5  1  0.586527  0.206456  0.377571  1
  Ho  Ho6  1  0.413473  0.793544  0.377571  1
  Ho  Ho7  1  0.413701  0.206434  0.877837  1
  Ho  Ho8  1  0.208058  0.412748  0.623748  1
  Ho  Ho9  1  0.207843  0.587220  0.120873  1
  Ho  Ho10  1  0.792157  0.412780  0.120873  1
  Ho  Ho11  1  0.791942  0.587252  0.623748  1
  Ho  Ho12  1  0.912780  0.707843  0.120873  1
  Ho  Ho13  1  0.912748  0.291942  0.623748  1
  Ho  Ho14  1  0.087252  0.708058  0.623748  1
  Ho  Ho15  1  0.087220  0.292157  0.120873  1
  Ho  Ho16  1  0.000000  0.000000  0.499655  1
  Ho  Ho17  1  0.000000  0.000000  0.999667  1
  Ho  Ho18  1  0.500000  0.500000  0.999667  1
  Ho  Ho19  1  0.500000  0.500000  0.499655  1
  Ir  Ir20  1  0.847666  0.152868  0.249968  1
  Ir  Ir21  1  0.847388  0.847124  0.749690  1
  Ir  Ir22  1  0.152612  0.152876  0.749690  1
  Ir  Ir23  1  0.152334  0.847132  0.249968  1
  Ir  Ir24  1  0.652876  0.347388  0.749690  1
  Ir  Ir25  1  0.652868  0.652334  0.249968  1
  Ir  Ir26  1  0.347132  0.347666  0.249968  1
  Ir  Ir27  1  0.347124  0.652612  0.749690  1
  Ir  Ir28  1  0.000000  0.500000  0.378782  1
  Ru  Ru29  1  0.500000  0.000000  0.122443  1
  Ru  Ru30  1  0.500000  0.000000  0.622523  1
  Ru  Ru31  1  0.000000  0.500000  0.878857  1
