# generated using pymatgen
data_Rb3RuO5
_symmetry_space_group_name_H-M   'P 1'
_cell_length_a   8.41874400
_cell_length_b   8.97645500
_cell_length_c   9.35667300
_cell_angle_alpha   90.00000000
_cell_angle_beta   90.00000000
_cell_angle_gamma   90.00000000
_symmetry_Int_Tables_number   1
_chemical_formula_structural   Rb3RuO5
_chemical_formula_sum   'Rb12 Ru4 O20'
_cell_volume   707.08823868
_cell_formula_units_Z   4
loop_
 _symmetry_equiv_pos_site_id
 _symmetry_equiv_pos_as_xyz
  1  'x, y, z'
loop_
 _atom_site_type_symbol
 _atom_site_label
 _atom_site_symmetry_multiplicity
 _atom_site_fract_x
 _atom_site_fract_y
 _atom_site_fract_z
 _atom_site_occupancy
  Rb  Rb0  1  0.250000  0.000000  0.482717  1
  Rb  Rb1  1  0.750000  0.000000  0.517283  1
  Rb  Rb2  1  0.250000  0.500000  0.017283  1
  Rb  Rb3  1  0.750000  0.500000  0.982717  1
  Rb  Rb4  1  0.250000  0.000000  0.017785  1
  Rb  Rb5  1  0.750000  0.000000  0.982215  1
  Rb  Rb6  1  0.250000  0.500000  0.482215  1
  Rb  Rb7  1  0.750000  0.500000  0.517785  1
  Rb  Rb8  1  0.563420  0.250000  0.250000  1
  Rb  Rb9  1  0.436580  0.750000  0.750000  1
  Rb  Rb10  1  0.936580  0.750000  0.250000  1
  Rb  Rb11  1  0.063420  0.250000  0.750000  1
  Ru  Ru12  1  0.020484  0.250000  0.250000  1
  Ru  Ru13  1  0.979516  0.750000  0.750000  1
  Ru  Ru14  1  0.479516  0.750000  0.250000  1
  Ru  Ru15  1  0.520484  0.250000  0.750000  1
  O  O16  1  0.230920  0.250000  0.250000  1
  O  O17  1  0.769080  0.750000  0.750000  1
  O  O18  1  0.269080  0.750000  0.250000  1
  O  O19  1  0.730920  0.250000  0.750000  1
  O  O20  1  0.570341  0.563348  0.250314  1
  O  O21  1  0.429659  0.436652  0.749686  1
  O  O22  1  0.929659  0.436652  0.250314  1
  O  O23  1  0.929659  0.063348  0.249686  1
  O  O24  1  0.070341  0.563348  0.749686  1
  O  O25  1  0.070341  0.936652  0.750314  1
  O  O26  1  0.570341  0.936652  0.249686  1
  O  O27  1  0.429659  0.063348  0.750314  1
  O  O28  1  0.484489  0.249668  0.551091  1
  O  O29  1  0.515511  0.750332  0.448909  1
  O  O30  1  0.015511  0.750332  0.551091  1
  O  O31  1  0.015511  0.749668  0.948909  1
  O  O32  1  0.984489  0.249668  0.448909  1
  O  O33  1  0.984489  0.250332  0.051091  1
  O  O34  1  0.484489  0.250332  0.948909  1
  O  O35  1  0.515511  0.749668  0.051091  1
