# generated using pymatgen
data_La4GaCoSi6
_symmetry_space_group_name_H-M   'P 1'
_cell_length_a   8.20661500
_cell_length_b   8.20661469
_cell_length_c   4.42075700
_cell_angle_alpha   90.00000000
_cell_angle_beta   90.00000000
_cell_angle_gamma   119.99999722
_symmetry_Int_Tables_number   1
_chemical_formula_structural   La4GaCoSi6
_chemical_formula_sum   'La4 Ga1 Co1 Si6'
_cell_volume   257.84302646
_cell_formula_units_Z   1
loop_
 _symmetry_equiv_pos_site_id
 _symmetry_equiv_pos_as_xyz
  1  'x, y, z'
loop_
 _atom_site_type_symbol
 _atom_site_label
 _atom_site_symmetry_multiplicity
 _atom_site_fract_x
 _atom_site_fract_y
 _atom_site_fract_z
 _atom_site_occupancy
  La  La0  1  0.503944  0.496056  0.000000  1
  La  La1  1  0.992111  0.496056  0.000000  1
  La  La2  1  0.503944  0.007889  0.000000  1
  La  La3  1  0.000000  0.000000  0.000000  1
  Ga  Ga4  1  0.333333  0.666667  0.500000  1
  Co  Co5  1  0.666667  0.333333  0.500000  1
  Si  Si6  1  0.824802  0.649605  0.500000  1
  Si  Si7  1  0.160779  0.839221  0.500000  1
  Si  Si8  1  0.678443  0.839221  0.500000  1
  Si  Si9  1  0.160779  0.321557  0.500000  1
  Si  Si10  1  0.824802  0.175198  0.500000  1
  Si  Si11  1  0.350395  0.175198  0.500000  1
