# generated using pymatgen
data_Yb2Mg(Ni3B2)3
_symmetry_space_group_name_H-M   'P 1'
_cell_length_a   4.96181132
_cell_length_b   4.90011915
_cell_length_c   8.84315800
_cell_angle_alpha   90.00000000
_cell_angle_beta   90.00000000
_cell_angle_gamma   119.58953810
_symmetry_Int_Tables_number   1
_chemical_formula_structural   Yb2Mg(Ni3B2)3
_chemical_formula_sum   'Yb2 Mg1 Ni9 B6'
_cell_volume   186.96760433
_cell_formula_units_Z   1
loop_
 _symmetry_equiv_pos_site_id
 _symmetry_equiv_pos_as_xyz
  1  'x, y, z'
loop_
 _atom_site_type_symbol
 _atom_site_label
 _atom_site_symmetry_multiplicity
 _atom_site_fract_x
 _atom_site_fract_y
 _atom_site_fract_z
 _atom_site_occupancy
  Yb  Yb0  1  0.000000  0.000000  0.665469  1
  Yb  Yb1  1  0.000000  0.000000  0.001198  1
  Mg  Mg2  1  0.000000  0.000000  0.333333  1
  Ni  Ni3  1  0.500000  0.000000  0.797325  1
  Ni  Ni4  1  0.500000  0.500000  0.869342  1
  Ni  Ni5  1  0.500000  0.500000  0.456779  1
  Ni  Ni6  1  0.000000  0.500000  0.833333  1
  Ni  Ni7  1  0.000000  0.500000  0.129367  1
  Ni  Ni8  1  0.500000  0.500000  0.166832  1
  Ni  Ni9  1  0.500000  0.000000  0.209888  1
  Ni  Ni10  1  0.000000  0.500000  0.537299  1
  Ni  Ni11  1  0.500000  0.000000  0.499835  1
  B  B12  1  0.615337  0.235081  0.002155  1
  B  B13  1  0.776596  0.388298  0.333333  1
  B  B14  1  0.223404  0.611702  0.333333  1
  B  B15  1  0.615337  0.380255  0.664512  1
  B  B16  1  0.384663  0.619745  0.664512  1
  B  B17  1  0.384663  0.764919  0.002155  1
