# generated using pymatgen
data_K2MnMoF7
_symmetry_space_group_name_H-M   'P 1'
_cell_length_a   8.07460867
_cell_length_b   8.07460711
_cell_length_c   8.07460800
_cell_angle_alpha   120.64951319
_cell_angle_beta   117.95856260
_cell_angle_gamma   91.22519595
_symmetry_Int_Tables_number   1
_chemical_formula_structural   K2MnMoF7
_chemical_formula_sum   'K4 Mn2 Mo2 F14'
_cell_volume   375.83288811
_cell_formula_units_Z   2
loop_
 _symmetry_equiv_pos_site_id
 _symmetry_equiv_pos_as_xyz
  1  'x, y, z'
loop_
 _atom_site_type_symbol
 _atom_site_label
 _atom_site_symmetry_multiplicity
 _atom_site_fract_x
 _atom_site_fract_y
 _atom_site_fract_z
 _atom_site_occupancy
  K  K0  1  0.500000  0.500000  0.000000  1
  K  K1  1  0.000000  0.000000  0.000000  1
  K  K2  1  0.000000  0.500000  0.000000  1
  K  K3  1  0.000000  0.000000  0.500000  1
  Mn  Mn4  1  0.500000  0.500000  0.500000  1
  Mn  Mn5  1  0.500000  0.000000  0.000000  1
  Mo  Mo6  1  0.000000  0.500000  0.500000  1
  Mo  Mo7  1  0.500000  0.000000  0.500000  1
  F  F8  1  0.875527  0.593700  0.281827  1
  F  F9  1  0.188126  0.906300  0.281827  1
  F  F10  1  0.185156  0.811422  0.766026  1
  F  F11  1  0.454604  0.688578  0.373734  1
  F  F12  1  0.454604  0.080870  0.766026  1
  F  F13  1  0.185156  0.419130  0.373734  1
  F  F14  1  0.814844  0.580870  0.626266  1
  F  F15  1  0.545396  0.919130  0.233974  1
  F  F16  1  0.545396  0.311422  0.626266  1
  F  F17  1  0.814844  0.188578  0.233974  1
  F  F18  1  0.413939  0.250000  0.163939  1
  F  F19  1  0.124473  0.406300  0.718173  1
  F  F20  1  0.811874  0.093700  0.718173  1
  F  F21  1  0.586061  0.750000  0.836061  1
