# generated using pymatgen
data_Pr4Al17GaIr5Pt
_symmetry_space_group_name_H-M   'P 1'
_cell_length_a   7.63880937
_cell_length_b   7.63923103
_cell_length_c   9.63707206
_cell_angle_alpha   90.00735575
_cell_angle_beta   89.99113710
_cell_angle_gamma   119.35436832
_symmetry_Int_Tables_number   1
_chemical_formula_structural   Pr4Al17GaIr5Pt
_chemical_formula_sum   'Pr4 Al17 Ga1 Ir5 Pt1'
_cell_volume   490.16227323
_cell_formula_units_Z   1
loop_
 _symmetry_equiv_pos_site_id
 _symmetry_equiv_pos_as_xyz
  1  'x, y, z'
loop_
 _atom_site_type_symbol
 _atom_site_label
 _atom_site_symmetry_multiplicity
 _atom_site_fract_x
 _atom_site_fract_y
 _atom_site_fract_z
 _atom_site_occupancy
  Pr  Pr0  1  0.993302  0.671769  0.250175  1
  Pr  Pr1  1  0.004487  0.329588  0.750029  1
  Pr  Pr2  1  0.672759  0.994638  0.249949  1
  Pr  Pr3  1  0.330564  0.005895  0.749820  1
  Al  Al4  1  0.869508  0.868560  0.749664  1
  Al  Al5  1  0.006725  0.335583  0.074165  1
  Al  Al6  1  0.000544  0.668347  0.925962  1
  Al  Al7  1  0.998234  0.664788  0.572229  1
  Al  Al8  1  0.335484  0.001798  0.428133  1
  Al  Al9  1  0.002657  0.335289  0.427673  1
  Al  Al10  1  0.664973  0.997366  0.572613  1
  Al  Al11  1  0.664354  0.993157  0.925625  1
  Al  Al12  1  0.331777  0.999649  0.073714  1
  Al  Al13  1  0.333763  0.333831  0.548369  1
  Al  Al14  1  0.665535  0.665621  0.454493  1
  Al  Al15  1  0.664551  0.667723  0.048745  1
  Al  Al16  1  0.331509  0.334757  0.948289  1
  Al  Al17  1  0.339617  0.548122  0.250328  1
  Al  Al18  1  0.660012  0.455995  0.746856  1
  Al  Al19  1  0.544865  0.338757  0.253011  1
  Al  Al20  1  0.453039  0.659325  0.749734  1
  Ga  Ga21  1  0.134255  0.133215  0.250429  1
  Ir  Ir22  1  0.328950  0.670167  0.000473  1
  Ir  Ir23  1  0.329204  0.669934  0.499588  1
  Ir  Ir24  1  0.670240  0.328920  0.499610  1
  Ir  Ir25  1  0.999219  0.999444  0.997470  1
  Ir  Ir26  1  0.999448  0.999068  0.502517  1
  Pt  Pt27  1  0.670426  0.328694  0.000332  1
