# generated using pymatgen
data_Hf(TiI4)3
_symmetry_space_group_name_H-M   'P 1'
_cell_length_a   6.55198873
_cell_length_b   7.78679180
_cell_length_c   13.55190000
_cell_angle_alpha   90.00000000
_cell_angle_beta   90.00000000
_cell_angle_gamma   90.05298443
_symmetry_Int_Tables_number   1
_chemical_formula_structural   Hf(TiI4)3
_chemical_formula_sum   'Hf1 Ti3 I12'
_cell_volume   691.40371242
_cell_formula_units_Z   1
loop_
 _symmetry_equiv_pos_site_id
 _symmetry_equiv_pos_as_xyz
  1  'x, y, z'
loop_
 _atom_site_type_symbol
 _atom_site_label
 _atom_site_symmetry_multiplicity
 _atom_site_fract_x
 _atom_site_fract_y
 _atom_site_fract_z
 _atom_site_occupancy
  Hf  Hf0  1  0.249261  0.249388  0.500000  1
  Ti  Ti1  1  0.751348  0.249515  0.500000  1
  Ti  Ti2  1  0.776236  0.750556  0.000000  1
  Ti  Ti3  1  0.223763  0.750628  0.000000  1
  I  I4  1  0.503521  0.398306  0.351028  1
  I  I5  1  0.999517  0.601154  0.850475  1
  I  I6  1  0.999517  0.601154  0.149525  1
  I  I7  1  0.503521  0.398306  0.648972  1
  I  I8  1  0.500413  0.892806  0.858246  1
  I  I9  1  0.996359  0.099653  0.350563  1
  I  I10  1  0.996359  0.099653  0.649437  1
  I  I11  1  0.500413  0.892806  0.141754  1
  I  I12  1  0.502214  0.950815  0.500000  1
  I  I13  1  0.000812  0.049472  0.000000  1
  I  I14  1  0.499014  0.466066  0.000000  1
  I  I15  1  0.997734  0.549722  0.500000  1
