# generated using pymatgen
data_Sc12CdCo4Ir
_symmetry_space_group_name_H-M   'P 1'
_cell_length_a   7.70930966
_cell_length_b   7.70930919
_cell_length_c   7.70930982
_cell_angle_alpha   111.11231437
_cell_angle_beta   111.50630361
_cell_angle_gamma   105.85472972
_symmetry_Int_Tables_number   1
_chemical_formula_structural   Sc12CdCo4Ir
_chemical_formula_sum   'Sc12 Cd1 Co4 Ir1'
_cell_volume   351.66566189
_cell_formula_units_Z   1
loop_
 _symmetry_equiv_pos_site_id
 _symmetry_equiv_pos_as_xyz
  1  'x, y, z'
loop_
 _atom_site_type_symbol
 _atom_site_label
 _atom_site_symmetry_multiplicity
 _atom_site_fract_x
 _atom_site_fract_y
 _atom_site_fract_z
 _atom_site_occupancy
  Sc  Sc0  1  0.423433  0.225677  0.197756  1
  Sc  Sc1  1  0.576567  0.774323  0.802244  1
  Sc  Sc2  1  0.027921  0.225677  0.802244  1
  Sc  Sc3  1  0.972079  0.774323  0.197756  1
  Sc  Sc4  1  0.313668  0.615998  0.302330  1
  Sc  Sc5  1  0.686332  0.384002  0.697670  1
  Sc  Sc6  1  0.313668  0.011337  0.697670  1
  Sc  Sc7  1  0.686332  0.988663  0.302330  1
  Sc  Sc8  1  0.184620  0.277497  0.462117  1
  Sc  Sc9  1  0.815380  0.722502  0.537883  1
  Sc  Sc10  1  0.184620  0.722502  0.907123  1
  Sc  Sc11  1  0.815380  0.277497  0.092877  1
  Cd  Cd12  1  0.500000  0.500000  0.000000  1
  Co  Co13  1  0.365665  0.000000  0.365665  1
  Co  Co14  1  0.634335  0.000000  0.634335  1
  Co  Co15  1  0.118117  0.618117  0.500000  1
  Co  Co16  1  0.881883  0.381883  0.500000  1
  Ir  Ir17  1  0.000000  0.000000  0.000000  1
