# generated using pymatgen
data_Pr7Gd3Ru4
_symmetry_space_group_name_H-M   'P 1'
_cell_length_a   8.96767189
_cell_length_b   8.99396380
_cell_length_c   7.42098100
_cell_angle_alpha   83.59917011
_cell_angle_beta   83.61597513
_cell_angle_gamma   43.38807951
_symmetry_Int_Tables_number   1
_chemical_formula_structural   Pr7Gd3Ru4
_chemical_formula_sum   'Pr7 Gd3 Ru4'
_cell_volume   408.19551551
_cell_formula_units_Z   1
loop_
 _symmetry_equiv_pos_site_id
 _symmetry_equiv_pos_as_xyz
  1  'x, y, z'
loop_
 _atom_site_type_symbol
 _atom_site_label
 _atom_site_symmetry_multiplicity
 _atom_site_fract_x
 _atom_site_fract_y
 _atom_site_fract_z
 _atom_site_occupancy
  Pr  Pr0  1  0.020191  0.795204  0.914258  1
  Pr  Pr1  1  0.202076  0.982560  0.584869  1
  Pr  Pr2  1  0.982104  0.202338  0.086773  1
  Pr  Pr3  1  0.795246  0.020129  0.413800  1
  Pr  Pr4  1  0.359896  0.211370  0.813866  1
  Pr  Pr5  1  0.792324  0.636272  0.685147  1
  Pr  Pr6  1  0.638139  0.790238  0.186795  1
  Gd  Gd7  1  0.210721  0.364794  0.316830  1
  Gd  Gd8  1  0.570742  0.430206  0.750093  1
  Gd  Gd9  1  0.428613  0.570281  0.249158  1
  Ru  Ru10  1  0.183848  0.595742  0.570461  1
  Ru  Ru11  1  0.399699  0.815132  0.926425  1
  Ru  Ru12  1  0.820962  0.399099  0.426089  1
  Ru  Ru13  1  0.595436  0.186633  0.075435  1
