# generated using pymatgen
data_Nd(BiS2)3
_symmetry_space_group_name_H-M   'P 1'
_cell_length_a   4.03922400
_cell_length_b   11.62501456
_cell_length_c   11.74995435
_cell_angle_alpha   73.25368028
_cell_angle_beta   90.00000000
_cell_angle_gamma   90.00000000
_symmetry_Int_Tables_number   1
_chemical_formula_structural   Nd(BiS2)3
_chemical_formula_sum   'Nd2 Bi6 S12'
_cell_volume   528.33230473
_cell_formula_units_Z   2
loop_
 _symmetry_equiv_pos_site_id
 _symmetry_equiv_pos_as_xyz
  1  'x, y, z'
loop_
 _atom_site_type_symbol
 _atom_site_label
 _atom_site_symmetry_multiplicity
 _atom_site_fract_x
 _atom_site_fract_y
 _atom_site_fract_z
 _atom_site_occupancy
  Nd  Nd0  1  0.750000  0.542173  0.812012  1
  Nd  Nd1  1  0.250000  0.457827  0.187988  1
  Bi  Bi2  1  0.750000  0.192322  0.017881  1
  Bi  Bi3  1  0.250000  0.807678  0.982119  1
  Bi  Bi4  1  0.750000  0.936061  0.665658  1
  Bi  Bi5  1  0.250000  0.063939  0.334342  1
  Bi  Bi6  1  0.750000  0.651042  0.406742  1
  Bi  Bi7  1  0.250000  0.348958  0.593258  1
  S  S8  1  0.750000  0.969622  0.884789  1
  S  S9  1  0.250000  0.030378  0.115211  1
  S  S10  1  0.750000  0.309866  0.749242  1
  S  S11  1  0.250000  0.690134  0.250758  1
  S  S12  1  0.750000  0.906311  0.417589  1
  S  S13  1  0.250000  0.093689  0.582411  1
  S  S14  1  0.750000  0.426270  0.387442  1
  S  S15  1  0.250000  0.573730  0.612558  1
  S  S16  1  0.750000  0.258019  0.218385  1
  S  S17  1  0.250000  0.741981  0.781615  1
  S  S18  1  0.750000  0.607797  0.037585  1
  S  S19  1  0.250000  0.392203  0.962415  1
