# generated using pymatgen
data_Tb2HoIn3Cu2Pt
_symmetry_space_group_name_H-M   'P 1'
_cell_length_a   7.58961314
_cell_length_b   7.57547049
_cell_length_c   3.90871600
_cell_angle_alpha   90.00000000
_cell_angle_beta   90.00000000
_cell_angle_gamma   120.29907859
_symmetry_Int_Tables_number   1
_chemical_formula_structural   Tb2HoIn3Cu2Pt
_chemical_formula_sum   'Tb2 Ho1 In3 Cu2 Pt1'
_cell_volume   194.03373960
_cell_formula_units_Z   1
loop_
 _symmetry_equiv_pos_site_id
 _symmetry_equiv_pos_as_xyz
  1  'x, y, z'
loop_
 _atom_site_type_symbol
 _atom_site_label
 _atom_site_symmetry_multiplicity
 _atom_site_fract_x
 _atom_site_fract_y
 _atom_site_fract_z
 _atom_site_occupancy
  Tb  Tb0  1  0.408321  0.415914  0.500000  1
  Tb  Tb1  1  0.584475  0.992929  0.500000  1
  Ho  Ho2  1  0.008109  0.592303  0.500000  1
  In  In3  1  0.753706  0.744734  0.000000  1
  In  In4  1  0.991349  0.246415  0.000000  1
  In  In5  1  0.254394  0.008250  0.000000  1
  Cu  Cu6  1  0.000319  0.999201  0.500000  1
  Cu  Cu7  1  0.667968  0.334231  0.000000  1
  Pt  Pt8  1  0.331358  0.666024  0.000000  1
