# generated using pymatgen
data_Ho4MoOsC4
_symmetry_space_group_name_H-M   'P 1'
_cell_length_a   5.07925100
_cell_length_b   6.57336375
_cell_length_c   9.87258703
_cell_angle_alpha   89.19585184
_cell_angle_beta   90.00000000
_cell_angle_gamma   90.00000000
_symmetry_Int_Tables_number   1
_chemical_formula_structural   Ho4MoOsC4
_chemical_formula_sum   'Ho8 Mo2 Os2 C8'
_cell_volume   329.59114530
_cell_formula_units_Z   2
loop_
 _symmetry_equiv_pos_site_id
 _symmetry_equiv_pos_as_xyz
  1  'x, y, z'
loop_
 _atom_site_type_symbol
 _atom_site_label
 _atom_site_symmetry_multiplicity
 _atom_site_fract_x
 _atom_site_fract_y
 _atom_site_fract_z
 _atom_site_occupancy
  Ho  Ho0  1  0.250000  0.678087  0.557779  1
  Ho  Ho1  1  0.750000  0.321913  0.442221  1
  Ho  Ho2  1  0.750000  0.824642  0.058039  1
  Ho  Ho3  1  0.250000  0.175358  0.941961  1
  Ho  Ho4  1  0.250000  0.538223  0.218595  1
  Ho  Ho5  1  0.750000  0.461777  0.781405  1
  Ho  Ho6  1  0.750000  0.968596  0.716564  1
  Ho  Ho7  1  0.250000  0.031404  0.283436  1
  Mo  Mo8  1  0.250000  0.715665  0.867767  1
  Mo  Mo9  1  0.750000  0.284335  0.132233  1
  Os  Os10  1  0.750000  0.780656  0.366757  1
  Os  Os11  1  0.250000  0.219344  0.633243  1
  C  C12  1  0.250000  0.448544  0.757137  1
  C  C13  1  0.750000  0.551456  0.242863  1
  C  C14  1  0.750000  0.046963  0.260302  1
  C  C15  1  0.250000  0.953037  0.739698  1
  C  C16  1  0.250000  0.824166  0.052669  1
  C  C17  1  0.750000  0.175834  0.947331  1
  C  C18  1  0.750000  0.676959  0.549538  1
  C  C19  1  0.250000  0.323041  0.450462  1
