# generated using pymatgen
data_Yb2Ga9Ir2Pt
_symmetry_space_group_name_H-M   'P 1'
_cell_length_a   7.56511400
_cell_length_b   7.56511523
_cell_length_c   9.61080600
_cell_angle_alpha   90.00000000
_cell_angle_beta   90.00000000
_cell_angle_gamma   119.39487089
_symmetry_Int_Tables_number   1
_chemical_formula_structural   Yb2Ga9Ir2Pt
_chemical_formula_sum   'Yb4 Ga18 Ir4 Pt2'
_cell_volume   479.22282057
_cell_formula_units_Z   2
loop_
 _symmetry_equiv_pos_site_id
 _symmetry_equiv_pos_as_xyz
  1  'x, y, z'
loop_
 _atom_site_type_symbol
 _atom_site_label
 _atom_site_symmetry_multiplicity
 _atom_site_fract_x
 _atom_site_fract_y
 _atom_site_fract_z
 _atom_site_occupancy
  Yb  Yb0  1  0.998174  0.671200  0.250000  1
  Yb  Yb1  1  0.001826  0.328800  0.750000  1
  Yb  Yb2  1  0.671200  0.998174  0.250000  1
  Yb  Yb3  1  0.328800  0.001826  0.750000  1
  Ga  Ga4  1  0.131439  0.131439  0.250000  1
  Ga  Ga5  1  0.868561  0.868561  0.750000  1
  Ga  Ga6  1  0.999245  0.338187  0.078829  1
  Ga  Ga7  1  0.000755  0.661813  0.921171  1
  Ga  Ga8  1  0.000755  0.661813  0.578829  1
  Ga  Ga9  1  0.338187  0.999245  0.421171  1
  Ga  Ga10  1  0.999245  0.338187  0.421171  1
  Ga  Ga11  1  0.661813  0.000755  0.578829  1
  Ga  Ga12  1  0.661813  0.000755  0.921171  1
  Ga  Ga13  1  0.338187  0.999245  0.078829  1
  Ga  Ga14  1  0.336179  0.336179  0.565369  1
  Ga  Ga15  1  0.663821  0.663821  0.434631  1
  Ga  Ga16  1  0.663821  0.663821  0.065369  1
  Ga  Ga17  1  0.336179  0.336179  0.934631  1
  Ga  Ga18  1  0.336281  0.547013  0.250000  1
  Ga  Ga19  1  0.663719  0.452987  0.750000  1
  Ga  Ga20  1  0.547013  0.336281  0.250000  1
  Ga  Ga21  1  0.452987  0.663719  0.750000  1
  Ir  Ir22  1  0.671115  0.328885  0.000000  1
  Ir  Ir23  1  0.328885  0.671115  0.000000  1
  Ir  Ir24  1  0.328885  0.671115  0.500000  1
  Ir  Ir25  1  0.671115  0.328885  0.500000  1
  Pt  Pt26  1  0.000000  0.000000  0.000000  1
  Pt  Pt27  1  0.000000  0.000000  0.500000  1
