# generated using pymatgen
data_TiNb4B4Mo
_symmetry_space_group_name_H-M   'P 1'
_cell_length_a   6.13924600
_cell_length_b   6.13924600
_cell_length_c   3.28587800
_cell_angle_alpha   90.00000000
_cell_angle_beta   90.00000000
_cell_angle_gamma   90.00000000
_symmetry_Int_Tables_number   1
_chemical_formula_structural   TiNb4B4Mo
_chemical_formula_sum   'Ti1 Nb4 B4 Mo1'
_cell_volume   123.84586378
_cell_formula_units_Z   1
loop_
 _symmetry_equiv_pos_site_id
 _symmetry_equiv_pos_as_xyz
  1  'x, y, z'
loop_
 _atom_site_type_symbol
 _atom_site_label
 _atom_site_symmetry_multiplicity
 _atom_site_fract_x
 _atom_site_fract_y
 _atom_site_fract_z
 _atom_site_occupancy
  Ti  Ti0  1  0.000000  0.000000  0.000000  1
  Nb  Nb1  1  0.677903  0.179882  0.500000  1
  Nb  Nb2  1  0.322097  0.820118  0.500000  1
  Nb  Nb3  1  0.179882  0.322097  0.500000  1
  Nb  Nb4  1  0.820118  0.677903  0.500000  1
  B  B5  1  0.106579  0.607524  0.000000  1
  B  B6  1  0.893421  0.392476  0.000000  1
  B  B7  1  0.607524  0.893421  0.000000  1
  B  B8  1  0.392476  0.106579  0.000000  1
  Mo  Mo9  1  0.500000  0.500000  0.000000  1
