# generated using pymatgen
data_Y5Tc3(Ni4P3)4
_symmetry_space_group_name_H-M   'P 1'
_cell_length_a   12.16965200
_cell_length_b   12.16965218
_cell_length_c   3.73523100
_cell_angle_alpha   90.00000000
_cell_angle_beta   90.00000000
_cell_angle_gamma   119.99999950
_symmetry_Int_Tables_number   1
_chemical_formula_structural   Y5Tc3(Ni4P3)4
_chemical_formula_sum   'Y5 Tc3 Ni16 P12'
_cell_volume   479.07601087
_cell_formula_units_Z   1
loop_
 _symmetry_equiv_pos_site_id
 _symmetry_equiv_pos_as_xyz
  1  'x, y, z'
loop_
 _atom_site_type_symbol
 _atom_site_label
 _atom_site_symmetry_multiplicity
 _atom_site_fract_x
 _atom_site_fract_y
 _atom_site_fract_z
 _atom_site_occupancy
  Y  Y0  1  0.666667  0.333333  0.000000  1
  Y  Y1  1  0.333333  0.666667  0.000000  1
  Y  Y2  1  0.815526  0.815526  0.500000  1
  Y  Y3  1  0.184474  0.000000  0.500000  1
  Y  Y4  1  0.000000  0.184474  0.500000  1
  Tc  Tc5  1  0.443553  0.443553  0.000000  1
  Tc  Tc6  1  0.556447  0.000000  0.000000  1
  Tc  Tc7  1  0.000000  0.556447  0.000000  1
  Ni  Ni8  1  0.873638  0.357189  0.500000  1
  Ni  Ni9  1  0.642811  0.516449  0.500000  1
  Ni  Ni10  1  0.483551  0.126362  0.500000  1
  Ni  Ni11  1  0.357189  0.873638  0.500000  1
  Ni  Ni12  1  0.516449  0.642811  0.500000  1
  Ni  Ni13  1  0.126362  0.483551  0.500000  1
  Ni  Ni14  1  0.806479  0.183535  0.000000  1
  Ni  Ni15  1  0.816465  0.622943  0.000000  1
  Ni  Ni16  1  0.377057  0.193521  0.000000  1
  Ni  Ni17  1  0.183535  0.806479  0.000000  1
  Ni  Ni18  1  0.622943  0.816465  0.000000  1
  Ni  Ni19  1  0.193521  0.377057  0.000000  1
  Ni  Ni20  1  0.281750  0.281750  0.500000  1
  Ni  Ni21  1  0.718250  0.000000  0.500000  1
  Ni  Ni22  1  0.000000  0.718250  0.500000  1
  Ni  Ni23  1  0.000000  0.000000  0.000000  1
  P  P24  1  0.684010  0.163118  0.500000  1
  P  P25  1  0.836882  0.520892  0.500000  1
  P  P26  1  0.479108  0.315990  0.500000  1
  P  P27  1  0.163118  0.684010  0.500000  1
  P  P28  1  0.520892  0.836882  0.500000  1
  P  P29  1  0.315990  0.479108  0.500000  1
  P  P30  1  0.178985  0.178985  0.000000  1
  P  P31  1  0.821015  0.000000  0.000000  1
  P  P32  1  0.000000  0.821015  0.000000  1
  P  P33  1  0.634980  0.634980  0.000000  1
  P  P34  1  0.365020  0.000000  0.000000  1
  P  P35  1  0.000000  0.365020  0.000000  1
