# generated using pymatgen
data_YbY6NiI12
_symmetry_space_group_name_H-M   'P 1'
_cell_length_a   9.75487789
_cell_length_b   9.75487734
_cell_length_c   9.75487689
_cell_angle_alpha   106.88686715
_cell_angle_beta   106.88686709
_cell_angle_gamma   106.88687353
_symmetry_Int_Tables_number   1
_chemical_formula_structural   YbY6NiI12
_chemical_formula_sum   'Yb1 Y6 Ni1 I12'
_cell_volume   775.42969179
_cell_formula_units_Z   1
loop_
 _symmetry_equiv_pos_site_id
 _symmetry_equiv_pos_as_xyz
  1  'x, y, z'
loop_
 _atom_site_type_symbol
 _atom_site_label
 _atom_site_symmetry_multiplicity
 _atom_site_fract_x
 _atom_site_fract_y
 _atom_site_fract_z
 _atom_site_occupancy
  Yb  Yb0  1  0.500000  0.500000  0.500000  1
  Y  Y1  1  0.024643  0.095967  0.294903  1
  Y  Y2  1  0.095967  0.294903  0.024643  1
  Y  Y3  1  0.294903  0.024643  0.095967  1
  Y  Y4  1  0.975357  0.904033  0.705097  1
  Y  Y5  1  0.904033  0.705097  0.975357  1
  Y  Y6  1  0.705097  0.975357  0.904033  1
  Ni  Ni7  1  0.000000  0.000000  0.000000  1
  I  I8  1  0.151509  0.457991  0.379847  1
  I  I9  1  0.457991  0.379847  0.151509  1
  I  I10  1  0.379847  0.151509  0.457991  1
  I  I11  1  0.848491  0.542009  0.620153  1
  I  I12  1  0.542009  0.620153  0.848491  1
  I  I13  1  0.620153  0.848491  0.542009  1
  I  I14  1  0.678203  0.071891  0.223432  1
  I  I15  1  0.071891  0.223432  0.678203  1
  I  I16  1  0.223432  0.678203  0.071891  1
  I  I17  1  0.321797  0.928109  0.776568  1
  I  I18  1  0.928109  0.776568  0.321797  1
  I  I19  1  0.776568  0.321797  0.928109  1
