# generated using pymatgen
data_LaY2Ni8Ir
_symmetry_space_group_name_H-M   'P 1'
_cell_length_a   5.03740357
_cell_length_b   5.03740344
_cell_length_c   8.80030341
_cell_angle_alpha   73.36903456
_cell_angle_beta   106.63096279
_cell_angle_gamma   120.00000198
_symmetry_Int_Tables_number   1
_chemical_formula_structural   LaY2Ni8Ir
_chemical_formula_sum   'La1 Y2 Ni8 Ir1'
_cell_volume   182.52707771
_cell_formula_units_Z   1
loop_
 _symmetry_equiv_pos_site_id
 _symmetry_equiv_pos_as_xyz
  1  'x, y, z'
loop_
 _atom_site_type_symbol
 _atom_site_label
 _atom_site_symmetry_multiplicity
 _atom_site_fract_x
 _atom_site_fract_y
 _atom_site_fract_z
 _atom_site_occupancy
  La  La0  1  0.000000  0.000000  0.000000  1
  Y  Y1  1  0.139742  0.860257  0.419227  1
  Y  Y2  1  0.860258  0.139743  0.580772  1
  Ni  Ni3  1  0.667310  0.332691  0.001929  1
  Ni  Ni4  1  0.079569  0.417571  0.244426  1
  Ni  Ni5  1  0.582429  0.417572  0.244426  1
  Ni  Ni6  1  0.582429  0.920433  0.244426  1
  Ni  Ni7  1  0.417572  0.079568  0.755574  1
  Ni  Ni8  1  0.417572  0.582430  0.755574  1
  Ni  Ni9  1  0.920432  0.582428  0.755574  1
  Ni  Ni10  1  0.332691  0.667308  0.998072  1
  Ir  Ir11  1  0.500000  0.500000  0.500000  1
