# generated using pymatgen
data_Tb9Cd5Ru4
_symmetry_space_group_name_H-M   'P 1'
_cell_length_a   10.82807700
_cell_length_b   10.82807700
_cell_length_c   3.70808900
_cell_angle_alpha   90.00000000
_cell_angle_beta   90.00000000
_cell_angle_gamma   90.00000000
_symmetry_Int_Tables_number   1
_chemical_formula_structural   Tb9Cd5Ru4
_chemical_formula_sum   'Tb9 Cd5 Ru4'
_cell_volume   434.76324363
_cell_formula_units_Z   1
loop_
 _symmetry_equiv_pos_site_id
 _symmetry_equiv_pos_as_xyz
  1  'x, y, z'
loop_
 _atom_site_type_symbol
 _atom_site_label
 _atom_site_symmetry_multiplicity
 _atom_site_fract_x
 _atom_site_fract_y
 _atom_site_fract_z
 _atom_site_occupancy
  Tb  Tb0  1  0.323227  0.323227  0.500000  1
  Tb  Tb1  1  0.676773  0.676773  0.500000  1
  Tb  Tb2  1  0.323227  0.676773  0.500000  1
  Tb  Tb3  1  0.676773  0.323227  0.500000  1
  Tb  Tb4  1  0.000000  0.287058  0.500000  1
  Tb  Tb5  1  0.000000  0.712942  0.500000  1
  Tb  Tb6  1  0.287058  0.000000  0.500000  1
  Tb  Tb7  1  0.712942  0.000000  0.500000  1
  Tb  Tb8  1  0.000000  0.000000  0.000000  1
  Cd  Cd9  1  0.500000  0.145319  0.000000  1
  Cd  Cd10  1  0.500000  0.854681  0.000000  1
  Cd  Cd11  1  0.145319  0.500000  0.000000  1
  Cd  Cd12  1  0.854681  0.500000  0.000000  1
  Cd  Cd13  1  0.500000  0.500000  0.000000  1
  Ru  Ru14  1  0.184610  0.184610  0.000000  1
  Ru  Ru15  1  0.815390  0.815390  0.000000  1
  Ru  Ru16  1  0.184610  0.815390  0.000000  1
  Ru  Ru17  1  0.815390  0.184610  0.000000  1
