# generated using pymatgen
data_Dy8Tm4InCo4Pt
_symmetry_space_group_name_H-M   'P 1'
_cell_length_a   8.29686562
_cell_length_b   8.29686670
_cell_length_c   8.29686703
_cell_angle_alpha   111.17413849
_cell_angle_beta   110.34379883
_cell_angle_gamma   106.92645464
_symmetry_Int_Tables_number   1
_chemical_formula_structural   Dy8Tm4InCo4Pt
_chemical_formula_sum   'Dy8 Tm4 In1 Co4 Pt1'
_cell_volume   438.99241355
_cell_formula_units_Z   1
loop_
 _symmetry_equiv_pos_site_id
 _symmetry_equiv_pos_as_xyz
  1  'x, y, z'
loop_
 _atom_site_type_symbol
 _atom_site_label
 _atom_site_symmetry_multiplicity
 _atom_site_fract_x
 _atom_site_fract_y
 _atom_site_fract_z
 _atom_site_occupancy
  Dy  Dy0  1  0.414376  0.215974  0.198402  1
  Dy  Dy1  1  0.585624  0.784026  0.801598  1
  Dy  Dy2  1  0.017572  0.215974  0.801598  1
  Dy  Dy3  1  0.982428  0.784026  0.198402  1
  Dy  Dy4  1  0.185870  0.291070  0.476939  1
  Dy  Dy5  1  0.814130  0.708930  0.523061  1
  Dy  Dy6  1  0.185870  0.708930  0.894801  1
  Dy  Dy7  1  0.814130  0.291070  0.105199  1
  Tm  Tm8  1  0.316823  0.623822  0.306999  1
  Tm  Tm9  1  0.683177  0.376178  0.693001  1
  Tm  Tm10  1  0.316823  0.009823  0.693001  1
  Tm  Tm11  1  0.683177  0.990177  0.306999  1
  In  In12  1  0.500000  0.500000  0.000000  1
  Co  Co13  1  0.379287  0.000000  0.379287  1
  Co  Co14  1  0.620713  0.000000  0.620713  1
  Co  Co15  1  0.112735  0.612735  0.500000  1
  Co  Co16  1  0.887265  0.387265  0.500000  1
  Pt  Pt17  1  0.000000  0.000000  0.000000  1
