# generated using pymatgen
data_Cs3Sm10C4Cl21
_symmetry_space_group_name_H-M   'P 1'
_cell_length_a   13.36258172
_cell_length_b   13.36258191
_cell_length_c   15.28033900
_cell_angle_alpha   82.81812809
_cell_angle_beta   82.81812800
_cell_angle_gamma   56.49180461
_symmetry_Int_Tables_number   1
_chemical_formula_structural   Cs3Sm10C4Cl21
_chemical_formula_sum   'Cs6 Sm20 C8 Cl42'
_cell_volume   2251.96194326
_cell_formula_units_Z   2
loop_
 _symmetry_equiv_pos_site_id
 _symmetry_equiv_pos_as_xyz
  1  'x, y, z'
loop_
 _atom_site_type_symbol
 _atom_site_label
 _atom_site_symmetry_multiplicity
 _atom_site_fract_x
 _atom_site_fract_y
 _atom_site_fract_z
 _atom_site_occupancy
  Cs  Cs0  1  0.972046  0.027954  0.250000  1
  Cs  Cs1  1  0.027954  0.972046  0.750000  1
  Cs  Cs2  1  0.349579  0.860107  0.451363  1
  Cs  Cs3  1  0.139893  0.650421  0.048637  1
  Cs  Cs4  1  0.650421  0.139893  0.548637  1
  Cs  Cs5  1  0.860107  0.349579  0.951363  1
  Sm  Sm6  1  0.750367  0.502609  0.368961  1
  Sm  Sm7  1  0.228468  0.960438  0.983978  1
  Sm  Sm8  1  0.651092  0.917094  0.203065  1
  Sm  Sm9  1  0.748078  0.495057  0.619575  1
  Sm  Sm10  1  0.628757  0.898883  0.957593  1
  Sm  Sm11  1  0.898883  0.628757  0.457593  1
  Sm  Sm12  1  0.502609  0.750367  0.868961  1
  Sm  Sm13  1  0.251922  0.504943  0.380425  1
  Sm  Sm14  1  0.082906  0.348908  0.296935  1
  Sm  Sm15  1  0.771532  0.039562  0.016022  1
  Sm  Sm16  1  0.495057  0.748078  0.119575  1
  Sm  Sm17  1  0.371243  0.101117  0.042407  1
  Sm  Sm18  1  0.504943  0.251922  0.880425  1
  Sm  Sm19  1  0.249633  0.497391  0.631039  1
  Sm  Sm20  1  0.348908  0.082906  0.796935  1
  Sm  Sm21  1  0.039562  0.771532  0.516022  1
  Sm  Sm22  1  0.960438  0.228468  0.483978  1
  Sm  Sm23  1  0.917094  0.651092  0.703065  1
  Sm  Sm24  1  0.101117  0.371243  0.542407  1
  Sm  Sm25  1  0.497391  0.249633  0.131039  1
  C  C26  1  0.549000  0.121178  0.003761  1
  C  C27  1  0.035067  0.592204  0.576921  1
  C  C28  1  0.407796  0.964933  0.923079  1
  C  C29  1  0.964933  0.407796  0.423079  1
  C  C30  1  0.592204  0.035067  0.076921  1
  C  C31  1  0.121178  0.549000  0.503761  1
  C  C32  1  0.451000  0.878822  0.996239  1
  C  C33  1  0.878822  0.451000  0.496239  1
  Cl  Cl34  1  0.720944  0.722397  0.102414  1
  Cl  Cl35  1  0.775373  0.283254  0.385067  1
  Cl  Cl36  1  0.259527  0.811297  0.136140  1
  Cl  Cl37  1  0.945589  0.423976  0.722149  1
  Cl  Cl38  1  0.811297  0.259527  0.636140  1
  Cl  Cl39  1  0.283254  0.775373  0.885067  1
  Cl  Cl40  1  0.875592  0.873970  0.162674  1
  Cl  Cl41  1  0.576024  0.054411  0.777851  1
  Cl  Cl42  1  0.716746  0.224627  0.114933  1
  Cl  Cl43  1  0.431406  0.886446  0.706078  1
  Cl  Cl44  1  0.263436  0.301893  0.145204  1
  Cl  Cl45  1  0.279056  0.277603  0.897586  1
  Cl  Cl46  1  0.572607  0.576113  0.510321  1
  Cl  Cl47  1  0.133471  0.154112  0.080934  1
  Cl  Cl48  1  0.610554  0.542320  0.781066  1
  Cl  Cl49  1  0.576113  0.572607  0.010321  1
  Cl  Cl50  1  0.188703  0.740473  0.363860  1
  Cl  Cl51  1  0.736564  0.698107  0.854796  1
  Cl  Cl52  1  0.224627  0.716746  0.614933  1
  Cl  Cl53  1  0.113554  0.568594  0.793922  1
  Cl  Cl54  1  0.124408  0.126030  0.837326  1
  Cl  Cl55  1  0.301893  0.263436  0.645204  1
  Cl  Cl56  1  0.423976  0.945589  0.222149  1
  Cl  Cl57  1  0.886446  0.431406  0.206078  1
  Cl  Cl58  1  0.457680  0.389446  0.718934  1
  Cl  Cl59  1  0.698107  0.736564  0.354796  1
  Cl  Cl60  1  0.873970  0.875592  0.662674  1
  Cl  Cl61  1  0.000000  0.000000  0.000000  1
  Cl  Cl62  1  0.866529  0.845888  0.919066  1
  Cl  Cl63  1  0.427393  0.423887  0.489679  1
  Cl  Cl64  1  0.423887  0.427393  0.989679  1
  Cl  Cl65  1  0.054411  0.576024  0.277851  1
  Cl  Cl66  1  0.542320  0.610554  0.281066  1
  Cl  Cl67  1  0.568594  0.113554  0.293922  1
  Cl  Cl68  1  0.845888  0.866529  0.419066  1
  Cl  Cl69  1  0.722397  0.720944  0.602414  1
  Cl  Cl70  1  0.126030  0.124408  0.337326  1
  Cl  Cl71  1  0.740473  0.188703  0.863860  1
  Cl  Cl72  1  0.277603  0.279056  0.397586  1
  Cl  Cl73  1  0.389446  0.457680  0.218934  1
  Cl  Cl74  1  0.154112  0.133471  0.580934  1
  Cl  Cl75  1  0.000000  0.000000  0.500000  1
