# generated using pymatgen
data_CaEr3(B6Ru)2
_symmetry_space_group_name_H-M   'P 1'
_cell_length_a   3.63701100
_cell_length_b   9.12201283
_cell_length_c   11.52013309
_cell_angle_alpha   89.80813817
_cell_angle_beta   90.00000000
_cell_angle_gamma   90.00000000
_symmetry_Int_Tables_number   1
_chemical_formula_structural   CaEr3(B6Ru)2
_chemical_formula_sum   'Ca2 Er6 B24 Ru4'
_cell_volume   382.19971148
_cell_formula_units_Z   2
loop_
 _symmetry_equiv_pos_site_id
 _symmetry_equiv_pos_as_xyz
  1  'x, y, z'
loop_
 _atom_site_type_symbol
 _atom_site_label
 _atom_site_symmetry_multiplicity
 _atom_site_fract_x
 _atom_site_fract_y
 _atom_site_fract_z
 _atom_site_occupancy
  Ca  Ca0  1  0.000000  0.324106  0.414871  1
  Ca  Ca1  1  0.000000  0.675894  0.585129  1
  Er  Er2  1  0.000000  0.822577  0.086111  1
  Er  Er3  1  0.000000  0.177423  0.913889  1
  Er  Er4  1  0.000000  0.942063  0.369276  1
  Er  Er5  1  0.000000  0.057937  0.630724  1
  Er  Er6  1  0.000000  0.442861  0.130511  1
  Er  Er7  1  0.000000  0.557139  0.869489  1
  B  B8  1  0.500000  0.554600  0.431843  1
  B  B9  1  0.500000  0.445400  0.568157  1
  B  B10  1  0.500000  0.053702  0.066326  1
  B  B11  1  0.500000  0.946298  0.933674  1
  B  B12  1  0.500000  0.748653  0.417159  1
  B  B13  1  0.500000  0.251347  0.582841  1
  B  B14  1  0.500000  0.248474  0.080570  1
  B  B15  1  0.500000  0.751526  0.919430  1
  B  B16  1  0.500000  0.791935  0.263996  1
  B  B17  1  0.500000  0.208065  0.736004  1
  B  B18  1  0.500000  0.290104  0.233413  1
  B  B19  1  0.500000  0.709896  0.766587  1
  B  B20  1  0.500000  0.631902  0.184512  1
  B  B21  1  0.500000  0.368098  0.815488  1
  B  B22  1  0.500000  0.130312  0.313327  1
  B  B23  1  0.500000  0.869688  0.686673  1
  B  B24  1  0.500000  0.982957  0.211147  1
  B  B25  1  0.500000  0.017043  0.788853  1
  B  B26  1  0.500000  0.484500  0.287385  1
  B  B27  1  0.500000  0.515500  0.712615  1
  B  B28  1  0.500000  0.603739  0.028439  1
  B  B29  1  0.500000  0.396261  0.971561  1
  B  B30  1  0.500000  0.098612  0.472749  1
  B  B31  1  0.500000  0.901388  0.527251  1
  Ru  Ru32  1  0.000000  0.640971  0.317454  1
  Ru  Ru33  1  0.000000  0.359029  0.682546  1
  Ru  Ru34  1  0.000000  0.136654  0.177316  1
  Ru  Ru35  1  0.000000  0.863346  0.822684  1
