# generated using pymatgen
data_Tm4GaOs2Ru5
_symmetry_space_group_name_H-M   'P 1'
_cell_length_a   5.37996275
_cell_length_b   5.18706026
_cell_length_c   8.84755200
_cell_angle_alpha   90.00000000
_cell_angle_beta   90.00000000
_cell_angle_gamma   120.16297972
_symmetry_Int_Tables_number   1
_chemical_formula_structural   Tm4GaOs2Ru5
_chemical_formula_sum   'Tm4 Ga1 Os2 Ru5'
_cell_volume   213.47092623
_cell_formula_units_Z   1
loop_
 _symmetry_equiv_pos_site_id
 _symmetry_equiv_pos_as_xyz
  1  'x, y, z'
loop_
 _atom_site_type_symbol
 _atom_site_label
 _atom_site_symmetry_multiplicity
 _atom_site_fract_x
 _atom_site_fract_y
 _atom_site_fract_z
 _atom_site_occupancy
  Tm  Tm0  1  0.669845  0.337164  0.567428  1
  Tm  Tm1  1  0.331465  0.665113  0.435709  1
  Tm  Tm2  1  0.331465  0.665113  0.064291  1
  Tm  Tm3  1  0.669845  0.337164  0.932572  1
  Ga  Ga4  1  0.833182  0.667599  0.250000  1
  Os  Os5  1  0.159262  0.322051  0.750000  1
  Os  Os6  1  0.170241  0.819499  0.750000  1
  Ru  Ru7  1  0.011204  0.014030  0.500587  1
  Ru  Ru8  1  0.011204  0.014030  0.999413  1
  Ru  Ru9  1  0.646256  0.822460  0.750000  1
  Ru  Ru10  1  0.820762  0.167325  0.250000  1
  Ru  Ru11  1  0.345268  0.168452  0.250000  1
