# generated using pymatgen
data_Tm2LuIn3Pt2Au
_symmetry_space_group_name_H-M   'P 1'
_cell_length_a   7.71299221
_cell_length_b   7.71009610
_cell_length_c   3.80244800
_cell_angle_alpha   90.00000000
_cell_angle_beta   90.00000000
_cell_angle_gamma   119.89259301
_symmetry_Int_Tables_number   1
_chemical_formula_structural   Tm2LuIn3Pt2Au
_chemical_formula_sum   'Tm2 Lu1 In3 Pt2 Au1'
_cell_volume   196.04041873
_cell_formula_units_Z   1
loop_
 _symmetry_equiv_pos_site_id
 _symmetry_equiv_pos_as_xyz
  1  'x, y, z'
loop_
 _atom_site_type_symbol
 _atom_site_label
 _atom_site_symmetry_multiplicity
 _atom_site_fract_x
 _atom_site_fract_y
 _atom_site_fract_z
 _atom_site_occupancy
  Tm  Tm0  1  0.015335  0.605188  0.500000  1
  Tm  Tm1  1  0.590044  0.984635  0.500000  1
  Lu  Lu2  1  0.393907  0.410113  0.500000  1
  In  In3  1  0.997926  0.261640  0.000000  1
  In  In4  1  0.264059  0.002624  0.000000  1
  In  In5  1  0.738574  0.736154  0.000000  1
  Pt  Pt6  1  0.000916  0.000915  0.500000  1
  Pt  Pt7  1  0.333705  0.665313  0.000000  1
  Au  Au8  1  0.665534  0.333417  0.000000  1
