# generated using pymatgen
data_Cs4ErWBr12
_symmetry_space_group_name_H-M   'P 1'
_cell_length_a   7.99617700
_cell_length_b   7.99617700
_cell_length_c   11.23824100
_cell_angle_alpha   90.00000000
_cell_angle_beta   90.00000000
_cell_angle_gamma   90.00000000
_symmetry_Int_Tables_number   1
_chemical_formula_structural   Cs4ErWBr12
_chemical_formula_sum   'Cs4 Er1 W1 Br12'
_cell_volume   718.56016753
_cell_formula_units_Z   1
loop_
 _symmetry_equiv_pos_site_id
 _symmetry_equiv_pos_as_xyz
  1  'x, y, z'
loop_
 _atom_site_type_symbol
 _atom_site_label
 _atom_site_symmetry_multiplicity
 _atom_site_fract_x
 _atom_site_fract_y
 _atom_site_fract_z
 _atom_site_occupancy
  Cs  Cs0  1  0.500000  0.000000  0.779764  1
  Cs  Cs1  1  0.000000  0.500000  0.220236  1
  Cs  Cs2  1  0.500000  0.000000  0.220236  1
  Cs  Cs3  1  0.000000  0.500000  0.779764  1
  Er  Er4  1  0.000000  0.000000  0.000000  1
  W  W5  1  0.500000  0.500000  0.500000  1
  Br  Br6  1  0.000000  0.000000  0.751467  1
  Br  Br7  1  0.500000  0.500000  0.275846  1
  Br  Br8  1  0.722802  0.722802  0.500000  1
  Br  Br9  1  0.246409  0.246409  0.000000  1
  Br  Br10  1  0.722802  0.277198  0.500000  1
  Br  Br11  1  0.246409  0.753591  0.000000  1
  Br  Br12  1  0.000000  0.000000  0.248533  1
  Br  Br13  1  0.500000  0.500000  0.724154  1
  Br  Br14  1  0.277198  0.277198  0.500000  1
  Br  Br15  1  0.753591  0.753591  0.000000  1
  Br  Br16  1  0.277198  0.722802  0.500000  1
  Br  Br17  1  0.753591  0.246409  0.000000  1
