# generated using pymatgen
data_Li3Yb20Ag9
_symmetry_space_group_name_H-M   'P 1'
_cell_length_a   8.08207600
_cell_length_b   8.08207600
_cell_length_c   14.84240400
_cell_angle_alpha   90.00000000
_cell_angle_beta   90.00000000
_cell_angle_gamma   90.00000000
_symmetry_Int_Tables_number   1
_chemical_formula_structural   Li3Yb20Ag9
_chemical_formula_sum   'Li3 Yb20 Ag9'
_cell_volume   969.50512382
_cell_formula_units_Z   1
loop_
 _symmetry_equiv_pos_site_id
 _symmetry_equiv_pos_as_xyz
  1  'x, y, z'
loop_
 _atom_site_type_symbol
 _atom_site_label
 _atom_site_symmetry_multiplicity
 _atom_site_fract_x
 _atom_site_fract_y
 _atom_site_fract_z
 _atom_site_occupancy
  Li  Li0  1  0.000000  0.000000  0.500000  1
  Li  Li1  1  0.000000  0.000000  0.000000  1
  Li  Li2  1  0.500000  0.500000  0.500000  1
  Yb  Yb3  1  0.000000  0.000000  0.754242  1
  Yb  Yb4  1  0.500000  0.500000  0.247637  1
  Yb  Yb5  1  0.000000  0.000000  0.245758  1
  Yb  Yb6  1  0.500000  0.500000  0.752363  1
  Yb  Yb7  1  0.173725  0.656805  0.108065  1
  Yb  Yb8  1  0.664045  0.163812  0.613088  1
  Yb  Yb9  1  0.826275  0.343195  0.108065  1
  Yb  Yb10  1  0.335955  0.836188  0.613088  1
  Yb  Yb11  1  0.343195  0.173725  0.108065  1
  Yb  Yb12  1  0.836188  0.664045  0.613088  1
  Yb  Yb13  1  0.656805  0.826275  0.108065  1
  Yb  Yb14  1  0.163812  0.335955  0.613088  1
  Yb  Yb15  1  0.343195  0.826275  0.891935  1
  Yb  Yb16  1  0.836188  0.335955  0.386912  1
  Yb  Yb17  1  0.656805  0.173725  0.891935  1
  Yb  Yb18  1  0.163812  0.664045  0.386912  1
  Yb  Yb19  1  0.173725  0.343195  0.891935  1
  Yb  Yb20  1  0.664045  0.836188  0.386912  1
  Yb  Yb21  1  0.826275  0.656805  0.891935  1
  Yb  Yb22  1  0.335955  0.163812  0.386912  1
  Ag  Ag23  1  0.630849  0.128998  0.248635  1
  Ag  Ag24  1  0.128998  0.630849  0.751365  1
  Ag  Ag25  1  0.871002  0.369151  0.751365  1
  Ag  Ag26  1  0.369151  0.871002  0.248635  1
  Ag  Ag27  1  0.369151  0.128998  0.751365  1
  Ag  Ag28  1  0.871002  0.630849  0.248635  1
  Ag  Ag29  1  0.128998  0.369151  0.248635  1
  Ag  Ag30  1  0.630849  0.871002  0.751365  1
  Ag  Ag31  1  0.500000  0.500000  0.000000  1
