# generated using pymatgen
data_Yb2Ta3Si7Pt9
_symmetry_space_group_name_H-M   'P 1'
_cell_length_a   9.89804100
_cell_length_b   9.89804179
_cell_length_c   3.99157800
_cell_angle_alpha   90.00000000
_cell_angle_beta   90.00000000
_cell_angle_gamma   120.00000739
_symmetry_Int_Tables_number   1
_chemical_formula_structural   Yb2Ta3Si7Pt9
_chemical_formula_sum   'Yb2 Ta3 Si7 Pt9'
_cell_volume   338.66767884
_cell_formula_units_Z   1
loop_
 _symmetry_equiv_pos_site_id
 _symmetry_equiv_pos_as_xyz
  1  'x, y, z'
loop_
 _atom_site_type_symbol
 _atom_site_label
 _atom_site_symmetry_multiplicity
 _atom_site_fract_x
 _atom_site_fract_y
 _atom_site_fract_z
 _atom_site_occupancy
  Yb  Yb0  1  0.000000  0.000000  0.000000  1
  Yb  Yb1  1  0.333333  0.666667  0.500000  1
  Ta  Ta2  1  0.882851  0.456124  0.500000  1
  Ta  Ta3  1  0.573272  0.117149  0.500000  1
  Ta  Ta4  1  0.543876  0.426728  0.500000  1
  Si  Si5  1  0.253545  0.209245  0.500000  1
  Si  Si6  1  0.790755  0.044301  0.500000  1
  Si  Si7  1  0.955699  0.746455  0.500000  1
  Si  Si8  1  0.551320  0.636624  0.000000  1
  Si  Si9  1  0.363376  0.914695  0.000000  1
  Si  Si10  1  0.085305  0.448680  0.000000  1
  Si  Si11  1  0.666667  0.333333  0.000000  1
  Pt  Pt12  1  0.226106  0.942807  0.500000  1
  Pt  Pt13  1  0.057193  0.283300  0.500000  1
  Pt  Pt14  1  0.716700  0.773894  0.500000  1
  Pt  Pt15  1  0.305107  0.406370  0.000000  1
  Pt  Pt16  1  0.593630  0.898738  0.000000  1
  Pt  Pt17  1  0.101262  0.694893  0.000000  1
  Pt  Pt18  1  0.388684  0.172662  0.000000  1
  Pt  Pt19  1  0.827338  0.216022  0.000000  1
  Pt  Pt20  1  0.783978  0.611316  0.000000  1
