# generated using pymatgen
data_Sc7Mn(Si4Ru3)4
_symmetry_space_group_name_H-M   'P 1'
_cell_length_a   9.87527813
_cell_length_b   9.88905058
_cell_length_c   13.33437400
_cell_angle_alpha   53.93021572
_cell_angle_beta   53.94121293
_cell_angle_gamma   31.19507430
_symmetry_Int_Tables_number   1
_chemical_formula_structural   Sc7Mn(Si4Ru3)4
_chemical_formula_sum   'Sc7 Mn1 Si16 Ru12'
_cell_volume   533.83235271
_cell_formula_units_Z   1
loop_
 _symmetry_equiv_pos_site_id
 _symmetry_equiv_pos_as_xyz
  1  'x, y, z'
loop_
 _atom_site_type_symbol
 _atom_site_label
 _atom_site_symmetry_multiplicity
 _atom_site_fract_x
 _atom_site_fract_y
 _atom_site_fract_z
 _atom_site_occupancy
  Sc  Sc0  1  0.294438  0.560509  0.645304  1
  Sc  Sc1  1  0.439338  0.706448  0.855963  1
  Sc  Sc2  1  0.706828  0.440837  0.353780  1
  Sc  Sc3  1  0.559797  0.292445  0.145643  1
  Sc  Sc4  1  0.036072  0.294233  0.638970  1
  Sc  Sc5  1  0.709228  0.962870  0.860058  1
  Sc  Sc6  1  0.963924  0.707857  0.360533  1
  Mn  Mn7  1  0.309173  0.028620  0.128519  1
  Si  Si8  1  0.876288  0.126728  0.249332  1
  Si  Si9  1  0.126752  0.875451  0.749328  1
  Si  Si10  1  0.383561  0.620648  0.248981  1
  Si  Si11  1  0.615958  0.384542  0.749951  1
  Si  Si12  1  0.973468  0.253222  0.893605  1
  Si  Si13  1  0.747362  0.024769  0.607587  1
  Si  Si14  1  0.025435  0.744064  0.106463  1
  Si  Si15  1  0.252852  0.976391  0.390617  1
  Si  Si16  1  0.568936  0.080207  0.066580  1
  Si  Si17  1  0.922056  0.424473  0.432561  1
  Si  Si18  1  0.423262  0.918609  0.938670  1
  Si  Si19  1  0.080458  0.574624  0.568217  1
  Si  Si20  1  0.386519  0.141233  0.400161  1
  Si  Si21  1  0.857551  0.608809  0.100839  1
  Si  Si22  1  0.611425  0.860425  0.602235  1
  Si  Si23  1  0.142371  0.387280  0.900633  1
  Ru  Ru24  1  0.648968  0.831877  0.281217  1
  Ru  Ru25  1  0.166620  0.347324  0.215894  1
  Ru  Ru26  1  0.753847  0.487597  0.068746  1
  Ru  Ru27  1  0.829296  0.648600  0.784011  1
  Ru  Ru28  1  0.895845  0.143607  0.585749  1
  Ru  Ru29  1  0.853096  0.106109  0.914909  1
  Ru  Ru30  1  0.104129  0.858173  0.413832  1
  Ru  Ru31  1  0.140720  0.894105  0.087920  1
  Ru  Ru32  1  0.243527  0.516148  0.931581  1
  Ru  Ru33  1  0.492321  0.751676  0.567440  1
  Ru  Ru34  1  0.507332  0.250260  0.432419  1
  Ru  Ru35  1  0.351248  0.169228  0.721752  1
