# generated using pymatgen
data_Yb3LuAl3Os5
_symmetry_space_group_name_H-M   'P 1'
_cell_length_a   5.34033841
_cell_length_b   5.40449874
_cell_length_c   8.72761756
_cell_angle_alpha   89.99999691
_cell_angle_beta   90.26789643
_cell_angle_gamma   120.39820624
_symmetry_Int_Tables_number   1
_chemical_formula_structural   Yb3LuAl3Os5
_chemical_formula_sum   'Yb3 Lu1 Al3 Os5'
_cell_volume   217.26385877
_cell_formula_units_Z   1
loop_
 _symmetry_equiv_pos_site_id
 _symmetry_equiv_pos_as_xyz
  1  'x, y, z'
loop_
 _atom_site_type_symbol
 _atom_site_label
 _atom_site_symmetry_multiplicity
 _atom_site_fract_x
 _atom_site_fract_y
 _atom_site_fract_z
 _atom_site_occupancy
  Yb  Yb0  1  0.330265  0.665133  0.438079  1
  Yb  Yb1  1  0.668405  0.334202  0.554830  1
  Yb  Yb2  1  0.669750  0.334874  0.941602  1
  Lu  Lu3  1  0.334897  0.667449  0.069882  1
  Al  Al4  1  0.189740  0.341376  0.752237  1
  Al  Al5  1  0.189740  0.848364  0.752237  1
  Al  Al6  1  0.331020  0.165510  0.247616  1
  Os  Os7  1  0.833176  0.654334  0.247903  1
  Os  Os8  1  0.677972  0.838986  0.749787  1
  Os  Os9  1  0.975492  0.987746  0.994761  1
  Os  Os10  1  0.833176  0.178843  0.247903  1
  Os  Os11  1  0.966367  0.983184  0.503165  1
