# generated using pymatgen
data_HoLuRe8Si3P
_symmetry_space_group_name_H-M   'P 1'
_cell_length_a   7.40775193
_cell_length_b   7.40774987
_cell_length_c   4.08958200
_cell_angle_alpha   90.00000000
_cell_angle_beta   90.00000000
_cell_angle_gamma   90.55905871
_symmetry_Int_Tables_number   1
_chemical_formula_structural   HoLuRe8Si3P
_chemical_formula_sum   'Ho1 Lu1 Re8 Si3 P1'
_cell_volume   224.40420288
_cell_formula_units_Z   1
loop_
 _symmetry_equiv_pos_site_id
 _symmetry_equiv_pos_as_xyz
  1  'x, y, z'
loop_
 _atom_site_type_symbol
 _atom_site_label
 _atom_site_symmetry_multiplicity
 _atom_site_fract_x
 _atom_site_fract_y
 _atom_site_fract_z
 _atom_site_occupancy
  Ho  Ho0  1  0.998997  0.998997  0.500000  1
  Lu  Lu1  1  0.500023  0.500023  0.000000  1
  Re  Re2  1  0.657426  0.904534  0.000000  1
  Re  Re3  1  0.160823  0.589231  0.500000  1
  Re  Re4  1  0.094722  0.343632  0.000000  1
  Re  Re5  1  0.904534  0.657426  0.000000  1
  Re  Re6  1  0.415107  0.835577  0.500000  1
  Re  Re7  1  0.589231  0.160823  0.500000  1
  Re  Re8  1  0.343632  0.094722  0.000000  1
  Re  Re9  1  0.835577  0.415107  0.500000  1
  Si  Si10  1  0.210333  0.790160  0.000000  1
  Si  Si11  1  0.790160  0.210333  0.000000  1
  Si  Si12  1  0.293471  0.293471  0.500000  1
  P  P13  1  0.705965  0.705965  0.500000  1
