# generated using pymatgen
data_Ta8Be3Si3W2
_symmetry_space_group_name_H-M   'P 1'
_cell_length_a   7.43363451
_cell_length_b   7.41659315
_cell_length_c   6.36928054
_cell_angle_alpha   64.74071226
_cell_angle_beta   64.46375804
_cell_angle_gamma   50.79554806
_symmetry_Int_Tables_number   1
_chemical_formula_structural   Ta8Be3Si3W2
_chemical_formula_sum   'Ta8 Be3 Si3 W2'
_cell_volume   239.47741365
_cell_formula_units_Z   1
loop_
 _symmetry_equiv_pos_site_id
 _symmetry_equiv_pos_as_xyz
  1  'x, y, z'
loop_
 _atom_site_type_symbol
 _atom_site_label
 _atom_site_symmetry_multiplicity
 _atom_site_fract_x
 _atom_site_fract_y
 _atom_site_fract_z
 _atom_site_occupancy
  Ta  Ta0  1  0.522604  0.189216  0.469206  1
  Ta  Ta1  1  0.181025  0.530794  0.810784  1
  Ta  Ta2  1  0.027291  0.689894  0.310106  1
  Ta  Ta3  1  0.693272  0.014548  0.985452  1
  Ta  Ta4  1  0.469206  0.818975  0.522604  1
  Ta  Ta5  1  0.810784  0.477396  0.181025  1
  Ta  Ta6  1  0.985452  0.306728  0.693272  1
  Ta  Ta7  1  0.310106  0.972709  0.027291  1
  Be  Be8  1  0.878105  0.121895  0.123550  1
  Be  Be9  1  0.123550  0.876450  0.878105  1
  Be  Be10  1  0.374461  0.625539  0.374461  1
  Si  Si11  1  0.625241  0.374759  0.625241  1
  Si  Si12  1  0.247373  0.252627  0.247373  1
  Si  Si13  1  0.747373  0.752627  0.747373  1
  W  W14  1  0.499441  0.500559  0.004718  1
  W  W15  1  0.004718  0.995282  0.499441  1
