# generated using pymatgen
data_Cr(Ga4Ir)3
_symmetry_space_group_name_H-M   'P 1'
_cell_length_a   6.52740438
_cell_length_b   6.52740438
_cell_length_c   6.79514600
_cell_angle_alpha   90.00000000
_cell_angle_beta   90.00000000
_cell_angle_gamma   90.61293411
_symmetry_Int_Tables_number   1
_chemical_formula_structural   Cr(Ga4Ir)3
_chemical_formula_sum   'Cr1 Ga12 Ir3'
_cell_volume   289.50427276
_cell_formula_units_Z   1
loop_
 _symmetry_equiv_pos_site_id
 _symmetry_equiv_pos_as_xyz
  1  'x, y, z'
loop_
 _atom_site_type_symbol
 _atom_site_label
 _atom_site_symmetry_multiplicity
 _atom_site_fract_x
 _atom_site_fract_y
 _atom_site_fract_z
 _atom_site_occupancy
  Cr  Cr0  1  0.153899  0.846101  0.500000  1
  Ga  Ga1  1  0.006619  0.508148  0.500000  1
  Ga  Ga2  1  0.507706  0.005051  0.000000  1
  Ga  Ga3  1  0.491852  0.993381  0.500000  1
  Ga  Ga4  1  0.994949  0.492294  0.000000  1
  Ga  Ga5  1  0.343296  0.656704  0.248060  1
  Ga  Ga6  1  0.650670  0.349330  0.235574  1
  Ga  Ga7  1  0.160565  0.145376  0.729975  1
  Ga  Ga8  1  0.854624  0.839435  0.729975  1
  Ga  Ga9  1  0.650670  0.349330  0.764426  1
  Ga  Ga10  1  0.343296  0.656704  0.751940  1
  Ga  Ga11  1  0.854624  0.839435  0.270025  1
  Ga  Ga12  1  0.160565  0.145376  0.270025  1
  Ir  Ir13  1  0.833172  0.166828  0.500000  1
  Ir  Ir14  1  0.334738  0.341246  0.000000  1
  Ir  Ir15  1  0.658754  0.665262  0.000000  1
