# generated using pymatgen
data_Tb8Hf11Si16Tc
_symmetry_space_group_name_H-M   'P 1'
_cell_length_a   7.26172972
_cell_length_b   7.26172972
_cell_length_c   13.30976913
_cell_angle_alpha   89.95417685
_cell_angle_beta   90.04582315
_cell_angle_gamma   90.02254329
_symmetry_Int_Tables_number   1
_chemical_formula_structural   Tb8Hf11Si16Tc
_chemical_formula_sum   'Tb8 Hf11 Si16 Tc1'
_cell_volume   701.85980617
_cell_formula_units_Z   1
loop_
 _symmetry_equiv_pos_site_id
 _symmetry_equiv_pos_as_xyz
  1  'x, y, z'
loop_
 _atom_site_type_symbol
 _atom_site_label
 _atom_site_symmetry_multiplicity
 _atom_site_fract_x
 _atom_site_fract_y
 _atom_site_fract_z
 _atom_site_occupancy
  Tb  Tb0  1  0.999036  0.342429  0.212314  1
  Tb  Tb1  1  0.004303  0.656173  0.716879  1
  Tb  Tb2  1  0.156630  0.495402  0.465506  1
  Tb  Tb3  1  0.501188  0.845525  0.033711  1
  Tb  Tb4  1  0.845525  0.501188  0.966289  1
  Tb  Tb5  1  0.495402  0.156630  0.534494  1
  Tb  Tb6  1  0.342429  0.999036  0.787686  1
  Tb  Tb7  1  0.656173  0.004303  0.283121  1
  Hf  Hf8  1  0.825339  0.825339  0.500000  1
  Hf  Hf9  1  0.324350  0.674393  0.248700  1
  Hf  Hf10  1  0.674393  0.324350  0.751300  1
  Hf  Hf11  1  0.148673  0.997072  0.373264  1
  Hf  Hf12  1  0.853142  0.005031  0.877497  1
  Hf  Hf13  1  0.503639  0.648197  0.625017  1
  Hf  Hf14  1  0.349622  0.493925  0.877173  1
  Hf  Hf15  1  0.493925  0.349622  0.122827  1
  Hf  Hf16  1  0.648197  0.503639  0.374983  1
  Hf  Hf17  1  0.997072  0.148673  0.626736  1
  Hf  Hf18  1  0.005031  0.853142  0.122503  1
  Si  Si19  1  0.362240  0.294899  0.316157  1
  Si  Si20  1  0.636883  0.705130  0.817953  1
  Si  Si21  1  0.205387  0.862671  0.567339  1
  Si  Si22  1  0.136640  0.795622  0.932587  1
  Si  Si23  1  0.795622  0.136640  0.067413  1
  Si  Si24  1  0.862671  0.205387  0.432661  1
  Si  Si25  1  0.294899  0.362240  0.683843  1
  Si  Si26  1  0.705130  0.636883  0.182047  1
  Si  Si27  1  0.293805  0.052330  0.182103  1
  Si  Si28  1  0.704230  0.951705  0.685771  1
  Si  Si29  1  0.450339  0.795900  0.435049  1
  Si  Si30  1  0.205179  0.547759  0.064501  1
  Si  Si31  1  0.547759  0.205179  0.935499  1
  Si  Si32  1  0.795900  0.450339  0.564951  1
  Si  Si33  1  0.052330  0.293805  0.817897  1
  Si  Si34  1  0.951705  0.704230  0.314229  1
  Tc  Tc35  1  0.175213  0.175213  0.000000  1
