# generated using pymatgen
data_La2B6(IrRh2)3
_symmetry_space_group_name_H-M   'P 1'
_cell_length_a   5.70426500
_cell_length_b   5.70426577
_cell_length_c   8.59826000
_cell_angle_alpha   90.00000000
_cell_angle_beta   90.00000000
_cell_angle_gamma   120.00000134
_symmetry_Int_Tables_number   1
_chemical_formula_structural   La2B6(IrRh2)3
_chemical_formula_sum   'La2 B6 Ir3 Rh6'
_cell_volume   242.29287550
_cell_formula_units_Z   1
loop_
 _symmetry_equiv_pos_site_id
 _symmetry_equiv_pos_as_xyz
  1  'x, y, z'
loop_
 _atom_site_type_symbol
 _atom_site_label
 _atom_site_symmetry_multiplicity
 _atom_site_fract_x
 _atom_site_fract_y
 _atom_site_fract_z
 _atom_site_occupancy
  La  La0  1  0.000000  0.000000  0.708967  1
  La  La1  1  0.000000  0.000000  0.291033  1
  B  B2  1  0.666667  0.333333  0.000000  1
  B  B3  1  0.333333  0.666667  0.000000  1
  B  B4  1  0.666667  0.333333  0.666978  1
  B  B5  1  0.333333  0.666667  0.666978  1
  B  B6  1  0.333333  0.666667  0.333022  1
  B  B7  1  0.666667  0.333333  0.333022  1
  Ir  Ir8  1  0.500000  0.500000  0.500000  1
  Ir  Ir9  1  0.500000  0.000000  0.500000  1
  Ir  Ir10  1  0.000000  0.500000  0.500000  1
  Rh  Rh11  1  0.500000  0.500000  0.837402  1
  Rh  Rh12  1  0.500000  0.000000  0.837402  1
  Rh  Rh13  1  0.000000  0.500000  0.837402  1
  Rh  Rh14  1  0.500000  0.500000  0.162598  1
  Rh  Rh15  1  0.500000  0.000000  0.162598  1
  Rh  Rh16  1  0.000000  0.500000  0.162598  1
