# generated using pymatgen
data_Yb2Tm3Pa3(Pt2Pb)4
_symmetry_space_group_name_H-M   'P 1'
_cell_length_a   7.95495520
_cell_length_b   7.95495470
_cell_length_c   7.15144800
_cell_angle_alpha   90.00000000
_cell_angle_beta   90.00000000
_cell_angle_gamma   91.11294218
_symmetry_Int_Tables_number   1
_chemical_formula_structural   Yb2Tm3Pa3(Pt2Pb)4
_chemical_formula_sum   'Yb2 Tm3 Pa3 Pt8 Pb4'
_cell_volume   452.46761101
_cell_formula_units_Z   1
loop_
 _symmetry_equiv_pos_site_id
 _symmetry_equiv_pos_as_xyz
  1  'x, y, z'
loop_
 _atom_site_type_symbol
 _atom_site_label
 _atom_site_symmetry_multiplicity
 _atom_site_fract_x
 _atom_site_fract_y
 _atom_site_fract_z
 _atom_site_occupancy
  Yb  Yb0  1  0.176181  0.823819  0.500000  1
  Yb  Yb1  1  0.158178  0.841822  0.000000  1
  Tm  Tm2  1  0.341405  0.344994  0.500000  1
  Tm  Tm3  1  0.655006  0.658595  0.500000  1
  Tm  Tm4  1  0.842578  0.157422  0.000000  1
  Pa  Pa5  1  0.678828  0.676414  0.000000  1
  Pa  Pa6  1  0.826823  0.173177  0.500000  1
  Pa  Pa7  1  0.323586  0.321172  0.000000  1
  Pt  Pt8  1  0.862226  0.874140  0.734362  1
  Pt  Pt9  1  0.125860  0.137774  0.734362  1
  Pt  Pt10  1  0.634200  0.365800  0.767674  1
  Pt  Pt11  1  0.634200  0.365800  0.232326  1
  Pt  Pt12  1  0.381394  0.618606  0.222479  1
  Pt  Pt13  1  0.125860  0.137774  0.265638  1
  Pt  Pt14  1  0.862226  0.874140  0.265638  1
  Pt  Pt15  1  0.381394  0.618606  0.777521  1
  Pb  Pb16  1  0.491501  0.996473  0.746067  1
  Pb  Pb17  1  0.491501  0.996473  0.253933  1
  Pb  Pb18  1  0.003527  0.508499  0.746067  1
  Pb  Pb19  1  0.003527  0.508499  0.253933  1
