# generated using pymatgen
data_LiSc4Pt11
_symmetry_space_group_name_H-M   'P 1'
_cell_length_a   4.03124100
_cell_length_b   5.63469641
_cell_length_c   11.29843108
_cell_angle_alpha   89.28104584
_cell_angle_beta   90.00000000
_cell_angle_gamma   90.00000000
_symmetry_Int_Tables_number   1
_chemical_formula_structural   LiSc4Pt11
_chemical_formula_sum   'Li1 Sc4 Pt11'
_cell_volume   256.62161437
_cell_formula_units_Z   1
loop_
 _symmetry_equiv_pos_site_id
 _symmetry_equiv_pos_as_xyz
  1  'x, y, z'
loop_
 _atom_site_type_symbol
 _atom_site_label
 _atom_site_symmetry_multiplicity
 _atom_site_fract_x
 _atom_site_fract_y
 _atom_site_fract_z
 _atom_site_occupancy
  Li  Li0  1  0.000000  0.000000  0.000000  1
  Sc  Sc1  1  0.500000  0.754191  0.373060  1
  Sc  Sc2  1  0.500000  0.732559  0.871282  1
  Sc  Sc3  1  0.500000  0.267441  0.128718  1
  Sc  Sc4  1  0.500000  0.245809  0.626940  1
  Pt  Pt5  1  0.000000  0.009218  0.244131  1
  Pt  Pt6  1  0.000000  0.990782  0.755869  1
  Pt  Pt7  1  0.000000  0.500000  0.000000  1
  Pt  Pt8  1  0.000000  0.500000  0.500000  1
  Pt  Pt9  1  0.000000  0.510297  0.247949  1
  Pt  Pt10  1  0.000000  0.489703  0.752051  1
  Pt  Pt11  1  0.500000  0.250250  0.375244  1
  Pt  Pt12  1  0.500000  0.231194  0.882259  1
  Pt  Pt13  1  0.500000  0.768806  0.117741  1
  Pt  Pt14  1  0.500000  0.749750  0.624756  1
  Pt  Pt15  1  0.000000  0.000000  0.500000  1
