# generated using pymatgen
data_K4YUS6
_symmetry_space_group_name_H-M   'P 1'
_cell_length_a   7.15522250
_cell_length_b   7.15522411
_cell_length_c   7.67031200
_cell_angle_alpha   80.88859297
_cell_angle_beta   80.88859089
_cell_angle_gamma   120.00879335
_symmetry_Int_Tables_number   1
_chemical_formula_structural   K4YUS6
_chemical_formula_sum   'K4 Y1 U1 S6'
_cell_volume   322.54686214
_cell_formula_units_Z   1
loop_
 _symmetry_equiv_pos_site_id
 _symmetry_equiv_pos_as_xyz
  1  'x, y, z'
loop_
 _atom_site_type_symbol
 _atom_site_label
 _atom_site_symmetry_multiplicity
 _atom_site_fract_x
 _atom_site_fract_y
 _atom_site_fract_z
 _atom_site_occupancy
  K  K0  1  0.500060  0.499940  0.000000  1
  K  K1  1  0.655881  0.344119  0.500000  1
  K  K2  1  0.344438  0.655562  0.500000  1
  K  K3  1  0.999698  0.000302  0.500000  1
  Y  Y4  1  0.832515  0.167485  0.000000  1
  U  U5  1  0.167458  0.832542  0.000000  1
  S  S6  1  0.809908  0.797397  0.205090  1
  S  S7  1  0.202603  0.190092  0.794910  1
  S  S8  1  0.416163  0.048054  0.206986  1
  S  S9  1  0.557649  0.938321  0.792105  1
  S  S10  1  0.951946  0.583837  0.793014  1
  S  S11  1  0.061679  0.442351  0.207895  1
