# generated using pymatgen
data_Yb2GaPd5
_symmetry_space_group_name_H-M   'P 1'
_cell_length_a   4.17865900
_cell_length_b   5.73242900
_cell_length_c   11.26497500
_cell_angle_alpha   90.00000000
_cell_angle_beta   90.00000000
_cell_angle_gamma   90.00000000
_symmetry_Int_Tables_number   1
_chemical_formula_structural   Yb2GaPd5
_chemical_formula_sum   'Yb4 Ga2 Pd10'
_cell_volume   269.83970201
_cell_formula_units_Z   2
loop_
 _symmetry_equiv_pos_site_id
 _symmetry_equiv_pos_as_xyz
  1  'x, y, z'
loop_
 _atom_site_type_symbol
 _atom_site_label
 _atom_site_symmetry_multiplicity
 _atom_site_fract_x
 _atom_site_fract_y
 _atom_site_fract_z
 _atom_site_occupancy
  Yb  Yb0  1  0.000000  0.810265  0.639073  1
  Yb  Yb1  1  0.000000  0.310265  0.860927  1
  Yb  Yb2  1  0.000000  0.189735  0.360927  1
  Yb  Yb3  1  0.000000  0.689735  0.139073  1
  Ga  Ga4  1  0.500000  0.500000  0.500000  1
  Ga  Ga5  1  0.500000  0.000000  0.000000  1
  Pd  Pd6  1  0.000000  0.808860  0.893365  1
  Pd  Pd7  1  0.000000  0.691140  0.393365  1
  Pd  Pd8  1  0.000000  0.308860  0.606635  1
  Pd  Pd9  1  0.500000  0.944276  0.242388  1
  Pd  Pd10  1  0.500000  0.444276  0.257612  1
  Pd  Pd11  1  0.500000  0.555724  0.742388  1
  Pd  Pd12  1  0.500000  0.055724  0.757612  1
  Pd  Pd13  1  0.500000  0.500000  0.000000  1
  Pd  Pd14  1  0.500000  0.000000  0.500000  1
  Pd  Pd15  1  0.000000  0.191140  0.106635  1
