# generated using pymatgen
data_Tb8CSBr12
_symmetry_space_group_name_H-M   'P 1'
_cell_length_a   3.95305000
_cell_length_b   12.99689003
_cell_length_c   13.72881851
_cell_angle_alpha   90.41530614
_cell_angle_beta   90.00000000
_cell_angle_gamma   90.00000000
_symmetry_Int_Tables_number   1
_chemical_formula_structural   Tb8CSBr12
_chemical_formula_sum   'Tb8 C1 S1 Br12'
_cell_volume   705.33186837
_cell_formula_units_Z   1
loop_
 _symmetry_equiv_pos_site_id
 _symmetry_equiv_pos_as_xyz
  1  'x, y, z'
loop_
 _atom_site_type_symbol
 _atom_site_label
 _atom_site_symmetry_multiplicity
 _atom_site_fract_x
 _atom_site_fract_y
 _atom_site_fract_z
 _atom_site_occupancy
  Tb  Tb0  1  0.500000  0.109680  0.354376  1
  Tb  Tb1  1  0.500000  0.890320  0.645624  1
  Tb  Tb2  1  0.500000  0.618367  0.157024  1
  Tb  Tb3  1  0.500000  0.381633  0.842976  1
  Tb  Tb4  1  0.000000  0.104486  0.570618  1
  Tb  Tb5  1  0.000000  0.895514  0.429382  1
  Tb  Tb6  1  0.000000  0.614081  0.923485  1
  Tb  Tb7  1  0.000000  0.385919  0.076515  1
  C  C8  1  0.500000  0.000000  0.500000  1
  S  S9  1  0.500000  0.500000  0.000000  1
  Br  Br10  1  0.500000  0.246984  0.163763  1
  Br  Br11  1  0.500000  0.753016  0.836237  1
  Br  Br12  1  0.500000  0.748898  0.337486  1
  Br  Br13  1  0.500000  0.251102  0.662514  1
  Br  Br14  1  0.000000  0.256977  0.416543  1
  Br  Br15  1  0.000000  0.743023  0.583457  1
  Br  Br16  1  0.000000  0.759825  0.086319  1
  Br  Br17  1  0.000000  0.240175  0.913681  1
  Br  Br18  1  0.000000  0.999473  0.242405  1
  Br  Br19  1  0.000000  0.000527  0.757595  1
  Br  Br20  1  0.000000  0.501244  0.260521  1
  Br  Br21  1  0.000000  0.498756  0.739479  1
