# generated using pymatgen
data_Ti(Mn6Al)4
_symmetry_space_group_name_H-M   'P 1'
_cell_length_a   7.57937779
_cell_length_b   7.57937768
_cell_length_c   7.57937800
_cell_angle_alpha   109.47121881
_cell_angle_beta   109.47121853
_cell_angle_gamma   109.47122302
_symmetry_Int_Tables_number   1
_chemical_formula_structural   Ti(Mn6Al)4
_chemical_formula_sum   'Ti1 Mn24 Al4'
_cell_volume   335.18053321
_cell_formula_units_Z   1
loop_
 _symmetry_equiv_pos_site_id
 _symmetry_equiv_pos_as_xyz
  1  'x, y, z'
loop_
 _atom_site_type_symbol
 _atom_site_label
 _atom_site_symmetry_multiplicity
 _atom_site_fract_x
 _atom_site_fract_y
 _atom_site_fract_z
 _atom_site_occupancy
  Ti  Ti0  1  0.000000  0.000000  0.000000  1
  Mn  Mn1  1  0.384755  0.675182  0.000000  1
  Mn  Mn2  1  0.709573  0.324818  0.324818  1
  Mn  Mn3  1  0.384755  0.000000  0.675182  1
  Mn  Mn4  1  0.675182  0.384755  0.000000  1
  Mn  Mn5  1  0.000000  0.384755  0.675182  1
  Mn  Mn6  1  0.324818  0.709573  0.324818  1
  Mn  Mn7  1  0.324818  0.324818  0.709573  1
  Mn  Mn8  1  0.000000  0.675182  0.384755  1
  Mn  Mn9  1  0.675182  0.000000  0.384755  1
  Mn  Mn10  1  0.615245  0.615245  0.290427  1
  Mn  Mn11  1  0.290427  0.615245  0.615245  1
  Mn  Mn12  1  0.615245  0.290427  0.615245  1
  Mn  Mn13  1  0.372830  0.193589  0.000000  1
  Mn  Mn14  1  0.179241  0.806411  0.806411  1
  Mn  Mn15  1  0.372830  0.000000  0.193589  1
  Mn  Mn16  1  0.193589  0.372830  0.000000  1
  Mn  Mn17  1  0.000000  0.372830  0.193589  1
  Mn  Mn18  1  0.806411  0.179241  0.806411  1
  Mn  Mn19  1  0.806411  0.806411  0.179241  1
  Mn  Mn20  1  0.000000  0.193589  0.372830  1
  Mn  Mn21  1  0.193589  0.000000  0.372830  1
  Mn  Mn22  1  0.627170  0.627170  0.820759  1
  Mn  Mn23  1  0.820759  0.627170  0.627170  1
  Mn  Mn24  1  0.627170  0.820759  0.627170  1
  Al  Al25  1  0.630654  0.000000  0.000000  1
  Al  Al26  1  0.000000  0.630654  0.000000  1
  Al  Al27  1  0.000000  0.000000  0.630654  1
  Al  Al28  1  0.369346  0.369346  0.369346  1
