# generated using pymatgen
data_RbPrVN3
_symmetry_space_group_name_H-M   'P 1'
_cell_length_a   6.39262223
_cell_length_b   6.39262151
_cell_length_c   12.29845800
_cell_angle_alpha   90.00000000
_cell_angle_beta   90.00000000
_cell_angle_gamma   125.89317118
_symmetry_Int_Tables_number   1
_chemical_formula_structural   RbPrVN3
_chemical_formula_sum   'Rb4 Pr4 V4 N12'
_cell_volume   407.14912315
_cell_formula_units_Z   4
loop_
 _symmetry_equiv_pos_site_id
 _symmetry_equiv_pos_as_xyz
  1  'x, y, z'
loop_
 _atom_site_type_symbol
 _atom_site_label
 _atom_site_symmetry_multiplicity
 _atom_site_fract_x
 _atom_site_fract_y
 _atom_site_fract_z
 _atom_site_occupancy
  Rb  Rb0  1  0.465165  0.534835  0.645634  1
  Rb  Rb1  1  0.534835  0.465165  0.354366  1
  Rb  Rb2  1  0.034835  0.965165  0.145634  1
  Rb  Rb3  1  0.965165  0.034835  0.854366  1
  Pr  Pr4  1  0.853046  0.146954  0.416636  1
  Pr  Pr5  1  0.353046  0.646954  0.083364  1
  Pr  Pr6  1  0.646954  0.353046  0.916636  1
  Pr  Pr7  1  0.146954  0.853046  0.583364  1
  V  V8  1  0.776384  0.223616  0.662038  1
  V  V9  1  0.723616  0.276384  0.162038  1
  V  V10  1  0.223616  0.776384  0.337962  1
  V  V11  1  0.276384  0.723616  0.837962  1
  N  N12  1  0.982461  0.517539  0.750000  1
  N  N13  1  0.517539  0.982461  0.250000  1
  N  N14  1  0.017539  0.482461  0.250000  1
  N  N15  1  0.482461  0.017539  0.750000  1
  N  N16  1  0.424471  0.575529  0.887283  1
  N  N17  1  0.575529  0.424471  0.112717  1
  N  N18  1  0.075529  0.924471  0.387283  1
  N  N19  1  0.689594  0.310406  0.544337  1
  N  N20  1  0.189594  0.810406  0.955663  1
  N  N21  1  0.810406  0.189594  0.044337  1
  N  N22  1  0.310406  0.689594  0.455663  1
  N  N23  1  0.924471  0.075529  0.612717  1
