# generated using pymatgen
data_Th3Zn3CoCu2
_symmetry_space_group_name_H-M   'P 1'
_cell_length_a   7.25495900
_cell_length_b   7.25495893
_cell_length_c   3.91461300
_cell_angle_alpha   90.00000000
_cell_angle_beta   90.00000000
_cell_angle_gamma   119.99999578
_symmetry_Int_Tables_number   1
_chemical_formula_structural   Th3Zn3CoCu2
_chemical_formula_sum   'Th3 Zn3 Co1 Cu2'
_cell_volume   178.43884547
_cell_formula_units_Z   1
loop_
 _symmetry_equiv_pos_site_id
 _symmetry_equiv_pos_as_xyz
  1  'x, y, z'
loop_
 _atom_site_type_symbol
 _atom_site_label
 _atom_site_symmetry_multiplicity
 _atom_site_fract_x
 _atom_site_fract_y
 _atom_site_fract_z
 _atom_site_occupancy
  Th  Th0  1  0.587043  0.014964  0.000000  1
  Th  Th1  1  0.985036  0.572079  0.000000  1
  Th  Th2  1  0.427921  0.412957  0.000000  1
  Zn  Zn3  1  0.235840  0.999754  0.500000  1
  Zn  Zn4  1  0.000246  0.236086  0.500000  1
  Zn  Zn5  1  0.763914  0.764160  0.500000  1
  Co  Co6  1  0.666667  0.333333  0.500000  1
  Cu  Cu7  1  0.333333  0.666667  0.500000  1
  Cu  Cu8  1  0.000000  0.000000  0.000000  1
