# generated using pymatgen
data_Yb2Pr3Sb3O14
_symmetry_space_group_name_H-M   'P 1'
_cell_length_a   7.57944262
_cell_length_b   7.57944567
_cell_length_c   7.57944500
_cell_angle_alpha   59.53084607
_cell_angle_beta   59.53093777
_cell_angle_gamma   59.53088619
_symmetry_Int_Tables_number   1
_chemical_formula_structural   Yb2Pr3Sb3O14
_chemical_formula_sum   'Yb2 Pr3 Sb3 O14'
_cell_volume   304.60687192
_cell_formula_units_Z   1
loop_
 _symmetry_equiv_pos_site_id
 _symmetry_equiv_pos_as_xyz
  1  'x, y, z'
loop_
 _atom_site_type_symbol
 _atom_site_label
 _atom_site_symmetry_multiplicity
 _atom_site_fract_x
 _atom_site_fract_y
 _atom_site_fract_z
 _atom_site_occupancy
  Yb  Yb0  1  0.999998  0.499996  0.000007  1
  Yb  Yb1  1  0.500000  0.000002  0.499999  1
  Pr  Pr2  1  0.999994  0.000001  0.500007  1
  Pr  Pr3  1  0.500016  0.000007  0.000008  1
  Pr  Pr4  1  0.499991  0.499986  0.499998  1
  Sb  Sb5  1  0.500000  0.499968  0.000032  1
  Sb  Sb6  1  0.000037  0.499985  0.499986  1
  Sb  Sb7  1  0.999956  0.000013  0.999993  1
  O  O8  1  0.620134  0.120135  0.620131  1
  O  O9  1  0.379869  0.879870  0.379866  1
  O  O10  1  0.090021  0.181118  0.681120  1
  O  O11  1  0.681126  0.181130  0.090008  1
  O  O12  1  0.681111  0.590040  0.681104  1
  O  O13  1  0.909973  0.818882  0.318883  1
  O  O14  1  0.318892  0.818895  0.909955  1
  O  O15  1  0.318875  0.409989  0.318868  1
  O  O16  1  0.633371  0.592630  0.092647  1
  O  O17  1  0.092645  0.592632  0.633371  1
  O  O18  1  0.092636  0.133378  0.092648  1
  O  O19  1  0.366629  0.407353  0.907370  1
  O  O20  1  0.907367  0.407354  0.366629  1
  O  O21  1  0.907359  0.866636  0.907369  1
