# generated using pymatgen
data_Tb5AuSe4
_symmetry_space_group_name_H-M   'P 1'
_cell_length_a   7.14017521
_cell_length_b   7.14018817
_cell_length_c   7.14016858
_cell_angle_alpha   99.71310475
_cell_angle_beta   99.71338308
_cell_angle_gamma   131.49585613
_symmetry_Int_Tables_number   1
_chemical_formula_structural   Tb5AuSe4
_chemical_formula_sum   'Tb5 Au1 Se4'
_cell_volume   248.59092555
_cell_formula_units_Z   1
loop_
 _symmetry_equiv_pos_site_id
 _symmetry_equiv_pos_as_xyz
  1  'x, y, z'
loop_
 _atom_site_type_symbol
 _atom_site_label
 _atom_site_symmetry_multiplicity
 _atom_site_fract_x
 _atom_site_fract_y
 _atom_site_fract_z
 _atom_site_occupancy
  Tb  Tb0  1  0.399509  0.797127  0.196638  1
  Tb  Tb1  1  0.000000  0.000000  0.000000  1
  Tb  Tb2  1  0.600491  0.202873  0.803362  1
  Tb  Tb3  1  0.202871  0.399509  0.602382  1
  Tb  Tb4  1  0.797129  0.600491  0.397618  1
  Au  Au5  1  0.500000  0.500000  0.000000  1
  Se  Se6  1  0.097095  0.697135  0.794227  1
  Se  Se7  1  0.697133  0.902906  0.600040  1
  Se  Se8  1  0.302867  0.097094  0.399960  1
  Se  Se9  1  0.902905  0.302865  0.205773  1
