# generated using pymatgen
data_Pr3In3SnPdRh
_symmetry_space_group_name_H-M   'P 1'
_cell_length_a   7.80198300
_cell_length_b   7.80198284
_cell_length_c   4.25855800
_cell_angle_alpha   90.00000000
_cell_angle_beta   90.00000000
_cell_angle_gamma   120.00000493
_symmetry_Int_Tables_number   1
_chemical_formula_structural   Pr3In3SnPdRh
_chemical_formula_sum   'Pr3 In3 Sn1 Pd1 Rh1'
_cell_volume   224.49318776
_cell_formula_units_Z   1
loop_
 _symmetry_equiv_pos_site_id
 _symmetry_equiv_pos_as_xyz
  1  'x, y, z'
loop_
 _atom_site_type_symbol
 _atom_site_label
 _atom_site_symmetry_multiplicity
 _atom_site_fract_x
 _atom_site_fract_y
 _atom_site_fract_z
 _atom_site_occupancy
  Pr  Pr0  1  0.978675  0.578244  0.500000  1
  Pr  Pr1  1  0.421756  0.400431  0.500000  1
  Pr  Pr2  1  0.599569  0.021325  0.500000  1
  In  In3  1  0.761028  0.746880  0.000000  1
  In  In4  1  0.985851  0.238972  0.000000  1
  In  In5  1  0.253120  0.014149  0.000000  1
  Sn  Sn6  1  0.333333  0.666667  0.000000  1
  Pd  Pd7  1  0.000000  0.000000  0.500000  1
  Rh  Rh8  1  0.666667  0.333333  0.000000  1
