# generated using pymatgen
data_Ag3MoClO4
_symmetry_space_group_name_H-M   'P 1'
_cell_length_a   7.66919300
_cell_length_b   7.66919300
_cell_length_c   5.49658400
_cell_angle_alpha   90.00000000
_cell_angle_beta   90.00000000
_cell_angle_gamma   90.00000000
_symmetry_Int_Tables_number   1
_chemical_formula_structural   Ag3MoClO4
_chemical_formula_sum   'Ag6 Mo2 Cl2 O8'
_cell_volume   323.28994976
_cell_formula_units_Z   2
loop_
 _symmetry_equiv_pos_site_id
 _symmetry_equiv_pos_as_xyz
  1  'x, y, z'
loop_
 _atom_site_type_symbol
 _atom_site_label
 _atom_site_symmetry_multiplicity
 _atom_site_fract_x
 _atom_site_fract_y
 _atom_site_fract_z
 _atom_site_occupancy
  Ag  Ag0  1  0.500000  0.000000  0.102278  1
  Ag  Ag1  1  0.750000  0.250000  0.500000  1
  Ag  Ag2  1  0.750000  0.750000  0.500000  1
  Ag  Ag3  1  0.000000  0.500000  0.897722  1
  Ag  Ag4  1  0.250000  0.750000  0.500000  1
  Ag  Ag5  1  0.250000  0.250000  0.500000  1
  Mo  Mo6  1  0.500000  0.500000  0.000000  1
  Mo  Mo7  1  0.000000  0.000000  0.000000  1
  Cl  Cl8  1  0.000000  0.500000  0.368317  1
  Cl  Cl9  1  0.500000  0.000000  0.631683  1
  O  O10  1  0.500000  0.311070  0.196883  1
  O  O11  1  0.188930  0.000000  0.196883  1
  O  O12  1  0.500000  0.688930  0.196883  1
  O  O13  1  0.811070  0.000000  0.196883  1
  O  O14  1  0.688930  0.500000  0.803117  1
  O  O15  1  0.000000  0.188930  0.803117  1
  O  O16  1  0.000000  0.811070  0.803117  1
  O  O17  1  0.311070  0.500000  0.803117  1
