# generated using pymatgen
data_ErTm9(Zn2Sb)2
_symmetry_space_group_name_H-M   'P 1'
_cell_length_a   8.46628835
_cell_length_b   8.46628879
_cell_length_c   8.46635637
_cell_angle_alpha   123.79117394
_cell_angle_beta   123.79119074
_cell_angle_gamma   83.53820172
_symmetry_Int_Tables_number   1
_chemical_formula_structural   ErTm9(Zn2Sb)2
_chemical_formula_sum   'Er1 Tm9 Zn4 Sb2'
_cell_volume   401.76721865
_cell_formula_units_Z   1
loop_
 _symmetry_equiv_pos_site_id
 _symmetry_equiv_pos_as_xyz
  1  'x, y, z'
loop_
 _atom_site_type_symbol
 _atom_site_label
 _atom_site_symmetry_multiplicity
 _atom_site_fract_x
 _atom_site_fract_y
 _atom_site_fract_z
 _atom_site_occupancy
  Er  Er0  1  0.799239  0.299239  0.809399  1
  Tm  Tm1  1  0.000060  0.999919  0.000088  1
  Tm  Tm2  1  0.499919  0.500060  0.000088  1
  Tm  Tm3  1  0.201213  0.701213  0.190957  1
  Tm  Tm4  1  0.489615  0.989615  0.190581  1
  Tm  Tm5  1  0.298872  0.489638  0.499926  1
  Tm  Tm6  1  0.010410  0.201123  0.499995  1
  Tm  Tm7  1  0.510293  0.010293  0.809251  1
  Tm  Tm8  1  0.701123  0.510410  0.499995  1
  Tm  Tm9  1  0.989638  0.798872  0.499926  1
  Zn  Zn10  1  0.135856  0.635856  0.771737  1
  Zn  Zn11  1  0.864165  0.364165  0.228447  1
  Zn  Zn12  1  0.635784  0.863834  0.499831  1
  Zn  Zn13  1  0.363834  0.135784  0.499831  1
  Sb  Sb14  1  0.250070  0.249911  0.999974  1
  Sb  Sb15  1  0.749911  0.750070  0.999974  1
