# generated using pymatgen
data_TbYRe2Si2B
_symmetry_space_group_name_H-M   'P 1'
_cell_length_a   5.78134374
_cell_length_b   5.78134268
_cell_length_c   6.92763411
_cell_angle_alpha   56.78464701
_cell_angle_beta   56.78465669
_cell_angle_gamma   41.08307236
_symmetry_Int_Tables_number   1
_chemical_formula_structural   TbYRe2Si2B
_chemical_formula_sum   'Tb1 Y1 Re2 Si2 B1'
_cell_volume   123.41116332
_cell_formula_units_Z   1
loop_
 _symmetry_equiv_pos_site_id
 _symmetry_equiv_pos_as_xyz
  1  'x, y, z'
loop_
 _atom_site_type_symbol
 _atom_site_label
 _atom_site_symmetry_multiplicity
 _atom_site_fract_x
 _atom_site_fract_y
 _atom_site_fract_z
 _atom_site_occupancy
  Tb  Tb0  1  0.423588  0.423588  0.304365  1
  Y  Y1  1  0.576440  0.576440  0.695703  1
  Re  Re2  1  0.783213  0.783213  0.091340  1
  Re  Re3  1  0.216876  0.216876  0.908559  1
  Si  Si4  1  0.862475  0.862475  0.673072  1
  Si  Si5  1  0.137436  0.137436  0.326983  1
  B  B6  1  0.999973  0.999973  0.999978  1
