# generated using pymatgen
data_Nd17Dy3Pb16
_symmetry_space_group_name_H-M   'P 1'
_cell_length_a   8.40022400
_cell_length_b   8.48862168
_cell_length_c   16.15042400
_cell_angle_alpha   90.00000000
_cell_angle_beta   90.00000000
_cell_angle_gamma   90.02299628
_symmetry_Int_Tables_number   1
_chemical_formula_structural   Nd17Dy3Pb16
_chemical_formula_sum   'Nd17 Dy3 Pb16'
_cell_volume   1151.62726717
_cell_formula_units_Z   1
loop_
 _symmetry_equiv_pos_site_id
 _symmetry_equiv_pos_as_xyz
  1  'x, y, z'
loop_
 _atom_site_type_symbol
 _atom_site_label
 _atom_site_symmetry_multiplicity
 _atom_site_fract_x
 _atom_site_fract_y
 _atom_site_fract_z
 _atom_site_occupancy
  Nd  Nd0  1  0.378821  0.841475  0.880899  1
  Nd  Nd1  1  0.877154  0.659509  0.619138  1
  Nd  Nd2  1  0.622162  0.158467  0.380241  1
  Nd  Nd3  1  0.122153  0.341432  0.120350  1
  Nd  Nd4  1  0.622162  0.158467  0.119759  1
  Nd  Nd5  1  0.122153  0.341432  0.379650  1
  Nd  Nd6  1  0.378821  0.841475  0.619101  1
  Nd  Nd7  1  0.877154  0.659509  0.880862  1
  Nd  Nd8  1  0.534637  0.321817  0.900033  1
  Nd  Nd9  1  0.033717  0.176337  0.600101  1
  Nd  Nd10  1  0.465614  0.677290  0.399081  1
  Nd  Nd11  1  0.965624  0.822621  0.100351  1
  Nd  Nd12  1  0.465614  0.677290  0.100919  1
  Nd  Nd13  1  0.965624  0.822621  0.399649  1
  Nd  Nd14  1  0.534637  0.321817  0.599967  1
  Nd  Nd15  1  0.033717  0.176337  0.899899  1
  Nd  Nd16  1  0.208290  0.503002  0.750000  1
  Dy  Dy17  1  0.709263  0.995601  0.750000  1
  Dy  Dy18  1  0.790615  0.496224  0.250000  1
  Dy  Dy19  1  0.290783  0.003731  0.250000  1
  Pb  Pb20  1  0.280976  0.031306  0.045577  1
  Pb  Pb21  1  0.781166  0.469155  0.454444  1
  Pb  Pb22  1  0.719029  0.969432  0.545074  1
  Pb  Pb23  1  0.218696  0.532143  0.956691  1
  Pb  Pb24  1  0.719029  0.969432  0.954926  1
  Pb  Pb25  1  0.218696  0.532143  0.543309  1
  Pb  Pb26  1  0.280976  0.031306  0.454423  1
  Pb  Pb27  1  0.781166  0.469155  0.045556  1
  Pb  Pb28  1  0.576194  0.625344  0.750000  1
  Pb  Pb29  1  0.072005  0.879178  0.750000  1
  Pb  Pb30  1  0.427877  0.376043  0.250000  1
  Pb  Pb31  1  0.927485  0.123553  0.250000  1
  Pb  Pb32  1  0.345362  0.148645  0.750000  1
  Pb  Pb33  1  0.841572  0.345869  0.750000  1
  Pb  Pb34  1  0.655660  0.846986  0.250000  1
  Pb  Pb35  1  0.155397  0.653851  0.250000  1
