# generated using pymatgen
data_RbTb3Te5
_symmetry_space_group_name_H-M   'P 1'
_cell_length_a   4.43175000
_cell_length_b   13.42941000
_cell_length_c   23.56737900
_cell_angle_alpha   90.00000000
_cell_angle_beta   90.00000000
_cell_angle_gamma   90.00000000
_symmetry_Int_Tables_number   1
_chemical_formula_structural   RbTb3Te5
_chemical_formula_sum   'Rb4 Tb12 Te20'
_cell_volume   1402.63112680
_cell_formula_units_Z   4
loop_
 _symmetry_equiv_pos_site_id
 _symmetry_equiv_pos_as_xyz
  1  'x, y, z'
loop_
 _atom_site_type_symbol
 _atom_site_label
 _atom_site_symmetry_multiplicity
 _atom_site_fract_x
 _atom_site_fract_y
 _atom_site_fract_z
 _atom_site_occupancy
  Rb  Rb0  1  0.250000  0.337256  0.099198  1
  Rb  Rb1  1  0.750000  0.662744  0.900802  1
  Rb  Rb2  1  0.750000  0.837256  0.400802  1
  Rb  Rb3  1  0.250000  0.162744  0.599198  1
  Tb  Tb4  1  0.250000  0.464418  0.701803  1
  Tb  Tb5  1  0.750000  0.535582  0.298197  1
  Tb  Tb6  1  0.750000  0.964418  0.798197  1
  Tb  Tb7  1  0.250000  0.035582  0.201803  1
  Tb  Tb8  1  0.250000  0.803589  0.669309  1
  Tb  Tb9  1  0.750000  0.196411  0.330691  1
  Tb  Tb10  1  0.750000  0.303589  0.830691  1
  Tb  Tb11  1  0.250000  0.696411  0.169309  1
  Tb  Tb12  1  0.250000  0.391086  0.445978  1
  Tb  Tb13  1  0.750000  0.608914  0.554022  1
  Tb  Tb14  1  0.750000  0.891086  0.054022  1
  Tb  Tb15  1  0.250000  0.108914  0.945978  1
  Te  Te16  1  0.250000  0.447142  0.571293  1
  Te  Te17  1  0.750000  0.552858  0.428707  1
  Te  Te18  1  0.750000  0.947142  0.928707  1
  Te  Te19  1  0.250000  0.052858  0.071293  1
  Te  Te20  1  0.250000  0.767644  0.540596  1
  Te  Te21  1  0.750000  0.232356  0.459404  1
  Te  Te22  1  0.750000  0.267644  0.959404  1
  Te  Te23  1  0.250000  0.732356  0.040596  1
  Te  Te24  1  0.250000  0.808995  0.799809  1
  Te  Te25  1  0.750000  0.191005  0.200191  1
  Te  Te26  1  0.750000  0.308995  0.700191  1
  Te  Te27  1  0.250000  0.691005  0.299809  1
  Te  Te28  1  0.250000  0.461037  0.832577  1
  Te  Te29  1  0.750000  0.538963  0.167423  1
  Te  Te30  1  0.750000  0.961037  0.667423  1
  Te  Te31  1  0.250000  0.038963  0.332577  1
  Te  Te32  1  0.250000  0.366297  0.313098  1
  Te  Te33  1  0.750000  0.633703  0.686902  1
  Te  Te34  1  0.750000  0.866297  0.186902  1
  Te  Te35  1  0.250000  0.133703  0.813098  1
