# generated using pymatgen
data_Pr2Sm3YCoI10
_symmetry_space_group_name_H-M   'P 1'
_cell_length_a   7.86766194
_cell_length_b   9.91040623
_cell_length_c   9.86581493
_cell_angle_alpha   106.95110264
_cell_angle_beta   96.15151860
_cell_angle_gamma   104.97362202
_symmetry_Int_Tables_number   1
_chemical_formula_structural   Pr2Sm3YCoI10
_chemical_formula_sum   'Pr2 Sm3 Y1 Co1 I10'
_cell_volume   696.84903878
_cell_formula_units_Z   1
loop_
 _symmetry_equiv_pos_site_id
 _symmetry_equiv_pos_as_xyz
  1  'x, y, z'
loop_
 _atom_site_type_symbol
 _atom_site_label
 _atom_site_symmetry_multiplicity
 _atom_site_fract_x
 _atom_site_fract_y
 _atom_site_fract_z
 _atom_site_occupancy
  Pr  Pr0  1  0.887430  0.958745  0.231993  1
  Pr  Pr1  1  0.115195  0.042269  0.769107  1
  Sm  Sm2  1  0.032738  0.716499  0.915509  1
  Sm  Sm3  1  0.969431  0.284080  0.085675  1
  Sm  Sm4  1  0.654988  0.876917  0.836694  1
  Y  Y5  1  0.341385  0.121760  0.161352  1
  Co  Co6  1  0.000421  0.000171  0.000032  1
  I  I7  1  0.652057  0.551790  0.730897  1
  I  I8  1  0.350874  0.444169  0.268970  1
  I  I9  1  0.740340  0.914100  0.543436  1
  I  I10  1  0.263523  0.087417  0.453811  1
  I  I11  1  0.084207  0.373655  0.820854  1
  I  I12  1  0.915866  0.626225  0.179485  1
  I  I13  1  0.450608  0.820028  0.093616  1
  I  I14  1  0.547896  0.184434  0.911771  1
  I  I15  1  0.226544  0.742158  0.656738  1
  I  I16  1  0.766496  0.255581  0.340059  1
