# generated using pymatgen
data_DyLu2MoO7
_symmetry_space_group_name_H-M   'P 1'
_cell_length_a   6.35634400
_cell_length_b   6.35634408
_cell_length_c   7.36511900
_cell_angle_alpha   90.00000000
_cell_angle_beta   90.00000000
_cell_angle_gamma   108.94514263
_symmetry_Int_Tables_number   1
_chemical_formula_structural   DyLu2MoO7
_chemical_formula_sum   'Dy2 Lu4 Mo2 O14'
_cell_volume   281.45409885
_cell_formula_units_Z   2
loop_
 _symmetry_equiv_pos_site_id
 _symmetry_equiv_pos_as_xyz
  1  'x, y, z'
loop_
 _atom_site_type_symbol
 _atom_site_label
 _atom_site_symmetry_multiplicity
 _atom_site_fract_x
 _atom_site_fract_y
 _atom_site_fract_z
 _atom_site_occupancy
  Dy  Dy0  1  0.519725  0.519725  0.500000  1
  Dy  Dy1  1  0.480275  0.480275  0.000000  1
  Lu  Lu2  1  0.997856  0.465466  0.746086  1
  Lu  Lu3  1  0.002144  0.534534  0.246086  1
  Lu  Lu4  1  0.534534  0.002144  0.753914  1
  Lu  Lu5  1  0.465466  0.997856  0.253914  1
  Mo  Mo6  1  0.001991  0.001991  0.500000  1
  Mo  Mo7  1  0.998009  0.998009  0.000000  1
  O  O8  1  0.640075  0.359925  0.750000  1
  O  O9  1  0.359925  0.640075  0.250000  1
  O  O10  1  0.921212  0.078788  0.750000  1
  O  O11  1  0.078788  0.921212  0.250000  1
  O  O12  1  0.920197  0.671238  0.528886  1
  O  O13  1  0.079803  0.328762  0.028886  1
  O  O14  1  0.328762  0.079803  0.971114  1
  O  O15  1  0.671238  0.920197  0.471114  1
  O  O16  1  0.364545  0.635455  0.750000  1
  O  O17  1  0.635455  0.364545  0.250000  1
  O  O18  1  0.933675  0.679035  0.963950  1
  O  O19  1  0.066325  0.320965  0.463950  1
  O  O20  1  0.320965  0.066325  0.536050  1
  O  O21  1  0.679035  0.933675  0.036050  1
