# generated using pymatgen
data_Na4Ga24Ir2Pt7
_symmetry_space_group_name_H-M   'P 1'
_cell_length_a   7.47255958
_cell_length_b   7.47168334
_cell_length_c   13.71155607
_cell_angle_alpha   84.48818647
_cell_angle_beta   100.75254477
_cell_angle_gamma   119.95993118
_symmetry_Int_Tables_number   1
_chemical_formula_structural   Na4Ga24Ir2Pt7
_chemical_formula_sum   'Na4 Ga24 Ir2 Pt7'
_cell_volume   651.60575729
_cell_formula_units_Z   1
loop_
 _symmetry_equiv_pos_site_id
 _symmetry_equiv_pos_as_xyz
  1  'x, y, z'
loop_
 _atom_site_type_symbol
 _atom_site_label
 _atom_site_symmetry_multiplicity
 _atom_site_fract_x
 _atom_site_fract_y
 _atom_site_fract_z
 _atom_site_occupancy
  Na  Na0  1  0.733289  0.000959  0.190949  1
  Na  Na1  1  0.267171  0.000335  0.809176  1
  Na  Na2  1  0.062773  0.668212  0.191161  1
  Na  Na3  1  0.935776  0.331238  0.808755  1
  Ga  Ga4  1  0.811361  0.875350  0.817772  1
  Ga  Ga5  1  0.188140  0.124955  0.182056  1
  Ga  Ga6  1  0.984217  0.670218  0.944742  1
  Ga  Ga7  1  0.022497  0.333992  0.052710  1
  Ga  Ga8  1  0.389819  0.661038  0.819803  1
  Ga  Ga9  1  0.606495  0.338727  0.181192  1
  Ga  Ga10  1  0.883559  0.666086  0.675260  1
  Ga  Ga11  1  0.117278  0.333820  0.323930  1
  Ga  Ga12  1  0.600043  0.452864  0.816873  1
  Ga  Ga13  1  0.399610  0.551013  0.182097  1
  Ga  Ga14  1  0.234652  0.341082  0.677163  1
  Ga  Ga15  1  0.765965  0.659154  0.323346  1
  Ga  Ga16  1  0.853457  0.332641  0.556271  1
  Ga  Ga17  1  0.184827  0.998936  0.556996  1
  Ga  Ga18  1  0.816000  0.001253  0.442981  1
  Ga  Ga19  1  0.347088  0.997151  0.055471  1
  Ga  Ga20  1  0.649141  0.995021  0.947133  1
  Ga  Ga21  1  0.560177  0.990208  0.680195  1
  Ga  Ga22  1  0.440574  0.008050  0.320555  1
  Ga  Ga23  1  0.520975  0.669250  0.557425  1
  Ga  Ga24  1  0.479160  0.329796  0.442725  1
  Ga  Ga25  1  0.682381  0.668614  0.052814  1
  Ga  Ga26  1  0.314086  0.334760  0.947012  1
  Ga  Ga27  1  0.147014  0.666946  0.443636  1
  Ir  Ir28  1  0.328698  0.673543  0.001178  1
  Ir  Ir29  1  0.000207  0.999719  0.999920  1
  Pt  Pt30  1  0.546802  0.323343  0.636423  1
  Pt  Pt31  1  0.453890  0.674894  0.364308  1
  Pt  Pt32  1  0.887260  0.007711  0.635477  1
  Pt  Pt33  1  0.113612  0.992284  0.364327  1
  Pt  Pt34  1  0.671068  0.327028  0.998690  1
  Pt  Pt35  1  0.203213  0.666853  0.636379  1
  Pt  Pt36  1  0.797723  0.332955  0.363099  1
