# generated using pymatgen
data_Ti3AlSiRhC
_symmetry_space_group_name_H-M   'P 1'
_cell_length_a   8.13438830
_cell_length_b   8.11435850
_cell_length_c   8.13438900
_cell_angle_alpha   59.91831226
_cell_angle_beta   60.00000122
_cell_angle_gamma   59.91831656
_symmetry_Int_Tables_number   1
_chemical_formula_structural   Ti3AlSiRhC
_chemical_formula_sum   'Ti12 Al4 Si4 Rh4 C4'
_cell_volume   379.18549533
_cell_formula_units_Z   4
loop_
 _symmetry_equiv_pos_site_id
 _symmetry_equiv_pos_as_xyz
  1  'x, y, z'
loop_
 _atom_site_type_symbol
 _atom_site_label
 _atom_site_symmetry_multiplicity
 _atom_site_fract_x
 _atom_site_fract_y
 _atom_site_fract_z
 _atom_site_occupancy
  Ti  Ti0  1  0.938529  0.939101  0.561185  1
  Ti  Ti1  1  0.687122  0.312982  0.312774  1
  Ti  Ti2  1  0.313276  0.682840  0.690608  1
  Ti  Ti3  1  0.690608  0.682840  0.313276  1
  Ti  Ti4  1  0.687122  0.312982  0.687122  1
  Ti  Ti5  1  0.313276  0.682840  0.313276  1
  Ti  Ti6  1  0.561185  0.939101  0.561185  1
  Ti  Ti7  1  0.561185  0.939101  0.938529  1
  Ti  Ti8  1  0.938918  0.557506  0.564658  1
  Ti  Ti9  1  0.938918  0.557506  0.938918  1
  Ti  Ti10  1  0.312774  0.312982  0.687122  1
  Ti  Ti11  1  0.564658  0.557506  0.938918  1
  Al  Al12  1  0.251772  0.914546  0.916842  1
  Al  Al13  1  0.916842  0.914546  0.916842  1
  Al  Al14  1  0.916842  0.914546  0.251772  1
  Al  Al15  1  0.334009  0.997973  0.334009  1
  Si  Si16  1  0.914451  0.256649  0.914451  1
  Si  Si17  1  0.340264  0.334318  0.985152  1
  Si  Si18  1  0.985152  0.334318  0.340264  1
  Si  Si19  1  0.340264  0.334318  0.340264  1
  Rh  Rh20  1  0.130613  0.608162  0.130613  1
  Rh  Rh21  1  0.121755  0.136588  0.619903  1
  Rh  Rh22  1  0.619903  0.136588  0.121755  1
  Rh  Rh23  1  0.121755  0.136588  0.121755  1
  C  C24  1  0.625300  0.124100  0.625300  1
  C  C25  1  0.624797  0.626491  0.123916  1
  C  C26  1  0.123916  0.626491  0.624797  1
  C  C27  1  0.624797  0.626491  0.624797  1
