# generated using pymatgen
data_PrAg2(SO4)4
_symmetry_space_group_name_H-M   'P 1'
_cell_length_a   6.48016262
_cell_length_b   6.48014486
_cell_length_c   8.89705646
_cell_angle_alpha   76.36219377
_cell_angle_beta   76.36226261
_cell_angle_gamma   89.41643588
_symmetry_Int_Tables_number   1
_chemical_formula_structural   PrAg2(SO4)4
_chemical_formula_sum   'Pr1 Ag2 S4 O16'
_cell_volume   352.43036848
_cell_formula_units_Z   1
loop_
 _symmetry_equiv_pos_site_id
 _symmetry_equiv_pos_as_xyz
  1  'x, y, z'
loop_
 _atom_site_type_symbol
 _atom_site_label
 _atom_site_symmetry_multiplicity
 _atom_site_fract_x
 _atom_site_fract_y
 _atom_site_fract_z
 _atom_site_occupancy
  Pr  Pr0  1  0.000000  0.000000  0.000000  1
  Ag  Ag1  1  0.000000  0.000000  0.500000  1
  Ag  Ag2  1  0.500000  0.500000  0.500000  1
  S  S3  1  0.081914  0.579954  0.740472  1
  S  S4  1  0.579953  0.081914  0.740473  1
  S  S5  1  0.918086  0.420046  0.259528  1
  S  S6  1  0.420047  0.918086  0.259527  1
  O  O7  1  0.322205  0.623534  0.680377  1
  O  O8  1  0.623532  0.322206  0.680379  1
  O  O9  1  0.677795  0.376466  0.319623  1
  O  O10  1  0.376468  0.677794  0.319621  1
  O  O11  1  0.020992  0.700348  0.864057  1
  O  O12  1  0.700346  0.020992  0.864059  1
  O  O13  1  0.979008  0.299652  0.135943  1
  O  O14  1  0.299654  0.979008  0.135941  1
  O  O15  1  0.977779  0.658838  0.606301  1
  O  O16  1  0.658839  0.977778  0.606303  1
  O  O17  1  0.022221  0.341162  0.393699  1
  O  O18  1  0.341161  0.022222  0.393697  1
  O  O19  1  0.031863  0.350389  0.801095  1
  O  O20  1  0.350387  0.031863  0.801096  1
  O  O21  1  0.968137  0.649611  0.198905  1
  O  O22  1  0.649613  0.968137  0.198904  1
