# generated using pymatgen
data_Zr8Nb12Si15P
_symmetry_space_group_name_H-M   'P 1'
_cell_length_a   6.89063026
_cell_length_b   6.88449706
_cell_length_c   12.77976742
_cell_angle_alpha   89.89624414
_cell_angle_beta   89.99356961
_cell_angle_gamma   89.96555959
_symmetry_Int_Tables_number   1
_chemical_formula_structural   Zr8Nb12Si15P
_chemical_formula_sum   'Zr8 Nb12 Si15 P1'
_cell_volume   606.25219304
_cell_formula_units_Z   1
loop_
 _symmetry_equiv_pos_site_id
 _symmetry_equiv_pos_as_xyz
  1  'x, y, z'
loop_
 _atom_site_type_symbol
 _atom_site_label
 _atom_site_symmetry_multiplicity
 _atom_site_fract_x
 _atom_site_fract_y
 _atom_site_fract_z
 _atom_site_occupancy
  Zr  Zr0  1  0.001775  0.338174  0.218857  1
  Zr  Zr1  1  0.999574  0.660582  0.718176  1
  Zr  Zr2  1  0.159944  0.502249  0.468648  1
  Zr  Zr3  1  0.498064  0.840300  0.032546  1
  Zr  Zr4  1  0.839739  0.499223  0.968197  1
  Zr  Zr5  1  0.500472  0.160431  0.531457  1
  Zr  Zr6  1  0.338995  0.999813  0.781625  1
  Zr  Zr7  1  0.657261  0.000320  0.280769  1
  Nb  Nb8  1  0.170300  0.167021  0.001598  1
  Nb  Nb9  1  0.831042  0.831781  0.500087  1
  Nb  Nb10  1  0.331194  0.670774  0.249347  1
  Nb  Nb11  1  0.669021  0.331060  0.750142  1
  Nb  Nb12  1  0.156108  0.998178  0.372706  1
  Nb  Nb13  1  0.845853  0.003540  0.875688  1
  Nb  Nb14  1  0.503590  0.653865  0.626035  1
  Nb  Nb15  1  0.346461  0.495065  0.874294  1
  Nb  Nb16  1  0.493376  0.342446  0.127488  1
  Nb  Nb17  1  0.654922  0.504739  0.373638  1
  Nb  Nb18  1  0.996409  0.153323  0.623546  1
  Nb  Nb19  1  0.005705  0.848258  0.124115  1
  Si  Si20  1  0.701866  0.956690  0.686738  1
  Si  Si21  1  0.456714  0.798691  0.436752  1
  Si  Si22  1  0.200879  0.542901  0.063320  1
  Si  Si23  1  0.543648  0.201078  0.936605  1
  Si  Si24  1  0.798180  0.456529  0.563550  1
  Si  Si25  1  0.043894  0.297782  0.813822  1
  Si  Si26  1  0.956647  0.702033  0.313166  1
  Si  Si27  1  0.367363  0.295178  0.324990  1
  Si  Si28  1  0.633269  0.708790  0.822620  1
  Si  Si29  1  0.208540  0.867106  0.571345  1
  Si  Si30  1  0.133678  0.790784  0.927493  1
  Si  Si31  1  0.791192  0.133987  0.071677  1
  Si  Si32  1  0.866390  0.207872  0.427315  1
  Si  Si33  1  0.291274  0.366055  0.678040  1
  Si  Si34  1  0.709336  0.632198  0.177351  1
  P  P35  1  0.297325  0.041179  0.186258  1
