# generated using pymatgen
data_MnS2(O3F)2
_symmetry_space_group_name_H-M   'P 1'
_cell_length_a   6.92367590
_cell_length_b   6.92367539
_cell_length_c   8.95412000
_cell_angle_alpha   113.13646097
_cell_angle_beta   102.89850203
_cell_angle_gamma   101.72186621
_symmetry_Int_Tables_number   1
_chemical_formula_structural   MnS2(O3F)2
_chemical_formula_sum   'Mn2 S4 O12 F4'
_cell_volume   363.93304252
_cell_formula_units_Z   2
loop_
 _symmetry_equiv_pos_site_id
 _symmetry_equiv_pos_as_xyz
  1  'x, y, z'
loop_
 _atom_site_type_symbol
 _atom_site_label
 _atom_site_symmetry_multiplicity
 _atom_site_fract_x
 _atom_site_fract_y
 _atom_site_fract_z
 _atom_site_occupancy
  Mn  Mn0  1  0.673255  0.423255  0.750000  1
  Mn  Mn1  1  0.326745  0.576745  0.250000  1
  S  S2  1  0.165395  0.356563  0.794172  1
  S  S3  1  0.562390  0.871223  0.705828  1
  S  S4  1  0.834605  0.643437  0.205828  1
  S  S5  1  0.437610  0.128777  0.294172  1
  O  O6  1  0.336891  0.395707  0.729968  1
  O  O7  1  0.665738  0.106924  0.770032  1
  O  O8  1  0.663109  0.604293  0.270032  1
  O  O9  1  0.334262  0.893076  0.229968  1
  O  O10  1  0.995430  0.433160  0.738269  1
  O  O11  1  0.694891  0.757161  0.761731  1
  O  O12  1  0.004570  0.566840  0.261731  1
  O  O13  1  0.305109  0.242839  0.238269  1
  O  O14  1  0.229086  0.409944  0.975553  1
  O  O15  1  0.434392  0.753534  0.524447  1
  O  O16  1  0.770914  0.590056  0.024447  1
  O  O17  1  0.565608  0.246466  0.475553  1
  F  F18  1  0.066809  0.092678  0.699011  1
  F  F19  1  0.393667  0.867797  0.800989  1
  F  F20  1  0.933191  0.907322  0.300989  1
  F  F21  1  0.606333  0.132203  0.199011  1
