# generated using pymatgen
data_K4Hf(TeSe)2
_symmetry_space_group_name_H-M   'P 1'
_cell_length_a   8.81236500
_cell_length_b   10.47338200
_cell_length_c   15.47629100
_cell_angle_alpha   90.00000000
_cell_angle_beta   90.00000000
_cell_angle_gamma   90.00000000
_symmetry_Int_Tables_number   1
_chemical_formula_structural   K4Hf(TeSe)2
_chemical_formula_sum   'K16 Hf4 Te8 Se8'
_cell_volume   1428.38837857
_cell_formula_units_Z   4
loop_
 _symmetry_equiv_pos_site_id
 _symmetry_equiv_pos_as_xyz
  1  'x, y, z'
loop_
 _atom_site_type_symbol
 _atom_site_label
 _atom_site_symmetry_multiplicity
 _atom_site_fract_x
 _atom_site_fract_y
 _atom_site_fract_z
 _atom_site_occupancy
  K  K0  1  0.500000  0.500000  0.500000  1
  K  K1  1  0.140626  0.454365  0.275498  1
  K  K2  1  0.140626  0.045635  0.275498  1
  K  K3  1  0.000882  0.750000  0.440323  1
  K  K4  1  0.999118  0.250000  0.559677  1
  K  K5  1  0.640626  0.954365  0.224502  1
  K  K6  1  0.359374  0.045635  0.775498  1
  K  K7  1  0.859374  0.954365  0.724502  1
  K  K8  1  0.359374  0.454365  0.775498  1
  K  K9  1  0.000000  0.500000  0.000000  1
  K  K10  1  0.500882  0.250000  0.059677  1
  K  K11  1  0.640626  0.545635  0.224502  1
  K  K12  1  0.499118  0.750000  0.940323  1
  K  K13  1  0.000000  0.000000  0.000000  1
  K  K14  1  0.859374  0.545635  0.724502  1
  K  K15  1  0.500000  0.000000  0.500000  1
  Hf  Hf16  1  0.744619  0.250000  0.836534  1
  Hf  Hf17  1  0.755381  0.250000  0.336534  1
  Hf  Hf18  1  0.244619  0.750000  0.663466  1
  Hf  Hf19  1  0.255381  0.750000  0.163466  1
  Te  Te20  1  0.556634  0.750000  0.670906  1
  Te  Te21  1  0.443366  0.250000  0.329094  1
  Te  Te22  1  0.367628  0.750000  0.330939  1
  Te  Te23  1  0.132372  0.750000  0.830939  1
  Te  Te24  1  0.056634  0.250000  0.829094  1
  Te  Te25  1  0.943366  0.750000  0.170906  1
  Te  Te26  1  0.632372  0.250000  0.669061  1
  Te  Te27  1  0.867628  0.250000  0.169061  1
  Se  Se28  1  0.842190  0.450627  0.408719  1
  Se  Se29  1  0.657810  0.049373  0.908719  1
  Se  Se30  1  0.342190  0.950627  0.091281  1
  Se  Se31  1  0.342190  0.549373  0.091281  1
  Se  Se32  1  0.157810  0.549373  0.591281  1
  Se  Se33  1  0.842190  0.049373  0.408719  1
  Se  Se34  1  0.157810  0.950627  0.591281  1
  Se  Se35  1  0.657810  0.450627  0.908719  1
