# generated using pymatgen
data_Tb2Dy(LuSb4)5
_symmetry_space_group_name_H-M   'P 1'
_cell_length_a   4.24233300
_cell_length_b   13.09121160
_cell_length_c   14.50769509
_cell_angle_alpha   77.89282841
_cell_angle_beta   90.00000000
_cell_angle_gamma   90.00000000
_symmetry_Int_Tables_number   1
_chemical_formula_structural   Tb2Dy(LuSb4)5
_chemical_formula_sum   'Tb2 Dy1 Lu5 Sb20'
_cell_volume   787.79631901
_cell_formula_units_Z   1
loop_
 _symmetry_equiv_pos_site_id
 _symmetry_equiv_pos_as_xyz
  1  'x, y, z'
loop_
 _atom_site_type_symbol
 _atom_site_label
 _atom_site_symmetry_multiplicity
 _atom_site_fract_x
 _atom_site_fract_y
 _atom_site_fract_z
 _atom_site_occupancy
  Tb  Tb0  1  0.750000  0.331317  0.423276  1
  Tb  Tb1  1  0.750000  0.046381  0.640920  1
  Dy  Dy2  1  0.250000  0.952576  0.359303  1
  Lu  Lu3  1  0.250000  0.396807  0.772418  1
  Lu  Lu4  1  0.750000  0.604054  0.228039  1
  Lu  Lu5  1  0.250000  0.661517  0.855819  1
  Lu  Lu6  1  0.750000  0.338372  0.143575  1
  Lu  Lu7  1  0.250000  0.669324  0.577210  1
  Sb  Sb8  1  0.250000  0.145089  0.780871  1
  Sb  Sb9  1  0.750000  0.855123  0.219279  1
  Sb  Sb10  1  0.250000  0.142571  0.482560  1
  Sb  Sb11  1  0.750000  0.854028  0.517440  1
  Sb  Sb12  1  0.250000  0.155772  0.170067  1
  Sb  Sb13  1  0.750000  0.843937  0.829716  1
  Sb  Sb14  1  0.250000  0.420789  0.976078  1
  Sb  Sb15  1  0.750000  0.579411  0.023721  1
  Sb  Sb16  1  0.750000  0.030191  0.907853  1
  Sb  Sb17  1  0.250000  0.969631  0.092217  1
  Sb  Sb18  1  0.750000  0.139592  0.320887  1
  Sb  Sb19  1  0.250000  0.858396  0.678533  1
  Sb  Sb20  1  0.750000  0.279780  0.938678  1
  Sb  Sb21  1  0.250000  0.720161  0.061453  1
  Sb  Sb22  1  0.750000  0.288980  0.655370  1
  Sb  Sb23  1  0.250000  0.711846  0.345704  1
  Sb  Sb24  1  0.750000  0.577054  0.734965  1
  Sb  Sb25  1  0.250000  0.424889  0.262344  1
  Sb  Sb26  1  0.750000  0.574672  0.446711  1
  Sb  Sb27  1  0.250000  0.427740  0.554992  1
