# generated using pymatgen
data_YCo2(SiIr)3
_symmetry_space_group_name_H-M   'P 1'
_cell_length_a   3.82165800
_cell_length_b   10.81738600
_cell_length_c   12.37295200
_cell_angle_alpha   90.00000000
_cell_angle_beta   90.00000000
_cell_angle_gamma   90.00000000
_symmetry_Int_Tables_number   1
_chemical_formula_structural   YCo2(SiIr)3
_chemical_formula_sum   'Y4 Co8 Si12 Ir12'
_cell_volume   511.50216307
_cell_formula_units_Z   4
loop_
 _symmetry_equiv_pos_site_id
 _symmetry_equiv_pos_as_xyz
  1  'x, y, z'
loop_
 _atom_site_type_symbol
 _atom_site_label
 _atom_site_symmetry_multiplicity
 _atom_site_fract_x
 _atom_site_fract_y
 _atom_site_fract_z
 _atom_site_occupancy
  Y  Y0  1  0.250000  0.915730  0.207743  1
  Y  Y1  1  0.750000  0.084270  0.792257  1
  Y  Y2  1  0.750000  0.415730  0.292257  1
  Y  Y3  1  0.250000  0.584270  0.707743  1
  Co  Co4  1  0.250000  0.613881  0.195786  1
  Co  Co5  1  0.750000  0.386119  0.804214  1
  Co  Co6  1  0.750000  0.113881  0.304214  1
  Co  Co7  1  0.250000  0.886119  0.695786  1
  Co  Co8  1  0.250000  0.032684  0.433290  1
  Co  Co9  1  0.750000  0.967316  0.566710  1
  Co  Co10  1  0.750000  0.532684  0.066710  1
  Co  Co11  1  0.250000  0.467316  0.933290  1
  Si  Si12  1  0.250000  0.074872  0.609933  1
  Si  Si13  1  0.750000  0.925128  0.390067  1
  Si  Si14  1  0.750000  0.574872  0.890067  1
  Si  Si15  1  0.250000  0.425128  0.109933  1
  Si  Si16  1  0.250000  0.224628  0.372802  1
  Si  Si17  1  0.750000  0.775372  0.627198  1
  Si  Si18  1  0.750000  0.724628  0.127198  1
  Si  Si19  1  0.250000  0.275372  0.872802  1
  Si  Si20  1  0.250000  0.898605  0.885245  1
  Si  Si21  1  0.750000  0.101395  0.114755  1
  Si  Si22  1  0.750000  0.398605  0.614755  1
  Si  Si23  1  0.250000  0.601395  0.385245  1
  Ir  Ir24  1  0.250000  0.795378  0.489893  1
  Ir  Ir25  1  0.750000  0.204622  0.510107  1
  Ir  Ir26  1  0.750000  0.295378  0.010107  1
  Ir  Ir27  1  0.250000  0.704622  0.989893  1
  Ir  Ir28  1  0.250000  0.094061  0.985568  1
  Ir  Ir29  1  0.750000  0.905939  0.014432  1
  Ir  Ir30  1  0.750000  0.594061  0.514432  1
  Ir  Ir31  1  0.250000  0.405939  0.485568  1
  Ir  Ir32  1  0.250000  0.277770  0.681235  1
  Ir  Ir33  1  0.750000  0.722230  0.318765  1
  Ir  Ir34  1  0.750000  0.777770  0.818765  1
  Ir  Ir35  1  0.250000  0.222230  0.181235  1
