# generated using pymatgen
data_CaPrMnRh3
_symmetry_space_group_name_H-M   'P 1'
_cell_length_a   5.25131053
_cell_length_b   5.25131056
_cell_length_c   5.25131036
_cell_angle_alpha   64.40789119
_cell_angle_beta   64.40789137
_cell_angle_gamma   64.40789500
_symmetry_Int_Tables_number   1
_chemical_formula_structural   CaPrMnRh3
_chemical_formula_sum   'Ca1 Pr1 Mn1 Rh3'
_cell_volume   112.30389972
_cell_formula_units_Z   1
loop_
 _symmetry_equiv_pos_site_id
 _symmetry_equiv_pos_as_xyz
  1  'x, y, z'
loop_
 _atom_site_type_symbol
 _atom_site_label
 _atom_site_symmetry_multiplicity
 _atom_site_fract_x
 _atom_site_fract_y
 _atom_site_fract_z
 _atom_site_occupancy
  Ca  Ca0  1  0.627733  0.627733  0.627733  1
  Pr  Pr1  1  0.373823  0.373823  0.373823  1
  Mn  Mn2  1  0.999458  0.999458  0.999458  1
  Rh  Rh3  1  0.999215  0.999215  0.500554  1
  Rh  Rh4  1  0.500554  0.999215  0.999215  1
  Rh  Rh5  1  0.999215  0.500554  0.999215  1
