# generated using pymatgen
data_LiTi5(ZnRh2)6
_symmetry_space_group_name_H-M   'P 1'
_cell_length_a   4.30541700
_cell_length_b   6.11753500
_cell_length_c   12.89165200
_cell_angle_alpha   90.00000000
_cell_angle_beta   90.00172278
_cell_angle_gamma   90.00000000
_symmetry_Int_Tables_number   1
_chemical_formula_structural   LiTi5(ZnRh2)6
_chemical_formula_sum   'Li1 Ti5 Zn6 Rh12'
_cell_volume   339.54728131
_cell_formula_units_Z   1
loop_
 _symmetry_equiv_pos_site_id
 _symmetry_equiv_pos_as_xyz
  1  'x, y, z'
loop_
 _atom_site_type_symbol
 _atom_site_label
 _atom_site_symmetry_multiplicity
 _atom_site_fract_x
 _atom_site_fract_y
 _atom_site_fract_z
 _atom_site_occupancy
  Li  Li0  1  0.000000  0.000000  0.000000  1
  Ti  Ti1  1  0.499841  0.500000  0.162291  1
  Ti  Ti2  1  0.999854  0.000000  0.331012  1
  Ti  Ti3  1  0.500000  0.500000  0.500000  1
  Ti  Ti4  1  0.000146  0.000000  0.668989  1
  Ti  Ti5  1  0.500159  0.500000  0.837709  1
  Zn  Zn6  1  0.000000  0.500000  0.000000  1
  Zn  Zn7  1  0.499781  0.000000  0.164002  1
  Zn  Zn8  1  0.999806  0.500000  0.331546  1
  Zn  Zn9  1  0.500000  0.000000  0.500000  1
  Zn  Zn10  1  0.000194  0.500000  0.668455  1
  Zn  Zn11  1  0.500219  0.000000  0.835997  1
  Rh  Rh12  1  0.500000  0.249719  0.000000  1
  Rh  Rh13  1  0.500000  0.750281  0.000000  1
  Rh  Rh14  1  0.999811  0.249202  0.167647  1
  Rh  Rh15  1  0.999811  0.750799  0.167647  1
  Rh  Rh16  1  0.499838  0.249093  0.333816  1
  Rh  Rh17  1  0.499838  0.750906  0.333816  1
  Rh  Rh18  1  0.000000  0.251451  0.500000  1
  Rh  Rh19  1  0.000000  0.748550  0.500000  1
  Rh  Rh20  1  0.500162  0.249093  0.666185  1
  Rh  Rh21  1  0.500162  0.750906  0.666185  1
  Rh  Rh22  1  0.000189  0.249202  0.832352  1
  Rh  Rh23  1  0.000189  0.750799  0.832352  1
