# generated using pymatgen
data_Dy5Ga6P6Rh19
_symmetry_space_group_name_H-M   'P 1'
_cell_length_a   12.95103300
_cell_length_b   12.95103398
_cell_length_c   3.95045000
_cell_angle_alpha   90.00000000
_cell_angle_beta   90.00000000
_cell_angle_gamma   119.99999495
_symmetry_Int_Tables_number   1
_chemical_formula_structural   Dy5Ga6P6Rh19
_chemical_formula_sum   'Dy5 Ga6 P6 Rh19'
_cell_volume   573.83373448
_cell_formula_units_Z   1
loop_
 _symmetry_equiv_pos_site_id
 _symmetry_equiv_pos_as_xyz
  1  'x, y, z'
loop_
 _atom_site_type_symbol
 _atom_site_label
 _atom_site_symmetry_multiplicity
 _atom_site_fract_x
 _atom_site_fract_y
 _atom_site_fract_z
 _atom_site_occupancy
  Dy  Dy0  1  0.333333  0.666667  0.500000  1
  Dy  Dy1  1  0.666667  0.333333  0.500000  1
  Dy  Dy2  1  0.004699  0.817901  0.000000  1
  Dy  Dy3  1  0.182099  0.186798  0.000000  1
  Dy  Dy4  1  0.813202  0.995301  0.000000  1
  Ga  Ga5  1  0.998363  0.632498  0.500000  1
  Ga  Ga6  1  0.367502  0.365864  0.500000  1
  Ga  Ga7  1  0.634136  0.001637  0.500000  1
  Ga  Ga8  1  0.521086  0.675257  0.000000  1
  Ga  Ga9  1  0.324743  0.845829  0.000000  1
  Ga  Ga10  1  0.154171  0.478914  0.000000  1
  P  P11  1  0.480482  0.173425  0.000000  1
  P  P12  1  0.692942  0.519518  0.000000  1
  P  P13  1  0.826575  0.307058  0.000000  1
  P  P14  1  0.992989  0.175931  0.500000  1
  P  P15  1  0.824069  0.817057  0.500000  1
  P  P16  1  0.182943  0.007011  0.500000  1
  Rh  Rh17  1  0.524204  0.871388  0.000000  1
  Rh  Rh18  1  0.128612  0.652817  0.000000  1
  Rh  Rh19  1  0.347183  0.475796  0.000000  1
  Rh  Rh20  1  0.499165  0.365570  0.000000  1
  Rh  Rh21  1  0.866406  0.500835  0.000000  1
  Rh  Rh22  1  0.634430  0.133594  0.000000  1
  Rh  Rh23  1  0.000771  0.443128  0.500000  1
  Rh  Rh24  1  0.556872  0.557643  0.500000  1
  Rh  Rh25  1  0.442357  0.999229  0.500000  1
  Rh  Rh26  1  0.987428  0.266904  0.000000  1
  Rh  Rh27  1  0.733096  0.720524  0.000000  1
  Rh  Rh28  1  0.279476  0.012572  0.000000  1
  Rh  Rh29  1  0.640210  0.808827  0.500000  1
  Rh  Rh30  1  0.191173  0.831383  0.500000  1
  Rh  Rh31  1  0.168617  0.359790  0.500000  1
  Rh  Rh32  1  0.384007  0.181043  0.500000  1
  Rh  Rh33  1  0.797038  0.615993  0.500000  1
  Rh  Rh34  1  0.818957  0.202962  0.500000  1
  Rh  Rh35  1  0.000000  0.000000  0.500000  1
