# generated using pymatgen
data_Lu12Ni5Bi
_symmetry_space_group_name_H-M   'P 1'
_cell_length_a   8.18300927
_cell_length_b   8.18222813
_cell_length_c   8.18301058
_cell_angle_alpha   111.80328725
_cell_angle_beta   109.56969098
_cell_angle_gamma   107.07894815
_symmetry_Int_Tables_number   1
_chemical_formula_structural   Lu12Ni5Bi
_chemical_formula_sum   'Lu12 Ni5 Bi1'
_cell_volume   421.03353696
_cell_formula_units_Z   1
loop_
 _symmetry_equiv_pos_site_id
 _symmetry_equiv_pos_as_xyz
  1  'x, y, z'
loop_
 _atom_site_type_symbol
 _atom_site_label
 _atom_site_symmetry_multiplicity
 _atom_site_fract_x
 _atom_site_fract_y
 _atom_site_fract_z
 _atom_site_occupancy
  Lu  Lu0  1  0.819899  0.707765  0.527668  1
  Lu  Lu1  1  0.180101  0.292235  0.472332  1
  Lu  Lu2  1  0.180099  0.707765  0.887867  1
  Lu  Lu3  1  0.819901  0.292235  0.112133  1
  Lu  Lu4  1  0.678964  0.371641  0.692679  1
  Lu  Lu5  1  0.321036  0.628359  0.307321  1
  Lu  Lu6  1  0.678995  0.986313  0.307318  1
  Lu  Lu7  1  0.321005  0.013687  0.692682  1
  Lu  Lu8  1  0.597365  0.791672  0.805691  1
  Lu  Lu9  1  0.402635  0.208328  0.194309  1
  Lu  Lu10  1  0.985981  0.791672  0.194307  1
  Lu  Lu11  1  0.014019  0.208328  0.805693  1
  Ni  Ni12  1  0.635451  0.000000  0.635451  1
  Ni  Ni13  1  0.364549  0.000000  0.364549  1
  Ni  Ni14  1  0.123861  0.623825  0.499964  1
  Ni  Ni15  1  0.876139  0.376175  0.500036  1
  Ni  Ni16  1  0.000000  0.000000  0.000000  1
  Bi  Bi17  1  0.500000  0.500000  0.000000  1
