# generated using pymatgen
data_Sm8Er12Si15Au
_symmetry_space_group_name_H-M   'P 1'
_cell_length_a   7.51673500
_cell_length_b   7.86067643
_cell_length_c   14.93967100
_cell_angle_alpha   90.00000000
_cell_angle_beta   90.00000000
_cell_angle_gamma   90.61405158
_symmetry_Int_Tables_number   1
_chemical_formula_structural   Sm8Er12Si15Au
_chemical_formula_sum   'Sm8 Er12 Si15 Au1'
_cell_volume   882.68399340
_cell_formula_units_Z   1
loop_
 _symmetry_equiv_pos_site_id
 _symmetry_equiv_pos_as_xyz
  1  'x, y, z'
loop_
 _atom_site_type_symbol
 _atom_site_label
 _atom_site_symmetry_multiplicity
 _atom_site_fract_x
 _atom_site_fract_y
 _atom_site_fract_z
 _atom_site_occupancy
  Sm  Sm0  1  0.025740  0.185097  0.399268  1
  Sm  Sm1  1  0.526035  0.319665  0.398936  1
  Sm  Sm2  1  0.479416  0.671994  0.907483  1
  Sm  Sm3  1  0.479416  0.671994  0.592517  1
  Sm  Sm4  1  0.973832  0.819203  0.594245  1
  Sm  Sm5  1  0.973832  0.819203  0.905755  1
  Sm  Sm6  1  0.526035  0.319665  0.101064  1
  Sm  Sm7  1  0.025740  0.185097  0.100732  1
  Er  Er8  1  0.317957  0.182758  0.620860  1
  Er  Er9  1  0.681750  0.825157  0.374573  1
  Er  Er10  1  0.644977  0.978635  0.750000  1
  Er  Er11  1  0.182322  0.675780  0.376410  1
  Er  Er12  1  0.820175  0.319371  0.878455  1
  Er  Er13  1  0.820175  0.319371  0.621545  1
  Er  Er14  1  0.848850  0.492945  0.250000  1
  Er  Er15  1  0.348073  0.010559  0.250000  1
  Er  Er16  1  0.317957  0.182758  0.879140  1
  Er  Er17  1  0.182322  0.675780  0.123590  1
  Er  Er18  1  0.681750  0.825157  0.125427  1
  Er  Er19  1  0.156609  0.514144  0.750000  1
  Si  Si20  1  0.477478  0.613068  0.250000  1
  Si  Si21  1  0.019715  0.115766  0.750000  1
  Si  Si22  1  0.528796  0.386787  0.750000  1
  Si  Si23  1  0.145265  0.472364  0.540573  1
  Si  Si24  1  0.981136  0.885376  0.250000  1
  Si  Si25  1  0.727982  0.129011  0.250000  1
  Si  Si26  1  0.849792  0.531569  0.041196  1
  Si  Si27  1  0.354492  0.969782  0.040604  1
  Si  Si28  1  0.145265  0.472364  0.959427  1
  Si  Si29  1  0.644353  0.029833  0.538874  1
  Si  Si30  1  0.354492  0.969782  0.459396  1
  Si  Si31  1  0.849792  0.531569  0.458804  1
  Si  Si32  1  0.767473  0.617223  0.750000  1
  Si  Si33  1  0.230624  0.375310  0.250000  1
  Si  Si34  1  0.644353  0.029833  0.961126  1
  Au  Au35  1  0.266030  0.876032  0.750000  1
