# generated using pymatgen
data_Er2Lu2B12MoRu
_symmetry_space_group_name_H-M   'P 1'
_cell_length_a   3.60949200
_cell_length_b   9.11869753
_cell_length_c   11.50382264
_cell_angle_alpha   89.76284435
_cell_angle_beta   90.00000000
_cell_angle_gamma   90.00000000
_symmetry_Int_Tables_number   1
_chemical_formula_structural   Er2Lu2B12MoRu
_chemical_formula_sum   'Er4 Lu4 B24 Mo2 Ru2'
_cell_volume   378.63203070
_cell_formula_units_Z   2
loop_
 _symmetry_equiv_pos_site_id
 _symmetry_equiv_pos_as_xyz
  1  'x, y, z'
loop_
 _atom_site_type_symbol
 _atom_site_label
 _atom_site_symmetry_multiplicity
 _atom_site_fract_x
 _atom_site_fract_y
 _atom_site_fract_z
 _atom_site_occupancy
  Er  Er0  1  0.000000  0.321702  0.414537  1
  Er  Er1  1  0.000000  0.678298  0.585463  1
  Er  Er2  1  0.000000  0.821494  0.085730  1
  Er  Er3  1  0.000000  0.178506  0.914270  1
  Lu  Lu4  1  0.000000  0.944903  0.371358  1
  Lu  Lu5  1  0.000000  0.055097  0.628642  1
  Lu  Lu6  1  0.000000  0.442114  0.128128  1
  Lu  Lu7  1  0.000000  0.557886  0.871872  1
  B  B8  1  0.500000  0.551925  0.434125  1
  B  B9  1  0.500000  0.448075  0.565875  1
  B  B10  1  0.500000  0.054157  0.066886  1
  B  B11  1  0.500000  0.945843  0.933114  1
  B  B12  1  0.500000  0.751842  0.420791  1
  B  B13  1  0.500000  0.248158  0.579209  1
  B  B14  1  0.500000  0.249543  0.081004  1
  B  B15  1  0.500000  0.750457  0.918996  1
  B  B16  1  0.500000  0.795889  0.263927  1
  B  B17  1  0.500000  0.204111  0.736073  1
  B  B18  1  0.500000  0.291232  0.234082  1
  B  B19  1  0.500000  0.708768  0.765918  1
  B  B20  1  0.500000  0.631116  0.181834  1
  B  B21  1  0.500000  0.368884  0.818166  1
  B  B22  1  0.500000  0.130142  0.314404  1
  B  B23  1  0.500000  0.869858  0.685596  1
  B  B24  1  0.500000  0.983028  0.212165  1
  B  B25  1  0.500000  0.016972  0.787835  1
  B  B26  1  0.500000  0.478006  0.286568  1
  B  B27  1  0.500000  0.521994  0.713432  1
  B  B28  1  0.500000  0.601566  0.027433  1
  B  B29  1  0.500000  0.398434  0.972567  1
  B  B30  1  0.500000  0.101385  0.471273  1
  B  B31  1  0.500000  0.898615  0.528727  1
  Mo  Mo32  1  0.000000  0.639583  0.318599  1
  Mo  Mo33  1  0.000000  0.360417  0.681401  1
  Ru  Ru34  1  0.000000  0.138653  0.178814  1
  Ru  Ru35  1  0.000000  0.861347  0.821186  1
