# generated using pymatgen
data_Tb2Y2Al18(IrPd)3
_symmetry_space_group_name_H-M   'P 1'
_cell_length_a   7.60328746
_cell_length_b   7.60287943
_cell_length_c   9.45858900
_cell_angle_alpha   89.97879553
_cell_angle_beta   89.97989854
_cell_angle_gamma   119.65664041
_symmetry_Int_Tables_number   1
_chemical_formula_structural   Tb2Y2Al18(IrPd)3
_chemical_formula_sum   'Tb2 Y2 Al18 Ir3 Pd3'
_cell_volume   475.14770755
_cell_formula_units_Z   1
loop_
 _symmetry_equiv_pos_site_id
 _symmetry_equiv_pos_as_xyz
  1  'x, y, z'
loop_
 _atom_site_type_symbol
 _atom_site_label
 _atom_site_symmetry_multiplicity
 _atom_site_fract_x
 _atom_site_fract_y
 _atom_site_fract_z
 _atom_site_occupancy
  Tb  Tb0  1  0.669883  0.995009  0.250300  1
  Tb  Tb1  1  0.329918  0.004264  0.749642  1
  Y  Y2  1  0.995735  0.670095  0.250366  1
  Y  Y3  1  0.005003  0.330117  0.749691  1
  Al  Al4  1  0.127185  0.127991  0.250452  1
  Al  Al5  1  0.872018  0.872816  0.749548  1
  Al  Al6  1  0.000551  0.331529  0.076289  1
  Al  Al7  1  0.999320  0.668692  0.922965  1
  Al  Al8  1  0.996723  0.664977  0.574931  1
  Al  Al9  1  0.334958  0.003252  0.425052  1
  Al  Al10  1  0.996491  0.330817  0.425144  1
  Al  Al11  1  0.669249  0.003536  0.574879  1
  Al  Al12  1  0.668529  0.999471  0.923694  1
  Al  Al13  1  0.331246  0.000655  0.077052  1
  Al  Al14  1  0.333102  0.329954  0.552448  1
  Al  Al15  1  0.670074  0.666872  0.447546  1
  Al  Al16  1  0.668952  0.668864  0.055917  1
  Al  Al17  1  0.331109  0.331073  0.944081  1
  Al  Al18  1  0.340247  0.546658  0.250654  1
  Al  Al19  1  0.659121  0.452290  0.747563  1
  Al  Al20  1  0.547728  0.340891  0.252440  1
  Al  Al21  1  0.453328  0.659748  0.749345  1
  Ir  Ir22  1  0.671890  0.328151  0.499997  1
  Ir  Ir23  1  0.000009  0.999984  0.999999  1
  Ir  Ir24  1  0.000360  0.999642  0.500001  1
  Pd  Pd25  1  0.672066  0.328025  0.000002  1
  Pd  Pd26  1  0.327598  0.672319  0.999998  1
  Pd  Pd27  1  0.327606  0.672310  0.500003  1
