# generated using pymatgen
data_FeSb12Ru2Pt
_symmetry_space_group_name_H-M   'P 1'
_cell_length_a   8.11031050
_cell_length_b   8.11559289
_cell_length_c   9.37855187
_cell_angle_alpha   54.78036472
_cell_angle_beta   54.87420298
_cell_angle_gamma   70.61489133
_symmetry_Int_Tables_number   1
_chemical_formula_structural   FeSb12Ru2Pt
_chemical_formula_sum   'Fe1 Sb12 Ru2 Pt1'
_cell_volume   412.46096449
_cell_formula_units_Z   1
loop_
 _symmetry_equiv_pos_site_id
 _symmetry_equiv_pos_as_xyz
  1  'x, y, z'
loop_
 _atom_site_type_symbol
 _atom_site_label
 _atom_site_symmetry_multiplicity
 _atom_site_fract_x
 _atom_site_fract_y
 _atom_site_fract_z
 _atom_site_occupancy
  Fe  Fe0  1  0.500000  0.000000  0.500000  1
  Sb  Sb1  1  0.155824  0.155916  0.178181  1
  Sb  Sb2  1  0.844176  0.844084  0.821819  1
  Sb  Sb3  1  0.836798  0.852575  0.496685  1
  Sb  Sb4  1  0.163202  0.147425  0.503315  1
  Sb  Sb5  1  0.811845  0.505173  0.336850  1
  Sb  Sb6  1  0.188155  0.494827  0.663150  1
  Sb  Sb7  1  0.505897  0.821815  0.339111  1
  Sb  Sb8  1  0.494103  0.178185  0.660889  1
  Sb  Sb9  1  0.654483  0.336840  0.850836  1
  Sb  Sb10  1  0.345517  0.663160  0.149164  1
  Sb  Sb11  1  0.661022  0.332897  0.161181  1
  Sb  Sb12  1  0.338978  0.667103  0.838819  1
  Ru  Ru13  1  0.000000  0.500000  0.000000  1
  Ru  Ru14  1  0.500000  0.000000  0.000000  1
  Pt  Pt15  1  0.000000  0.500000  0.500000  1
