# generated using pymatgen
data_NaAc7(Y3Pb4)4
_symmetry_space_group_name_H-M   'P 1'
_cell_length_a   8.44756329
_cell_length_b   16.17553948
_cell_length_c   8.53896800
_cell_angle_alpha   89.94719045
_cell_angle_beta   89.79839592
_cell_angle_gamma   90.35942853
_symmetry_Int_Tables_number   1
_chemical_formula_structural   NaAc7(Y3Pb4)4
_chemical_formula_sum   'Na1 Ac7 Y12 Pb16'
_cell_volume   1166.76713377
_cell_formula_units_Z   1
loop_
 _symmetry_equiv_pos_site_id
 _symmetry_equiv_pos_as_xyz
  1  'x, y, z'
loop_
 _atom_site_type_symbol
 _atom_site_label
 _atom_site_symmetry_multiplicity
 _atom_site_fract_x
 _atom_site_fract_y
 _atom_site_fract_z
 _atom_site_occupancy
  Na  Na0  1  0.691007  0.250642  0.996497  1
  Ac  Ac1  1  0.983773  0.901861  0.822709  1
  Ac  Ac2  1  0.513583  0.095884  0.317236  1
  Ac  Ac3  1  0.006976  0.407476  0.178255  1
  Ac  Ac4  1  0.516775  0.405361  0.320872  1
  Ac  Ac5  1  0.007940  0.094553  0.175047  1
  Ac  Ac6  1  0.487481  0.904754  0.675530  1
  Ac  Ac7  1  0.984838  0.595049  0.820796  1
  Y  Y8  1  0.646690  0.624920  0.158992  1
  Y  Y9  1  0.150141  0.874708  0.342475  1
  Y  Y10  1  0.360893  0.125628  0.840362  1
  Y  Y11  1  0.855903  0.379139  0.661641  1
  Y  Y12  1  0.364041  0.376622  0.838412  1
  Y  Y13  1  0.853008  0.123304  0.664866  1
  Y  Y14  1  0.645376  0.871814  0.158205  1
  Y  Y15  1  0.146701  0.622328  0.345607  1
  Y  Y16  1  0.477893  0.599118  0.678381  1
  Y  Y17  1  0.809300  0.746966  0.497020  1
  Y  Y18  1  0.310367  0.747812  0.003296  1
  Y  Y19  1  0.192636  0.252410  0.506459  1
  Pb  Pb20  1  0.686430  0.461899  0.948382  1
  Pb  Pb21  1  0.189773  0.045146  0.545567  1
  Pb  Pb22  1  0.311043  0.955171  0.045027  1
  Pb  Pb23  1  0.794430  0.547127  0.464129  1
  Pb  Pb24  1  0.313323  0.545086  0.039119  1
  Pb  Pb25  1  0.811863  0.955126  0.451580  1
  Pb  Pb26  1  0.687841  0.038659  0.951595  1
  Pb  Pb27  1  0.203062  0.459148  0.547828  1
  Pb  Pb28  1  0.449738  0.747361  0.371289  1
  Pb  Pb29  1  0.953427  0.748779  0.133615  1
  Pb  Pb30  1  0.553234  0.249904  0.625921  1
  Pb  Pb31  1  0.054766  0.252267  0.868467  1
  Pb  Pb32  1  0.666521  0.744816  0.849363  1
  Pb  Pb33  1  0.179298  0.748162  0.646225  1
  Pb  Pb34  1  0.311018  0.250875  0.141905  1
  Pb  Pb35  1  0.828908  0.250128  0.367331  1
