# generated using pymatgen
data_U7PaSb10
_symmetry_space_group_name_H-M   'P 1'
_cell_length_a   9.43108000
_cell_length_b   9.43108048
_cell_length_c   6.14804800
_cell_angle_alpha   90.00000000
_cell_angle_beta   90.00000000
_cell_angle_gamma   119.99999129
_symmetry_Int_Tables_number   1
_chemical_formula_structural   U7PaSb10
_chemical_formula_sum   'U7 Pa1 Sb10'
_cell_volume   473.57721499
_cell_formula_units_Z   1
loop_
 _symmetry_equiv_pos_site_id
 _symmetry_equiv_pos_as_xyz
  1  'x, y, z'
loop_
 _atom_site_type_symbol
 _atom_site_label
 _atom_site_symmetry_multiplicity
 _atom_site_fract_x
 _atom_site_fract_y
 _atom_site_fract_z
 _atom_site_occupancy
  U  U0  1  0.000000  0.000000  0.000000  1
  U  U1  1  0.000000  0.616164  0.249854  1
  U  U2  1  0.000000  0.383836  0.750146  1
  U  U3  1  0.383836  0.000000  0.750146  1
  U  U4  1  0.383836  0.383836  0.249854  1
  U  U5  1  0.616164  0.000000  0.249854  1
  U  U6  1  0.616164  0.616164  0.750146  1
  Pa  Pa7  1  0.000000  0.000000  0.500000  1
  Sb  Sb8  1  0.666667  0.333333  0.000000  1
  Sb  Sb9  1  0.717614  0.000000  0.751348  1
  Sb  Sb10  1  0.333333  0.666667  0.500000  1
  Sb  Sb11  1  0.282386  0.282386  0.751348  1
  Sb  Sb12  1  0.000000  0.717614  0.751348  1
  Sb  Sb13  1  0.282386  0.000000  0.248652  1
  Sb  Sb14  1  0.666667  0.333333  0.500000  1
  Sb  Sb15  1  0.717614  0.717614  0.248652  1
  Sb  Sb16  1  0.333333  0.666667  0.000000  1
  Sb  Sb17  1  0.000000  0.282386  0.248652  1
