# generated using pymatgen
data_Sr(Zn2Ir)4
_symmetry_space_group_name_H-M   'P 1'
_cell_length_a   6.77512432
_cell_length_b   6.77512491
_cell_length_c   6.77512393
_cell_angle_alpha   99.92762728
_cell_angle_beta   99.92762742
_cell_angle_gamma   130.93418229
_symmetry_Int_Tables_number   1
_chemical_formula_structural   Sr(Zn2Ir)4
_chemical_formula_sum   'Sr1 Zn8 Ir4'
_cell_volume   213.73421485
_cell_formula_units_Z   1
loop_
 _symmetry_equiv_pos_site_id
 _symmetry_equiv_pos_as_xyz
  1  'x, y, z'
loop_
 _atom_site_type_symbol
 _atom_site_label
 _atom_site_symmetry_multiplicity
 _atom_site_fract_x
 _atom_site_fract_y
 _atom_site_fract_z
 _atom_site_occupancy
  Sr  Sr0  1  0.000000  0.000000  0.000000  1
  Zn  Zn1  1  0.733518  0.500000  0.233518  1
  Zn  Zn2  1  0.500000  0.733518  0.233518  1
  Zn  Zn3  1  0.000000  0.332790  0.332790  1
  Zn  Zn4  1  0.332790  0.000000  0.332790  1
  Zn  Zn5  1  0.000000  0.667210  0.667210  1
  Zn  Zn6  1  0.667210  0.000000  0.667210  1
  Zn  Zn7  1  0.500000  0.266482  0.766482  1
  Zn  Zn8  1  0.266482  0.500000  0.766482  1
  Ir  Ir9  1  0.500000  0.000000  0.000000  1
  Ir  Ir10  1  0.000000  0.500000  0.000000  1
  Ir  Ir11  1  0.000000  0.000000  0.500000  1
  Ir  Ir12  1  0.500000  0.500000  0.500000  1
