# generated using pymatgen
data_DyTmAl20Fe3Rh
_symmetry_space_group_name_H-M   'P 1'
_cell_length_a   6.77356964
_cell_length_b   6.78183735
_cell_length_c   9.01096352
_cell_angle_alpha   89.96252552
_cell_angle_beta   90.19304555
_cell_angle_gamma   97.00142660
_symmetry_Int_Tables_number   1
_chemical_formula_structural   DyTmAl20Fe3Rh
_chemical_formula_sum   'Dy1 Tm1 Al20 Fe3 Rh1'
_cell_volume   410.84982371
_cell_formula_units_Z   1
loop_
 _symmetry_equiv_pos_site_id
 _symmetry_equiv_pos_as_xyz
  1  'x, y, z'
loop_
 _atom_site_type_symbol
 _atom_site_label
 _atom_site_symmetry_multiplicity
 _atom_site_fract_x
 _atom_site_fract_y
 _atom_site_fract_z
 _atom_site_occupancy
  Dy  Dy0  1  0.872668  0.125412  0.751702  1
  Tm  Tm1  1  0.128623  0.873806  0.248079  1
  Al  Al2  1  0.619158  0.372657  0.550734  1
  Al  Al3  1  0.380261  0.627877  0.448915  1
  Al  Al4  1  0.375434  0.625870  0.048481  1
  Al  Al5  1  0.623961  0.374709  0.951920  1
  Al  Al6  1  0.231329  0.222575  0.496827  1
  Al  Al7  1  0.768842  0.777001  0.502260  1
  Al  Al8  1  0.772803  0.774062  0.001248  1
  Al  Al9  1  0.227519  0.225605  0.999732  1
  Al  Al10  1  0.843235  0.157132  0.097562  1
  Al  Al11  1  0.157371  0.842312  0.903203  1
  Al  Al12  1  0.161469  0.847069  0.599725  1
  Al  Al13  1  0.839150  0.152231  0.399630  1
  Al  Al14  1  0.861790  0.587086  0.754668  1
  Al  Al15  1  0.138563  0.414141  0.245334  1
  Al  Al16  1  0.414773  0.135414  0.750775  1
  Al  Al17  1  0.583846  0.864280  0.249226  1
  Al  Al18  1  0.223063  0.479348  0.755711  1
  Al  Al19  1  0.777721  0.521858  0.244309  1
  Al  Al20  1  0.519599  0.779785  0.750931  1
  Al  Al21  1  0.479191  0.219395  0.249041  1
  Fe  Fe22  1  0.000059  0.500290  0.000637  1
  Fe  Fe23  1  0.499767  0.999979  0.000674  1
  Fe  Fe24  1  0.499775  0.999929  0.499283  1
  Rh  Rh25  1  0.000029  0.500175  0.499394  1
