# generated using pymatgen
data_Np2NiIrF24
_symmetry_space_group_name_H-M   'P 1'
_cell_length_a   5.22461164
_cell_length_b   9.03697100
_cell_length_c   9.86997200
_cell_angle_alpha   90.00000000
_cell_angle_beta   90.02833747
_cell_angle_gamma   90.00000000
_symmetry_Int_Tables_number   1
_chemical_formula_structural   Np2NiIrF24
_chemical_formula_sum   'Np2 Ni1 Ir1 F24'
_cell_volume   466.00735337
_cell_formula_units_Z   1
loop_
 _symmetry_equiv_pos_site_id
 _symmetry_equiv_pos_as_xyz
  1  'x, y, z'
loop_
 _atom_site_type_symbol
 _atom_site_label
 _atom_site_symmetry_multiplicity
 _atom_site_fract_x
 _atom_site_fract_y
 _atom_site_fract_z
 _atom_site_occupancy
  Np  Np0  1  0.408689  0.750000  0.125012  1
  Np  Np1  1  0.092982  0.750000  0.628102  1
  Ni  Ni2  1  0.592994  0.250000  0.873262  1
  Ir  Ir3  1  0.906431  0.250000  0.372728  1
  F  F4  1  0.254352  0.594896  0.512687  1
  F  F5  1  0.243932  0.904343  0.011853  1
  F  F6  1  0.932488  0.904483  0.742329  1
  F  F7  1  0.193971  0.250000  0.486251  1
  F  F8  1  0.734993  0.109429  0.976820  1
  F  F9  1  0.568354  0.904763  0.240993  1
  F  F10  1  0.316905  0.250000  0.980432  1
  F  F11  1  0.254352  0.905104  0.512687  1
  F  F12  1  0.756002  0.397481  0.480282  1
  F  F13  1  0.450177  0.390086  0.769524  1
  F  F14  1  0.734993  0.390571  0.976820  1
  F  F15  1  0.784621  0.750000  0.507229  1
  F  F16  1  0.717195  0.750000  0.005602  1
  F  F17  1  0.243932  0.595657  0.011853  1
  F  F18  1  0.450177  0.109914  0.769524  1
  F  F19  1  0.057904  0.397050  0.265071  1
  F  F20  1  0.617397  0.250000  0.260488  1
  F  F21  1  0.568354  0.595237  0.240993  1
  F  F22  1  0.869688  0.250000  0.766191  1
  F  F23  1  0.101325  0.750000  0.246936  1
  F  F24  1  0.057904  0.102950  0.265071  1
  F  F25  1  0.932488  0.595517  0.742329  1
  F  F26  1  0.401400  0.750000  0.748651  1
  F  F27  1  0.756002  0.102519  0.480282  1
