# generated using pymatgen
data_YbHo18MgIr12
_symmetry_space_group_name_H-M   'P 1'
_cell_length_a   10.80630100
_cell_length_b   10.80630100
_cell_length_c   6.30809700
_cell_angle_alpha   90.00000000
_cell_angle_beta   90.00000000
_cell_angle_gamma   90.00000000
_symmetry_Int_Tables_number   1
_chemical_formula_structural   YbHo18MgIr12
_chemical_formula_sum   'Yb1 Ho18 Mg1 Ir12'
_cell_volume   736.63522662
_cell_formula_units_Z   1
loop_
 _symmetry_equiv_pos_site_id
 _symmetry_equiv_pos_as_xyz
  1  'x, y, z'
loop_
 _atom_site_type_symbol
 _atom_site_label
 _atom_site_symmetry_multiplicity
 _atom_site_fract_x
 _atom_site_fract_y
 _atom_site_fract_z
 _atom_site_occupancy
  Yb  Yb0  1  0.500000  0.500000  0.000000  1
  Ho  Ho1  1  0.284055  0.085672  0.379122  1
  Ho  Ho2  1  0.291032  0.911780  0.879694  1
  Ho  Ho3  1  0.708968  0.088220  0.879694  1
  Ho  Ho4  1  0.715945  0.914328  0.379122  1
  Ho  Ho5  1  0.587966  0.791058  0.878829  1
  Ho  Ho6  1  0.588082  0.207619  0.378219  1
  Ho  Ho7  1  0.411918  0.792381  0.378219  1
  Ho  Ho8  1  0.412034  0.208942  0.878829  1
  Ho  Ho9  1  0.207619  0.411918  0.621781  1
  Ho  Ho10  1  0.208942  0.587966  0.121171  1
  Ho  Ho11  1  0.791058  0.412034  0.121171  1
  Ho  Ho12  1  0.792381  0.588082  0.621781  1
  Ho  Ho13  1  0.911780  0.708968  0.120306  1
  Ho  Ho14  1  0.914328  0.284055  0.620878  1
  Ho  Ho15  1  0.085672  0.715945  0.620878  1
  Ho  Ho16  1  0.088220  0.291032  0.120306  1
  Ho  Ho17  1  0.000000  0.000000  0.000000  1
  Ho  Ho18  1  0.500000  0.500000  0.500000  1
  Mg  Mg19  1  0.000000  0.000000  0.500000  1
  Ir  Ir20  1  0.846654  0.154227  0.246363  1
  Ir  Ir21  1  0.845773  0.846654  0.753637  1
  Ir  Ir22  1  0.154227  0.153346  0.753637  1
  Ir  Ir23  1  0.153346  0.845773  0.246363  1
  Ir  Ir24  1  0.656059  0.344263  0.745343  1
  Ir  Ir25  1  0.655737  0.656059  0.254657  1
  Ir  Ir26  1  0.344263  0.343941  0.254657  1
  Ir  Ir27  1  0.343941  0.655737  0.745343  1
  Ir  Ir28  1  0.500000  0.000000  0.124157  1
  Ir  Ir29  1  0.500000  0.000000  0.620903  1
  Ir  Ir30  1  0.000000  0.500000  0.875843  1
  Ir  Ir31  1  0.000000  0.500000  0.379097  1
