# generated using pymatgen
data_Ho16In6RhAu
_symmetry_space_group_name_H-M   'P 1'
_cell_length_a   10.49036000
_cell_length_b   10.49036115
_cell_length_c   6.94826500
_cell_angle_alpha   90.00000000
_cell_angle_beta   90.00000000
_cell_angle_gamma   120.00000270
_symmetry_Int_Tables_number   1
_chemical_formula_structural   Ho16In6RhAu
_chemical_formula_sum   'Ho16 In6 Rh1 Au1'
_cell_volume   662.19794006
_cell_formula_units_Z   1
loop_
 _symmetry_equiv_pos_site_id
 _symmetry_equiv_pos_as_xyz
  1  'x, y, z'
loop_
 _atom_site_type_symbol
 _atom_site_label
 _atom_site_symmetry_multiplicity
 _atom_site_fract_x
 _atom_site_fract_y
 _atom_site_fract_z
 _atom_site_occupancy
  Ho  Ho0  1  0.526250  0.052498  0.511026  1
  Ho  Ho1  1  0.947502  0.473750  0.511026  1
  Ho  Ho2  1  0.526250  0.473750  0.511026  1
  Ho  Ho3  1  0.466833  0.933666  0.008954  1
  Ho  Ho4  1  0.066334  0.533167  0.008954  1
  Ho  Ho5  1  0.466833  0.533167  0.008954  1
  Ho  Ho6  1  0.176028  0.352055  0.717048  1
  Ho  Ho7  1  0.647945  0.823972  0.717048  1
  Ho  Ho8  1  0.176028  0.823972  0.717048  1
  Ho  Ho9  1  0.826945  0.653891  0.215235  1
  Ho  Ho10  1  0.346109  0.173055  0.215235  1
  Ho  Ho11  1  0.826945  0.173055  0.215235  1
  Ho  Ho12  1  0.666667  0.333333  0.869946  1
  Ho  Ho13  1  0.333333  0.666667  0.389486  1
  Ho  Ho14  1  0.000000  0.000000  0.489556  1
  Ho  Ho15  1  0.000000  0.000000  0.990598  1
  In  In16  1  0.836824  0.673649  0.747322  1
  In  In17  1  0.326351  0.163176  0.747322  1
  In  In18  1  0.836824  0.163176  0.747322  1
  In  In19  1  0.162904  0.325806  0.251949  1
  In  In20  1  0.674194  0.837096  0.251949  1
  In  In21  1  0.162904  0.837096  0.251949  1
  Rh  Rh22  1  0.333333  0.666667  0.784258  1
  Au  Au23  1  0.666667  0.333333  0.279599  1
