# generated using pymatgen
data_Y3Zr(P3Ir4)2
_symmetry_space_group_name_H-M   'P 1'
_cell_length_a   4.01780800
_cell_length_b   11.22481500
_cell_length_c   12.93607600
_cell_angle_alpha   90.00000000
_cell_angle_beta   90.00000000
_cell_angle_gamma   90.00000000
_symmetry_Int_Tables_number   1
_chemical_formula_structural   Y3Zr(P3Ir4)2
_chemical_formula_sum   'Y6 Zr2 P12 Ir16'
_cell_volume   583.40605141
_cell_formula_units_Z   2
loop_
 _symmetry_equiv_pos_site_id
 _symmetry_equiv_pos_as_xyz
  1  'x, y, z'
loop_
 _atom_site_type_symbol
 _atom_site_label
 _atom_site_symmetry_multiplicity
 _atom_site_fract_x
 _atom_site_fract_y
 _atom_site_fract_z
 _atom_site_occupancy
  Y  Y0  1  0.000000  0.500000  0.522813  1
  Y  Y1  1  0.500000  0.000000  0.477187  1
  Y  Y2  1  0.500000  0.820449  0.202620  1
  Y  Y3  1  0.500000  0.179551  0.202620  1
  Y  Y4  1  0.000000  0.679551  0.797380  1
  Y  Y5  1  0.000000  0.320449  0.797380  1
  Zr  Zr6  1  0.500000  0.500000  0.159403  1
  Zr  Zr7  1  0.000000  0.000000  0.840597  1
  P  P8  1  0.500000  0.500000  0.876919  1
  P  P9  1  0.000000  0.000000  0.123081  1
  P  P10  1  0.500000  0.500000  0.359664  1
  P  P11  1  0.000000  0.000000  0.640336  1
  P  P12  1  0.500000  0.313440  0.616803  1
  P  P13  1  0.500000  0.686560  0.616803  1
  P  P14  1  0.000000  0.186560  0.383197  1
  P  P15  1  0.000000  0.813440  0.383197  1
  P  P16  1  0.500000  0.842631  0.887171  1
  P  P17  1  0.500000  0.157369  0.887171  1
  P  P18  1  0.000000  0.657369  0.112829  1
  P  P19  1  0.000000  0.342631  0.112829  1
  Ir  Ir20  1  0.500000  0.500000  0.698952  1
  Ir  Ir21  1  0.000000  0.000000  0.301048  1
  Ir  Ir22  1  0.000000  0.500000  0.989657  1
  Ir  Ir23  1  0.500000  0.000000  0.010343  1
  Ir  Ir24  1  0.500000  0.330792  0.982185  1
  Ir  Ir25  1  0.500000  0.669208  0.982185  1
  Ir  Ir26  1  0.000000  0.169208  0.017815  1
  Ir  Ir27  1  0.000000  0.830792  0.017815  1
  Ir  Ir28  1  0.500000  0.294799  0.432616  1
  Ir  Ir29  1  0.500000  0.705201  0.432616  1
  Ir  Ir30  1  0.000000  0.205201  0.567384  1
  Ir  Ir31  1  0.000000  0.794799  0.567384  1
  Ir  Ir32  1  0.500000  0.870386  0.708301  1
  Ir  Ir33  1  0.500000  0.129614  0.708301  1
  Ir  Ir34  1  0.000000  0.629614  0.291699  1
  Ir  Ir35  1  0.000000  0.370386  0.291699  1
