# generated using pymatgen
data_Dy2Al20ReRh3
_symmetry_space_group_name_H-M   'P 1'
_cell_length_a   6.85439930
_cell_length_b   6.87058619
_cell_length_c   9.17859883
_cell_angle_alpha   90.32906797
_cell_angle_beta   90.45819326
_cell_angle_gamma   97.10315930
_symmetry_Int_Tables_number   1
_chemical_formula_structural   Dy2Al20ReRh3
_chemical_formula_sum   'Dy2 Al20 Re1 Rh3'
_cell_volume   428.91346936
_cell_formula_units_Z   1
loop_
 _symmetry_equiv_pos_site_id
 _symmetry_equiv_pos_as_xyz
  1  'x, y, z'
loop_
 _atom_site_type_symbol
 _atom_site_label
 _atom_site_symmetry_multiplicity
 _atom_site_fract_x
 _atom_site_fract_y
 _atom_site_fract_z
 _atom_site_occupancy
  Dy  Dy0  1  0.867806  0.125961  0.748916  1
  Dy  Dy1  1  0.132194  0.874039  0.251084  1
  Al  Al2  1  0.620909  0.375752  0.548485  1
  Al  Al3  1  0.379091  0.624248  0.451515  1
  Al  Al4  1  0.378091  0.622576  0.050721  1
  Al  Al5  1  0.621909  0.377424  0.949279  1
  Al  Al6  1  0.222241  0.222034  0.498871  1
  Al  Al7  1  0.777759  0.777966  0.501129  1
  Al  Al8  1  0.776142  0.776291  0.999921  1
  Al  Al9  1  0.223858  0.223709  0.000079  1
  Al  Al10  1  0.845249  0.156302  0.103037  1
  Al  Al11  1  0.154751  0.843698  0.896963  1
  Al  Al12  1  0.155265  0.845782  0.601079  1
  Al  Al13  1  0.844735  0.154218  0.398921  1
  Al  Al14  1  0.857449  0.588511  0.749769  1
  Al  Al15  1  0.142551  0.411489  0.250231  1
  Al  Al16  1  0.411558  0.142571  0.749895  1
  Al  Al17  1  0.588442  0.857429  0.250105  1
  Al  Al18  1  0.224713  0.480120  0.750134  1
  Al  Al19  1  0.775287  0.519880  0.249866  1
  Al  Al20  1  0.519004  0.776991  0.745907  1
  Al  Al21  1  0.480996  0.223009  0.254093  1
  Re  Re22  1  0.500000  0.000000  0.500000  1
  Rh  Rh23  1  0.000000  0.500000  0.500000  1
  Rh  Rh24  1  0.000000  0.500000  0.000000  1
  Rh  Rh25  1  0.500000  0.000000  0.000000  1
