# generated using pymatgen
data_Nd3Ho(In2Pd3)4
_symmetry_space_group_name_H-M   'P 1'
_cell_length_a   4.67263100
_cell_length_b   9.95859463
_cell_length_c   10.38357573
_cell_angle_alpha   90.09747843
_cell_angle_beta   90.00000000
_cell_angle_gamma   90.00000000
_symmetry_Int_Tables_number   1
_chemical_formula_structural   Nd3Ho(In2Pd3)4
_chemical_formula_sum   'Nd3 Ho1 In8 Pd12'
_cell_volume   483.17654782
_cell_formula_units_Z   1
loop_
 _symmetry_equiv_pos_site_id
 _symmetry_equiv_pos_as_xyz
  1  'x, y, z'
loop_
 _atom_site_type_symbol
 _atom_site_label
 _atom_site_symmetry_multiplicity
 _atom_site_fract_x
 _atom_site_fract_y
 _atom_site_fract_z
 _atom_site_occupancy
  Nd  Nd0  1  0.250000  0.056217  0.229199  1
  Nd  Nd1  1  0.750000  0.556678  0.271360  1
  Nd  Nd2  1  0.750000  0.944462  0.770246  1
  Ho  Ho3  1  0.250000  0.441731  0.722857  1
  In  In4  1  0.250000  0.884096  0.517063  1
  In  In5  1  0.250000  0.615364  0.012332  1
  In  In6  1  0.750000  0.115571  0.484530  1
  In  In7  1  0.750000  0.384527  0.984388  1
  In  In8  1  0.250000  0.162353  0.893066  1
  In  In9  1  0.250000  0.340958  0.395726  1
  In  In10  1  0.750000  0.840795  0.105010  1
  In  In11  1  0.750000  0.657547  0.607252  1
  Pd  Pd12  1  0.250000  0.147598  0.620494  1
  Pd  Pd13  1  0.250000  0.356876  0.121326  1
  Pd  Pd14  1  0.750000  0.856464  0.380040  1
  Pd  Pd15  1  0.750000  0.638875  0.877516  1
  Pd  Pd16  1  0.250000  0.734573  0.742312  1
  Pd  Pd17  1  0.250000  0.758395  0.242095  1
  Pd  Pd18  1  0.750000  0.260018  0.258698  1
  Pd  Pd19  1  0.750000  0.246174  0.759214  1
  Pd  Pd20  1  0.250000  0.896143  0.973081  1
  Pd  Pd21  1  0.250000  0.603398  0.477346  1
  Pd  Pd22  1  0.750000  0.106219  0.025308  1
  Pd  Pd23  1  0.750000  0.394968  0.529542  1
