# generated using pymatgen
data_TbYb2Y5(B6Ru)4
_symmetry_space_group_name_H-M   'P 1'
_cell_length_a   3.66288700
_cell_length_b   9.15936541
_cell_length_c   11.55197222
_cell_angle_alpha   89.80061565
_cell_angle_beta   90.00000000
_cell_angle_gamma   90.00000000
_symmetry_Int_Tables_number   1
_chemical_formula_structural   TbYb2Y5(B6Ru)4
_chemical_formula_sum   'Tb1 Yb2 Y5 B24 Ru4'
_cell_volume   387.56309237
_cell_formula_units_Z   1
loop_
 _symmetry_equiv_pos_site_id
 _symmetry_equiv_pos_as_xyz
  1  'x, y, z'
loop_
 _atom_site_type_symbol
 _atom_site_label
 _atom_site_symmetry_multiplicity
 _atom_site_fract_x
 _atom_site_fract_y
 _atom_site_fract_z
 _atom_site_occupancy
  Tb  Tb0  1  0.000000  0.822828  0.086213  1
  Yb  Yb1  1  0.000000  0.325323  0.415003  1
  Yb  Yb2  1  0.000000  0.674659  0.585016  1
  Y  Y3  1  0.000000  0.177394  0.913819  1
  Y  Y4  1  0.000000  0.941583  0.370107  1
  Y  Y5  1  0.000000  0.058449  0.629915  1
  Y  Y6  1  0.000000  0.442401  0.131151  1
  Y  Y7  1  0.000000  0.557530  0.868828  1
  B  B8  1  0.500000  0.554074  0.432611  1
  B  B9  1  0.500000  0.445907  0.567395  1
  B  B10  1  0.500000  0.053798  0.067087  1
  B  B11  1  0.500000  0.946211  0.932886  1
  B  B12  1  0.500000  0.747076  0.418150  1
  B  B13  1  0.500000  0.252923  0.581848  1
  B  B14  1  0.500000  0.247669  0.081548  1
  B  B15  1  0.500000  0.752333  0.918363  1
  B  B16  1  0.500000  0.790256  0.265244  1
  B  B17  1  0.500000  0.209658  0.734826  1
  B  B18  1  0.500000  0.289362  0.234771  1
  B  B19  1  0.500000  0.710654  0.765205  1
  B  B20  1  0.500000  0.631345  0.185903  1
  B  B21  1  0.500000  0.368611  0.814129  1
  B  B22  1  0.500000  0.131043  0.313909  1
  B  B23  1  0.500000  0.868972  0.686076  1
  B  B24  1  0.500000  0.983698  0.211628  1
  B  B25  1  0.500000  0.016426  0.788387  1
  B  B26  1  0.500000  0.484042  0.288881  1
  B  B27  1  0.500000  0.515949  0.711126  1
  B  B28  1  0.500000  0.604012  0.028692  1
  B  B29  1  0.500000  0.395789  0.971255  1
  B  B30  1  0.500000  0.100556  0.472041  1
  B  B31  1  0.500000  0.899454  0.527968  1
  Ru  Ru32  1  0.000000  0.639422  0.319563  1
  Ru  Ru33  1  0.000000  0.360546  0.680458  1
  Ru  Ru34  1  0.000000  0.136854  0.178127  1
  Ru  Ru35  1  0.000000  0.863193  0.821874  1
