# generated using pymatgen
data_Mg2FeSn(AuO2)4
_symmetry_space_group_name_H-M   'P 1'
_cell_length_a   5.43071795
_cell_length_b   6.32656990
_cell_length_c   7.18587966
_cell_angle_alpha   63.86120041
_cell_angle_beta   75.45224923
_cell_angle_gamma   89.98008601
_symmetry_Int_Tables_number   1
_chemical_formula_structural   Mg2FeSn(AuO2)4
_chemical_formula_sum   'Mg2 Fe1 Sn1 Au4 O8'
_cell_volume   212.79956133
_cell_formula_units_Z   1
loop_
 _symmetry_equiv_pos_site_id
 _symmetry_equiv_pos_as_xyz
  1  'x, y, z'
loop_
 _atom_site_type_symbol
 _atom_site_label
 _atom_site_symmetry_multiplicity
 _atom_site_fract_x
 _atom_site_fract_y
 _atom_site_fract_z
 _atom_site_occupancy
  Mg  Mg0  1  0.500046  0.748959  0.999976  1
  Mg  Mg1  1  0.999939  0.506293  0.000033  1
  Fe  Fe2  1  0.000074  0.988547  0.999960  1
  Sn  Sn3  1  0.499950  0.251613  0.000010  1
  Au  Au4  1  0.002501  0.999387  0.503666  1
  Au  Au5  1  0.997506  0.503132  0.496332  1
  Au  Au6  1  0.503913  0.749159  0.500882  1
  Au  Au7  1  0.496116  0.250064  0.499118  1
  O  O8  1  0.893208  0.841099  0.833335  1
  O  O9  1  0.891422  0.327407  0.831930  1
  O  O10  1  0.390731  0.582304  0.832067  1
  O  O11  1  0.383529  0.086106  0.832464  1
  O  O12  1  0.108502  0.159172  0.168096  1
  O  O13  1  0.106864  0.674249  0.166658  1
  O  O14  1  0.616540  0.918371  0.167535  1
  O  O15  1  0.609158  0.414136  0.167936  1
