# generated using pymatgen
data_Tb7YHf3Si16W9
_symmetry_space_group_name_H-M   'P 1'
_cell_length_a   6.97755497
_cell_length_b   6.97790802
_cell_length_c   12.94679603
_cell_angle_alpha   89.97826368
_cell_angle_beta   90.03139660
_cell_angle_gamma   89.91776284
_symmetry_Int_Tables_number   1
_chemical_formula_structural   Tb7YHf3Si16W9
_chemical_formula_sum   'Tb7 Y1 Hf3 Si16 W9'
_cell_volume   630.36235424
_cell_formula_units_Z   1
loop_
 _symmetry_equiv_pos_site_id
 _symmetry_equiv_pos_as_xyz
  1  'x, y, z'
loop_
 _atom_site_type_symbol
 _atom_site_label
 _atom_site_symmetry_multiplicity
 _atom_site_fract_x
 _atom_site_fract_y
 _atom_site_fract_z
 _atom_site_occupancy
  Tb  Tb0  1  0.003906  0.662726  0.720377  1
  Tb  Tb1  1  0.162239  0.497904  0.468571  1
  Tb  Tb2  1  0.500277  0.839229  0.030840  1
  Tb  Tb3  1  0.839217  0.500233  0.969144  1
  Tb  Tb4  1  0.497941  0.162242  0.531438  1
  Tb  Tb5  1  0.336348  0.000867  0.783097  1
  Tb  Tb6  1  0.662692  0.003868  0.279623  1
  Y  Y7  1  0.000904  0.336412  0.216902  1
  Hf  Hf8  1  0.832582  0.832609  0.500015  1
  Hf  Hf9  1  0.330880  0.667498  0.247708  1
  Hf  Hf10  1  0.667494  0.330828  0.752291  1
  Si  Si11  1  0.372803  0.295006  0.317452  1
  Si  Si12  1  0.625529  0.706802  0.817581  1
  Si  Si13  1  0.205080  0.873590  0.568072  1
  Si  Si14  1  0.124676  0.802154  0.933714  1
  Si  Si15  1  0.802173  0.124715  0.066276  1
  Si  Si16  1  0.873573  0.205075  0.431934  1
  Si  Si17  1  0.295002  0.372894  0.682525  1
  Si  Si18  1  0.706812  0.625513  0.182417  1
  Si  Si19  1  0.289193  0.043793  0.184264  1
  Si  Si20  1  0.708397  0.959437  0.688597  1
  Si  Si21  1  0.458302  0.790887  0.437630  1
  Si  Si22  1  0.210324  0.532192  0.059183  1
  Si  Si23  1  0.532224  0.210328  0.940826  1
  Si  Si24  1  0.790877  0.458291  0.562371  1
  Si  Si25  1  0.043720  0.289166  0.815728  1
  Si  Si26  1  0.959405  0.708309  0.311393  1
  W  W27  1  0.166403  0.166380  0.000020  1
  W  W28  1  0.161992  0.994875  0.375020  1
  W  W29  1  0.833709  0.005570  0.876847  1
  W  W30  1  0.506049  0.661666  0.626737  1
  W  W31  1  0.340234  0.496952  0.873709  1
  W  W32  1  0.496934  0.340259  0.126311  1
  W  W33  1  0.661686  0.505997  0.373242  1
  W  W34  1  0.994883  0.161994  0.624979  1
  W  W35  1  0.005541  0.833741  0.123168  1
