# generated using pymatgen
data_Tb3CdIn3CuPd
_symmetry_space_group_name_H-M   'P 1'
_cell_length_a   7.80108700
_cell_length_b   7.80108543
_cell_length_c   3.91226100
_cell_angle_alpha   90.00000000
_cell_angle_beta   90.00000000
_cell_angle_gamma   120.00000240
_symmetry_Int_Tables_number   1
_chemical_formula_structural   Tb3CdIn3CuPd
_chemical_formula_sum   'Tb3 Cd1 In3 Cu1 Pd1'
_cell_volume   206.19047398
_cell_formula_units_Z   1
loop_
 _symmetry_equiv_pos_site_id
 _symmetry_equiv_pos_as_xyz
  1  'x, y, z'
loop_
 _atom_site_type_symbol
 _atom_site_label
 _atom_site_symmetry_multiplicity
 _atom_site_fract_x
 _atom_site_fract_y
 _atom_site_fract_z
 _atom_site_occupancy
  Tb  Tb0  1  0.021637  0.607513  0.500000  1
  Tb  Tb1  1  0.392487  0.414124  0.500000  1
  Tb  Tb2  1  0.585876  0.978363  0.500000  1
  Cd  Cd3  1  0.666667  0.333333  0.000000  1
  In  In4  1  0.751596  0.752261  0.000000  1
  In  In5  1  0.000665  0.248404  0.000000  1
  In  In6  1  0.247739  0.999335  0.000000  1
  Cu  Cu7  1  0.000000  0.000000  0.500000  1
  Pd  Pd8  1  0.333333  0.666667  0.000000  1
