# generated using pymatgen
data_Lu5ZrFeTe2
_symmetry_space_group_name_H-M   'P 1'
_cell_length_a   8.08818094
_cell_length_b   8.21207786
_cell_length_c   3.86477700
_cell_angle_alpha   90.00000000
_cell_angle_beta   90.00000000
_cell_angle_gamma   120.50802837
_symmetry_Int_Tables_number   1
_chemical_formula_structural   Lu5ZrFeTe2
_chemical_formula_sum   'Lu5 Zr1 Fe1 Te2'
_cell_volume   221.16321445
_cell_formula_units_Z   1
loop_
 _symmetry_equiv_pos_site_id
 _symmetry_equiv_pos_as_xyz
  1  'x, y, z'
loop_
 _atom_site_type_symbol
 _atom_site_label
 _atom_site_symmetry_multiplicity
 _atom_site_fract_x
 _atom_site_fract_y
 _atom_site_fract_z
 _atom_site_occupancy
  Lu  Lu0  1  0.768905  0.764073  0.500000  1
  Lu  Lu1  1  0.000000  0.594985  0.000000  1
  Lu  Lu2  1  0.231095  0.995168  0.500000  1
  Lu  Lu3  1  0.619600  0.003173  0.000000  1
  Lu  Lu4  1  0.380400  0.383573  0.000000  1
  Zr  Zr5  1  0.000000  0.232381  0.500000  1
  Fe  Fe6  1  0.000000  0.030352  0.000000  1
  Te  Te7  1  0.667950  0.332122  0.500000  1
  Te  Te8  1  0.332050  0.664174  0.500000  1
