# generated using pymatgen
data_Dy2U(GaRu)3
_symmetry_space_group_name_H-M   'P 1'
_cell_length_a   6.90664865
_cell_length_b   6.90830873
_cell_length_c   3.98672800
_cell_angle_alpha   90.00000000
_cell_angle_beta   90.00000000
_cell_angle_gamma   116.37483868
_symmetry_Int_Tables_number   1
_chemical_formula_structural   Dy2U(GaRu)3
_chemical_formula_sum   'Dy2 U1 Ga3 Ru3'
_cell_volume   170.41923285
_cell_formula_units_Z   1
loop_
 _symmetry_equiv_pos_site_id
 _symmetry_equiv_pos_as_xyz
  1  'x, y, z'
loop_
 _atom_site_type_symbol
 _atom_site_label
 _atom_site_symmetry_multiplicity
 _atom_site_fract_x
 _atom_site_fract_y
 _atom_site_fract_z
 _atom_site_occupancy
  Dy  Dy0  1  0.586909  0.990787  0.500001  1
  Dy  Dy1  1  0.990820  0.586949  0.500001  1
  U  U2  1  0.382400  0.382417  0.500001  1
  Ga  Ga3  1  0.255650  0.966771  0.000000  1
  Ga  Ga4  1  0.966775  0.255647  0.000000  1
  Ga  Ga5  1  0.790406  0.790433  0.000000  1
  Ru  Ru6  1  0.043730  0.043697  0.500001  1
  Ru  Ru7  1  0.364213  0.619096  0.000000  1
  Ru  Ru8  1  0.618995  0.364205  0.000000  1
