# generated using pymatgen
data_Dy2Y7Th3Co4
_symmetry_space_group_name_H-M   'P 1'
_cell_length_a   6.32788085
_cell_length_b   6.91212178
_cell_length_c   9.60671599
_cell_angle_alpha   90.05173649
_cell_angle_beta   90.00378203
_cell_angle_gamma   90.98652272
_symmetry_Int_Tables_number   1
_chemical_formula_structural   Dy2Y7Th3Co4
_chemical_formula_sum   'Dy2 Y7 Th3 Co4'
_cell_volume   420.12649188
_cell_formula_units_Z   1
loop_
 _symmetry_equiv_pos_site_id
 _symmetry_equiv_pos_as_xyz
  1  'x, y, z'
loop_
 _atom_site_type_symbol
 _atom_site_label
 _atom_site_symmetry_multiplicity
 _atom_site_fract_x
 _atom_site_fract_y
 _atom_site_fract_z
 _atom_site_occupancy
  Dy  Dy0  1  0.645560  0.045356  0.250002  1
  Dy  Dy1  1  0.323895  0.671780  0.430244  1
  Y  Y2  1  0.672313  0.326989  0.931664  1
  Y  Y3  1  0.176097  0.172508  0.428575  1
  Y  Y4  1  0.828962  0.827769  0.568674  1
  Y  Y5  1  0.176024  0.172501  0.071452  1
  Y  Y6  1  0.828545  0.827918  0.931125  1
  Y  Y7  1  0.672151  0.327188  0.568212  1
  Y  Y8  1  0.324175  0.672392  0.068985  1
  Th  Th9  1  0.157101  0.445253  0.749852  1
  Th  Th10  1  0.345883  0.944356  0.749748  1
  Th  Th11  1  0.842110  0.553375  0.250047  1
  Co  Co12  1  0.530889  0.628280  0.750044  1
  Co  Co13  1  0.970635  0.127577  0.749946  1
  Co  Co14  1  0.036099  0.866656  0.250503  1
  Co  Co15  1  0.469562  0.390102  0.250927  1
