# generated using pymatgen
data_SmTh3(Ni2Hg)2
_symmetry_space_group_name_H-M   'P 1'
_cell_length_a   7.60598962
_cell_length_b   7.60599030
_cell_length_c   3.69127300
_cell_angle_alpha   90.00000000
_cell_angle_beta   90.00000000
_cell_angle_gamma   88.63383383
_symmetry_Int_Tables_number   1
_chemical_formula_structural   SmTh3(Ni2Hg)2
_chemical_formula_sum   'Sm1 Th3 Ni4 Hg2'
_cell_volume   213.48344027
_cell_formula_units_Z   1
loop_
 _symmetry_equiv_pos_site_id
 _symmetry_equiv_pos_as_xyz
  1  'x, y, z'
loop_
 _atom_site_type_symbol
 _atom_site_label
 _atom_site_symmetry_multiplicity
 _atom_site_fract_x
 _atom_site_fract_y
 _atom_site_fract_z
 _atom_site_occupancy
  Sm  Sm0  1  0.673397  0.173397  0.500000  1
  Th  Th1  1  0.327923  0.827923  0.500000  1
  Th  Th2  1  0.825268  0.673203  0.500000  1
  Th  Th3  1  0.173203  0.325268  0.500000  1
  Ni  Ni4  1  0.370738  0.117829  0.000000  1
  Ni  Ni5  1  0.888899  0.388899  0.000000  1
  Ni  Ni6  1  0.126301  0.626301  0.000000  1
  Ni  Ni7  1  0.617829  0.870738  0.000000  1
  Hg  Hg8  1  0.993707  0.002734  0.000000  1
  Hg  Hg9  1  0.502734  0.493707  0.000000  1
