# generated using pymatgen
data_Na12MoAs8W
_symmetry_space_group_name_H-M   'P 1'
_cell_length_a   9.43692900
_cell_length_b   9.43692854
_cell_length_c   7.37355400
_cell_angle_alpha   90.00000000
_cell_angle_beta   90.00000000
_cell_angle_gamma   119.99999812
_symmetry_Int_Tables_number   1
_chemical_formula_structural   Na12MoAs8W
_chemical_formula_sum   'Na12 Mo1 As8 W1'
_cell_volume   568.68118386
_cell_formula_units_Z   1
loop_
 _symmetry_equiv_pos_site_id
 _symmetry_equiv_pos_as_xyz
  1  'x, y, z'
loop_
 _atom_site_type_symbol
 _atom_site_label
 _atom_site_symmetry_multiplicity
 _atom_site_fract_x
 _atom_site_fract_y
 _atom_site_fract_z
 _atom_site_occupancy
  Na  Na0  1  0.148177  0.296355  0.285395  1
  Na  Na1  1  0.851924  0.148076  0.785529  1
  Na  Na2  1  0.531517  0.468483  0.108234  1
  Na  Na3  1  0.063754  0.531877  0.608580  1
  Na  Na4  1  0.468123  0.936246  0.608580  1
  Na  Na5  1  0.531517  0.063033  0.108234  1
  Na  Na6  1  0.936967  0.468483  0.108234  1
  Na  Na7  1  0.468123  0.531877  0.608580  1
  Na  Na8  1  0.148177  0.851823  0.285395  1
  Na  Na9  1  0.703645  0.851823  0.285395  1
  Na  Na10  1  0.851924  0.703846  0.785529  1
  Na  Na11  1  0.296154  0.148076  0.785529  1
  Mo  Mo12  1  0.333333  0.666667  0.994946  1
  As  As13  1  0.807454  0.614909  0.391604  1
  As  As14  1  0.385091  0.192546  0.391604  1
  As  As15  1  0.333333  0.666667  0.322874  1
  As  As16  1  0.666667  0.333333  0.823008  1
  As  As17  1  0.807454  0.192546  0.391604  1
  As  As18  1  0.192648  0.807352  0.891994  1
  As  As19  1  0.192648  0.385297  0.891994  1
  As  As20  1  0.614703  0.807352  0.891994  1
  W  W21  1  0.666667  0.333333  0.494960  1
