# generated using pymatgen
data_TbNdSn4BiRh3
_symmetry_space_group_name_H-M   'P 1'
_cell_length_a   13.71246406
_cell_length_b   13.71246385
_cell_length_c   7.31290700
_cell_angle_alpha   90.00000000
_cell_angle_beta   90.00000000
_cell_angle_gamma   161.07609990
_symmetry_Int_Tables_number   1
_chemical_formula_structural   TbNdSn4BiRh3
_chemical_formula_sum   'Tb2 Nd2 Sn8 Bi2 Rh6'
_cell_volume   445.94789143
_cell_formula_units_Z   2
loop_
 _symmetry_equiv_pos_site_id
 _symmetry_equiv_pos_as_xyz
  1  'x, y, z'
loop_
 _atom_site_type_symbol
 _atom_site_label
 _atom_site_symmetry_multiplicity
 _atom_site_fract_x
 _atom_site_fract_y
 _atom_site_fract_z
 _atom_site_occupancy
  Tb  Tb0  1  0.476834  0.523166  0.735886  1
  Tb  Tb1  1  0.523166  0.476834  0.235886  1
  Nd  Nd2  1  0.172287  0.827713  0.754678  1
  Nd  Nd3  1  0.827713  0.172287  0.254678  1
  Sn  Sn4  1  0.704982  0.295018  0.048738  1
  Sn  Sn5  1  0.295018  0.704982  0.548738  1
  Sn  Sn6  1  0.595464  0.404536  0.611872  1
  Sn  Sn7  1  0.404536  0.595464  0.111872  1
  Sn  Sn8  1  0.953317  0.046683  0.399217  1
  Sn  Sn9  1  0.046683  0.953317  0.899217  1
  Sn  Sn10  1  0.289447  0.710553  0.975482  1
  Sn  Sn11  1  0.710553  0.289447  0.475482  1
  Bi  Bi12  1  0.879932  0.120068  0.732893  1
  Bi  Bi13  1  0.120068  0.879932  0.232893  1
  Rh  Rh14  1  0.049751  0.950249  0.520854  1
  Rh  Rh15  1  0.950249  0.049751  0.020854  1
  Rh  Rh16  1  0.775922  0.224078  0.767574  1
  Rh  Rh17  1  0.224078  0.775922  0.267574  1
  Rh  Rh18  1  0.395872  0.604128  0.480807  1
  Rh  Rh19  1  0.604128  0.395872  0.980807  1
