# generated using pymatgen
data_Pr9Lu(IrPt2)2
_symmetry_space_group_name_H-M   'P 1'
_cell_length_a   11.48229300
_cell_length_b   11.48229300
_cell_length_c   6.52138200
_cell_angle_alpha   90.00000000
_cell_angle_beta   90.00000000
_cell_angle_gamma   90.00000000
_symmetry_Int_Tables_number   1
_chemical_formula_structural   Pr9Lu(IrPt2)2
_chemical_formula_sum   'Pr18 Lu2 Ir4 Pt8'
_cell_volume   859.79890965
_cell_formula_units_Z   2
loop_
 _symmetry_equiv_pos_site_id
 _symmetry_equiv_pos_as_xyz
  1  'x, y, z'
loop_
 _atom_site_type_symbol
 _atom_site_label
 _atom_site_symmetry_multiplicity
 _atom_site_fract_x
 _atom_site_fract_y
 _atom_site_fract_z
 _atom_site_occupancy
  Pr  Pr0  1  0.290665  0.087765  0.376158  1
  Pr  Pr1  1  0.290665  0.912235  0.876158  1
  Pr  Pr2  1  0.709335  0.087765  0.876158  1
  Pr  Pr3  1  0.709335  0.912235  0.376158  1
  Pr  Pr4  1  0.588521  0.795178  0.872615  1
  Pr  Pr5  1  0.588521  0.204822  0.372615  1
  Pr  Pr6  1  0.411479  0.795178  0.372615  1
  Pr  Pr7  1  0.411479  0.204822  0.872615  1
  Pr  Pr8  1  0.204822  0.411479  0.627385  1
  Pr  Pr9  1  0.204822  0.588521  0.127385  1
  Pr  Pr10  1  0.795178  0.411479  0.127385  1
  Pr  Pr11  1  0.795178  0.588521  0.627385  1
  Pr  Pr12  1  0.912235  0.709335  0.123842  1
  Pr  Pr13  1  0.912235  0.290665  0.623842  1
  Pr  Pr14  1  0.087765  0.709335  0.623842  1
  Pr  Pr15  1  0.087765  0.290665  0.123842  1
  Pr  Pr16  1  0.500000  0.500000  0.000000  1
  Pr  Pr17  1  0.500000  0.500000  0.500000  1
  Lu  Lu18  1  0.000000  0.000000  0.500000  1
  Lu  Lu19  1  0.000000  0.000000  0.000000  1
  Ir  Ir20  1  0.500000  0.000000  0.113061  1
  Ir  Ir21  1  0.500000  0.000000  0.613061  1
  Ir  Ir22  1  0.000000  0.500000  0.886939  1
  Ir  Ir23  1  0.000000  0.500000  0.386939  1
  Pt  Pt24  1  0.856498  0.143502  0.250000  1
  Pt  Pt25  1  0.856498  0.856498  0.750000  1
  Pt  Pt26  1  0.143502  0.143502  0.750000  1
  Pt  Pt27  1  0.143502  0.856498  0.250000  1
  Pt  Pt28  1  0.654744  0.345256  0.750000  1
  Pt  Pt29  1  0.654744  0.654744  0.250000  1
  Pt  Pt30  1  0.345256  0.345256  0.250000  1
  Pt  Pt31  1  0.345256  0.654744  0.750000  1
