# generated using pymatgen
data_Tb4Er2Al24Ru7Au
_symmetry_space_group_name_H-M   'P 1'
_cell_length_a   8.85013221
_cell_length_b   8.85013063
_cell_length_c   9.57097936
_cell_angle_alpha   89.90833826
_cell_angle_beta   90.09167161
_cell_angle_gamma   120.01240680
_symmetry_Int_Tables_number   1
_chemical_formula_structural   Tb4Er2Al24Ru7Au
_chemical_formula_sum   'Tb4 Er2 Al24 Ru7 Au1'
_cell_volume   649.12958150
_cell_formula_units_Z   1
loop_
 _symmetry_equiv_pos_site_id
 _symmetry_equiv_pos_as_xyz
  1  'x, y, z'
loop_
 _atom_site_type_symbol
 _atom_site_label
 _atom_site_symmetry_multiplicity
 _atom_site_fract_x
 _atom_site_fract_y
 _atom_site_fract_z
 _atom_site_occupancy
  Tb  Tb0  1  0.192325  0.386118  0.249704  1
  Tb  Tb1  1  0.807675  0.613882  0.750296  1
  Tb  Tb2  1  0.613882  0.807675  0.249704  1
  Tb  Tb3  1  0.386118  0.192325  0.750296  1
  Er  Er4  1  0.194674  0.805326  0.253169  1
  Er  Er5  1  0.805326  0.194674  0.746831  1
  Al  Al6  1  0.327693  0.672307  0.022837  1
  Al  Al7  1  0.672307  0.327693  0.977163  1
  Al  Al8  1  0.666897  0.333103  0.516768  1
  Al  Al9  1  0.333103  0.666897  0.483232  1
  Al  Al10  1  0.161944  0.324114  0.578175  1
  Al  Al11  1  0.838056  0.675886  0.421825  1
  Al  Al12  1  0.675886  0.838056  0.578175  1
  Al  Al13  1  0.849469  0.678412  0.080270  1
  Al  Al14  1  0.324114  0.161944  0.421825  1
  Al  Al15  1  0.150531  0.321588  0.919730  1
  Al  Al16  1  0.162717  0.837283  0.578356  1
  Al  Al17  1  0.321588  0.150531  0.080270  1
  Al  Al18  1  0.837283  0.162717  0.421644  1
  Al  Al19  1  0.678412  0.849469  0.919730  1
  Al  Al20  1  0.837351  0.162649  0.077538  1
  Al  Al21  1  0.162649  0.837351  0.922462  1
  Al  Al22  1  0.560302  0.121427  0.248401  1
  Al  Al23  1  0.439698  0.878573  0.751599  1
  Al  Al24  1  0.878573  0.439698  0.248401  1
  Al  Al25  1  0.121427  0.560302  0.751599  1
  Al  Al26  1  0.564103  0.435897  0.255730  1
  Al  Al27  1  0.435897  0.564103  0.744270  1
  Al  Al28  1  0.999824  0.000176  0.250116  1
  Al  Al29  1  0.000176  0.999824  0.749884  1
  Ru  Ru30  1  0.500000  0.000000  0.000000  1
  Ru  Ru31  1  0.000000  0.500000  0.000000  1
  Ru  Ru32  1  0.500000  0.000000  0.500000  1
  Ru  Ru33  1  0.000000  0.500000  0.500000  1
  Ru  Ru34  1  0.500000  0.500000  0.500000  1
  Ru  Ru35  1  0.000000  0.000000  0.000000  1
  Ru  Ru36  1  0.000000  0.000000  0.500000  1
  Au  Au37  1  0.500000  0.500000  0.000000  1
