# generated using pymatgen
data_YbPrErGa8Ag3
_symmetry_space_group_name_H-M   'P 1'
_cell_length_a   4.38886836
_cell_length_b   8.38093974
_cell_length_c   8.38093940
_cell_angle_alpha   70.33313328
_cell_angle_beta   74.82094018
_cell_angle_gamma   74.82094081
_symmetry_Int_Tables_number   1
_chemical_formula_structural   YbPrErGa8Ag3
_chemical_formula_sum   'Yb1 Pr1 Er1 Ga8 Ag3'
_cell_volume   274.99830498
_cell_formula_units_Z   1
loop_
 _symmetry_equiv_pos_site_id
 _symmetry_equiv_pos_as_xyz
  1  'x, y, z'
loop_
 _atom_site_type_symbol
 _atom_site_label
 _atom_site_symmetry_multiplicity
 _atom_site_fract_x
 _atom_site_fract_y
 _atom_site_fract_z
 _atom_site_occupancy
  Yb  Yb0  1  0.197960  0.802040  0.802040  1
  Pr  Pr1  1  0.500381  0.499619  0.499619  1
  Er  Er2  1  0.799863  0.200137  0.200137  1
  Ga  Ga3  1  0.356446  0.360038  0.927069  1
  Ga  Ga4  1  0.645237  0.637963  0.071565  1
  Ga  Ga5  1  0.356446  0.927069  0.360038  1
  Ga  Ga6  1  0.645237  0.071565  0.637963  1
  Ga  Ga7  1  0.161257  0.469732  0.207754  1
  Ga  Ga8  1  0.837482  0.529510  0.795525  1
  Ga  Ga9  1  0.161257  0.207754  0.469732  1
  Ga  Ga10  1  0.837482  0.795525  0.529510  1
  Ag  Ag11  1  0.499927  0.000073  0.000073  1
  Ag  Ag12  1  0.000513  0.805711  0.193263  1
  Ag  Ag13  1  0.000513  0.193263  0.805711  1
