# generated using pymatgen
data_DySc2Pa(ReB6)2
_symmetry_space_group_name_H-M   'P 1'
_cell_length_a   3.61963500
_cell_length_b   8.99699715
_cell_length_c   11.37701355
_cell_angle_alpha   90.16765022
_cell_angle_beta   90.00000000
_cell_angle_gamma   90.00000000
_symmetry_Int_Tables_number   1
_chemical_formula_structural   DySc2Pa(ReB6)2
_chemical_formula_sum   'Dy2 Sc4 Pa2 Re4 B24'
_cell_volume   370.50048289
_cell_formula_units_Z   2
loop_
 _symmetry_equiv_pos_site_id
 _symmetry_equiv_pos_as_xyz
  1  'x, y, z'
loop_
 _atom_site_type_symbol
 _atom_site_label
 _atom_site_symmetry_multiplicity
 _atom_site_fract_x
 _atom_site_fract_y
 _atom_site_fract_z
 _atom_site_occupancy
  Dy  Dy0  1  0.000000  0.821703  0.085604  1
  Dy  Dy1  1  0.000000  0.178297  0.914396  1
  Sc  Sc2  1  0.000000  0.945901  0.372790  1
  Sc  Sc3  1  0.000000  0.054099  0.627210  1
  Sc  Sc4  1  0.000000  0.444576  0.125672  1
  Sc  Sc5  1  0.000000  0.555424  0.874328  1
  Pa  Pa6  1  0.000000  0.319680  0.413806  1
  Pa  Pa7  1  0.000000  0.680320  0.586194  1
  Re  Re8  1  0.000000  0.637572  0.321477  1
  Re  Re9  1  0.000000  0.362428  0.678523  1
  Re  Re10  1  0.000000  0.142459  0.183416  1
  Re  Re11  1  0.000000  0.857541  0.816584  1
  B  B12  1  0.500000  0.554822  0.432390  1
  B  B13  1  0.500000  0.445178  0.567610  1
  B  B14  1  0.500000  0.054528  0.067383  1
  B  B15  1  0.500000  0.945472  0.932617  1
  B  B16  1  0.500000  0.753530  0.418295  1
  B  B17  1  0.500000  0.246470  0.581705  1
  B  B18  1  0.500000  0.252837  0.080614  1
  B  B19  1  0.500000  0.747163  0.919386  1
  B  B20  1  0.500000  0.794089  0.264128  1
  B  B21  1  0.500000  0.205911  0.735872  1
  B  B22  1  0.500000  0.294129  0.234234  1
  B  B23  1  0.500000  0.705871  0.765766  1
  B  B24  1  0.500000  0.629355  0.182679  1
  B  B25  1  0.500000  0.370645  0.817321  1
  B  B26  1  0.500000  0.129315  0.316347  1
  B  B27  1  0.500000  0.870685  0.683653  1
  B  B28  1  0.500000  0.981218  0.213351  1
  B  B29  1  0.500000  0.018782  0.786649  1
  B  B30  1  0.500000  0.481954  0.284816  1
  B  B31  1  0.500000  0.518046  0.715184  1
  B  B32  1  0.500000  0.597720  0.026736  1
  B  B33  1  0.500000  0.402280  0.973264  1
  B  B34  1  0.500000  0.100300  0.472696  1
  B  B35  1  0.500000  0.899700  0.527304  1
