# generated using pymatgen
data_TbEu3Sb6Rh7
_symmetry_space_group_name_H-M   'P 1'
_cell_length_a   7.74031121
_cell_length_b   7.74031237
_cell_length_c   7.74031117
_cell_angle_alpha   109.31190492
_cell_angle_beta   109.31190453
_cell_angle_gamma   109.31192186
_symmetry_Int_Tables_number   1
_chemical_formula_structural   TbEu3Sb6Rh7
_chemical_formula_sum   'Tb1 Eu3 Sb6 Rh7'
_cell_volume   359.07804123
_cell_formula_units_Z   1
loop_
 _symmetry_equiv_pos_site_id
 _symmetry_equiv_pos_as_xyz
  1  'x, y, z'
loop_
 _atom_site_type_symbol
 _atom_site_label
 _atom_site_symmetry_multiplicity
 _atom_site_fract_x
 _atom_site_fract_y
 _atom_site_fract_z
 _atom_site_occupancy
  Tb  Tb0  1  0.500000  0.500000  0.500000  1
  Eu  Eu1  1  0.500000  0.000000  0.000000  1
  Eu  Eu2  1  0.000000  0.500000  0.000000  1
  Eu  Eu3  1  0.000000  0.000000  0.500000  1
  Sb  Sb4  1  0.998978  0.320963  0.320963  1
  Sb  Sb5  1  0.679037  0.001022  0.679037  1
  Sb  Sb6  1  0.679037  0.679037  0.001022  1
  Sb  Sb7  1  0.001022  0.679037  0.679037  1
  Sb  Sb8  1  0.320963  0.998978  0.320963  1
  Sb  Sb9  1  0.320963  0.320963  0.998978  1
  Rh  Rh10  1  0.000000  0.000000  0.000000  1
  Rh  Rh11  1  0.500000  0.745880  0.254120  1
  Rh  Rh12  1  0.745880  0.500000  0.254120  1
  Rh  Rh13  1  0.254120  0.745880  0.500000  1
  Rh  Rh14  1  0.254120  0.500000  0.745880  1
  Rh  Rh15  1  0.500000  0.254120  0.745880  1
  Rh  Rh16  1  0.745880  0.254120  0.500000  1
