# generated using pymatgen
data_Yb3Y(FeB4)4
_symmetry_space_group_name_H-M   'P 1'
_cell_length_a   3.34323600
_cell_length_b   5.88609415
_cell_length_c   11.38555821
_cell_angle_alpha   89.92855746
_cell_angle_beta   90.00000000
_cell_angle_gamma   90.00000000
_symmetry_Int_Tables_number   1
_chemical_formula_structural   Yb3Y(FeB4)4
_chemical_formula_sum   'Yb3 Y1 Fe4 B16'
_cell_volume   224.05169264
_cell_formula_units_Z   1
loop_
 _symmetry_equiv_pos_site_id
 _symmetry_equiv_pos_as_xyz
  1  'x, y, z'
loop_
 _atom_site_type_symbol
 _atom_site_label
 _atom_site_symmetry_multiplicity
 _atom_site_fract_x
 _atom_site_fract_y
 _atom_site_fract_z
 _atom_site_occupancy
  Yb  Yb0  1  0.500000  0.373948  0.149579  1
  Yb  Yb1  1  0.500000  0.626381  0.849433  1
  Yb  Yb2  1  0.500000  0.126770  0.652078  1
  Y  Y3  1  0.500000  0.873728  0.348613  1
  Fe  Fe4  1  0.500000  0.371010  0.415193  1
  Fe  Fe5  1  0.500000  0.629196  0.583978  1
  Fe  Fe6  1  0.500000  0.128624  0.916829  1
  Fe  Fe7  1  0.500000  0.872165  0.083888  1
  B  B8  1  0.000000  0.112659  0.046153  1
  B  B9  1  0.000000  0.887709  0.953707  1
  B  B10  1  0.000000  0.387401  0.546899  1
  B  B11  1  0.000000  0.610438  0.453744  1
  B  B12  1  0.000000  0.139698  0.468374  1
  B  B13  1  0.000000  0.860754  0.532669  1
  B  B14  1  0.000000  0.361027  0.967796  1
  B  B15  1  0.000000  0.638852  0.031844  1
  B  B16  1  0.000000  0.024734  0.189462  1
  B  B17  1  0.000000  0.975790  0.810173  1
  B  B18  1  0.000000  0.476028  0.690475  1
  B  B19  1  0.000000  0.523698  0.309228  1
  B  B20  1  0.000000  0.221025  0.316973  1
  B  B21  1  0.000000  0.779434  0.683291  1
  B  B22  1  0.000000  0.279235  0.817873  1
  B  B23  1  0.000000  0.719697  0.181747  1
