# generated using pymatgen
data_Pr8Y12Sn15Ir
_symmetry_space_group_name_H-M   'P 1'
_cell_length_a   8.00676914
_cell_length_b   8.37953200
_cell_length_c   15.67736000
_cell_angle_alpha   90.00000000
_cell_angle_beta   90.00000000
_cell_angle_gamma   90.01116195
_symmetry_Int_Tables_number   1
_chemical_formula_structural   Pr8Y12Sn15Ir
_chemical_formula_sum   'Pr8 Y12 Sn15 Ir1'
_cell_volume   1051.84075356
_cell_formula_units_Z   1
loop_
 _symmetry_equiv_pos_site_id
 _symmetry_equiv_pos_as_xyz
  1  'x, y, z'
loop_
 _atom_site_type_symbol
 _atom_site_label
 _atom_site_symmetry_multiplicity
 _atom_site_fract_x
 _atom_site_fract_y
 _atom_site_fract_z
 _atom_site_occupancy
  Pr  Pr0  1  0.502703  0.326613  0.903591  1
  Pr  Pr1  1  0.006675  0.178124  0.597636  1
  Pr  Pr2  1  0.496307  0.683511  0.404729  1
  Pr  Pr3  1  0.994484  0.824700  0.094864  1
  Pr  Pr4  1  0.496307  0.683511  0.095271  1
  Pr  Pr5  1  0.994484  0.824700  0.405136  1
  Pr  Pr6  1  0.502703  0.326613  0.596409  1
  Pr  Pr7  1  0.006675  0.178124  0.902364  1
  Y  Y8  1  0.365006  0.816358  0.868774  1
  Y  Y9  1  0.816921  0.662575  0.631223  1
  Y  Y10  1  0.657828  0.169359  0.376876  1
  Y  Y11  1  0.158184  0.333816  0.124785  1
  Y  Y12  1  0.657828  0.169359  0.123124  1
  Y  Y13  1  0.158184  0.333816  0.375215  1
  Y  Y14  1  0.365006  0.816358  0.631226  1
  Y  Y15  1  0.816921  0.662575  0.868777  1
  Y  Y16  1  0.195383  0.503043  0.750000  1
  Y  Y17  1  0.678165  0.994986  0.750000  1
  Y  Y18  1  0.823251  0.503501  0.250000  1
  Y  Y19  1  0.321741  0.998806  0.250000  1
  Sn  Sn20  1  0.317820  0.039709  0.037177  1
  Sn  Sn21  1  0.823400  0.463949  0.460420  1
  Sn  Sn22  1  0.686523  0.965027  0.540359  1
  Sn  Sn23  1  0.173350  0.540652  0.958506  1
  Sn  Sn24  1  0.686523  0.965027  0.959641  1
  Sn  Sn25  1  0.173350  0.540652  0.541494  1
  Sn  Sn26  1  0.317820  0.039709  0.462823  1
  Sn  Sn27  1  0.823400  0.463949  0.039580  1
  Sn  Sn28  1  0.044766  0.879023  0.750000  1
  Sn  Sn29  1  0.459651  0.377574  0.250000  1
  Sn  Sn30  1  0.957869  0.122536  0.250000  1
  Sn  Sn31  1  0.307063  0.136247  0.750000  1
  Sn  Sn32  1  0.797124  0.360013  0.750000  1
  Sn  Sn33  1  0.690870  0.858063  0.250000  1
  Sn  Sn34  1  0.188282  0.645424  0.250000  1
  Ir  Ir35  1  0.537433  0.611998  0.750000  1
