# generated using pymatgen
data_CsNa3FeO4
_symmetry_space_group_name_H-M   'P 1'
_cell_length_a   6.43226860
_cell_length_b   8.67590670
_cell_length_c   11.61761332
_cell_angle_alpha   79.17941338
_cell_angle_beta   74.90813578
_cell_angle_gamma   78.30973376
_symmetry_Int_Tables_number   1
_chemical_formula_structural   CsNa3FeO4
_chemical_formula_sum   'Cs4 Na12 Fe4 O16'
_cell_volume   606.70559482
_cell_formula_units_Z   4
loop_
 _symmetry_equiv_pos_site_id
 _symmetry_equiv_pos_as_xyz
  1  'x, y, z'
loop_
 _atom_site_type_symbol
 _atom_site_label
 _atom_site_symmetry_multiplicity
 _atom_site_fract_x
 _atom_site_fract_y
 _atom_site_fract_z
 _atom_site_occupancy
  Cs  Cs0  1  0.026346  0.130983  0.625975  1
  Cs  Cs1  1  0.973654  0.869017  0.374025  1
  Cs  Cs2  1  0.025380  0.381821  0.870935  1
  Cs  Cs3  1  0.974620  0.618179  0.129065  1
  Na  Na4  1  0.215320  0.159434  0.145770  1
  Na  Na5  1  0.784680  0.840566  0.854230  1
  Na  Na6  1  0.497579  0.658974  0.398436  1
  Na  Na7  1  0.502421  0.341026  0.601564  1
  Na  Na8  1  0.189824  0.437449  0.399111  1
  Na  Na9  1  0.538932  0.426541  0.129824  1
  Na  Na10  1  0.212912  0.942372  0.896174  1
  Na  Na11  1  0.787088  0.057628  0.103826  1
  Na  Na12  1  0.564259  0.954208  0.626951  1
  Na  Na13  1  0.435741  0.045792  0.373049  1
  Na  Na14  1  0.461068  0.573459  0.870176  1
  Na  Na15  1  0.810176  0.562551  0.600889  1
  Fe  Fe16  1  0.166352  0.716254  0.645579  1
  Fe  Fe17  1  0.833648  0.283746  0.354421  1
  Fe  Fe18  1  0.579159  0.214044  0.862334  1
  Fe  Fe19  1  0.420841  0.785956  0.137666  1
  O  O20  1  0.368475  0.830935  0.542000  1
  O  O21  1  0.631525  0.169065  0.458000  1
  O  O22  1  0.454542  0.112361  0.778952  1
  O  O23  1  0.545458  0.887639  0.221048  1
  O  O24  1  0.178718  0.734781  0.798057  1
  O  O25  1  0.821282  0.265219  0.201943  1
  O  O26  1  0.817879  0.077492  0.901664  1
  O  O27  1  0.182121  0.922508  0.098336  1
  O  O28  1  0.652071  0.386616  0.750384  1
  O  O29  1  0.347929  0.613384  0.249616  1
  O  O30  1  0.565100  0.688022  0.005469  1
  O  O31  1  0.434900  0.311978  0.994531  1
  O  O32  1  0.874233  0.787716  0.655441  1
  O  O33  1  0.798805  0.464137  0.424843  1
  O  O34  1  0.125767  0.212284  0.344559  1
  O  O35  1  0.201195  0.535863  0.575157  1
