# generated using pymatgen
data_Hf6Be4Ir3Rh7
_symmetry_space_group_name_H-M   'P 1'
_cell_length_a   9.43633021
_cell_length_b   9.39197023
_cell_length_c   3.35070500
_cell_angle_alpha   90.00000000
_cell_angle_beta   90.00000000
_cell_angle_gamma   90.07865180
_symmetry_Int_Tables_number   1
_chemical_formula_structural   Hf6Be4Ir3Rh7
_chemical_formula_sum   'Hf6 Be4 Ir3 Rh7'
_cell_volume   296.95840477
_cell_formula_units_Z   1
loop_
 _symmetry_equiv_pos_site_id
 _symmetry_equiv_pos_as_xyz
  1  'x, y, z'
loop_
 _atom_site_type_symbol
 _atom_site_label
 _atom_site_symmetry_multiplicity
 _atom_site_fract_x
 _atom_site_fract_y
 _atom_site_fract_z
 _atom_site_occupancy
  Hf  Hf0  1  0.173427  0.673336  0.000000  1
  Hf  Hf1  1  0.326342  0.173890  0.000000  1
  Hf  Hf2  1  0.826982  0.324710  0.000000  1
  Hf  Hf3  1  0.500264  0.500189  0.000000  1
  Hf  Hf4  1  0.674698  0.827732  0.000000  1
  Hf  Hf5  1  0.002063  0.999301  0.000000  1
  Be  Be6  1  0.379458  0.879230  0.000000  1
  Be  Be7  1  0.120423  0.379636  0.000000  1
  Be  Be8  1  0.879204  0.620433  0.000000  1
  Be  Be9  1  0.619240  0.121518  0.000000  1
  Ir  Ir10  1  0.000071  0.500321  0.500000  1
  Ir  Ir11  1  0.499497  0.999710  0.500000  1
  Ir  Ir12  1  0.784458  0.073400  0.500000  1
  Rh  Rh13  1  0.215517  0.926366  0.500000  1
  Rh  Rh14  1  0.926837  0.785485  0.500000  1
  Rh  Rh15  1  0.427099  0.714289  0.500000  1
  Rh  Rh16  1  0.571747  0.285708  0.500000  1
  Rh  Rh17  1  0.714915  0.572983  0.500000  1
  Rh  Rh18  1  0.284811  0.426964  0.500000  1
  Rh  Rh19  1  0.072948  0.214798  0.500000  1
