# generated using pymatgen
data_Nd(Ho3Se4)2
_symmetry_space_group_name_H-M   'P 1'
_cell_length_a   8.15081304
_cell_length_b   8.15002214
_cell_length_c   8.15081300
_cell_angle_alpha   119.99678488
_cell_angle_beta   89.99428505
_cell_angle_gamma   119.99678814
_symmetry_Int_Tables_number   1
_chemical_formula_structural   Nd(Ho3Se4)2
_chemical_formula_sum   'Nd1 Ho6 Se8'
_cell_volume   382.92126120
_cell_formula_units_Z   1
loop_
 _symmetry_equiv_pos_site_id
 _symmetry_equiv_pos_as_xyz
  1  'x, y, z'
loop_
 _atom_site_type_symbol
 _atom_site_label
 _atom_site_symmetry_multiplicity
 _atom_site_fract_x
 _atom_site_fract_y
 _atom_site_fract_z
 _atom_site_occupancy
  Nd  Nd0  1  0.749999  0.000000  0.250002  1
  Ho  Ho1  1  0.249995  0.999996  0.249992  1
  Ho  Ho2  1  0.249995  0.499991  0.249992  1
  Ho  Ho3  1  0.250002  0.500001  0.750001  1
  Ho  Ho4  1  0.249990  0.000000  0.750011  1
  Ho  Ho5  1  0.750008  0.000004  0.750005  1
  Ho  Ho6  1  0.750008  0.500008  0.750005  1
  Se  Se7  1  0.004951  0.000000  0.995049  1
  Se  Se8  1  0.495053  0.000000  0.504947  1
  Se  Se9  1  0.003478  0.997078  0.503476  1
  Se  Se10  1  0.003478  0.509876  0.503476  1
  Se  Se11  1  0.501781  0.500001  0.498222  1
  Se  Se12  1  0.998213  0.500001  0.001789  1
  Se  Se13  1  0.496525  0.490126  0.996522  1
  Se  Se14  1  0.496525  0.002921  0.996522  1
