# generated using pymatgen
data_Yb4GaSnPd10
_symmetry_space_group_name_H-M   'P 1'
_cell_length_a   4.24958600
_cell_length_b   5.76266110
_cell_length_c   11.34693920
_cell_angle_alpha   90.02151826
_cell_angle_beta   90.00000000
_cell_angle_gamma   90.00000000
_symmetry_Int_Tables_number   1
_chemical_formula_structural   Yb4GaSnPd10
_chemical_formula_sum   'Yb4 Ga1 Sn1 Pd10'
_cell_volume   277.87431143
_cell_formula_units_Z   1
loop_
 _symmetry_equiv_pos_site_id
 _symmetry_equiv_pos_as_xyz
  1  'x, y, z'
loop_
 _atom_site_type_symbol
 _atom_site_label
 _atom_site_symmetry_multiplicity
 _atom_site_fract_x
 _atom_site_fract_y
 _atom_site_fract_z
 _atom_site_occupancy
  Yb  Yb0  1  0.000000  0.813064  0.643941  1
  Yb  Yb1  1  0.000000  0.310920  0.863806  1
  Yb  Yb2  1  0.000000  0.186936  0.356059  1
  Yb  Yb3  1  0.000000  0.689080  0.136194  1
  Ga  Ga4  1  0.500000  0.000000  0.000000  1
  Sn  Sn5  1  0.500000  0.500000  0.500000  1
  Pd  Pd6  1  0.000000  0.809795  0.894512  1
  Pd  Pd7  1  0.000000  0.700842  0.387232  1
  Pd  Pd8  1  0.000000  0.299158  0.612768  1
  Pd  Pd9  1  0.500000  0.943031  0.240771  1
  Pd  Pd10  1  0.500000  0.442685  0.251054  1
  Pd  Pd11  1  0.500000  0.557315  0.748946  1
  Pd  Pd12  1  0.500000  0.056969  0.759229  1
  Pd  Pd13  1  0.500000  0.500000  0.000000  1
  Pd  Pd14  1  0.500000  0.000000  0.500000  1
  Pd  Pd15  1  0.000000  0.190205  0.105488  1
