# generated using pymatgen
data_In8PtO8
_symmetry_space_group_name_H-M   'P 1'
_cell_length_a   7.36262946
_cell_length_b   7.36263058
_cell_length_c   7.36263000
_cell_angle_alpha   60.00000259
_cell_angle_beta   59.99999759
_cell_angle_gamma   60.00000339
_symmetry_Int_Tables_number   1
_chemical_formula_structural   In8PtO8
_chemical_formula_sum   'In8 Pt1 O8'
_cell_volume   282.21750269
_cell_formula_units_Z   1
loop_
 _symmetry_equiv_pos_site_id
 _symmetry_equiv_pos_as_xyz
  1  'x, y, z'
loop_
 _atom_site_type_symbol
 _atom_site_label
 _atom_site_symmetry_multiplicity
 _atom_site_fract_x
 _atom_site_fract_y
 _atom_site_fract_z
 _atom_site_occupancy
  In  In0  1  0.744397  0.744397  0.255603  1
  In  In1  1  0.744397  0.255603  0.744397  1
  In  In2  1  0.255603  0.744397  0.255603  1
  In  In3  1  0.744397  0.255603  0.255603  1
  In  In4  1  0.255603  0.744397  0.744397  1
  In  In5  1  0.255603  0.255603  0.744397  1
  In  In6  1  0.250000  0.250000  0.250000  1
  In  In7  1  0.750000  0.750000  0.750000  1
  Pt  Pt8  1  0.000000  0.000000  0.000000  1
  O  O9  1  0.366174  0.901479  0.366174  1
  O  O10  1  0.633826  0.633826  0.098521  1
  O  O11  1  0.633826  0.633826  0.633826  1
  O  O12  1  0.098521  0.633826  0.633826  1
  O  O13  1  0.366174  0.366174  0.366174  1
  O  O14  1  0.901479  0.366174  0.366174  1
  O  O15  1  0.366174  0.366174  0.901479  1
  O  O16  1  0.633826  0.098521  0.633826  1
