# generated using pymatgen
data_Hf12Mn3Si12Ir
_symmetry_space_group_name_H-M   'P 1'
_cell_length_a   3.82504800
_cell_length_b   10.31665915
_cell_length_c   11.66968402
_cell_angle_alpha   89.99324459
_cell_angle_beta   90.00000000
_cell_angle_gamma   90.00000000
_symmetry_Int_Tables_number   1
_chemical_formula_structural   Hf12Mn3Si12Ir
_chemical_formula_sum   'Hf12 Mn3 Si12 Ir1'
_cell_volume   460.50575842
_cell_formula_units_Z   1
loop_
 _symmetry_equiv_pos_site_id
 _symmetry_equiv_pos_as_xyz
  1  'x, y, z'
loop_
 _atom_site_type_symbol
 _atom_site_label
 _atom_site_symmetry_multiplicity
 _atom_site_fract_x
 _atom_site_fract_y
 _atom_site_fract_z
 _atom_site_occupancy
  Hf  Hf0  1  0.250000  0.878217  0.022957  1
  Hf  Hf1  1  0.250000  0.622758  0.520350  1
  Hf  Hf2  1  0.750000  0.123746  0.980603  1
  Hf  Hf3  1  0.750000  0.377697  0.479732  1
  Hf  Hf4  1  0.250000  0.928653  0.597112  1
  Hf  Hf5  1  0.250000  0.572278  0.099322  1
  Hf  Hf6  1  0.750000  0.071575  0.400632  1
  Hf  Hf7  1  0.750000  0.428955  0.900493  1
  Hf  Hf8  1  0.250000  0.654027  0.801995  1
  Hf  Hf9  1  0.250000  0.839793  0.301399  1
  Hf  Hf10  1  0.750000  0.339454  0.198911  1
  Hf  Hf11  1  0.750000  0.160246  0.697878  1
  Mn  Mn12  1  0.250000  0.383491  0.676871  1
  Mn  Mn13  1  0.250000  0.117846  0.178081  1
  Mn  Mn14  1  0.750000  0.617615  0.323045  1
  Si  Si15  1  0.250000  0.020001  0.826019  1
  Si  Si16  1  0.250000  0.483540  0.324998  1
  Si  Si17  1  0.750000  0.984192  0.175143  1
  Si  Si18  1  0.750000  0.514676  0.674752  1
  Si  Si19  1  0.250000  0.253005  0.839964  1
  Si  Si20  1  0.250000  0.248263  0.341493  1
  Si  Si21  1  0.750000  0.747928  0.159118  1
  Si  Si22  1  0.750000  0.747975  0.656572  1
  Si  Si23  1  0.250000  0.195048  0.542054  1
  Si  Si24  1  0.250000  0.306859  0.042068  1
  Si  Si25  1  0.750000  0.806096  0.458070  1
  Si  Si26  1  0.750000  0.692083  0.958893  1
  Ir  Ir27  1  0.750000  0.883983  0.821476  1
