# generated using pymatgen
data_TbDy3MnFe2Os5
_symmetry_space_group_name_H-M   'P 1'
_cell_length_a   5.26663208
_cell_length_b   5.28139267
_cell_length_c   9.25886792
_cell_angle_alpha   73.42877096
_cell_angle_beta   90.44889578
_cell_angle_gamma   120.09275583
_symmetry_Int_Tables_number   1
_chemical_formula_structural   TbDy3MnFe2Os5
_chemical_formula_sum   'Tb1 Dy3 Mn1 Fe2 Os5'
_cell_volume   210.71374942
_cell_formula_units_Z   1
loop_
 _symmetry_equiv_pos_site_id
 _symmetry_equiv_pos_as_xyz
  1  'x, y, z'
loop_
 _atom_site_type_symbol
 _atom_site_label
 _atom_site_symmetry_multiplicity
 _atom_site_fract_x
 _atom_site_fract_y
 _atom_site_fract_z
 _atom_site_occupancy
  Tb  Tb0  1  0.875772  0.750448  0.374876  1
  Dy  Dy1  1  0.378900  0.753023  0.872854  1
  Dy  Dy2  1  0.996004  0.996869  0.002266  1
  Dy  Dy3  1  0.499423  0.999698  0.500026  1
  Mn  Mn4  1  0.687508  0.375009  0.937491  1
  Fe  Fe5  1  0.940355  0.376066  0.188222  1
  Fe  Fe6  1  0.434400  0.373857  0.686687  1
  Os  Os7  1  0.438956  0.371935  0.186011  1
  Os  Os8  1  0.936084  0.378068  0.689010  1
  Os  Os9  1  0.438956  0.881011  0.186011  1
  Os  Os10  1  0.936084  0.869004  0.689010  1
  Os  Os11  1  0.187555  0.375011  0.437534  1
