# generated using pymatgen
data_Li2CeNdSi2Sn
_symmetry_space_group_name_H-M   'P 1'
_cell_length_a   9.83465108
_cell_length_b   9.83465112
_cell_length_c   6.97467700
_cell_angle_alpha   90.00000000
_cell_angle_beta   90.00000000
_cell_angle_gamma   153.20064480
_symmetry_Int_Tables_number   1
_chemical_formula_structural   Li2CeNdSi2Sn
_chemical_formula_sum   'Li4 Ce2 Nd2 Si4 Sn2'
_cell_volume   304.15218547
_cell_formula_units_Z   2
loop_
 _symmetry_equiv_pos_site_id
 _symmetry_equiv_pos_as_xyz
  1  'x, y, z'
loop_
 _atom_site_type_symbol
 _atom_site_label
 _atom_site_symmetry_multiplicity
 _atom_site_fract_x
 _atom_site_fract_y
 _atom_site_fract_z
 _atom_site_occupancy
  Li  Li0  1  0.184061  0.815939  0.055654  1
  Li  Li1  1  0.184061  0.815939  0.444346  1
  Li  Li2  1  0.815939  0.184061  0.944346  1
  Li  Li3  1  0.815939  0.184061  0.555654  1
  Ce  Ce4  1  0.349950  0.650050  0.250000  1
  Ce  Ce5  1  0.650050  0.349950  0.750000  1
  Nd  Nd6  1  0.547461  0.452539  0.250000  1
  Nd  Nd7  1  0.452539  0.547461  0.750000  1
  Si  Si8  1  0.057250  0.942750  0.923993  1
  Si  Si9  1  0.942750  0.057250  0.076007  1
  Si  Si10  1  0.942750  0.057250  0.423993  1
  Si  Si11  1  0.057250  0.942750  0.576007  1
  Sn  Sn12  1  0.719757  0.280243  0.250000  1
  Sn  Sn13  1  0.280243  0.719757  0.750000  1
