# generated using pymatgen
data_Dy4Y7HoRu4
_symmetry_space_group_name_H-M   'P 1'
_cell_length_a   6.34407058
_cell_length_b   7.30073168
_cell_length_c   9.24143507
_cell_angle_alpha   89.99083327
_cell_angle_beta   90.04698566
_cell_angle_gamma   90.07199606
_symmetry_Int_Tables_number   1
_chemical_formula_structural   Dy4Y7HoRu4
_chemical_formula_sum   'Dy4 Y7 Ho1 Ru4'
_cell_volume   428.02911953
_cell_formula_units_Z   1
loop_
 _symmetry_equiv_pos_site_id
 _symmetry_equiv_pos_as_xyz
  1  'x, y, z'
loop_
 _atom_site_type_symbol
 _atom_site_label
 _atom_site_symmetry_multiplicity
 _atom_site_fract_x
 _atom_site_fract_y
 _atom_site_fract_z
 _atom_site_occupancy
  Dy  Dy0  1  0.863777  0.542358  0.249925  1
  Dy  Dy1  1  0.635877  0.042528  0.249895  1
  Dy  Dy2  1  0.136001  0.457351  0.750284  1
  Dy  Dy3  1  0.364211  0.957383  0.750254  1
  Y  Y4  1  0.328983  0.676706  0.065171  1
  Y  Y5  1  0.171170  0.176585  0.434867  1
  Y  Y6  1  0.671011  0.323373  0.565172  1
  Y  Y7  1  0.829253  0.823399  0.934924  1
  Y  Y8  1  0.670776  0.323132  0.935033  1
  Y  Y9  1  0.828971  0.823476  0.565188  1
  Y  Y10  1  0.328915  0.676549  0.434912  1
  Ho  Ho11  1  0.171405  0.176192  0.065854  1
  Ru  Ru12  1  0.035847  0.885930  0.248724  1
  Ru  Ru13  1  0.463551  0.383909  0.249143  1
  Ru  Ru14  1  0.965200  0.115576  0.750633  1
  Ru  Ru15  1  0.535050  0.615554  0.750022  1
