# generated using pymatgen
data_Dy3Ho(FeOs)4
_symmetry_space_group_name_H-M   'P 1'
_cell_length_a   5.27795322
_cell_length_b   5.26253729
_cell_length_c   9.07150675
_cell_angle_alpha   73.13852637
_cell_angle_beta   90.77589592
_cell_angle_gamma   119.90341142
_symmetry_Int_Tables_number   1
_chemical_formula_structural   Dy3Ho(FeOs)4
_chemical_formula_sum   'Dy3 Ho1 Fe4 Os4'
_cell_volume   206.40489529
_cell_formula_units_Z   1
loop_
 _symmetry_equiv_pos_site_id
 _symmetry_equiv_pos_as_xyz
  1  'x, y, z'
loop_
 _atom_site_type_symbol
 _atom_site_label
 _atom_site_symmetry_multiplicity
 _atom_site_fract_x
 _atom_site_fract_y
 _atom_site_fract_z
 _atom_site_occupancy
  Dy  Dy0  1  0.377517  0.751584  0.874349  1
  Dy  Dy1  1  0.997585  0.998468  0.000651  1
  Dy  Dy2  1  0.497559  0.998536  0.500487  1
  Ho  Ho3  1  0.877401  0.751445  0.374510  1
  Fe  Fe4  1  0.187543  0.375020  0.437502  1
  Fe  Fe5  1  0.687462  0.375011  0.937441  1
  Fe  Fe6  1  0.937456  0.374930  0.187597  1
  Fe  Fe7  1  0.437642  0.375097  0.687447  1
  Os  Os8  1  0.437447  0.374810  0.187707  1
  Os  Os9  1  0.937469  0.375245  0.687300  1
  Os  Os10  1  0.437447  0.874930  0.187707  1
  Os  Os11  1  0.937469  0.874923  0.687300  1
