# generated using pymatgen
data_Dy10GaSb5
_symmetry_space_group_name_H-M   'P 1'
_cell_length_a   6.38077200
_cell_length_b   8.92169942
_cell_length_c   8.90428825
_cell_angle_alpha   120.06471716
_cell_angle_beta   90.00000000
_cell_angle_gamma   90.00000000
_symmetry_Int_Tables_number   1
_chemical_formula_structural   Dy10GaSb5
_chemical_formula_sum   'Dy10 Ga1 Sb5'
_cell_volume   438.69942906
_cell_formula_units_Z   1
loop_
 _symmetry_equiv_pos_site_id
 _symmetry_equiv_pos_as_xyz
  1  'x, y, z'
loop_
 _atom_site_type_symbol
 _atom_site_label
 _atom_site_symmetry_multiplicity
 _atom_site_fract_x
 _atom_site_fract_y
 _atom_site_fract_z
 _atom_site_occupancy
  Dy  Dy0  1  0.501189  0.339976  0.674950  1
  Dy  Dy1  1  0.501189  0.665026  0.325050  1
  Dy  Dy2  1  0.998812  0.665027  0.325052  1
  Dy  Dy3  1  0.998812  0.339976  0.674948  1
  Dy  Dy4  1  0.749998  0.249749  0.000000  1
  Dy  Dy5  1  0.750001  0.753092  0.763592  1
  Dy  Dy6  1  0.750001  0.989501  0.236408  1
  Dy  Dy7  1  0.250000  0.755055  0.000000  1
  Dy  Dy8  1  0.250000  0.244858  0.244381  1
  Dy  Dy9  1  0.250000  0.000477  0.755619  1
  Ga  Ga10  1  0.749999  0.607397  0.000000  1
  Sb  Sb11  1  0.750001  0.388013  0.389903  1
  Sb  Sb12  1  0.750001  0.998110  0.610097  1
  Sb  Sb13  1  0.249998  0.390204  0.000000  1
  Sb  Sb14  1  0.250002  0.610745  0.607952  1
  Sb  Sb15  1  0.250002  0.002794  0.392048  1
