# generated using pymatgen
data_Ho6Tm10In6NiRu
_symmetry_space_group_name_H-M   'P 1'
_cell_length_a   10.30620700
_cell_length_b   10.30620582
_cell_length_c   6.97125900
_cell_angle_alpha   90.00000000
_cell_angle_beta   90.00000000
_cell_angle_gamma   120.00000059
_symmetry_Int_Tables_number   1
_chemical_formula_structural   Ho6Tm10In6NiRu
_chemical_formula_sum   'Ho6 Tm10 In6 Ni1 Ru1'
_cell_volume   641.26792726
_cell_formula_units_Z   1
loop_
 _symmetry_equiv_pos_site_id
 _symmetry_equiv_pos_as_xyz
  1  'x, y, z'
loop_
 _atom_site_type_symbol
 _atom_site_label
 _atom_site_symmetry_multiplicity
 _atom_site_fract_x
 _atom_site_fract_y
 _atom_site_fract_z
 _atom_site_occupancy
  Ho  Ho0  1  0.532261  0.064525  0.515956  1
  Ho  Ho1  1  0.935475  0.467739  0.515956  1
  Ho  Ho2  1  0.532261  0.467739  0.515956  1
  Ho  Ho3  1  0.466857  0.933712  0.015030  1
  Ho  Ho4  1  0.066288  0.533143  0.015030  1
  Ho  Ho5  1  0.466857  0.533143  0.015030  1
  Tm  Tm6  1  0.176726  0.353452  0.720338  1
  Tm  Tm7  1  0.646548  0.823274  0.720338  1
  Tm  Tm8  1  0.176726  0.823274  0.720338  1
  Tm  Tm9  1  0.822155  0.644308  0.220267  1
  Tm  Tm10  1  0.355692  0.177845  0.220267  1
  Tm  Tm11  1  0.822155  0.177845  0.220267  1
  Tm  Tm12  1  0.666667  0.333333  0.903726  1
  Tm  Tm13  1  0.333333  0.666667  0.392695  1
  Tm  Tm14  1  0.000000  0.000000  0.497317  1
  Tm  Tm15  1  0.000000  0.000000  0.003484  1
  In  In16  1  0.835894  0.671787  0.763022  1
  In  In17  1  0.328213  0.164106  0.763022  1
  In  In18  1  0.835894  0.164106  0.763022  1
  In  In19  1  0.161169  0.322339  0.261349  1
  In  In20  1  0.677661  0.838831  0.261349  1
  In  In21  1  0.161169  0.838831  0.261349  1
  Ni  Ni22  1  0.666667  0.333333  0.287142  1
  Ru  Ru23  1  0.333333  0.666667  0.785754  1
