# generated using pymatgen
data_Zn8SnPt3O16
_symmetry_space_group_name_H-M   'P 1'
_cell_length_a   6.16494200
_cell_length_b   6.17041585
_cell_length_c   8.66707417
_cell_angle_alpha   89.83147399
_cell_angle_beta   90.00000000
_cell_angle_gamma   90.00000000
_symmetry_Int_Tables_number   1
_chemical_formula_structural   Zn8SnPt3O16
_chemical_formula_sum   'Zn8 Sn1 Pt3 O16'
_cell_volume   329.69629277
_cell_formula_units_Z   1
loop_
 _symmetry_equiv_pos_site_id
 _symmetry_equiv_pos_as_xyz
  1  'x, y, z'
loop_
 _atom_site_type_symbol
 _atom_site_label
 _atom_site_symmetry_multiplicity
 _atom_site_fract_x
 _atom_site_fract_y
 _atom_site_fract_z
 _atom_site_occupancy
  Zn  Zn0  1  0.999398  0.228820  0.001299  1
  Zn  Zn1  1  0.999398  0.771180  0.498701  1
  Zn  Zn2  1  0.258659  0.243721  0.624875  1
  Zn  Zn3  1  0.258659  0.756279  0.875125  1
  Zn  Zn4  1  0.230679  0.000000  0.250000  1
  Zn  Zn5  1  0.765666  0.000000  0.750000  1
  Zn  Zn6  1  0.746358  0.250819  0.372156  1
  Zn  Zn7  1  0.746358  0.749181  0.127844  1
  Sn  Sn8  1  0.767152  0.500000  0.750000  1
  Pt  Pt9  1  0.243810  0.500000  0.250000  1
  Pt  Pt10  1  0.498110  0.751709  0.498688  1
  Pt  Pt11  1  0.498110  0.248291  0.001312  1
  O  O12  1  0.521942  0.745281  0.734643  1
  O  O13  1  0.521942  0.254719  0.765357  1
  O  O14  1  0.737048  0.980734  0.504353  1
  O  O15  1  0.737048  0.019266  0.995647  1
  O  O16  1  0.738587  0.519220  0.508650  1
  O  O17  1  0.738587  0.480780  0.991350  1
  O  O18  1  0.990513  0.746917  0.747802  1
  O  O19  1  0.990513  0.253083  0.752198  1
  O  O20  1  0.016107  0.739780  0.255703  1
  O  O21  1  0.016107  0.260220  0.244297  1
  O  O22  1  0.253984  0.521702  0.486666  1
  O  O23  1  0.253984  0.478298  0.013334  1
  O  O24  1  0.261719  0.981101  0.491813  1
  O  O25  1  0.261719  0.018899  0.008187  1
  O  O26  1  0.473922  0.743531  0.263095  1
  O  O27  1  0.473922  0.256469  0.236905  1
