# generated using pymatgen
data_Ce2Dy7Er3Os4
_symmetry_space_group_name_H-M   'P 1'
_cell_length_a   6.36216804
_cell_length_b   7.27736286
_cell_length_c   9.26596278
_cell_angle_alpha   89.96964877
_cell_angle_beta   89.81752230
_cell_angle_gamma   90.30172052
_symmetry_Int_Tables_number   1
_chemical_formula_structural   Ce2Dy7Er3Os4
_chemical_formula_sum   'Ce2 Dy7 Er3 Os4'
_cell_volume   429.00408525
_cell_formula_units_Z   1
loop_
 _symmetry_equiv_pos_site_id
 _symmetry_equiv_pos_as_xyz
  1  'x, y, z'
loop_
 _atom_site_type_symbol
 _atom_site_label
 _atom_site_symmetry_multiplicity
 _atom_site_fract_x
 _atom_site_fract_y
 _atom_site_fract_z
 _atom_site_occupancy
  Ce  Ce0  1  0.858400  0.552552  0.250060  1
  Ce  Ce1  1  0.642041  0.053529  0.250660  1
  Dy  Dy2  1  0.826199  0.826372  0.933977  1
  Dy  Dy3  1  0.673881  0.327152  0.933573  1
  Dy  Dy4  1  0.826225  0.826513  0.565754  1
  Dy  Dy5  1  0.334201  0.671759  0.437881  1
  Dy  Dy6  1  0.166128  0.172468  0.062621  1
  Dy  Dy7  1  0.135893  0.461652  0.749638  1
  Dy  Dy8  1  0.363930  0.962189  0.749693  1
  Er  Er9  1  0.333884  0.671256  0.062629  1
  Er  Er10  1  0.165603  0.171854  0.437887  1
  Er  Er11  1  0.673395  0.327111  0.566306  1
  Os  Os12  1  0.028421  0.869590  0.249513  1
  Os  Os13  1  0.473160  0.371601  0.251763  1
  Os  Os14  1  0.958417  0.117510  0.747412  1
  Os  Os15  1  0.540221  0.616889  0.750633  1
