# generated using pymatgen
data_TbPrHo2(WO6)2
_symmetry_space_group_name_H-M   'P 1'
_cell_length_a   5.46432600
_cell_length_b   7.77740634
_cell_length_c   11.54750331
_cell_angle_alpha   75.74249268
_cell_angle_beta   90.00000000
_cell_angle_gamma   90.00000000
_symmetry_Int_Tables_number   1
_chemical_formula_structural   TbPrHo2(WO6)2
_chemical_formula_sum   'Tb2 Pr2 Ho4 W4 O24'
_cell_volume   475.63333671
_cell_formula_units_Z   2
loop_
 _symmetry_equiv_pos_site_id
 _symmetry_equiv_pos_as_xyz
  1  'x, y, z'
loop_
 _atom_site_type_symbol
 _atom_site_label
 _atom_site_symmetry_multiplicity
 _atom_site_fract_x
 _atom_site_fract_y
 _atom_site_fract_z
 _atom_site_occupancy
  Tb  Tb0  1  0.741155  0.000000  0.750000  1
  Tb  Tb1  1  0.258845  0.000000  0.250000  1
  Pr  Pr2  1  0.685099  0.500000  0.750000  1
  Pr  Pr3  1  0.314901  0.500000  0.250000  1
  Ho  Ho4  1  0.186538  0.797303  0.576736  1
  Ho  Ho5  1  0.813462  0.797303  0.076736  1
  Ho  Ho6  1  0.186538  0.202697  0.923264  1
  Ho  Ho7  1  0.813462  0.202697  0.423264  1
  W  W8  1  0.252813  0.727953  0.884548  1
  W  W9  1  0.747187  0.727953  0.384548  1
  W  W10  1  0.252813  0.272047  0.615452  1
  W  W11  1  0.747187  0.272047  0.115452  1
  O  O12  1  0.042990  0.941529  0.896586  1
  O  O13  1  0.531875  0.845853  0.931310  1
  O  O14  1  0.957010  0.941529  0.396586  1
  O  O15  1  0.453177  0.794082  0.727247  1
  O  O16  1  0.468125  0.845853  0.431310  1
  O  O17  1  0.986445  0.719509  0.769752  1
  O  O18  1  0.546823  0.794082  0.227247  1
  O  O19  1  0.856119  0.642145  0.545454  1
  O  O20  1  0.347288  0.493338  0.887961  1
  O  O21  1  0.013555  0.719509  0.269752  1
  O  O22  1  0.347288  0.506662  0.612039  1
  O  O23  1  0.856119  0.357855  0.954546  1
  O  O24  1  0.143881  0.642145  0.045454  1
  O  O25  1  0.652712  0.493338  0.387961  1
  O  O26  1  0.986445  0.280491  0.730248  1
  O  O27  1  0.652712  0.506662  0.112039  1
  O  O28  1  0.143881  0.357855  0.454546  1
  O  O29  1  0.453177  0.205918  0.772753  1
  O  O30  1  0.013555  0.280491  0.230248  1
  O  O31  1  0.531875  0.154147  0.568690  1
  O  O32  1  0.546823  0.205918  0.272753  1
  O  O33  1  0.042990  0.058471  0.603414  1
  O  O34  1  0.468125  0.154147  0.068690  1
  O  O35  1  0.957010  0.058471  0.103414  1
