# generated using pymatgen
data_Ho4In(FeSi2)2
_symmetry_space_group_name_H-M   'P 1'
_cell_length_a   4.13306472
_cell_length_b   6.88381446
_cell_length_c   7.88705577
_cell_angle_alpha   106.68663606
_cell_angle_beta   105.18970346
_cell_angle_gamma   90.00000184
_symmetry_Int_Tables_number   1
_chemical_formula_structural   Ho4In(FeSi2)2
_chemical_formula_sum   'Ho4 In1 Fe2 Si4'
_cell_volume   206.74953761
_cell_formula_units_Z   1
loop_
 _symmetry_equiv_pos_site_id
 _symmetry_equiv_pos_as_xyz
  1  'x, y, z'
loop_
 _atom_site_type_symbol
 _atom_site_label
 _atom_site_symmetry_multiplicity
 _atom_site_fract_x
 _atom_site_fract_y
 _atom_site_fract_z
 _atom_site_occupancy
  Ho  Ho0  1  0.589948  0.386334  0.179898  1
  Ho  Ho1  1  0.653403  0.939059  0.306808  1
  Ho  Ho2  1  0.346596  0.060942  0.693192  1
  Ho  Ho3  1  0.410051  0.613667  0.820101  1
  In  In4  1  0.000000  0.000000  0.000000  1
  Fe  Fe5  1  0.219060  0.627090  0.438120  1
  Fe  Fe6  1  0.780939  0.372911  0.561880  1
  Si  Si7  1  0.067176  0.650955  0.134354  1
  Si  Si8  1  0.211368  0.282210  0.422735  1
  Si  Si9  1  0.788631  0.717791  0.577265  1
  Si  Si10  1  0.932822  0.349044  0.865646  1
