# generated using pymatgen
data_Dy3Al12NiRu3
_symmetry_space_group_name_H-M   'P 1'
_cell_length_a   8.88373365
_cell_length_b   8.83731455
_cell_length_c   9.57279000
_cell_angle_alpha   90.00000000
_cell_angle_beta   90.04425658
_cell_angle_gamma   119.82730014
_symmetry_Int_Tables_number   1
_chemical_formula_structural   Dy3Al12NiRu3
_chemical_formula_sum   'Dy6 Al24 Ni2 Ru6'
_cell_volume   651.98556793
_cell_formula_units_Z   2
loop_
 _symmetry_equiv_pos_site_id
 _symmetry_equiv_pos_as_xyz
  1  'x, y, z'
loop_
 _atom_site_type_symbol
 _atom_site_label
 _atom_site_symmetry_multiplicity
 _atom_site_fract_x
 _atom_site_fract_y
 _atom_site_fract_z
 _atom_site_occupancy
  Dy  Dy0  1  0.191317  0.804488  0.249246  1
  Dy  Dy1  1  0.191317  0.386829  0.249246  1
  Dy  Dy2  1  0.615198  0.807599  0.250335  1
  Dy  Dy3  1  0.808683  0.195512  0.750754  1
  Dy  Dy4  1  0.808683  0.613171  0.750754  1
  Dy  Dy5  1  0.384802  0.192401  0.749665  1
  Al  Al6  1  0.560263  0.438925  0.253400  1
  Al  Al7  1  0.560263  0.121337  0.253400  1
  Al  Al8  1  0.877170  0.438585  0.251795  1
  Al  Al9  1  0.439737  0.561075  0.746600  1
  Al  Al10  1  0.439737  0.878663  0.746600  1
  Al  Al11  1  0.122830  0.561415  0.748205  1
  Al  Al12  1  0.326085  0.163042  0.423347  1
  Al  Al13  1  0.837454  0.164985  0.423822  1
  Al  Al14  1  0.837454  0.672468  0.423822  1
  Al  Al15  1  0.673915  0.836958  0.576653  1
  Al  Al16  1  0.162546  0.835015  0.576178  1
  Al  Al17  1  0.162546  0.327532  0.576178  1
  Al  Al18  1  0.672947  0.836474  0.924853  1
  Al  Al19  1  0.164416  0.837587  0.923174  1
  Al  Al20  1  0.164416  0.326829  0.923174  1
  Al  Al21  1  0.327053  0.163526  0.075147  1
  Al  Al22  1  0.835584  0.162413  0.076826  1
  Al  Al23  1  0.835584  0.673171  0.076826  1
  Al  Al24  1  0.666001  0.333000  0.521271  1
  Al  Al25  1  0.333999  0.667000  0.478729  1
  Al  Al26  1  0.333529  0.666765  0.019661  1
  Al  Al27  1  0.666471  0.333235  0.980339  1
  Al  Al28  1  0.997422  0.998711  0.249627  1
  Al  Al29  1  0.002578  0.001289  0.750373  1
  Ni  Ni30  1  0.500000  0.500000  0.500000  1
  Ni  Ni31  1  0.500000  0.000000  0.500000  1
  Ru  Ru32  1  0.000000  0.000000  0.500000  1
  Ru  Ru33  1  0.000000  0.000000  0.000000  1
  Ru  Ru34  1  0.000000  0.500000  0.500000  1
  Ru  Ru35  1  0.500000  0.500000  0.000000  1
  Ru  Ru36  1  0.500000  0.000000  0.000000  1
  Ru  Ru37  1  0.000000  0.500000  0.000000  1
