# generated using pymatgen
data_Th2Co12SiP6
_symmetry_space_group_name_H-M   'P 1'
_cell_length_a   9.09628600
_cell_length_b   9.09628571
_cell_length_c   3.68245700
_cell_angle_alpha   90.00000000
_cell_angle_beta   90.00000000
_cell_angle_gamma   119.99999378
_symmetry_Int_Tables_number   1
_chemical_formula_structural   Th2Co12SiP6
_chemical_formula_sum   'Th2 Co12 Si1 P6'
_cell_volume   263.87396500
_cell_formula_units_Z   1
loop_
 _symmetry_equiv_pos_site_id
 _symmetry_equiv_pos_as_xyz
  1  'x, y, z'
loop_
 _atom_site_type_symbol
 _atom_site_label
 _atom_site_symmetry_multiplicity
 _atom_site_fract_x
 _atom_site_fract_y
 _atom_site_fract_z
 _atom_site_occupancy
  Th  Th0  1  0.333333  0.666667  0.000000  1
  Th  Th1  1  0.666667  0.333333  0.500000  1
  Co  Co2  1  0.434610  0.062286  0.000000  1
  Co  Co3  1  0.937714  0.372323  0.000000  1
  Co  Co4  1  0.627677  0.565390  0.000000  1
  Co  Co5  1  0.382270  0.434331  0.500000  1
  Co  Co6  1  0.565669  0.947938  0.500000  1
  Co  Co7  1  0.052062  0.617730  0.500000  1
  Co  Co8  1  0.154537  0.280083  0.000000  1
  Co  Co9  1  0.719917  0.874453  0.000000  1
  Co  Co10  1  0.125547  0.845463  0.000000  1
  Co  Co11  1  0.228192  0.102719  0.500000  1
  Co  Co12  1  0.897281  0.125474  0.500000  1
  Co  Co13  1  0.874526  0.771808  0.500000  1
  Si  Si14  1  0.000000  0.000000  0.000000  1
  P  P15  1  0.102374  0.393941  0.500000  1
  P  P16  1  0.606059  0.708435  0.500000  1
  P  P17  1  0.291565  0.897626  0.500000  1
  P  P18  1  0.398249  0.293962  0.000000  1
  P  P19  1  0.706038  0.104288  0.000000  1
  P  P20  1  0.895712  0.601751  0.000000  1
