# generated using pymatgen
data_CsSi2SnMo2P6O25
_symmetry_space_group_name_H-M   'P 1'
_cell_length_a   8.45599000
_cell_length_b   8.45598987
_cell_length_c   18.19295400
_cell_angle_alpha   90.00000000
_cell_angle_beta   90.00000000
_cell_angle_gamma   120.00000052
_symmetry_Int_Tables_number   1
_chemical_formula_structural   CsSi2SnMo2P6O25
_chemical_formula_sum   'Cs2 Si4 Sn2 Mo4 P12 O50'
_cell_volume   1126.58188947
_cell_formula_units_Z   2
loop_
 _symmetry_equiv_pos_site_id
 _symmetry_equiv_pos_as_xyz
  1  'x, y, z'
loop_
 _atom_site_type_symbol
 _atom_site_label
 _atom_site_symmetry_multiplicity
 _atom_site_fract_x
 _atom_site_fract_y
 _atom_site_fract_z
 _atom_site_occupancy
  Cs  Cs0  1  0.666667  0.333333  0.750019  1
  Cs  Cs1  1  0.333333  0.666667  0.249981  1
  Si  Si2  1  0.000000  0.000000  0.587921  1
  Si  Si3  1  0.000000  0.000000  0.412079  1
  Si  Si4  1  0.000000  0.000000  0.912102  1
  Si  Si5  1  0.000000  0.000000  0.087898  1
  Sn  Sn6  1  0.666667  0.333333  0.518367  1
  Sn  Sn7  1  0.333333  0.666667  0.481633  1
  Mo  Mo8  1  0.666667  0.333333  0.980240  1
  Mo  Mo9  1  0.333333  0.666667  0.019760  1
  Mo  Mo10  1  0.333333  0.666667  0.749544  1
  Mo  Mo11  1  0.666667  0.333333  0.250456  1
  P  P12  1  0.331464  0.376808  0.608587  1
  P  P13  1  0.668536  0.623192  0.391413  1
  P  P14  1  0.623192  0.954656  0.608587  1
  P  P15  1  0.331351  0.952951  0.890570  1
  P  P16  1  0.376808  0.045344  0.391413  1
  P  P17  1  0.668649  0.047049  0.109430  1
  P  P18  1  0.045344  0.668536  0.608587  1
  P  P19  1  0.621600  0.668649  0.890570  1
  P  P20  1  0.954656  0.331464  0.391413  1
  P  P21  1  0.378400  0.331351  0.109430  1
  P  P22  1  0.047049  0.378400  0.890570  1
  P  P23  1  0.952951  0.621600  0.109430  1
  O  O24  1  0.249018  0.435033  0.545329  1
  O  O25  1  0.750982  0.564967  0.454671  1
  O  O26  1  0.564967  0.813985  0.545329  1
  O  O27  1  0.252254  0.809562  0.952637  1
  O  O28  1  0.435033  0.186015  0.454671  1
  O  O29  1  0.747746  0.190438  0.047363  1
  O  O30  1  0.186015  0.750982  0.545329  1
  O  O31  1  0.557307  0.747746  0.952637  1
  O  O32  1  0.813985  0.249018  0.454671  1
  O  O33  1  0.442693  0.252254  0.047363  1
  O  O34  1  0.190438  0.442693  0.952637  1
  O  O35  1  0.809562  0.557307  0.047363  1
  O  O36  1  0.342648  0.463433  0.682292  1
  O  O37  1  0.657352  0.536567  0.317708  1
  O  O38  1  0.536567  0.879215  0.682292  1
  O  O39  1  0.341784  0.879694  0.816201  1
  O  O40  1  0.463433  0.120785  0.317708  1
  O  O41  1  0.658216  0.120306  0.183799  1
  O  O42  1  0.120785  0.657352  0.682292  1
  O  O43  1  0.537911  0.658216  0.816201  1
  O  O44  1  0.879215  0.342648  0.317708  1
  O  O45  1  0.462089  0.341784  0.183799  1
  O  O46  1  0.120306  0.462089  0.816201  1
  O  O47  1  0.879694  0.537911  0.183799  1
  O  O48  1  0.000000  0.000000  0.500000  1
  O  O49  1  0.000000  0.000000  0.000000  1
  O  O50  1  0.598104  0.118152  0.589285  1
  O  O51  1  0.401896  0.881848  0.410715  1
  O  O52  1  0.881848  0.479952  0.589285  1
  O  O53  1  0.596609  0.480877  0.911274  1
  O  O54  1  0.118152  0.520048  0.410715  1
  O  O55  1  0.403391  0.519123  0.088726  1
  O  O56  1  0.520048  0.401896  0.589285  1
  O  O57  1  0.884268  0.403391  0.911274  1
  O  O58  1  0.479952  0.598104  0.410715  1
  O  O59  1  0.115732  0.596609  0.088726  1
  O  O60  1  0.519123  0.115732  0.911274  1
  O  O61  1  0.480877  0.884268  0.088726  1
  O  O62  1  0.837601  0.033090  0.619172  1
  O  O63  1  0.162399  0.966910  0.380828  1
  O  O64  1  0.966910  0.804510  0.619172  1
  O  O65  1  0.836313  0.805055  0.881186  1
  O  O66  1  0.033090  0.195490  0.380828  1
  O  O67  1  0.163687  0.194945  0.118814  1
  O  O68  1  0.195490  0.162399  0.619172  1
  O  O69  1  0.968742  0.163687  0.881186  1
  O  O70  1  0.804510  0.837601  0.380828  1
  O  O71  1  0.031258  0.836313  0.118814  1
  O  O72  1  0.194945  0.031258  0.881186  1
  O  O73  1  0.805055  0.968742  0.118814  1
