# generated using pymatgen
data_Sc24Co3Tc4Ni
_symmetry_space_group_name_H-M   'P 1'
_cell_length_a   5.89059488
_cell_length_b   8.63202800
_cell_length_c   13.10317997
_cell_angle_alpha   90.00000000
_cell_angle_beta   89.93718674
_cell_angle_gamma   90.00000000
_symmetry_Int_Tables_number   1
_chemical_formula_structural   Sc24Co3Tc4Ni
_chemical_formula_sum   'Sc24 Co3 Tc4 Ni1'
_cell_volume   666.26721174
_cell_formula_units_Z   1
loop_
 _symmetry_equiv_pos_site_id
 _symmetry_equiv_pos_as_xyz
  1  'x, y, z'
loop_
 _atom_site_type_symbol
 _atom_site_label
 _atom_site_symmetry_multiplicity
 _atom_site_fract_x
 _atom_site_fract_y
 _atom_site_fract_z
 _atom_site_occupancy
  Sc  Sc0  1  0.528251  0.750000  0.352769  1
  Sc  Sc1  1  0.027287  0.250000  0.148617  1
  Sc  Sc2  1  0.472398  0.250000  0.648888  1
  Sc  Sc3  1  0.971539  0.750000  0.851845  1
  Sc  Sc4  1  0.790255  0.750000  0.113407  1
  Sc  Sc5  1  0.288295  0.250000  0.387163  1
  Sc  Sc6  1  0.212158  0.250000  0.886588  1
  Sc  Sc7  1  0.712465  0.750000  0.613216  1
  Sc  Sc8  1  0.409211  0.935648  0.784738  1
  Sc  Sc9  1  0.909911  0.063668  0.715067  1
  Sc  Sc10  1  0.593099  0.434170  0.215094  1
  Sc  Sc11  1  0.088317  0.561907  0.285589  1
  Sc  Sc12  1  0.593099  0.065830  0.215094  1
  Sc  Sc13  1  0.088317  0.938093  0.285589  1
  Sc  Sc14  1  0.409211  0.564352  0.784738  1
  Sc  Sc15  1  0.909911  0.436332  0.715067  1
  Sc  Sc16  1  0.245288  0.940295  0.537366  1
  Sc  Sc17  1  0.744854  0.060047  0.962612  1
  Sc  Sc18  1  0.755003  0.439841  0.463146  1
  Sc  Sc19  1  0.254188  0.557047  0.035701  1
  Sc  Sc20  1  0.755003  0.060159  0.463146  1
  Sc  Sc21  1  0.254188  0.942953  0.035701  1
  Sc  Sc22  1  0.245288  0.559705  0.537366  1
  Sc  Sc23  1  0.744854  0.439953  0.962612  1
  Co  Co24  1  0.869799  0.250000  0.320916  1
  Co  Co25  1  0.630590  0.250000  0.820877  1
  Co  Co26  1  0.130306  0.750000  0.679225  1
  Tc  Tc27  1  0.934589  0.750000  0.438155  1
  Tc  Tc28  1  0.432171  0.250000  0.061348  1
  Tc  Tc29  1  0.066837  0.250000  0.561307  1
  Tc  Tc30  1  0.565102  0.750000  0.940326  1
  Ni  Ni31  1  0.368215  0.750000  0.176727  1
