# generated using pymatgen
data_DyLu15Tl3In3Co2
_symmetry_space_group_name_H-M   'P 1'
_cell_length_a   10.14513600
_cell_length_b   10.14513693
_cell_length_c   6.93743300
_cell_angle_alpha   90.00000000
_cell_angle_beta   90.00000000
_cell_angle_gamma   120.00000348
_symmetry_Int_Tables_number   1
_chemical_formula_structural   DyLu15Tl3In3Co2
_chemical_formula_sum   'Dy1 Lu15 Tl3 In3 Co2'
_cell_volume   618.36543383
_cell_formula_units_Z   1
loop_
 _symmetry_equiv_pos_site_id
 _symmetry_equiv_pos_as_xyz
  1  'x, y, z'
loop_
 _atom_site_type_symbol
 _atom_site_label
 _atom_site_symmetry_multiplicity
 _atom_site_fract_x
 _atom_site_fract_y
 _atom_site_fract_z
 _atom_site_occupancy
  Dy  Dy0  1  0.000000  0.000000  0.001545  1
  Lu  Lu1  1  0.536325  0.072650  0.512903  1
  Lu  Lu2  1  0.927350  0.463675  0.512903  1
  Lu  Lu3  1  0.536325  0.463675  0.512903  1
  Lu  Lu4  1  0.462628  0.925256  0.016850  1
  Lu  Lu5  1  0.074744  0.537372  0.016850  1
  Lu  Lu6  1  0.462628  0.537372  0.016850  1
  Lu  Lu7  1  0.179592  0.359185  0.717141  1
  Lu  Lu8  1  0.640815  0.820408  0.717141  1
  Lu  Lu9  1  0.179592  0.820408  0.717141  1
  Lu  Lu10  1  0.819742  0.639484  0.215523  1
  Lu  Lu11  1  0.360516  0.180258  0.215523  1
  Lu  Lu12  1  0.819742  0.180258  0.215523  1
  Lu  Lu13  1  0.666667  0.333333  0.903047  1
  Lu  Lu14  1  0.333333  0.666667  0.405843  1
  Lu  Lu15  1  0.000000  0.000000  0.497235  1
  Tl  Tl16  1  0.837232  0.674463  0.760233  1
  Tl  Tl17  1  0.325537  0.162768  0.760233  1
  Tl  Tl18  1  0.837232  0.162768  0.760233  1
  In  In19  1  0.162520  0.325040  0.264685  1
  In  In20  1  0.674960  0.837480  0.264685  1
  In  In21  1  0.162520  0.837480  0.264685  1
  Co  Co22  1  0.666667  0.333333  0.285822  1
  Co  Co23  1  0.333333  0.666667  0.788700  1
