# generated using pymatgen
data_LaYb3(GaIr2)2
_symmetry_space_group_name_H-M   'P 1'
_cell_length_a   5.73031944
_cell_length_b   5.77551164
_cell_length_c   7.69083475
_cell_angle_alpha   102.06580638
_cell_angle_beta   101.45937983
_cell_angle_gamma   58.72202301
_symmetry_Int_Tables_number   1
_chemical_formula_structural   LaYb3(GaIr2)2
_chemical_formula_sum   'La1 Yb3 Ga2 Ir4'
_cell_volume   211.49131994
_cell_formula_units_Z   1
loop_
 _symmetry_equiv_pos_site_id
 _symmetry_equiv_pos_as_xyz
  1  'x, y, z'
loop_
 _atom_site_type_symbol
 _atom_site_label
 _atom_site_symmetry_multiplicity
 _atom_site_fract_x
 _atom_site_fract_y
 _atom_site_fract_z
 _atom_site_occupancy
  La  La0  1  0.786972  0.501388  0.143818  1
  Yb  Yb1  1  0.501781  0.207593  0.363644  1
  Yb  Yb2  1  0.501456  0.791381  0.644020  1
  Yb  Yb3  1  0.209356  0.499782  0.848745  1
  Ga  Ga4  1  0.104559  0.893992  0.252606  1
  Ga  Ga5  1  0.897204  0.098474  0.745906  1
  Ir  Ir6  1  0.284273  0.996911  0.012392  1
  Ir  Ir7  1  0.010036  0.709288  0.487191  1
  Ir  Ir8  1  0.992158  0.282812  0.512083  1
  Ir  Ir9  1  0.712203  0.018377  0.989593  1
