# generated using pymatgen
data_TbYbTh2ReOs7
_symmetry_space_group_name_H-M   'P 1'
_cell_length_a   5.49715300
_cell_length_b   5.27659656
_cell_length_c   9.08745209
_cell_angle_alpha   89.75629099
_cell_angle_beta   90.00000000
_cell_angle_gamma   121.39258832
_symmetry_Int_Tables_number   1
_chemical_formula_structural   TbYbTh2ReOs7
_chemical_formula_sum   'Tb1 Yb1 Th2 Re1 Os7'
_cell_volume   225.00497300
_cell_formula_units_Z   1
loop_
 _symmetry_equiv_pos_site_id
 _symmetry_equiv_pos_as_xyz
  1  'x, y, z'
loop_
 _atom_site_type_symbol
 _atom_site_label
 _atom_site_symmetry_multiplicity
 _atom_site_fract_x
 _atom_site_fract_y
 _atom_site_fract_z
 _atom_site_occupancy
  Tb  Tb0  1  0.329365  0.658733  0.557402  1
  Yb  Yb1  1  0.664888  0.329775  0.437809  1
  Th  Th2  1  0.328205  0.656411  0.932318  1
  Th  Th3  1  0.661878  0.323756  0.074416  1
  Re  Re4  1  0.840994  0.681986  0.741299  1
  Os  Os5  1  0.991144  0.982288  0.499817  1
  Os  Os6  1  0.984388  0.968777  0.000174  1
  Os  Os7  1  0.671481  0.838687  0.254991  1
  Os  Os8  1  0.167206  0.838687  0.254991  1
  Os  Os9  1  0.179546  0.359091  0.253723  1
  Os  Os10  1  0.353383  0.180904  0.746531  1
  Os  Os11  1  0.827520  0.180904  0.746531  1
