# generated using pymatgen
data_Eu3Mg3AgIr2
_symmetry_space_group_name_H-M   'P 1'
_cell_length_a   7.51371400
_cell_length_b   7.51371333
_cell_length_c   4.29279000
_cell_angle_alpha   90.00000000
_cell_angle_beta   90.00000000
_cell_angle_gamma   119.99999416
_symmetry_Int_Tables_number   1
_chemical_formula_structural   Eu3Mg3AgIr2
_chemical_formula_sum   'Eu3 Mg3 Ag1 Ir2'
_cell_volume   209.88412074
_cell_formula_units_Z   1
loop_
 _symmetry_equiv_pos_site_id
 _symmetry_equiv_pos_as_xyz
  1  'x, y, z'
loop_
 _atom_site_type_symbol
 _atom_site_label
 _atom_site_symmetry_multiplicity
 _atom_site_fract_x
 _atom_site_fract_y
 _atom_site_fract_z
 _atom_site_occupancy
  Eu  Eu0  1  0.420249  0.023652  0.500000  1
  Eu  Eu1  1  0.976348  0.396597  0.500000  1
  Eu  Eu2  1  0.603403  0.579751  0.500000  1
  Mg  Mg3  1  0.770736  0.009031  0.000000  1
  Mg  Mg4  1  0.238294  0.229264  0.000000  1
  Mg  Mg5  1  0.990969  0.761707  0.000000  1
  Ag  Ag6  1  0.333333  0.666667  0.000000  1
  Ir  Ir7  1  0.666666  0.333333  0.000000  1
  Ir  Ir8  1  0.000000  0.000000  0.500000  1
