# generated using pymatgen
data_Sr2LaCdCoO6
_symmetry_space_group_name_H-M   'P 1'
_cell_length_a   6.73304109
_cell_length_b   6.72909295
_cell_length_c   6.69636866
_cell_angle_alpha   90.66937048
_cell_angle_beta   90.69615716
_cell_angle_gamma   90.26527112
_symmetry_Int_Tables_number   1
_chemical_formula_structural   Sr2LaCdCoO6
_chemical_formula_sum   'Sr4 La2 Cd2 Co2 O12'
_cell_volume   303.34755989
_cell_formula_units_Z   2
loop_
 _symmetry_equiv_pos_site_id
 _symmetry_equiv_pos_as_xyz
  1  'x, y, z'
loop_
 _atom_site_type_symbol
 _atom_site_label
 _atom_site_symmetry_multiplicity
 _atom_site_fract_x
 _atom_site_fract_y
 _atom_site_fract_z
 _atom_site_occupancy
  Sr  Sr0  1  0.616620  0.883344  0.250088  1
  Sr  Sr1  1  0.748395  0.385120  0.116322  1
  Sr  Sr2  1  0.386462  0.113624  0.749927  1
  Sr  Sr3  1  0.114830  0.751675  0.383615  1
  La  La4  1  0.883524  0.248732  0.613171  1
  La  La5  1  0.251115  0.616552  0.886910  1
  Cd  Cd6  1  0.748546  0.751259  0.750178  1
  Cd  Cd7  1  0.254067  0.245987  0.250007  1
  Co  Co8  1  0.001347  0.002560  0.998274  1
  Co  Co9  1  0.497484  0.498663  0.501681  1
  O  O10  1  0.213083  0.420856  0.558962  1
  O  O11  1  0.413973  0.550289  0.213613  1
  O  O12  1  0.557706  0.219233  0.424881  1
  O  O13  1  0.928579  0.721786  0.047547  1
  O  O14  1  0.726777  0.058265  0.913179  1
  O  O15  1  0.053146  0.924145  0.720307  1
  O  O16  1  0.778115  0.571753  0.452706  1
  O  O17  1  0.575584  0.446913  0.779794  1
  O  O18  1  0.441361  0.773265  0.586698  1
  O  O19  1  0.078809  0.287073  0.940647  1
  O  O20  1  0.280751  0.942726  0.075237  1
  O  O21  1  0.949729  0.086180  0.286254  1
