# generated using pymatgen
data_HoLu(ScPt)2
_symmetry_space_group_name_H-M   'P 1'
_cell_length_a   4.58555100
_cell_length_b   6.91503279
_cell_length_c   8.40226589
_cell_angle_alpha   89.83267895
_cell_angle_beta   90.00000000
_cell_angle_gamma   90.00000000
_symmetry_Int_Tables_number   1
_chemical_formula_structural   HoLu(ScPt)2
_chemical_formula_sum   'Ho2 Lu2 Sc4 Pt4'
_cell_volume   266.42829196
_cell_formula_units_Z   2
loop_
 _symmetry_equiv_pos_site_id
 _symmetry_equiv_pos_as_xyz
  1  'x, y, z'
loop_
 _atom_site_type_symbol
 _atom_site_label
 _atom_site_symmetry_multiplicity
 _atom_site_fract_x
 _atom_site_fract_y
 _atom_site_fract_z
 _atom_site_occupancy
  Ho  Ho0  1  0.250000  0.517120  0.175628  1
  Ho  Ho1  1  0.750000  0.482880  0.824372  1
  Lu  Lu2  1  0.750000  0.981598  0.673165  1
  Lu  Lu3  1  0.250000  0.018402  0.326835  1
  Sc  Sc4  1  0.250000  0.642122  0.571154  1
  Sc  Sc5  1  0.750000  0.357878  0.428846  1
  Sc  Sc6  1  0.750000  0.860151  0.073478  1
  Sc  Sc7  1  0.250000  0.139849  0.926522  1
  Pt  Pt8  1  0.250000  0.753520  0.897763  1
  Pt  Pt9  1  0.750000  0.246480  0.102237  1
  Pt  Pt10  1  0.750000  0.750083  0.399931  1
  Pt  Pt11  1  0.250000  0.249917  0.600069  1
