# generated using pymatgen
data_Ca2UAs2Se
_symmetry_space_group_name_H-M   'P 1'
_cell_length_a   4.17854900
_cell_length_b   4.17854961
_cell_length_c   10.35825800
_cell_angle_alpha   90.00000000
_cell_angle_beta   90.00000000
_cell_angle_gamma   120.00000309
_symmetry_Int_Tables_number   1
_chemical_formula_structural   Ca2UAs2Se
_chemical_formula_sum   'Ca2 U1 As2 Se1'
_cell_volume   156.62764000
_cell_formula_units_Z   1
loop_
 _symmetry_equiv_pos_site_id
 _symmetry_equiv_pos_as_xyz
  1  'x, y, z'
loop_
 _atom_site_type_symbol
 _atom_site_label
 _atom_site_symmetry_multiplicity
 _atom_site_fract_x
 _atom_site_fract_y
 _atom_site_fract_z
 _atom_site_occupancy
  Ca  Ca0  1  0.666667  0.333333  0.833133  1
  Ca  Ca1  1  0.333333  0.666667  0.166867  1
  U  U2  1  0.000000  0.000000  0.500000  1
  As  As3  1  0.666667  0.333333  0.346758  1
  As  As4  1  0.333333  0.666667  0.653242  1
  Se  Se5  1  0.000000  0.000000  0.000000  1
