# generated using pymatgen
data_LiBrF4
_symmetry_space_group_name_H-M   'P 1'
_cell_length_a   7.15014800
_cell_length_b   4.87409774
_cell_length_c   9.96111607
_cell_angle_alpha   88.52480205
_cell_angle_beta   90.00000000
_cell_angle_gamma   90.00000000
_symmetry_Int_Tables_number   1
_chemical_formula_structural   LiBrF4
_chemical_formula_sum   'Li4 Br4 F16'
_cell_volume   347.03501819
_cell_formula_units_Z   4
loop_
 _symmetry_equiv_pos_site_id
 _symmetry_equiv_pos_as_xyz
  1  'x, y, z'
loop_
 _atom_site_type_symbol
 _atom_site_label
 _atom_site_symmetry_multiplicity
 _atom_site_fract_x
 _atom_site_fract_y
 _atom_site_fract_z
 _atom_site_occupancy
  Li  Li0  1  0.404866  0.500000  0.250000  1
  Li  Li1  1  0.899341  0.000000  0.750000  1
  Li  Li2  1  0.595134  0.500000  0.750000  1
  Li  Li3  1  0.100659  0.000000  0.250000  1
  Br  Br4  1  0.000000  0.500000  0.500000  1
  Br  Br5  1  0.000000  0.500000  0.000000  1
  Br  Br6  1  0.500000  0.000000  0.000000  1
  Br  Br7  1  0.500000  0.000000  0.500000  1
  F  F8  1  0.934862  0.790199  0.372947  1
  F  F9  1  0.065138  0.209801  0.627053  1
  F  F10  1  0.569240  0.288836  0.373371  1
  F  F11  1  0.065138  0.790199  0.872947  1
  F  F12  1  0.648675  0.177714  0.636515  1
  F  F13  1  0.151841  0.322099  0.364808  1
  F  F14  1  0.848159  0.677901  0.635192  1
  F  F15  1  0.848159  0.322099  0.864808  1
  F  F16  1  0.351325  0.177714  0.136515  1
  F  F17  1  0.151841  0.677901  0.135192  1
  F  F18  1  0.934862  0.209801  0.127053  1
  F  F19  1  0.569240  0.711164  0.126629  1
  F  F20  1  0.648675  0.822286  0.863485  1
  F  F21  1  0.351325  0.822286  0.363485  1
  F  F22  1  0.430760  0.711164  0.626629  1
  F  F23  1  0.430760  0.288836  0.873371  1
