# generated using pymatgen
data_Ho13Tm7Bi12
_symmetry_space_group_name_H-M   'P 1'
_cell_length_a   8.21088010
_cell_length_b   9.46601101
_cell_length_c   11.97773113
_cell_angle_alpha   90.00008588
_cell_angle_beta   90.01705140
_cell_angle_gamma   89.99389393
_symmetry_Int_Tables_number   1
_chemical_formula_structural   Ho13Tm7Bi12
_chemical_formula_sum   'Ho13 Tm7 Bi12'
_cell_volume   930.96049954
_cell_formula_units_Z   1
loop_
 _symmetry_equiv_pos_site_id
 _symmetry_equiv_pos_as_xyz
  1  'x, y, z'
loop_
 _atom_site_type_symbol
 _atom_site_label
 _atom_site_symmetry_multiplicity
 _atom_site_fract_x
 _atom_site_fract_y
 _atom_site_fract_z
 _atom_site_occupancy
  Ho  Ho0  1  0.353716  0.750123  0.216380  1
  Ho  Ho1  1  0.853475  0.750089  0.283496  1
  Ho  Ho2  1  0.646425  0.250025  0.783532  1
  Ho  Ho3  1  0.146476  0.250057  0.716433  1
  Ho  Ho4  1  0.191954  0.564407  0.441002  1
  Ho  Ho5  1  0.477031  0.249969  0.489010  1
  Ho  Ho6  1  0.976903  0.250030  0.010996  1
  Ho  Ho7  1  0.523258  0.750111  0.511036  1
  Ho  Ho8  1  0.023104  0.750005  0.988972  1
  Ho  Ho9  1  0.314392  0.249998  0.218033  1
  Ho  Ho10  1  0.814456  0.249995  0.281990  1
  Ho  Ho11  1  0.685590  0.750000  0.781981  1
  Ho  Ho12  1  0.185602  0.750070  0.718090  1
  Tm  Tm13  1  0.691970  0.564727  0.058972  1
  Tm  Tm14  1  0.191922  0.935424  0.440998  1
  Tm  Tm15  1  0.308013  0.064716  0.941028  1
  Tm  Tm16  1  0.808061  0.435260  0.558982  1
  Tm  Tm17  1  0.308034  0.435258  0.941004  1
  Tm  Tm18  1  0.807986  0.064687  0.559001  1
  Tm  Tm19  1  0.691978  0.935264  0.058985  1
  Bi  Bi20  1  0.405479  0.749996  0.957477  1
  Bi  Bi21  1  0.905294  0.750187  0.542589  1
  Bi  Bi22  1  0.594541  0.250000  0.042511  1
  Bi  Bi23  1  0.094381  0.249443  0.457552  1
  Bi  Bi24  1  0.566076  0.996194  0.325656  1
  Bi  Bi25  1  0.066006  0.503851  0.174245  1
  Bi  Bi26  1  0.433919  0.496197  0.674386  1
  Bi  Bi27  1  0.933912  0.003849  0.825693  1
  Bi  Bi28  1  0.433959  0.003855  0.674336  1
  Bi  Bi29  1  0.933875  0.496178  0.825713  1
  Bi  Bi30  1  0.566165  0.503846  0.325634  1
  Bi  Bi31  1  0.066047  0.996190  0.174287  1
