# generated using pymatgen
data_Pr8MgHgIrPt
_symmetry_space_group_name_H-M   'P 1'
_cell_length_a   10.06385675
_cell_length_b   10.06385754
_cell_length_c   10.07309600
_cell_angle_alpha   59.96963527
_cell_angle_beta   59.96963268
_cell_angle_gamma   60.29541185
_symmetry_Int_Tables_number   1
_chemical_formula_structural   Pr8MgHgIrPt
_chemical_formula_sum   'Pr16 Mg2 Hg2 Ir2 Pt2'
_cell_volume   722.66453583
_cell_formula_units_Z   2
loop_
 _symmetry_equiv_pos_site_id
 _symmetry_equiv_pos_as_xyz
  1  'x, y, z'
loop_
 _atom_site_type_symbol
 _atom_site_label
 _atom_site_symmetry_multiplicity
 _atom_site_fract_x
 _atom_site_fract_y
 _atom_site_fract_z
 _atom_site_occupancy
  Pr  Pr0  1  0.349582  0.349582  0.344062  1
  Pr  Pr1  1  0.349582  0.349582  0.956774  1
  Pr  Pr2  1  0.355101  0.947974  0.348463  1
  Pr  Pr3  1  0.947974  0.355101  0.348463  1
  Pr  Pr4  1  0.806396  0.188249  0.191047  1
  Pr  Pr5  1  0.188249  0.806396  0.814308  1
  Pr  Pr6  1  0.188249  0.806396  0.191047  1
  Pr  Pr7  1  0.806396  0.188249  0.814308  1
  Pr  Pr8  1  0.188874  0.188874  0.811126  1
  Pr  Pr9  1  0.806747  0.806747  0.193253  1
  Pr  Pr10  1  0.938252  0.562203  0.562189  1
  Pr  Pr11  1  0.562203  0.938252  0.937356  1
  Pr  Pr12  1  0.562203  0.938252  0.562189  1
  Pr  Pr13  1  0.938252  0.562203  0.937356  1
  Pr  Pr14  1  0.561735  0.561735  0.938265  1
  Pr  Pr15  1  0.937342  0.937342  0.562658  1
  Mg  Mg16  1  0.579229  0.273616  0.573578  1
  Mg  Mg17  1  0.273616  0.579229  0.573578  1
  Hg  Hg18  1  0.581556  0.581556  0.587709  1
  Hg  Hg19  1  0.581556  0.581556  0.249180  1
  Ir  Ir20  1  0.140861  0.572255  0.143442  1
  Ir  Ir21  1  0.572255  0.140861  0.143442  1
  Pt  Pt22  1  0.141896  0.141896  0.145177  1
  Pt  Pt23  1  0.141896  0.141896  0.571031  1
