# generated using pymatgen
data_Ho12Re7Si16Tc
_symmetry_space_group_name_H-M   'P 1'
_cell_length_a   10.58993438
_cell_length_b   10.58813626
_cell_length_c   14.34890800
_cell_angle_alpha   54.99969919
_cell_angle_beta   55.00685442
_cell_angle_gamma   30.67076055
_symmetry_Int_Tables_number   1
_chemical_formula_structural   Ho12Re7Si16Tc
_chemical_formula_sum   'Ho12 Re7 Si16 Tc1'
_cell_volume   659.80623641
_cell_formula_units_Z   1
loop_
 _symmetry_equiv_pos_site_id
 _symmetry_equiv_pos_as_xyz
  1  'x, y, z'
loop_
 _atom_site_type_symbol
 _atom_site_label
 _atom_site_symmetry_multiplicity
 _atom_site_fract_x
 _atom_site_fract_y
 _atom_site_fract_z
 _atom_site_occupancy
  Ho  Ho0  1  0.752704  0.486098  0.049521  1
  Ho  Ho1  1  0.538779  0.308177  0.152168  1
  Ho  Ho2  1  0.514376  0.246429  0.450607  1
  Ho  Ho3  1  0.461062  0.692700  0.847423  1
  Ho  Ho4  1  0.292760  0.040875  0.138781  1
  Ho  Ho5  1  0.958904  0.707305  0.360811  1
  Ho  Ho6  1  0.707484  0.959143  0.861044  1
  Ho  Ho7  1  0.040507  0.292625  0.639286  1
  Ho  Ho8  1  0.248127  0.513407  0.950476  1
  Ho  Ho9  1  0.485158  0.753551  0.549182  1
  Ho  Ho10  1  0.307722  0.537737  0.652820  1
  Ho  Ho11  1  0.692212  0.462721  0.347162  1
  Re  Re12  1  0.831536  0.640371  0.781253  1
  Re  Re13  1  0.358764  0.169472  0.718792  1
  Re  Re14  1  0.168887  0.359762  0.218471  1
  Re  Re15  1  0.138745  0.911532  0.077970  1
  Re  Re16  1  0.086200  0.863528  0.422291  1
  Re  Re17  1  0.861453  0.088281  0.921999  1
  Re  Re18  1  0.912897  0.136623  0.578021  1
  Si  Si19  1  0.905925  0.094246  0.249961  1
  Si  Si20  1  0.094004  0.905929  0.750100  1
  Si  Si21  1  0.341360  0.658686  0.250262  1
  Si  Si22  1  0.658289  0.341546  0.749814  1
  Si  Si23  1  0.997127  0.229584  0.879398  1
  Si  Si24  1  0.770441  0.001601  0.621391  1
  Si  Si25  1  0.003715  0.769578  0.120477  1
  Si  Si26  1  0.228757  0.999562  0.378089  1
  Si  Si27  1  0.606345  0.047077  0.077424  1
  Si  Si28  1  0.954949  0.390614  0.424551  1
  Si  Si29  1  0.392906  0.953073  0.924148  1
  Si  Si30  1  0.046428  0.607835  0.575443  1
  Si  Si31  1  0.382984  0.162304  0.376682  1
  Si  Si32  1  0.838178  0.617934  0.121779  1
  Si  Si33  1  0.617456  0.837486  0.622300  1
  Si  Si34  1  0.162021  0.382543  0.878386  1
  Tc  Tc35  1  0.640837  0.830064  0.281719  1
