# generated using pymatgen
data_Li3Dy2HoSn3
_symmetry_space_group_name_H-M   'P 1'
_cell_length_a   7.30077900
_cell_length_b   7.29619182
_cell_length_c   4.60777100
_cell_angle_alpha   90.00000000
_cell_angle_beta   90.00000000
_cell_angle_gamma   120.02079515
_symmetry_Int_Tables_number   1
_chemical_formula_structural   Li3Dy2HoSn3
_chemical_formula_sum   'Li3 Dy2 Ho1 Sn3'
_cell_volume   212.51809868
_cell_formula_units_Z   1
loop_
 _symmetry_equiv_pos_site_id
 _symmetry_equiv_pos_as_xyz
  1  'x, y, z'
loop_
 _atom_site_type_symbol
 _atom_site_label
 _atom_site_symmetry_multiplicity
 _atom_site_fract_x
 _atom_site_fract_y
 _atom_site_fract_z
 _atom_site_occupancy
  Li  Li0  1  0.769768  0.000000  0.500001  1
  Li  Li1  1  0.230205  0.230193  0.500001  1
  Li  Li2  1  0.000013  0.769807  0.500001  1
  Dy  Dy3  1  0.000008  0.440093  0.000000  1
  Dy  Dy4  1  0.559914  0.559907  0.000000  1
  Ho  Ho5  1  0.440051  0.000000  0.000000  1
  Sn  Sn6  1  0.000112  0.000000  0.000000  1
  Sn  Sn7  1  0.666538  0.333147  0.500001  1
  Sn  Sn8  1  0.333390  0.666853  0.500001  1
