# generated using pymatgen
data_Zr10AgBi3Pb3Au
_symmetry_space_group_name_H-M   'P 1'
_cell_length_a   8.91430000
_cell_length_b   8.91429891
_cell_length_c   5.99606300
_cell_angle_alpha   90.00000000
_cell_angle_beta   90.00000000
_cell_angle_gamma   120.00000404
_symmetry_Int_Tables_number   1
_chemical_formula_structural   Zr10AgBi3Pb3Au
_chemical_formula_sum   'Zr10 Ag1 Bi3 Pb3 Au1'
_cell_volume   412.63991903
_cell_formula_units_Z   1
loop_
 _symmetry_equiv_pos_site_id
 _symmetry_equiv_pos_as_xyz
  1  'x, y, z'
loop_
 _atom_site_type_symbol
 _atom_site_label
 _atom_site_symmetry_multiplicity
 _atom_site_fract_x
 _atom_site_fract_y
 _atom_site_fract_z
 _atom_site_occupancy
  Zr  Zr0  1  0.666667  0.333333  0.002186  1
  Zr  Zr1  1  0.333333  0.666667  0.002186  1
  Zr  Zr2  1  0.333333  0.666667  0.497535  1
  Zr  Zr3  1  0.666667  0.333333  0.497535  1
  Zr  Zr4  1  0.725361  0.725361  0.753756  1
  Zr  Zr5  1  0.274639  0.000000  0.753756  1
  Zr  Zr6  1  0.000000  0.274639  0.753756  1
  Zr  Zr7  1  0.275811  0.275811  0.245752  1
  Zr  Zr8  1  0.724189  0.000000  0.245752  1
  Zr  Zr9  1  0.000000  0.724189  0.245752  1
  Ag  Ag10  1  0.000000  0.000000  0.498252  1
  Bi  Bi11  1  0.382532  0.382532  0.748305  1
  Bi  Bi12  1  0.617468  0.000000  0.748305  1
  Bi  Bi13  1  0.000000  0.617468  0.748305  1
  Pb  Pb14  1  0.619631  0.619631  0.252333  1
  Pb  Pb15  1  0.380369  0.000000  0.252333  1
  Pb  Pb16  1  0.000000  0.380369  0.252333  1
  Au  Au17  1  0.000000  0.000000  0.001866  1
