# generated using pymatgen
data_Ta3Al2BIr
_symmetry_space_group_name_H-M   'P 1'
_cell_length_a   8.38095034
_cell_length_b   8.38095002
_cell_length_c   8.38094900
_cell_angle_alpha   60.00000008
_cell_angle_beta   60.00000134
_cell_angle_gamma   59.99999964
_symmetry_Int_Tables_number   1
_chemical_formula_structural   Ta3Al2BIr
_chemical_formula_sum   'Ta12 Al8 B4 Ir4'
_cell_volume   416.26004003
_cell_formula_units_Z   4
loop_
 _symmetry_equiv_pos_site_id
 _symmetry_equiv_pos_as_xyz
  1  'x, y, z'
loop_
 _atom_site_type_symbol
 _atom_site_label
 _atom_site_symmetry_multiplicity
 _atom_site_fract_x
 _atom_site_fract_y
 _atom_site_fract_z
 _atom_site_occupancy
  Ta  Ta0  1  0.557787  0.942213  0.557787  1
  Ta  Ta1  1  0.307787  0.692213  0.692213  1
  Ta  Ta2  1  0.692213  0.307787  0.307787  1
  Ta  Ta3  1  0.307787  0.692213  0.307787  1
  Ta  Ta4  1  0.692213  0.692213  0.307787  1
  Ta  Ta5  1  0.307787  0.307787  0.692213  1
  Ta  Ta6  1  0.557787  0.557787  0.942213  1
  Ta  Ta7  1  0.942213  0.557787  0.557787  1
  Ta  Ta8  1  0.557787  0.942213  0.942213  1
  Ta  Ta9  1  0.942213  0.942213  0.557787  1
  Ta  Ta10  1  0.692213  0.307787  0.692213  1
  Ta  Ta11  1  0.942213  0.557787  0.942213  1
  Al  Al12  1  0.916019  0.916019  0.916019  1
  Al  Al13  1  0.998055  0.333981  0.333981  1
  Al  Al14  1  0.333981  0.998055  0.333981  1
  Al  Al15  1  0.333981  0.333981  0.998055  1
  Al  Al16  1  0.916019  0.251945  0.916019  1
  Al  Al17  1  0.916019  0.916019  0.251945  1
  Al  Al18  1  0.251945  0.916019  0.916019  1
  Al  Al19  1  0.333981  0.333981  0.333981  1
  B  B20  1  0.625000  0.625000  0.625000  1
  B  B21  1  0.125000  0.625000  0.625000  1
  B  B22  1  0.625000  0.125000  0.625000  1
  B  B23  1  0.625000  0.625000  0.125000  1
  Ir  Ir24  1  0.125000  0.125000  0.125000  1
  Ir  Ir25  1  0.625000  0.125000  0.125000  1
  Ir  Ir26  1  0.125000  0.625000  0.125000  1
  Ir  Ir27  1  0.125000  0.125000  0.625000  1
