# generated using pymatgen
data_Ca5LaNd2(Si3Pd)4
_symmetry_space_group_name_H-M   'P 1'
_cell_length_a   8.30252000
_cell_length_b   8.28324436
_cell_length_c   8.47870700
_cell_angle_alpha   90.00000000
_cell_angle_beta   90.00000000
_cell_angle_gamma   120.07700858
_symmetry_Int_Tables_number   1
_chemical_formula_structural   Ca5LaNd2(Si3Pd)4
_chemical_formula_sum   'Ca5 La1 Nd2 Si12 Pd4'
_cell_volume   504.58360087
_cell_formula_units_Z   1
loop_
 _symmetry_equiv_pos_site_id
 _symmetry_equiv_pos_as_xyz
  1  'x, y, z'
loop_
 _atom_site_type_symbol
 _atom_site_label
 _atom_site_symmetry_multiplicity
 _atom_site_fract_x
 _atom_site_fract_y
 _atom_site_fract_z
 _atom_site_occupancy
  Ca  Ca0  1  0.499253  0.500789  0.750000  1
  Ca  Ca1  1  0.500794  0.499601  0.250000  1
  Ca  Ca2  1  0.001535  0.500789  0.750000  1
  Ca  Ca3  1  0.998806  0.499601  0.250000  1
  Ca  Ca4  1  0.499122  0.998244  0.750000  1
  La  La5  1  0.500706  0.001411  0.250000  1
  Nd  Nd6  1  0.000031  0.000062  0.750000  1
  Nd  Nd7  1  0.999962  0.999925  0.250000  1
  Si  Si8  1  0.836471  0.165577  0.999668  1
  Si  Si9  1  0.163505  0.834409  0.000935  1
  Si  Si10  1  0.329106  0.165577  0.999668  1
  Si  Si11  1  0.163505  0.834409  0.499065  1
  Si  Si12  1  0.670904  0.834409  0.000935  1
  Si  Si13  1  0.836471  0.165577  0.500332  1
  Si  Si14  1  0.834522  0.669045  0.999778  1
  Si  Si15  1  0.670904  0.834409  0.499065  1
  Si  Si16  1  0.165427  0.330855  0.000946  1
  Si  Si17  1  0.329106  0.165577  0.500332  1
  Si  Si18  1  0.165427  0.330855  0.499054  1
  Si  Si19  1  0.834522  0.669045  0.500222  1
  Pd  Pd20  1  0.666681  0.333361  0.996749  1
  Pd  Pd21  1  0.333278  0.666559  0.999271  1
  Pd  Pd22  1  0.333278  0.666559  0.500729  1
  Pd  Pd23  1  0.666681  0.333361  0.503251  1
