# generated using pymatgen
data_SrLiNdCdBi4
_symmetry_space_group_name_H-M   'P 1'
_cell_length_a   4.60492400
_cell_length_b   4.62707300
_cell_length_c   11.32937400
_cell_angle_alpha   90.00000000
_cell_angle_beta   90.00000000
_cell_angle_gamma   90.00000000
_symmetry_Int_Tables_number   1
_chemical_formula_structural   SrLiNdCdBi4
_chemical_formula_sum   'Sr1 Li1 Nd1 Cd1 Bi4'
_cell_volume   241.39859164
_cell_formula_units_Z   1
loop_
 _symmetry_equiv_pos_site_id
 _symmetry_equiv_pos_as_xyz
  1  'x, y, z'
loop_
 _atom_site_type_symbol
 _atom_site_label
 _atom_site_symmetry_multiplicity
 _atom_site_fract_x
 _atom_site_fract_y
 _atom_site_fract_z
 _atom_site_occupancy
  Sr  Sr0  1  0.000000  0.500000  0.264157  1
  Li  Li1  1  0.500000  0.500000  0.997416  1
  Nd  Nd2  1  0.500000  0.000000  0.738733  1
  Cd  Cd3  1  0.000000  0.000000  0.994239  1
  Bi  Bi4  1  0.000000  0.500000  0.817308  1
  Bi  Bi5  1  0.500000  0.000000  0.160549  1
  Bi  Bi6  1  0.000000  0.000000  0.515172  1
  Bi  Bi7  1  0.500000  0.500000  0.512426  1
