# generated using pymatgen
data_Tb2Yb3Ho(CoSn6)2
_symmetry_space_group_name_H-M   'P 1'
_cell_length_a   8.42102554
_cell_length_b   8.42102479
_cell_length_c   13.23658476
_cell_angle_alpha   90.05979073
_cell_angle_beta   89.94021039
_cell_angle_gamma   148.07220076
_symmetry_Int_Tables_number   1
_chemical_formula_structural   Tb2Yb3Ho(CoSn6)2
_chemical_formula_sum   'Tb2 Yb3 Ho1 Co2 Sn12'
_cell_volume   496.40743714
_cell_formula_units_Z   1
loop_
 _symmetry_equiv_pos_site_id
 _symmetry_equiv_pos_as_xyz
  1  'x, y, z'
loop_
 _atom_site_type_symbol
 _atom_site_label
 _atom_site_symmetry_multiplicity
 _atom_site_fract_x
 _atom_site_fract_y
 _atom_site_fract_z
 _atom_site_occupancy
  Tb  Tb0  1  0.897897  0.102103  0.095015  1
  Tb  Tb1  1  0.901246  0.098754  0.754385  1
  Yb  Yb2  1  0.100820  0.899180  0.597548  1
  Yb  Yb3  1  0.101014  0.898986  0.903209  1
  Yb  Yb4  1  0.899654  0.100346  0.402008  1
  Ho  Ho5  1  0.098984  0.901016  0.247682  1
  Co  Co6  1  0.299166  0.700834  0.249462  1
  Co  Co7  1  0.702522  0.297478  0.750175  1
  Sn  Sn8  1  0.758752  0.241248  0.572357  1
  Sn  Sn9  1  0.425686  0.574314  0.578273  1
  Sn  Sn10  1  0.573849  0.426151  0.422533  1
  Sn  Sn11  1  0.733002  0.266998  0.248672  1
  Sn  Sn12  1  0.267131  0.732869  0.750182  1
  Sn  Sn13  1  0.240743  0.759257  0.072426  1
  Sn  Sn14  1  0.242094  0.757906  0.427057  1
  Sn  Sn15  1  0.572620  0.427380  0.075701  1
  Sn  Sn16  1  0.455416  0.544584  0.248902  1
  Sn  Sn17  1  0.545500  0.454500  0.750133  1
  Sn  Sn18  1  0.757387  0.242613  0.928998  1
  Sn  Sn19  1  0.426518  0.573482  0.925280  1
