# generated using pymatgen
data_LuMg2Pa3Rh4
_symmetry_space_group_name_H-M   'P 1'
_cell_length_a   7.64348902
_cell_length_b   7.64348902
_cell_length_c   3.61012700
_cell_angle_alpha   90.00000000
_cell_angle_beta   90.00000000
_cell_angle_gamma   88.27998763
_symmetry_Int_Tables_number   1
_chemical_formula_structural   LuMg2Pa3Rh4
_chemical_formula_sum   'Lu1 Mg2 Pa3 Rh4'
_cell_volume   210.81914652
_cell_formula_units_Z   1
loop_
 _symmetry_equiv_pos_site_id
 _symmetry_equiv_pos_as_xyz
  1  'x, y, z'
loop_
 _atom_site_type_symbol
 _atom_site_label
 _atom_site_symmetry_multiplicity
 _atom_site_fract_x
 _atom_site_fract_y
 _atom_site_fract_z
 _atom_site_occupancy
  Lu  Lu0  1  0.666142  0.166143  0.500000  1
  Mg  Mg1  1  0.993465  0.000845  0.000000  1
  Mg  Mg2  1  0.500845  0.493465  0.000000  1
  Pa  Pa3  1  0.165395  0.331178  0.500000  1
  Pa  Pa4  1  0.831178  0.665394  0.500000  1
  Pa  Pa5  1  0.334299  0.834299  0.500000  1
  Rh  Rh6  1  0.352884  0.134171  0.000000  1
  Rh  Rh7  1  0.878015  0.378016  0.000000  1
  Rh  Rh8  1  0.143609  0.643609  0.000000  1
  Rh  Rh9  1  0.634171  0.852883  0.000000  1
