# generated using pymatgen
data_RbPa3(SeO6)2
_symmetry_space_group_name_H-M   'P 1'
_cell_length_a   8.10076700
_cell_length_b   8.10076724
_cell_length_c   13.92364300
_cell_angle_alpha   90.00000000
_cell_angle_beta   90.00000000
_cell_angle_gamma   120.00000311
_symmetry_Int_Tables_number   1
_chemical_formula_structural   RbPa3(SeO6)2
_chemical_formula_sum   'Rb2 Pa6 Se4 O24'
_cell_volume   791.29020928
_cell_formula_units_Z   2
loop_
 _symmetry_equiv_pos_site_id
 _symmetry_equiv_pos_as_xyz
  1  'x, y, z'
loop_
 _atom_site_type_symbol
 _atom_site_label
 _atom_site_symmetry_multiplicity
 _atom_site_fract_x
 _atom_site_fract_y
 _atom_site_fract_z
 _atom_site_occupancy
  Rb  Rb0  1  0.333333  0.666667  0.642682  1
  Rb  Rb1  1  0.666667  0.333333  0.142682  1
  Pa  Pa2  1  0.166514  0.333014  0.201791  1
  Pa  Pa3  1  0.166500  0.833486  0.201791  1
  Pa  Pa4  1  0.333014  0.166500  0.701791  1
  Pa  Pa5  1  0.833486  0.666986  0.701791  1
  Pa  Pa6  1  0.666986  0.833500  0.201791  1
  Pa  Pa7  1  0.833500  0.166514  0.701791  1
  Se  Se8  1  0.000000  0.000000  0.411436  1
  Se  Se9  1  0.333333  0.666667  0.991484  1
  Se  Se10  1  0.666667  0.333333  0.491484  1
  Se  Se11  1  0.000000  0.000000  0.911436  1
  O  O12  1  0.750223  0.874823  0.672634  1
  O  O13  1  0.875400  0.750223  0.172634  1
  O  O14  1  0.874823  0.124600  0.172634  1
  O  O15  1  0.125177  0.875400  0.672634  1
  O  O16  1  0.124600  0.249777  0.672634  1
  O  O17  1  0.249777  0.125177  0.172634  1
  O  O18  1  0.540252  0.079946  0.724131  1
  O  O19  1  0.460307  0.540252  0.224131  1
  O  O20  1  0.079946  0.539693  0.224131  1
  O  O21  1  0.920054  0.460307  0.724131  1
  O  O22  1  0.539693  0.459748  0.724131  1
  O  O23  1  0.459748  0.920054  0.224131  1
  O  O24  1  0.222124  0.777366  0.045832  1
  O  O25  1  0.444757  0.222124  0.545832  1
  O  O26  1  0.777366  0.555243  0.545832  1
  O  O27  1  0.222634  0.444757  0.045832  1
  O  O28  1  0.555243  0.777876  0.045832  1
  O  O29  1  0.777876  0.222634  0.545832  1
  O  O30  1  0.110494  0.889493  0.355981  1
  O  O31  1  0.221001  0.110494  0.855981  1
  O  O32  1  0.889493  0.778999  0.855981  1
  O  O33  1  0.110507  0.221001  0.355981  1
  O  O34  1  0.778999  0.889506  0.355981  1
  O  O35  1  0.889506  0.110507  0.855981  1
