# generated using pymatgen
data_Tb3Y(GaPt3)6
_symmetry_space_group_name_H-M   'P 1'
_cell_length_a   7.78327128
_cell_length_b   7.77738365
_cell_length_c   10.20331385
_cell_angle_alpha   67.79337669
_cell_angle_beta   67.72197168
_cell_angle_gamma   60.08916397
_symmetry_Int_Tables_number   1
_chemical_formula_structural   Tb3Y(GaPt3)6
_chemical_formula_sum   'Tb3 Y1 Ga6 Pt18'
_cell_volume   481.47505443
_cell_formula_units_Z   1
loop_
 _symmetry_equiv_pos_site_id
 _symmetry_equiv_pos_as_xyz
  1  'x, y, z'
loop_
 _atom_site_type_symbol
 _atom_site_label
 _atom_site_symmetry_multiplicity
 _atom_site_fract_x
 _atom_site_fract_y
 _atom_site_fract_z
 _atom_site_occupancy
  Tb  Tb0  1  0.414510  0.245912  0.250316  1
  Tb  Tb1  1  0.585535  0.754053  0.749695  1
  Tb  Tb2  1  0.754160  0.585527  0.249623  1
  Y  Y3  1  0.245965  0.414425  0.750401  1
  Ga  Ga4  1  0.500107  0.999867  0.999982  1
  Ga  Ga5  1  0.000072  0.499916  0.499956  1
  Ga  Ga6  1  0.639378  0.181055  0.499138  1
  Ga  Ga7  1  0.360491  0.819006  0.500907  1
  Ga  Ga8  1  0.819277  0.360345  0.000911  1
  Ga  Ga9  1  0.180762  0.639719  0.999020  1
  Pt  Pt10  1  0.293252  0.917801  0.253806  1
  Pt  Pt11  1  0.706906  0.082272  0.746154  1
  Pt  Pt12  1  0.082390  0.706659  0.246066  1
  Pt  Pt13  1  0.917621  0.293368  0.753843  1
  Pt  Pt14  1  0.470640  0.644785  0.078763  1
  Pt  Pt15  1  0.529224  0.355056  0.921354  1
  Pt  Pt16  1  0.354808  0.529115  0.421694  1
  Pt  Pt17  1  0.645031  0.470784  0.578514  1
  Pt  Pt18  1  0.865954  0.133774  0.250193  1
  Pt  Pt19  1  0.133895  0.866205  0.749890  1
  Pt  Pt20  1  0.807143  0.978091  0.073917  1
  Pt  Pt21  1  0.192655  0.022006  0.926188  1
  Pt  Pt22  1  0.022521  0.192726  0.425822  1
  Pt  Pt23  1  0.977546  0.807504  0.573893  1
  Pt  Pt24  1  0.697234  0.859975  0.422071  1
  Pt  Pt25  1  0.302675  0.140040  0.578144  1
  Pt  Pt26  1  0.139884  0.302933  0.077725  1
  Pt  Pt27  1  0.860361  0.697081  0.922015  1
