# generated using pymatgen
data_HfNb3(InRh5)2
_symmetry_space_group_name_H-M   'P 1'
_cell_length_a   4.08015400
_cell_length_b   5.60917777
_cell_length_c   11.12186854
_cell_angle_alpha   89.90877823
_cell_angle_beta   90.00000000
_cell_angle_gamma   90.00000000
_symmetry_Int_Tables_number   1
_chemical_formula_structural   HfNb3(InRh5)2
_chemical_formula_sum   'Hf1 Nb3 In2 Rh10'
_cell_volume   254.53819870
_cell_formula_units_Z   1
loop_
 _symmetry_equiv_pos_site_id
 _symmetry_equiv_pos_as_xyz
  1  'x, y, z'
loop_
 _atom_site_type_symbol
 _atom_site_label
 _atom_site_symmetry_multiplicity
 _atom_site_fract_x
 _atom_site_fract_y
 _atom_site_fract_z
 _atom_site_occupancy
  Hf  Hf0  1  0.500000  0.307108  0.140687  1
  Nb  Nb1  1  0.500000  0.187665  0.639154  1
  Nb  Nb2  1  0.500000  0.808055  0.356087  1
  Nb  Nb3  1  0.500000  0.686072  0.859268  1
  In  In4  1  0.000000  0.501870  0.500759  1
  In  In5  1  0.000000  0.999477  0.998066  1
  Rh  Rh6  1  0.500000  0.219894  0.876943  1
  Rh  Rh7  1  0.500000  0.784616  0.119386  1
  Rh  Rh8  1  0.500000  0.722556  0.621092  1
  Rh  Rh9  1  0.500000  0.275708  0.385066  1
  Rh  Rh10  1  0.000000  0.453833  0.750514  1
  Rh  Rh11  1  0.000000  0.551730  0.252829  1
  Rh  Rh12  1  0.000000  0.000126  0.501109  1
  Rh  Rh13  1  0.000000  0.504040  0.997357  1
  Rh  Rh14  1  0.000000  0.043037  0.253503  1
  Rh  Rh15  1  0.000000  0.954212  0.748181  1
