# generated using pymatgen
data_TaI35
_symmetry_space_group_name_H-M   'P 1'
_cell_length_a   17.58017498
_cell_length_b   12.54030950
_cell_length_c   11.87107100
_cell_angle_alpha   88.81408644
_cell_angle_beta   66.02770740
_cell_angle_gamma   92.31545562
_symmetry_Int_Tables_number   1
_chemical_formula_structural   TaI35
_chemical_formula_sum   'Ta1 I35'
_cell_volume   2387.43274716
_cell_formula_units_Z   1
loop_
 _symmetry_equiv_pos_site_id
 _symmetry_equiv_pos_as_xyz
  1  'x, y, z'
loop_
 _atom_site_type_symbol
 _atom_site_label
 _atom_site_symmetry_multiplicity
 _atom_site_fract_x
 _atom_site_fract_y
 _atom_site_fract_z
 _atom_site_occupancy
  Ta  Ta0  1  0.226173  0.441077  0.472221  1
  I  I1  1  0.523766  0.260719  0.531385  1
  I  I2  1  0.760102  0.589981  0.576529  1
  I  I3  1  0.469180  0.686398  0.742281  1
  I  I4  1  0.067348  0.883209  0.831849  1
  I  I5  1  0.896491  0.150792  0.014207  1
  I  I6  1  0.658443  0.303604  0.278722  1
  I  I7  1  0.600873  0.346689  0.847136  1
  I  I8  1  0.329217  0.761576  0.692920  1
  I  I9  1  0.328644  0.575244  0.234722  1
  I  I10  1  0.643113  0.135941  0.801796  1
  I  I11  1  0.918726  0.553386  0.383186  1
  I  I12  1  0.071216  0.946141  0.593140  1
  I  I13  1  0.900838  0.106343  0.260437  1
  I  I14  1  0.886580  0.202688  0.784663  1
  I  I15  1  0.647010  0.042321  0.237146  1
  I  I16  1  0.039890  0.815944  0.086929  1
  I  I17  1  0.354921  0.984781  0.735486  1
  I  I18  1  0.904760  0.326247  0.326530  1
  I  I19  1  0.881681  0.923645  0.691682  1
  I  I20  1  0.880576  0.665662  0.826621  1
  I  I21  1  0.307594  0.046161  0.270031  1
  I  I22  1  0.346180  0.321559  0.287667  1
  I  I23  1  0.605048  0.618456  0.803560  1
  I  I24  1  0.124471  0.390786  0.357928  1
  I  I25  1  0.705214  0.901364  0.798789  1
  I  I26  1  0.886244  0.445128  0.797402  1
  I  I27  1  0.477628  0.042055  0.255169  1
  I  I28  1  0.159421  0.292322  0.650437  1
  I  I29  1  0.676267  0.777610  0.261260  1
  I  I30  1  0.859287  0.800512  0.177661  1
  I  I31  1  0.391913  0.211871  0.769843  1
  I  I32  1  0.353897  0.497041  0.537551  1
  I  I33  1  0.659774  0.538109  0.254211  1
  I  I34  1  0.145266  0.614529  0.568501  1
  I  I35  1  0.312247  0.800109  0.260402  1
