# generated using pymatgen
data_NaSm6Co(P3Rh4)4
_symmetry_space_group_name_H-M   'P 1'
_cell_length_a   3.94742100
_cell_length_b   11.24804200
_cell_length_c   12.93307800
_cell_angle_alpha   90.00000000
_cell_angle_beta   90.00000000
_cell_angle_gamma   90.00000000
_symmetry_Int_Tables_number   1
_chemical_formula_structural   NaSm6Co(P3Rh4)4
_chemical_formula_sum   'Na1 Sm6 Co1 P12 Rh16'
_cell_volume   574.23845612
_cell_formula_units_Z   1
loop_
 _symmetry_equiv_pos_site_id
 _symmetry_equiv_pos_as_xyz
  1  'x, y, z'
loop_
 _atom_site_type_symbol
 _atom_site_label
 _atom_site_symmetry_multiplicity
 _atom_site_fract_x
 _atom_site_fract_y
 _atom_site_fract_z
 _atom_site_occupancy
  Na  Na0  1  0.500000  0.500000  0.153458  1
  Sm  Sm1  1  0.000000  0.500000  0.518698  1
  Sm  Sm2  1  0.500000  0.000000  0.479207  1
  Sm  Sm3  1  0.500000  0.819350  0.204530  1
  Sm  Sm4  1  0.500000  0.180650  0.204530  1
  Sm  Sm5  1  0.000000  0.686965  0.796381  1
  Sm  Sm6  1  0.000000  0.313035  0.796381  1
  Co  Co7  1  0.500000  0.000000  0.019111  1
  P  P8  1  0.500000  0.312915  0.619034  1
  P  P9  1  0.500000  0.687085  0.619034  1
  P  P10  1  0.000000  0.187471  0.383759  1
  P  P11  1  0.000000  0.812529  0.383759  1
  P  P12  1  0.500000  0.500000  0.882264  1
  P  P13  1  0.000000  0.000000  0.117746  1
  P  P14  1  0.500000  0.857741  0.894822  1
  P  P15  1  0.500000  0.142259  0.894822  1
  P  P16  1  0.000000  0.663367  0.103427  1
  P  P17  1  0.000000  0.336633  0.103427  1
  P  P18  1  0.500000  0.500000  0.351926  1
  P  P19  1  0.000000  0.000000  0.649859  1
  Rh  Rh20  1  0.000000  0.500000  0.981723  1
  Rh  Rh21  1  0.500000  0.288695  0.434269  1
  Rh  Rh22  1  0.500000  0.711305  0.434269  1
  Rh  Rh23  1  0.000000  0.203858  0.572332  1
  Rh  Rh24  1  0.000000  0.796142  0.572332  1
  Rh  Rh25  1  0.500000  0.876406  0.711096  1
  Rh  Rh26  1  0.500000  0.123594  0.711096  1
  Rh  Rh27  1  0.000000  0.627492  0.293083  1
  Rh  Rh28  1  0.000000  0.372508  0.293083  1
  Rh  Rh29  1  0.500000  0.326705  0.991269  1
  Rh  Rh30  1  0.500000  0.673295  0.991269  1
  Rh  Rh31  1  0.000000  0.157944  0.003740  1
  Rh  Rh32  1  0.000000  0.842056  0.003740  1
  Rh  Rh33  1  0.000000  0.000000  0.829145  1
  Rh  Rh34  1  0.500000  0.500000  0.703966  1
  Rh  Rh35  1  0.000000  0.000000  0.297411  1
