# generated using pymatgen
data_Y18HoInIr12
_symmetry_space_group_name_H-M   'P 1'
_cell_length_a   10.94375600
_cell_length_b   10.94375600
_cell_length_c   6.32252600
_cell_angle_alpha   90.00000000
_cell_angle_beta   90.00000000
_cell_angle_gamma   90.00000000
_symmetry_Int_Tables_number   1
_chemical_formula_structural   Y18HoInIr12
_chemical_formula_sum   'Y18 Ho1 In1 Ir12'
_cell_volume   757.22235525
_cell_formula_units_Z   1
loop_
 _symmetry_equiv_pos_site_id
 _symmetry_equiv_pos_as_xyz
  1  'x, y, z'
loop_
 _atom_site_type_symbol
 _atom_site_label
 _atom_site_symmetry_multiplicity
 _atom_site_fract_x
 _atom_site_fract_y
 _atom_site_fract_z
 _atom_site_occupancy
  Y  Y0  1  0.282890  0.083967  0.380131  1
  Y  Y1  1  0.291379  0.911033  0.880824  1
  Y  Y2  1  0.708621  0.088967  0.880824  1
  Y  Y3  1  0.717110  0.916033  0.380131  1
  Y  Y4  1  0.589101  0.791854  0.881265  1
  Y  Y5  1  0.586917  0.208992  0.377888  1
  Y  Y6  1  0.413083  0.791008  0.377888  1
  Y  Y7  1  0.410899  0.208146  0.881265  1
  Y  Y8  1  0.208992  0.413083  0.622112  1
  Y  Y9  1  0.208146  0.589101  0.118735  1
  Y  Y10  1  0.791854  0.410899  0.118735  1
  Y  Y11  1  0.791008  0.586917  0.622112  1
  Y  Y12  1  0.911033  0.708621  0.119176  1
  Y  Y13  1  0.916033  0.282890  0.619869  1
  Y  Y14  1  0.083967  0.717110  0.619869  1
  Y  Y15  1  0.088967  0.291379  0.119176  1
  Y  Y16  1  0.000000  0.000000  0.000000  1
  Y  Y17  1  0.500000  0.500000  0.000000  1
  Ho  Ho18  1  0.500000  0.500000  0.500000  1
  In  In19  1  0.000000  0.000000  0.500000  1
  Ir  Ir20  1  0.846149  0.155897  0.246130  1
  Ir  Ir21  1  0.844103  0.846149  0.753870  1
  Ir  Ir22  1  0.155897  0.153851  0.753870  1
  Ir  Ir23  1  0.153851  0.844103  0.246130  1
  Ir  Ir24  1  0.654349  0.347091  0.745744  1
  Ir  Ir25  1  0.652909  0.654349  0.254256  1
  Ir  Ir26  1  0.347091  0.345651  0.254256  1
  Ir  Ir27  1  0.345651  0.652909  0.745744  1
  Ir  Ir28  1  0.500000  0.000000  0.126586  1
  Ir  Ir29  1  0.500000  0.000000  0.621331  1
  Ir  Ir30  1  0.000000  0.500000  0.873414  1
  Ir  Ir31  1  0.000000  0.500000  0.378669  1
