# generated using pymatgen
data_Nd12MgIn(NiOs)2
_symmetry_space_group_name_H-M   'P 1'
_cell_length_a   8.72287501
_cell_length_b   8.72295160
_cell_length_c   8.72287624
_cell_angle_alpha   113.06763927
_cell_angle_beta   110.20822341
_cell_angle_gamma   105.23294076
_symmetry_Int_Tables_number   1
_chemical_formula_structural   Nd12MgIn(NiOs)2
_chemical_formula_sum   'Nd12 Mg1 In1 Ni2 Os2'
_cell_volume   508.51179367
_cell_formula_units_Z   1
loop_
 _symmetry_equiv_pos_site_id
 _symmetry_equiv_pos_as_xyz
  1  'x, y, z'
loop_
 _atom_site_type_symbol
 _atom_site_label
 _atom_site_symmetry_multiplicity
 _atom_site_fract_x
 _atom_site_fract_y
 _atom_site_fract_z
 _atom_site_occupancy
  Nd  Nd0  1  0.434885  0.238153  0.196730  1
  Nd  Nd1  1  0.565115  0.761847  0.803270  1
  Nd  Nd2  1  0.041424  0.238153  0.803266  1
  Nd  Nd3  1  0.958576  0.761847  0.196734  1
  Nd  Nd4  1  0.184009  0.284054  0.468063  1
  Nd  Nd5  1  0.815991  0.715946  0.531937  1
  Nd  Nd6  1  0.184008  0.715946  0.899953  1
  Nd  Nd7  1  0.815992  0.284054  0.100047  1
  Nd  Nd8  1  0.326593  0.640959  0.314366  1
  Nd  Nd9  1  0.673407  0.359041  0.685634  1
  Nd  Nd10  1  0.326594  0.012226  0.685632  1
  Nd  Nd11  1  0.673406  0.987774  0.314368  1
  Mg  Mg12  1  0.000000  0.000000  0.000000  1
  In  In13  1  0.500000  0.500000  0.000000  1
  Ni  Ni14  1  0.113955  0.613954  0.499999  1
  Ni  Ni15  1  0.886045  0.386046  0.500001  1
  Os  Os16  1  0.324662  0.000000  0.324662  1
  Os  Os17  1  0.675338  0.000000  0.675338  1
