# generated using pymatgen
data_Sc4CrOsC4
_symmetry_space_group_name_H-M   'P 1'
_cell_length_a   4.72282300
_cell_length_b   6.22470159
_cell_length_c   9.27841205
_cell_angle_alpha   90.37448654
_cell_angle_beta   90.00000000
_cell_angle_gamma   90.00000000
_symmetry_Int_Tables_number   1
_chemical_formula_structural   Sc4CrOsC4
_chemical_formula_sum   'Sc8 Cr2 Os2 C8'
_cell_volume   272.76245113
_cell_formula_units_Z   2
loop_
 _symmetry_equiv_pos_site_id
 _symmetry_equiv_pos_as_xyz
  1  'x, y, z'
loop_
 _atom_site_type_symbol
 _atom_site_label
 _atom_site_symmetry_multiplicity
 _atom_site_fract_x
 _atom_site_fract_y
 _atom_site_fract_z
 _atom_site_occupancy
  Sc  Sc0  1  0.250000  0.670654  0.564122  1
  Sc  Sc1  1  0.750000  0.329346  0.435878  1
  Sc  Sc2  1  0.750000  0.833339  0.059048  1
  Sc  Sc3  1  0.250000  0.166661  0.940952  1
  Sc  Sc4  1  0.250000  0.541927  0.218949  1
  Sc  Sc5  1  0.750000  0.458073  0.781051  1
  Sc  Sc6  1  0.750000  0.963356  0.717899  1
  Sc  Sc7  1  0.250000  0.036644  0.282101  1
  Cr  Cr8  1  0.250000  0.713762  0.871285  1
  Cr  Cr9  1  0.750000  0.286238  0.128715  1
  Os  Os10  1  0.750000  0.788663  0.371669  1
  Os  Os11  1  0.250000  0.211337  0.628331  1
  C  C12  1  0.250000  0.448481  0.765512  1
  C  C13  1  0.750000  0.551519  0.234488  1
  C  C14  1  0.750000  0.061117  0.255479  1
  C  C15  1  0.250000  0.938883  0.744521  1
  C  C16  1  0.250000  0.825135  0.054028  1
  C  C17  1  0.750000  0.174865  0.945972  1
  C  C18  1  0.750000  0.667318  0.562037  1
  C  C19  1  0.250000  0.332682  0.437963  1
