# generated using pymatgen
data_Hf3Ga2PRu3
_symmetry_space_group_name_H-M   'P 1'
_cell_length_a   6.77848400
_cell_length_b   6.77848493
_cell_length_c   3.64318800
_cell_angle_alpha   90.00000000
_cell_angle_beta   90.00000000
_cell_angle_gamma   119.99999413
_symmetry_Int_Tables_number   1
_chemical_formula_structural   Hf3Ga2PRu3
_chemical_formula_sum   'Hf3 Ga2 P1 Ru3'
_cell_volume   144.96977025
_cell_formula_units_Z   1
loop_
 _symmetry_equiv_pos_site_id
 _symmetry_equiv_pos_as_xyz
  1  'x, y, z'
loop_
 _atom_site_type_symbol
 _atom_site_label
 _atom_site_symmetry_multiplicity
 _atom_site_fract_x
 _atom_site_fract_y
 _atom_site_fract_z
 _atom_site_occupancy
  Hf  Hf0  1  0.011491  0.590223  0.500000  1
  Hf  Hf1  1  0.409777  0.421268  0.500000  1
  Hf  Hf2  1  0.578732  0.988509  0.500000  1
  Ga  Ga3  1  0.666667  0.333333  0.000000  1
  Ga  Ga4  1  0.000000  0.000000  0.500000  1
  P  P5  1  0.333333  0.666667  0.000000  1
  Ru  Ru6  1  0.246569  0.984108  0.000000  1
  Ru  Ru7  1  0.737539  0.753431  0.000000  1
  Ru  Ru8  1  0.015892  0.262461  0.000000  1
