# generated using pymatgen
data_LiNd6PtBr12
_symmetry_space_group_name_H-M   'P 1'
_cell_length_a   9.55421860
_cell_length_b   9.65193601
_cell_length_c   9.62423172
_cell_angle_alpha   107.90321064
_cell_angle_beta   108.23701892
_cell_angle_gamma   108.25128118
_symmetry_Int_Tables_number   1
_chemical_formula_structural   LiNd6PtBr12
_chemical_formula_sum   'Li1 Nd6 Pt1 Br12'
_cell_volume   715.10710008
_cell_formula_units_Z   1
loop_
 _symmetry_equiv_pos_site_id
 _symmetry_equiv_pos_as_xyz
  1  'x, y, z'
loop_
 _atom_site_type_symbol
 _atom_site_label
 _atom_site_symmetry_multiplicity
 _atom_site_fract_x
 _atom_site_fract_y
 _atom_site_fract_z
 _atom_site_occupancy
  Li  Li0  1  0.500000  0.500000  0.500000  1
  Nd  Nd1  1  0.119899  0.329265  0.035301  1
  Nd  Nd2  1  0.322230  0.033447  0.116520  1
  Nd  Nd3  1  0.034748  0.120442  0.329392  1
  Nd  Nd4  1  0.965253  0.879558  0.670609  1
  Nd  Nd5  1  0.677770  0.966554  0.883480  1
  Nd  Nd6  1  0.880101  0.670735  0.964699  1
  Pt  Pt7  1  0.000000  0.000000  0.000000  1
  Br  Br8  1  0.217723  0.687033  0.073221  1
  Br  Br9  1  0.464178  0.380945  0.176193  1
  Br  Br10  1  0.684789  0.072089  0.215470  1
  Br  Br11  1  0.927099  0.784319  0.313247  1
  Br  Br12  1  0.176157  0.462832  0.381563  1
  Br  Br13  1  0.382410  0.175984  0.462938  1
  Br  Br14  1  0.617590  0.824016  0.537063  1
  Br  Br15  1  0.823844  0.537168  0.618437  1
  Br  Br16  1  0.072902  0.215681  0.686754  1
  Br  Br17  1  0.315212  0.927912  0.784530  1
  Br  Br18  1  0.535822  0.619055  0.823808  1
  Br  Br19  1  0.782277  0.312967  0.926779  1
