# generated using pymatgen
data_Ac4DyTm5Pb8
_symmetry_space_group_name_H-M   'P 1'
_cell_length_a   8.49977200
_cell_length_b   8.52706500
_cell_length_c   16.22907100
_cell_angle_alpha   90.00000000
_cell_angle_beta   90.00000000
_cell_angle_gamma   90.00000000
_symmetry_Int_Tables_number   1
_chemical_formula_structural   Ac4DyTm5Pb8
_chemical_formula_sum   'Ac8 Dy2 Tm10 Pb16'
_cell_volume   1176.25236602
_cell_formula_units_Z   2
loop_
 _symmetry_equiv_pos_site_id
 _symmetry_equiv_pos_as_xyz
  1  'x, y, z'
loop_
 _atom_site_type_symbol
 _atom_site_label
 _atom_site_symmetry_multiplicity
 _atom_site_fract_x
 _atom_site_fract_y
 _atom_site_fract_z
 _atom_site_occupancy
  Ac  Ac0  1  0.521130  0.324218  0.903832  1
  Ac  Ac1  1  0.021130  0.175782  0.596168  1
  Ac  Ac2  1  0.479320  0.676144  0.404369  1
  Ac  Ac3  1  0.979320  0.823856  0.095631  1
  Ac  Ac4  1  0.479320  0.676144  0.095631  1
  Ac  Ac5  1  0.979320  0.823856  0.404369  1
  Ac  Ac6  1  0.521130  0.324218  0.596168  1
  Ac  Ac7  1  0.021130  0.175782  0.903832  1
  Dy  Dy8  1  0.802444  0.493729  0.250000  1
  Dy  Dy9  1  0.302444  0.006271  0.250000  1
  Tm  Tm10  1  0.362418  0.843176  0.875378  1
  Tm  Tm11  1  0.862418  0.656824  0.624622  1
  Tm  Tm12  1  0.637483  0.157344  0.376103  1
  Tm  Tm13  1  0.137483  0.342656  0.123897  1
  Tm  Tm14  1  0.637483  0.157344  0.123897  1
  Tm  Tm15  1  0.137483  0.342656  0.376103  1
  Tm  Tm16  1  0.362418  0.843176  0.624622  1
  Tm  Tm17  1  0.862418  0.656824  0.875378  1
  Tm  Tm18  1  0.197004  0.507210  0.750000  1
  Tm  Tm19  1  0.697004  0.992790  0.750000  1
  Pb  Pb20  1  0.305477  0.048187  0.044939  1
  Pb  Pb21  1  0.805477  0.451813  0.455061  1
  Pb  Pb22  1  0.694704  0.951757  0.546126  1
  Pb  Pb23  1  0.194704  0.548243  0.953874  1
  Pb  Pb24  1  0.694704  0.951757  0.953874  1
  Pb  Pb25  1  0.194704  0.548243  0.546126  1
  Pb  Pb26  1  0.305477  0.048187  0.455061  1
  Pb  Pb27  1  0.805477  0.451813  0.044939  1
  Pb  Pb28  1  0.556828  0.636112  0.750000  1
  Pb  Pb29  1  0.056828  0.863888  0.750000  1
  Pb  Pb30  1  0.442332  0.363729  0.250000  1
  Pb  Pb31  1  0.942332  0.136271  0.250000  1
  Pb  Pb32  1  0.333746  0.145104  0.750000  1
  Pb  Pb33  1  0.833746  0.354896  0.750000  1
  Pb  Pb34  1  0.666575  0.856268  0.250000  1
  Pb  Pb35  1  0.166575  0.643732  0.250000  1
