# generated using pymatgen
data_Sm9Th(Ga2Ru3)2
_symmetry_space_group_name_H-M   'P 1'
_cell_length_a   8.48390734
_cell_length_b   8.43325494
_cell_length_c   8.43325427
_cell_angle_alpha   109.05091610
_cell_angle_beta   109.72682693
_cell_angle_gamma   109.39228364
_symmetry_Int_Tables_number   1
_chemical_formula_structural   Sm9Th(Ga2Ru3)2
_chemical_formula_sum   'Sm9 Th1 Ga4 Ru6'
_cell_volume   465.85643467
_cell_formula_units_Z   1
loop_
 _symmetry_equiv_pos_site_id
 _symmetry_equiv_pos_as_xyz
  1  'x, y, z'
loop_
 _atom_site_type_symbol
 _atom_site_label
 _atom_site_symmetry_multiplicity
 _atom_site_fract_x
 _atom_site_fract_y
 _atom_site_fract_z
 _atom_site_occupancy
  Sm  Sm0  1  0.750000  0.814791  0.064791  1
  Sm  Sm1  1  0.436935  0.251172  0.686641  1
  Sm  Sm2  1  0.683393  0.435644  0.249150  1
  Sm  Sm3  1  0.063065  0.749706  0.814237  1
  Sm  Sm4  1  0.816607  0.065756  0.752251  1
  Sm  Sm5  1  0.219358  0.216915  0.218966  1
  Sm  Sm6  1  0.503288  0.000713  0.283009  1
  Sm  Sm7  1  0.280642  0.499607  0.997557  1
  Sm  Sm8  1  0.996712  0.279720  0.497426  1
  Th  Th9  1  0.250000  0.690751  0.440751  1
  Ga  Ga10  1  0.593844  0.590631  0.590465  1
  Ga  Ga11  1  0.503058  0.006014  0.914726  1
  Ga  Ga12  1  0.906156  0.496621  0.996787  1
  Ga  Ga13  1  0.996942  0.911667  0.502956  1
  Ru  Ru14  1  0.250000  0.124190  0.874190  1
  Ru  Ru15  1  0.750000  0.375603  0.625603  1
  Ru  Ru16  1  0.877355  0.250273  0.126795  1
  Ru  Ru17  1  0.130022  0.862061  0.258743  1
  Ru  Ru18  1  0.622644  0.749439  0.372917  1
  Ru  Ru19  1  0.369978  0.628722  0.732040  1
