# generated using pymatgen
data_Er3Mg(Ni4P3)2
_symmetry_space_group_name_H-M   'P 1'
_cell_length_a   3.77941500
_cell_length_b   10.63905600
_cell_length_c   12.32886500
_cell_angle_alpha   90.00000000
_cell_angle_beta   90.00000000
_cell_angle_gamma   90.00000000
_symmetry_Int_Tables_number   1
_chemical_formula_structural   Er3Mg(Ni4P3)2
_chemical_formula_sum   'Er6 Mg2 Ni16 P12'
_cell_volume   495.73636089
_cell_formula_units_Z   2
loop_
 _symmetry_equiv_pos_site_id
 _symmetry_equiv_pos_as_xyz
  1  'x, y, z'
loop_
 _atom_site_type_symbol
 _atom_site_label
 _atom_site_symmetry_multiplicity
 _atom_site_fract_x
 _atom_site_fract_y
 _atom_site_fract_z
 _atom_site_occupancy
  Er  Er0  1  0.000000  0.500000  0.526149  1
  Er  Er1  1  0.500000  0.000000  0.473851  1
  Er  Er2  1  0.500000  0.820602  0.205005  1
  Er  Er3  1  0.500000  0.179398  0.205005  1
  Er  Er4  1  0.000000  0.679398  0.794995  1
  Er  Er5  1  0.000000  0.320602  0.794995  1
  Mg  Mg6  1  0.500000  0.500000  0.155771  1
  Mg  Mg7  1  0.000000  0.000000  0.844229  1
  Ni  Ni8  1  0.000000  0.500000  0.987929  1
  Ni  Ni9  1  0.500000  0.000000  0.012071  1
  Ni  Ni10  1  0.500000  0.299426  0.431194  1
  Ni  Ni11  1  0.500000  0.700574  0.431194  1
  Ni  Ni12  1  0.000000  0.200574  0.568806  1
  Ni  Ni13  1  0.000000  0.799426  0.568806  1
  Ni  Ni14  1  0.500000  0.878636  0.707918  1
  Ni  Ni15  1  0.500000  0.121364  0.707918  1
  Ni  Ni16  1  0.000000  0.621364  0.292082  1
  Ni  Ni17  1  0.000000  0.378636  0.292082  1
  Ni  Ni18  1  0.500000  0.333216  0.994834  1
  Ni  Ni19  1  0.500000  0.666784  0.994834  1
  Ni  Ni20  1  0.000000  0.166784  0.005166  1
  Ni  Ni21  1  0.000000  0.833216  0.005166  1
  Ni  Ni22  1  0.500000  0.500000  0.701970  1
  Ni  Ni23  1  0.000000  0.000000  0.298030  1
  P  P24  1  0.500000  0.314326  0.615753  1
  P  P25  1  0.500000  0.685674  0.615753  1
  P  P26  1  0.000000  0.185674  0.384247  1
  P  P27  1  0.000000  0.814326  0.384247  1
  P  P28  1  0.500000  0.500000  0.879929  1
  P  P29  1  0.000000  0.000000  0.120071  1
  P  P30  1  0.500000  0.838385  0.892942  1
  P  P31  1  0.500000  0.161615  0.892942  1
  P  P32  1  0.000000  0.661615  0.107058  1
  P  P33  1  0.000000  0.338385  0.107058  1
  P  P34  1  0.500000  0.500000  0.359188  1
  P  P35  1  0.000000  0.000000  0.640812  1
