# generated using pymatgen
data_ErLu2AuO7
_symmetry_space_group_name_H-M   'P 1'
_cell_length_a   6.38388600
_cell_length_b   6.38388596
_cell_length_c   7.32109800
_cell_angle_alpha   90.00000000
_cell_angle_beta   90.00000000
_cell_angle_gamma   108.72253914
_symmetry_Int_Tables_number   1
_chemical_formula_structural   ErLu2AuO7
_chemical_formula_sum   'Er2 Lu4 Au2 O14'
_cell_volume   282.57582264
_cell_formula_units_Z   2
loop_
 _symmetry_equiv_pos_site_id
 _symmetry_equiv_pos_as_xyz
  1  'x, y, z'
loop_
 _atom_site_type_symbol
 _atom_site_label
 _atom_site_symmetry_multiplicity
 _atom_site_fract_x
 _atom_site_fract_y
 _atom_site_fract_z
 _atom_site_occupancy
  Er  Er0  1  0.500338  0.500338  0.500000  1
  Er  Er1  1  0.499662  0.499662  0.000000  1
  Lu  Lu2  1  0.001340  0.471462  0.749898  1
  Lu  Lu3  1  0.998660  0.528538  0.249898  1
  Lu  Lu4  1  0.528538  0.998660  0.750102  1
  Lu  Lu5  1  0.471462  0.001340  0.250102  1
  Au  Au6  1  0.999911  0.999911  0.500000  1
  Au  Au7  1  0.000089  0.000089  0.000000  1
  O  O8  1  0.641379  0.358621  0.750000  1
  O  O9  1  0.358621  0.641379  0.250000  1
  O  O10  1  0.915902  0.084098  0.750000  1
  O  O11  1  0.084098  0.915902  0.250000  1
  O  O12  1  0.917094  0.664943  0.524779  1
  O  O13  1  0.082906  0.335057  0.024779  1
  O  O14  1  0.335057  0.082906  0.975221  1
  O  O15  1  0.664943  0.917094  0.475221  1
  O  O16  1  0.364677  0.635323  0.750000  1
  O  O17  1  0.635323  0.364677  0.250000  1
  O  O18  1  0.917377  0.665107  0.975081  1
  O  O19  1  0.082623  0.334893  0.475081  1
  O  O20  1  0.334893  0.082623  0.524919  1
  O  O21  1  0.665107  0.917377  0.024919  1
