# generated using pymatgen
data_CaLa21Fe8(SnC2)6
_symmetry_space_group_name_H-M   'P 1'
_cell_length_a   11.73287542
_cell_length_b   11.73287491
_cell_length_c   11.73287600
_cell_angle_alpha   59.99999692
_cell_angle_beta   59.99999835
_cell_angle_gamma   59.99999910
_symmetry_Int_Tables_number   1
_chemical_formula_structural   CaLa21Fe8(SnC2)6
_chemical_formula_sum   'Ca1 La21 Fe8 Sn6 C12'
_cell_volume   1142.08483308
_cell_formula_units_Z   1
loop_
 _symmetry_equiv_pos_site_id
 _symmetry_equiv_pos_as_xyz
  1  'x, y, z'
loop_
 _atom_site_type_symbol
 _atom_site_label
 _atom_site_symmetry_multiplicity
 _atom_site_fract_x
 _atom_site_fract_y
 _atom_site_fract_z
 _atom_site_occupancy
  Ca  Ca0  1  0.000000  0.000000  0.000000  1
  La  La1  1  0.635817  0.635817  0.092548  1
  La  La2  1  0.364183  0.907452  0.364183  1
  La  La3  1  0.635817  0.092548  0.635817  1
  La  La4  1  0.652989  0.000000  0.000000  1
  La  La5  1  0.000000  0.652989  0.000000  1
  La  La6  1  0.000000  0.652989  0.347011  1
  La  La7  1  0.347011  0.000000  0.652989  1
  La  La8  1  0.364183  0.364183  0.364183  1
  La  La9  1  0.092548  0.635817  0.635817  1
  La  La10  1  0.000000  0.000000  0.652989  1
  La  La11  1  0.652989  0.000000  0.347011  1
  La  La12  1  0.000000  0.000000  0.347011  1
  La  La13  1  0.652989  0.347011  0.000000  1
  La  La14  1  0.635817  0.635817  0.635817  1
  La  La15  1  0.347011  0.652989  0.000000  1
  La  La16  1  0.000000  0.347011  0.652989  1
  La  La17  1  0.500000  0.500000  0.500000  1
  La  La18  1  0.347011  0.000000  0.000000  1
  La  La19  1  0.364183  0.364183  0.907452  1
  La  La20  1  0.000000  0.347011  0.000000  1
  La  La21  1  0.907452  0.364183  0.364183  1
  Fe  Fe22  1  0.196333  0.196333  0.411000  1
  Fe  Fe23  1  0.803667  0.803667  0.589001  1
  Fe  Fe24  1  0.803667  0.589001  0.803667  1
  Fe  Fe25  1  0.803667  0.803667  0.803667  1
  Fe  Fe26  1  0.411000  0.196333  0.196333  1
  Fe  Fe27  1  0.196333  0.196333  0.196333  1
  Fe  Fe28  1  0.196333  0.411000  0.196333  1
  Fe  Fe29  1  0.589001  0.803667  0.803667  1
  Sn  Sn30  1  0.287924  0.712076  0.287924  1
  Sn  Sn31  1  0.712076  0.287924  0.287924  1
  Sn  Sn32  1  0.712076  0.287924  0.712076  1
  Sn  Sn33  1  0.287924  0.712076  0.712076  1
  Sn  Sn34  1  0.712076  0.712076  0.287924  1
  Sn  Sn35  1  0.287924  0.287924  0.712076  1
  C  C36  1  0.610968  0.889032  0.889032  1
  C  C37  1  0.110968  0.389032  0.389032  1
  C  C38  1  0.610968  0.889032  0.610968  1
  C  C39  1  0.389032  0.389032  0.110968  1
  C  C40  1  0.610968  0.610968  0.889032  1
  C  C41  1  0.389032  0.110968  0.389032  1
  C  C42  1  0.110968  0.389032  0.110968  1
  C  C43  1  0.889032  0.889032  0.610968  1
  C  C44  1  0.889032  0.610968  0.889032  1
  C  C45  1  0.889032  0.610968  0.610968  1
  C  C46  1  0.110968  0.110968  0.389032  1
  C  C47  1  0.389032  0.110968  0.110968  1
