# generated using pymatgen
data_Pu8Si15Rh
_symmetry_space_group_name_H-M   'P 1'
_cell_length_a   8.17233900
_cell_length_b   8.17233996
_cell_length_c   7.81467500
_cell_angle_alpha   90.00000000
_cell_angle_beta   90.00000000
_cell_angle_gamma   120.00000017
_symmetry_Int_Tables_number   1
_chemical_formula_structural   Pu8Si15Rh
_chemical_formula_sum   'Pu8 Si15 Rh1'
_cell_volume   451.99574860
_cell_formula_units_Z   1
loop_
 _symmetry_equiv_pos_site_id
 _symmetry_equiv_pos_as_xyz
  1  'x, y, z'
loop_
 _atom_site_type_symbol
 _atom_site_label
 _atom_site_symmetry_multiplicity
 _atom_site_fract_x
 _atom_site_fract_y
 _atom_site_fract_z
 _atom_site_occupancy
  Pu  Pu0  1  0.000000  0.000000  0.749272  1
  Pu  Pu1  1  0.000000  0.000000  0.250734  1
  Pu  Pu2  1  0.500177  0.499823  0.750600  1
  Pu  Pu3  1  0.500177  0.000357  0.750600  1
  Pu  Pu4  1  0.999643  0.499823  0.750600  1
  Pu  Pu5  1  0.500254  0.499746  0.249348  1
  Pu  Pu6  1  0.999494  0.499746  0.249348  1
  Pu  Pu7  1  0.500254  0.000506  0.249348  1
  Si  Si8  1  0.666667  0.333333  0.999483  1
  Si  Si9  1  0.666667  0.333333  0.500593  1
  Si  Si10  1  0.333333  0.666667  0.500185  1
  Si  Si11  1  0.835077  0.164923  0.999617  1
  Si  Si12  1  0.835077  0.670154  0.999617  1
  Si  Si13  1  0.329846  0.164923  0.999617  1
  Si  Si14  1  0.832759  0.167241  0.500292  1
  Si  Si15  1  0.832759  0.665518  0.500292  1
  Si  Si16  1  0.334482  0.167241  0.500292  1
  Si  Si17  1  0.166046  0.833954  0.500344  1
  Si  Si18  1  0.667908  0.833954  0.500344  1
  Si  Si19  1  0.166046  0.332092  0.500344  1
  Si  Si20  1  0.166326  0.833674  0.999721  1
  Si  Si21  1  0.667349  0.833674  0.999721  1
  Si  Si22  1  0.166326  0.332651  0.999721  1
  Rh  Rh23  1  0.333333  0.666667  0.999962  1
