# generated using pymatgen
data_Ho2Si2RuRh
_symmetry_space_group_name_H-M   'P 1'
_cell_length_a   4.31237400
_cell_length_b   6.92271100
_cell_length_c   7.20189800
_cell_angle_alpha   90.00254023
_cell_angle_beta   90.00000000
_cell_angle_gamma   90.00000000
_symmetry_Int_Tables_number   1
_chemical_formula_structural   Ho2Si2RuRh
_chemical_formula_sum   'Ho4 Si4 Ru2 Rh2'
_cell_volume   215.00055780
_cell_formula_units_Z   2
loop_
 _symmetry_equiv_pos_site_id
 _symmetry_equiv_pos_as_xyz
  1  'x, y, z'
loop_
 _atom_site_type_symbol
 _atom_site_label
 _atom_site_symmetry_multiplicity
 _atom_site_fract_x
 _atom_site_fract_y
 _atom_site_fract_z
 _atom_site_occupancy
  Ho  Ho0  1  0.250000  0.488051  0.688811  1
  Ho  Ho1  1  0.750000  0.511949  0.311189  1
  Ho  Ho2  1  0.250000  0.994801  0.813565  1
  Ho  Ho3  1  0.750000  0.005199  0.186435  1
  Si  Si4  1  0.250000  0.298929  0.113514  1
  Si  Si5  1  0.750000  0.701071  0.886486  1
  Si  Si6  1  0.250000  0.801315  0.401472  1
  Si  Si7  1  0.750000  0.198685  0.598528  1
  Ru  Ru8  1  0.750000  0.845651  0.568083  1
  Ru  Ru9  1  0.250000  0.154349  0.431917  1
  Rh  Rh10  1  0.750000  0.345757  0.933942  1
  Rh  Rh11  1  0.250000  0.654243  0.066058  1
