# generated using pymatgen
data_Tb9Y7(CdPt)4
_symmetry_space_group_name_H-M   'P 1'
_cell_length_a   9.73364541
_cell_length_b   9.73364516
_cell_length_c   9.72614600
_cell_angle_alpha   60.02548939
_cell_angle_beta   60.02549023
_cell_angle_gamma   60.10295360
_symmetry_Int_Tables_number   1
_chemical_formula_structural   Tb9Y7(CdPt)4
_chemical_formula_sum   'Tb9 Y7 Cd4 Pt4'
_cell_volume   652.35060396
_cell_formula_units_Z   1
loop_
 _symmetry_equiv_pos_site_id
 _symmetry_equiv_pos_as_xyz
  1  'x, y, z'
loop_
 _atom_site_type_symbol
 _atom_site_label
 _atom_site_symmetry_multiplicity
 _atom_site_fract_x
 _atom_site_fract_y
 _atom_site_fract_z
 _atom_site_occupancy
  Tb  Tb0  1  0.352170  0.352170  0.350426  1
  Tb  Tb1  1  0.352170  0.352170  0.945233  1
  Tb  Tb2  1  0.354485  0.941021  0.352247  1
  Tb  Tb3  1  0.941021  0.354485  0.352247  1
  Tb  Tb4  1  0.810456  0.189572  0.190405  1
  Tb  Tb5  1  0.189572  0.810456  0.809567  1
  Tb  Tb6  1  0.189572  0.810456  0.190405  1
  Tb  Tb7  1  0.810456  0.189572  0.809567  1
  Tb  Tb8  1  0.190856  0.190856  0.809144  1
  Y  Y9  1  0.810267  0.810267  0.189733  1
  Y  Y10  1  0.936048  0.563956  0.564610  1
  Y  Y11  1  0.563956  0.936048  0.935386  1
  Y  Y12  1  0.563956  0.936048  0.564610  1
  Y  Y13  1  0.936048  0.563956  0.935386  1
  Y  Y14  1  0.564807  0.564807  0.935193  1
  Y  Y15  1  0.936503  0.936503  0.563497  1
  Cd  Cd16  1  0.581536  0.581536  0.582248  1
  Cd  Cd17  1  0.581536  0.581536  0.254680  1
  Cd  Cd18  1  0.581250  0.253875  0.582437  1
  Cd  Cd19  1  0.253875  0.581250  0.582437  1
  Pt  Pt20  1  0.143239  0.143239  0.145109  1
  Pt  Pt21  1  0.143239  0.143239  0.568413  1
  Pt  Pt22  1  0.142784  0.570194  0.143511  1
  Pt  Pt23  1  0.570194  0.142784  0.143511  1
