# generated using pymatgen
data_TbBe3(NbFe3)2
_symmetry_space_group_name_H-M   'P 1'
_cell_length_a   7.98491604
_cell_length_b   7.98491688
_cell_length_c   7.98491624
_cell_angle_alpha   35.21054078
_cell_angle_beta   35.21052909
_cell_angle_gamma   35.21053997
_symmetry_Int_Tables_number   1
_chemical_formula_structural   TbBe3(NbFe3)2
_chemical_formula_sum   'Tb1 Be3 Nb2 Fe6'
_cell_volume   151.17647896
_cell_formula_units_Z   1
loop_
 _symmetry_equiv_pos_site_id
 _symmetry_equiv_pos_as_xyz
  1  'x, y, z'
loop_
 _atom_site_type_symbol
 _atom_site_label
 _atom_site_symmetry_multiplicity
 _atom_site_fract_x
 _atom_site_fract_y
 _atom_site_fract_z
 _atom_site_occupancy
  Tb  Tb0  1  0.000000  0.000000  0.000000  1
  Be  Be1  1  0.500000  0.500000  0.500000  1
  Be  Be2  1  0.333111  0.333111  0.333111  1
  Be  Be3  1  0.666889  0.666889  0.666889  1
  Nb  Nb4  1  0.142056  0.142056  0.142056  1
  Nb  Nb5  1  0.857944  0.857944  0.857944  1
  Fe  Fe6  1  0.082731  0.584466  0.584466  1
  Fe  Fe7  1  0.584466  0.584466  0.082731  1
  Fe  Fe8  1  0.584466  0.082731  0.584466  1
  Fe  Fe9  1  0.415534  0.917269  0.415534  1
  Fe  Fe10  1  0.917269  0.415534  0.415534  1
  Fe  Fe11  1  0.415534  0.415534  0.917269  1
