# generated using pymatgen
data_Ho5Si10P2Ir19
_symmetry_space_group_name_H-M   'P 1'
_cell_length_a   12.83177104
_cell_length_b   12.83177148
_cell_length_c   3.95398900
_cell_angle_alpha   90.00000000
_cell_angle_beta   90.00000000
_cell_angle_gamma   120.14969351
_symmetry_Int_Tables_number   1
_chemical_formula_structural   Ho5Si10P2Ir19
_chemical_formula_sum   'Ho5 Si10 P2 Ir19'
_cell_volume   562.96608727
_cell_formula_units_Z   1
loop_
 _symmetry_equiv_pos_site_id
 _symmetry_equiv_pos_as_xyz
  1  'x, y, z'
loop_
 _atom_site_type_symbol
 _atom_site_label
 _atom_site_symmetry_multiplicity
 _atom_site_fract_x
 _atom_site_fract_y
 _atom_site_fract_z
 _atom_site_occupancy
  Ho  Ho0  1  0.666560  0.333635  0.000000  1
  Ho  Ho1  1  0.333635  0.666560  0.000000  1
  Ho  Ho2  1  0.812916  0.812916  0.500000  1
  Ho  Ho3  1  0.186067  0.001146  0.500000  1
  Ho  Ho4  1  0.001146  0.186067  0.500000  1
  Si  Si5  1  0.686113  0.167511  0.500000  1
  Si  Si6  1  0.832095  0.518261  0.500000  1
  Si  Si7  1  0.481141  0.312904  0.500000  1
  Si  Si8  1  0.167511  0.686113  0.500000  1
  Si  Si9  1  0.518261  0.832095  0.500000  1
  Si  Si10  1  0.312904  0.481141  0.500000  1
  Si  Si11  1  0.633428  0.633428  0.000000  1
  Si  Si12  1  0.366956  0.000184  0.000000  1
  Si  Si13  1  0.000184  0.366956  0.000000  1
  Si  Si14  1  0.178709  0.178709  0.000000  1
  P  P15  1  0.820831  0.000878  0.000000  1
  P  P16  1  0.000878  0.820831  0.000000  1
  Ir  Ir17  1  0.806588  0.179863  0.000000  1
  Ir  Ir18  1  0.820587  0.627200  0.000000  1
  Ir  Ir19  1  0.375478  0.193872  0.000000  1
  Ir  Ir20  1  0.179863  0.806588  0.000000  1
  Ir  Ir21  1  0.627200  0.820587  0.000000  1
  Ir  Ir22  1  0.193872  0.375478  0.000000  1
  Ir  Ir23  1  0.448034  0.448034  0.000000  1
  Ir  Ir24  1  0.552306  0.999063  0.000000  1
  Ir  Ir25  1  0.999063  0.552306  0.000000  1
  Ir  Ir26  1  0.281788  0.281788  0.500000  1
  Ir  Ir27  1  0.720957  0.000215  0.500000  1
  Ir  Ir28  1  0.000215  0.720957  0.500000  1
  Ir  Ir29  1  0.872198  0.359448  0.500000  1
  Ir  Ir30  1  0.640535  0.512907  0.500000  1
  Ir  Ir31  1  0.487219  0.126355  0.500000  1
  Ir  Ir32  1  0.359448  0.872198  0.500000  1
  Ir  Ir33  1  0.512907  0.640535  0.500000  1
  Ir  Ir34  1  0.126355  0.487219  0.500000  1
  Ir  Ir35  1  0.996054  0.996054  0.000000  1
