# generated using pymatgen
data_Y2Sc3(GaSn)2
_symmetry_space_group_name_H-M   'P 1'
_cell_length_a   7.41069788
_cell_length_b   7.79478717
_cell_length_c   14.76636464
_cell_angle_alpha   90.08848906
_cell_angle_beta   89.80053963
_cell_angle_gamma   90.21588603
_symmetry_Int_Tables_number   1
_chemical_formula_structural   Y2Sc3(GaSn)2
_chemical_formula_sum   'Y8 Sc12 Ga8 Sn8'
_cell_volume   852.96406603
_cell_formula_units_Z   4
loop_
 _symmetry_equiv_pos_site_id
 _symmetry_equiv_pos_as_xyz
  1  'x, y, z'
loop_
 _atom_site_type_symbol
 _atom_site_label
 _atom_site_symmetry_multiplicity
 _atom_site_fract_x
 _atom_site_fract_y
 _atom_site_fract_z
 _atom_site_occupancy
  Y  Y0  1  0.503554  0.316995  0.901025  1
  Y  Y1  1  0.007552  0.183033  0.602075  1
  Y  Y2  1  0.497905  0.682163  0.400460  1
  Y  Y3  1  0.998034  0.831950  0.093377  1
  Y  Y4  1  0.498367  0.684751  0.097558  1
  Y  Y5  1  0.988422  0.823827  0.402640  1
  Y  Y6  1  0.507011  0.319051  0.601859  1
  Y  Y7  1  0.008922  0.179156  0.900259  1
  Sc  Sc8  1  0.338187  0.838814  0.870514  1
  Sc  Sc9  1  0.845323  0.666480  0.634227  1
  Sc  Sc10  1  0.658586  0.164950  0.367786  1
  Sc  Sc11  1  0.162422  0.314830  0.125875  1
  Sc  Sc12  1  0.650365  0.164896  0.130400  1
  Sc  Sc13  1  0.151231  0.325519  0.368827  1
  Sc  Sc14  1  0.344777  0.832608  0.633991  1
  Sc  Sc15  1  0.843850  0.669357  0.868294  1
  Sc  Sc16  1  0.184966  0.497861  0.750271  1
  Sc  Sc17  1  0.683772  0.003212  0.750931  1
  Sc  Sc18  1  0.808377  0.500015  0.249409  1
  Sc  Sc19  1  0.318304  0.005286  0.247103  1
  Ga  Ga20  1  0.326165  0.038385  0.039258  1
  Ga  Ga21  1  0.545063  0.617195  0.752095  1
  Ga  Ga22  1  0.045406  0.885820  0.750651  1
  Ga  Ga23  1  0.454786  0.375000  0.250241  1
  Ga  Ga24  1  0.952868  0.114573  0.247618  1
  Ga  Ga25  1  0.301866  0.130790  0.750180  1
  Ga  Ga26  1  0.802214  0.370163  0.751618  1
  Ga  Ga27  1  0.697677  0.869531  0.249366  1
  Sn  Sn28  1  0.817091  0.456731  0.461267  1
  Sn  Sn29  1  0.683692  0.957391  0.541453  1
  Sn  Sn30  1  0.183641  0.543213  0.960783  1
  Sn  Sn31  1  0.673578  0.960345  0.960451  1
  Sn  Sn32  1  0.185049  0.543713  0.538767  1
  Sn  Sn33  1  0.317333  0.041727  0.461494  1
  Sn  Sn34  1  0.820647  0.457928  0.040060  1
  Sn  Sn35  1  0.192995  0.632743  0.247817  1
