# generated using pymatgen
data_TmLu7Ga3Rh
_symmetry_space_group_name_H-M   'P 1'
_cell_length_a   9.86273900
_cell_length_b   9.86273793
_cell_length_c   6.83713800
_cell_angle_alpha   90.00000000
_cell_angle_beta   90.00000000
_cell_angle_gamma   120.00000694
_symmetry_Int_Tables_number   1
_chemical_formula_structural   TmLu7Ga3Rh
_chemical_formula_sum   'Tm2 Lu14 Ga6 Rh2'
_cell_volume   575.97015576
_cell_formula_units_Z   2
loop_
 _symmetry_equiv_pos_site_id
 _symmetry_equiv_pos_as_xyz
  1  'x, y, z'
loop_
 _atom_site_type_symbol
 _atom_site_label
 _atom_site_symmetry_multiplicity
 _atom_site_fract_x
 _atom_site_fract_y
 _atom_site_fract_z
 _atom_site_occupancy
  Tm  Tm0  1  0.000000  0.000000  0.267053  1
  Tm  Tm1  1  0.000000  0.000000  0.767053  1
  Lu  Lu2  1  0.171846  0.828154  0.989065  1
  Lu  Lu3  1  0.343692  0.171846  0.489065  1
  Lu  Lu4  1  0.828154  0.656308  0.489065  1
  Lu  Lu5  1  0.171846  0.343692  0.989065  1
  Lu  Lu6  1  0.656308  0.828154  0.989065  1
  Lu  Lu7  1  0.828154  0.171846  0.489065  1
  Lu  Lu8  1  0.333333  0.666667  0.664114  1
  Lu  Lu9  1  0.666667  0.333333  0.164114  1
  Lu  Lu10  1  0.465842  0.534158  0.295263  1
  Lu  Lu11  1  0.931682  0.465842  0.795263  1
  Lu  Lu12  1  0.534158  0.068318  0.795263  1
  Lu  Lu13  1  0.465842  0.931682  0.295263  1
  Lu  Lu14  1  0.068318  0.534158  0.295263  1
  Lu  Lu15  1  0.534158  0.465842  0.795263  1
  Ga  Ga16  1  0.163286  0.836714  0.540436  1
  Ga  Ga17  1  0.326571  0.163286  0.040436  1
  Ga  Ga18  1  0.836714  0.673429  0.040436  1
  Ga  Ga19  1  0.163286  0.326571  0.540436  1
  Ga  Ga20  1  0.673429  0.836714  0.540436  1
  Ga  Ga21  1  0.836714  0.163286  0.040436  1
  Rh  Rh22  1  0.333333  0.666667  0.056549  1
  Rh  Rh23  1  0.666667  0.333333  0.556549  1
