# generated using pymatgen
data_CeHoTh(InRh)3
_symmetry_space_group_name_H-M   'P 1'
_cell_length_a   7.59083235
_cell_length_b   7.74604894
_cell_length_c   3.91939500
_cell_angle_alpha   90.00000000
_cell_angle_beta   90.00000000
_cell_angle_gamma   119.77686704
_symmetry_Int_Tables_number   1
_chemical_formula_structural   CeHoTh(InRh)3
_chemical_formula_sum   'Ce1 Ho1 Th1 In3 Rh3'
_cell_volume   200.02828014
_cell_formula_units_Z   1
loop_
 _symmetry_equiv_pos_site_id
 _symmetry_equiv_pos_as_xyz
  1  'x, y, z'
loop_
 _atom_site_type_symbol
 _atom_site_label
 _atom_site_symmetry_multiplicity
 _atom_site_fract_x
 _atom_site_fract_y
 _atom_site_fract_z
 _atom_site_occupancy
  Ce  Ce0  1  0.588415  0.588219  0.500000  1
  Ho  Ho1  1  0.406844  0.000326  0.500000  1
  Th  Th2  1  0.000090  0.412637  0.500000  1
  In  In3  1  0.261763  0.247860  0.000000  1
  In  In4  1  0.006780  0.759780  0.000000  1
  In  In5  1  0.731679  0.992814  0.000000  1
  Rh  Rh6  1  0.323846  0.646657  0.000000  1
  Rh  Rh7  1  0.996317  0.007196  0.500000  1
  Rh  Rh8  1  0.684267  0.344511  0.000000  1
