# generated using pymatgen
data_Ho3Er5Mn(B8Os)3
_symmetry_space_group_name_H-M   'P 1'
_cell_length_a   3.61585500
_cell_length_b   9.09553619
_cell_length_c   11.47346200
_cell_angle_alpha   90.03038030
_cell_angle_beta   90.00000000
_cell_angle_gamma   90.00000000
_symmetry_Int_Tables_number   1
_chemical_formula_structural   Ho3Er5Mn(B8Os)3
_chemical_formula_sum   'Ho3 Er5 Mn1 B24 Os3'
_cell_volume   377.34077154
_cell_formula_units_Z   1
loop_
 _symmetry_equiv_pos_site_id
 _symmetry_equiv_pos_as_xyz
  1  'x, y, z'
loop_
 _atom_site_type_symbol
 _atom_site_label
 _atom_site_symmetry_multiplicity
 _atom_site_fract_x
 _atom_site_fract_y
 _atom_site_fract_z
 _atom_site_occupancy
  Ho  Ho0  1  0.000000  0.325153  0.412503  1
  Ho  Ho1  1  0.000000  0.676747  0.582117  1
  Ho  Ho2  1  0.000000  0.819972  0.088610  1
  Er  Er3  1  0.000000  0.178460  0.915028  1
  Er  Er4  1  0.000000  0.939741  0.371682  1
  Er  Er5  1  0.000000  0.056737  0.626965  1
  Er  Er6  1  0.000000  0.445856  0.130319  1
  Er  Er7  1  0.000000  0.556915  0.872562  1
  Mn  Mn8  1  0.000000  0.637328  0.321023  1
  B  B9  1  0.500000  0.553841  0.431635  1
  B  B10  1  0.500000  0.447003  0.566253  1
  B  B11  1  0.500000  0.053563  0.067110  1
  B  B12  1  0.500000  0.947050  0.933332  1
  B  B13  1  0.500000  0.745892  0.417689  1
  B  B14  1  0.500000  0.252016  0.579872  1
  B  B15  1  0.500000  0.249040  0.080870  1
  B  B16  1  0.500000  0.752021  0.919938  1
  B  B17  1  0.500000  0.789017  0.266654  1
  B  B18  1  0.500000  0.209103  0.733830  1
  B  B19  1  0.500000  0.291482  0.234261  1
  B  B20  1  0.500000  0.709235  0.765978  1
  B  B21  1  0.500000  0.631247  0.187089  1
  B  B22  1  0.500000  0.368924  0.814945  1
  B  B23  1  0.500000  0.130575  0.314529  1
  B  B24  1  0.500000  0.868735  0.684910  1
  B  B25  1  0.500000  0.981650  0.212906  1
  B  B26  1  0.500000  0.018023  0.787309  1
  B  B27  1  0.500000  0.484828  0.288204  1
  B  B28  1  0.500000  0.517799  0.712522  1
  B  B29  1  0.500000  0.606504  0.030000  1
  B  B30  1  0.500000  0.394078  0.971115  1
  B  B31  1  0.500000  0.105805  0.470067  1
  B  B32  1  0.500000  0.893050  0.529038  1
  Os  Os33  1  0.000000  0.362088  0.679380  1
  Os  Os34  1  0.000000  0.137506  0.178433  1
  Os  Os35  1  0.000000  0.863012  0.821320  1
