# generated using pymatgen
data_TbDy15(In3Pt)2
_symmetry_space_group_name_H-M   'P 1'
_cell_length_a   10.50278100
_cell_length_b   10.50117468
_cell_length_c   7.02737803
_cell_angle_alpha   90.00988948
_cell_angle_beta   90.00000000
_cell_angle_gamma   120.00501924
_symmetry_Int_Tables_number   1
_chemical_formula_structural   TbDy15(In3Pt)2
_chemical_formula_sum   'Tb1 Dy15 In6 Pt2'
_cell_volume   671.18797168
_cell_formula_units_Z   1
loop_
 _symmetry_equiv_pos_site_id
 _symmetry_equiv_pos_as_xyz
  1  'x, y, z'
loop_
 _atom_site_type_symbol
 _atom_site_label
 _atom_site_symmetry_multiplicity
 _atom_site_fract_x
 _atom_site_fract_y
 _atom_site_fract_z
 _atom_site_occupancy
  Tb  Tb0  1  0.530847  0.061695  0.515533  1
  Dy  Dy1  1  0.938098  0.469131  0.515763  1
  Dy  Dy2  1  0.531034  0.469132  0.515763  1
  Dy  Dy3  1  0.468943  0.937886  0.015526  1
  Dy  Dy4  1  0.061932  0.530882  0.015709  1
  Dy  Dy5  1  0.468947  0.530881  0.015709  1
  Dy  Dy6  1  0.174922  0.349844  0.723526  1
  Dy  Dy7  1  0.650346  0.824998  0.723588  1
  Dy  Dy8  1  0.174652  0.824998  0.723588  1
  Dy  Dy9  1  0.825086  0.650171  0.223503  1
  Dy  Dy10  1  0.349629  0.174897  0.223319  1
  Dy  Dy11  1  0.825268  0.174897  0.223319  1
  Dy  Dy12  1  0.666743  0.333485  0.890014  1
  Dy  Dy13  1  0.333268  0.666538  0.389876  1
  Dy  Dy14  1  0.000010  0.000020  0.497533  1
  Dy  Dy15  1  0.000010  0.000021  0.997642  1
  In  In16  1  0.836892  0.673785  0.759443  1
  In  In17  1  0.326138  0.163160  0.759630  1
  In  In18  1  0.837021  0.163160  0.759630  1
  In  In19  1  0.163072  0.326143  0.259500  1
  In  In20  1  0.673701  0.836858  0.259464  1
  In  In21  1  0.163157  0.836858  0.259464  1
  Pt  Pt22  1  0.666987  0.333973  0.288391  1
  Pt  Pt23  1  0.333295  0.666591  0.788768  1
