# generated using pymatgen
data_Pr3Nd2Bi3(SeO5)4
_symmetry_space_group_name_H-M   'P 1'
_cell_length_a   8.85215478
_cell_length_b   8.92135966
_cell_length_c   11.30712283
_cell_angle_alpha   91.38061937
_cell_angle_beta   88.56340518
_cell_angle_gamma   142.73940472
_symmetry_Int_Tables_number   1
_chemical_formula_structural   Pr3Nd2Bi3(SeO5)4
_chemical_formula_sum   'Pr3 Nd2 Bi3 Se4 O20'
_cell_volume   540.45236361
_cell_formula_units_Z   1
loop_
 _symmetry_equiv_pos_site_id
 _symmetry_equiv_pos_as_xyz
  1  'x, y, z'
loop_
 _atom_site_type_symbol
 _atom_site_label
 _atom_site_symmetry_multiplicity
 _atom_site_fract_x
 _atom_site_fract_y
 _atom_site_fract_z
 _atom_site_occupancy
  Pr  Pr0  1  0.249916  0.749360  0.883183  1
  Pr  Pr1  1  0.751954  0.248226  0.119719  1
  Pr  Pr2  1  0.886649  0.069488  0.371940  1
  Nd  Nd3  1  0.741633  0.247579  0.615209  1
  Nd  Nd4  1  0.248421  0.751279  0.386378  1
  Bi  Bi5  1  0.059255  0.914661  0.596810  1
  Bi  Bi6  1  0.363472  0.571944  0.612690  1
  Bi  Bi7  1  0.568599  0.409015  0.401523  1
  Se  Se8  1  0.389716  0.577006  0.122028  1
  Se  Se9  1  0.581630  0.387810  0.869957  1
  Se  Se10  1  0.885199  0.075921  0.870234  1
  Se  Se11  1  0.066956  0.876793  0.137785  1
  O  O12  1  0.146513  0.450817  0.215556  1
  O  O13  1  0.468752  0.139094  0.791866  1
  O  O14  1  0.652400  0.977107  0.787044  1
  O  O15  1  0.979728  0.645320  0.214816  1
  O  O16  1  0.565121  0.903012  0.511734  1
  O  O17  1  0.896396  0.578352  0.504473  1
  O  O18  1  0.071007  0.407331  0.487017  1
  O  O19  1  0.396467  0.080125  0.499938  1
  O  O20  1  0.131366  0.577874  0.707865  1
  O  O21  1  0.633788  0.078311  0.292555  1
  O  O22  1  0.481684  0.814186  0.049949  1
  O  O23  1  0.833749  0.507105  0.946207  1
  O  O24  1  0.167625  0.071570  0.250070  1
  O  O25  1  0.108259  0.213874  0.766742  1
  O  O26  1  0.724595  0.595203  0.761050  1
  O  O27  1  0.620874  0.730582  0.220719  1
  O  O28  1  0.243791  0.254068  0.495392  1
  O  O29  1  0.748517  0.752160  0.488824  1
  O  O30  1  0.340403  0.026299  0.068043  1
  O  O31  1  0.000610  0.323573  0.952689  1
