# generated using pymatgen
data_Nd2Lu2ReTcB12
_symmetry_space_group_name_H-M   'P 1'
_cell_length_a   3.69987100
_cell_length_b   9.18220271
_cell_length_c   11.63819505
_cell_angle_alpha   90.03846283
_cell_angle_beta   90.00000000
_cell_angle_gamma   90.00000000
_symmetry_Int_Tables_number   1
_chemical_formula_structural   Nd2Lu2ReTcB12
_chemical_formula_sum   'Nd4 Lu4 Re2 Tc2 B24'
_cell_volume   395.38391023
_cell_formula_units_Z   2
loop_
 _symmetry_equiv_pos_site_id
 _symmetry_equiv_pos_as_xyz
  1  'x, y, z'
loop_
 _atom_site_type_symbol
 _atom_site_label
 _atom_site_symmetry_multiplicity
 _atom_site_fract_x
 _atom_site_fract_y
 _atom_site_fract_z
 _atom_site_occupancy
  Nd  Nd0  1  0.000000  0.323095  0.414382  1
  Nd  Nd1  1  0.000000  0.676905  0.585618  1
  Nd  Nd2  1  0.000000  0.822445  0.085874  1
  Nd  Nd3  1  0.000000  0.177555  0.914126  1
  Lu  Lu4  1  0.000000  0.942407  0.369364  1
  Lu  Lu5  1  0.000000  0.057593  0.630636  1
  Lu  Lu6  1  0.000000  0.443831  0.130951  1
  Lu  Lu7  1  0.000000  0.556169  0.869049  1
  Re  Re8  1  0.000000  0.139986  0.181303  1
  Re  Re9  1  0.000000  0.860014  0.818697  1
  Tc  Tc10  1  0.000000  0.640245  0.318734  1
  Tc  Tc11  1  0.000000  0.359755  0.681266  1
  B  B12  1  0.500000  0.555447  0.430322  1
  B  B13  1  0.500000  0.444553  0.569678  1
  B  B14  1  0.500000  0.055347  0.069526  1
  B  B15  1  0.500000  0.944653  0.930474  1
  B  B16  1  0.500000  0.751346  0.416193  1
  B  B17  1  0.500000  0.248654  0.583807  1
  B  B18  1  0.500000  0.251806  0.083786  1
  B  B19  1  0.500000  0.748194  0.916214  1
  B  B20  1  0.500000  0.792263  0.266316  1
  B  B21  1  0.500000  0.207737  0.733684  1
  B  B22  1  0.500000  0.292578  0.233880  1
  B  B23  1  0.500000  0.707422  0.766120  1
  B  B24  1  0.500000  0.629167  0.186001  1
  B  B25  1  0.500000  0.370833  0.813999  1
  B  B26  1  0.500000  0.129105  0.314401  1
  B  B27  1  0.500000  0.870895  0.685599  1
  B  B28  1  0.500000  0.983162  0.213747  1
  B  B29  1  0.500000  0.016838  0.786253  1
  B  B30  1  0.500000  0.483561  0.286362  1
  B  B31  1  0.500000  0.516439  0.713638  1
  B  B32  1  0.500000  0.595347  0.026187  1
  B  B33  1  0.500000  0.404653  0.973813  1
  B  B34  1  0.500000  0.095137  0.473634  1
  B  B35  1  0.500000  0.904863  0.526366  1
