# generated using pymatgen
data_Be3Nb16AlTe16
_symmetry_space_group_name_H-M   'P 1'
_cell_length_a   4.81634400
_cell_length_b   10.94511119
_cell_length_c   19.01608332
_cell_angle_alpha   89.97887470
_cell_angle_beta   90.00000000
_cell_angle_gamma   90.00000000
_symmetry_Int_Tables_number   1
_chemical_formula_structural   Be3Nb16AlTe16
_chemical_formula_sum   'Be3 Nb16 Al1 Te16'
_cell_volume   1002.44076222
_cell_formula_units_Z   1
loop_
 _symmetry_equiv_pos_site_id
 _symmetry_equiv_pos_as_xyz
  1  'x, y, z'
loop_
 _atom_site_type_symbol
 _atom_site_label
 _atom_site_symmetry_multiplicity
 _atom_site_fract_x
 _atom_site_fract_y
 _atom_site_fract_z
 _atom_site_occupancy
  Be  Be0  1  0.754291  0.000000  0.000000  1
  Be  Be1  1  0.749968  0.500000  0.500000  1
  Be  Be2  1  0.245694  0.000000  0.000000  1
  Nb  Nb3  1  0.507878  0.564054  0.381960  1
  Nb  Nb4  1  0.507878  0.435946  0.618040  1
  Nb  Nb5  1  0.499801  0.061133  0.112768  1
  Nb  Nb6  1  0.499801  0.938867  0.887232  1
  Nb  Nb7  1  0.507800  0.705984  0.536774  1
  Nb  Nb8  1  0.507800  0.294016  0.463226  1
  Nb  Nb9  1  0.500388  0.197154  0.964737  1
  Nb  Nb10  1  0.500388  0.802846  0.035263  1
  Nb  Nb11  1  0.992449  0.690973  0.442223  1
  Nb  Nb12  1  0.992449  0.309027  0.557777  1
  Nb  Nb13  1  0.999542  0.186035  0.056386  1
  Nb  Nb14  1  0.999542  0.813965  0.943614  1
  Nb  Nb15  1  0.991924  0.400042  0.390602  1
  Nb  Nb16  1  0.991924  0.599958  0.609398  1
  Nb  Nb17  1  0.000283  0.902754  0.106549  1
  Nb  Nb18  1  0.000283  0.097246  0.893451  1
  Al  Al19  1  0.249939  0.500000  0.500000  1
  Te  Te20  1  0.001074  0.848259  0.562130  1
  Te  Te21  1  0.001074  0.151741  0.437870  1
  Te  Te22  1  0.000007  0.345352  0.938348  1
  Te  Te23  1  0.000007  0.654648  0.061652  1
  Te  Te24  1  0.498807  0.331344  0.314757  1
  Te  Te25  1  0.498807  0.668656  0.685243  1
  Te  Te26  1  0.500364  0.832737  0.183861  1
  Te  Te27  1  0.500364  0.167263  0.816139  1
  Te  Te28  1  0.499009  0.822775  0.402375  1
  Te  Te29  1  0.499009  0.177225  0.597625  1
  Te  Te30  1  0.500044  0.320160  0.096842  1
  Te  Te31  1  0.500044  0.679840  0.903158  1
  Te  Te32  1  0.001011  0.607880  0.300208  1
  Te  Te33  1  0.001011  0.392120  0.699792  1
  Te  Te34  1  0.999672  0.107018  0.198292  1
  Te  Te35  1  0.999672  0.892982  0.801708  1
