# generated using pymatgen
data_DyErRh2F14
_symmetry_space_group_name_H-M   'P 1'
_cell_length_a   5.52726200
_cell_length_b   8.86158046
_cell_length_c   11.87029032
_cell_angle_alpha   62.70108509
_cell_angle_beta   90.00000000
_cell_angle_gamma   90.00000000
_symmetry_Int_Tables_number   1
_chemical_formula_structural   DyErRh2F14
_chemical_formula_sum   'Dy2 Er2 Rh4 F28'
_cell_volume   516.65609029
_cell_formula_units_Z   2
loop_
 _symmetry_equiv_pos_site_id
 _symmetry_equiv_pos_as_xyz
  1  'x, y, z'
loop_
 _atom_site_type_symbol
 _atom_site_label
 _atom_site_symmetry_multiplicity
 _atom_site_fract_x
 _atom_site_fract_y
 _atom_site_fract_z
 _atom_site_occupancy
  Dy  Dy0  1  0.239252  0.187361  0.234132  1
  Dy  Dy1  1  0.739252  0.812639  0.265868  1
  Er  Er2  1  0.760550  0.814090  0.765606  1
  Er  Er3  1  0.260550  0.185910  0.734394  1
  Rh  Rh4  1  0.757343  0.274365  0.954540  1
  Rh  Rh5  1  0.257343  0.725635  0.545460  1
  Rh  Rh6  1  0.243316  0.727133  0.042641  1
  Rh  Rh7  1  0.743316  0.272867  0.457359  1
  F  F8  1  0.443581  0.705259  0.915915  1
  F  F9  1  0.943581  0.294741  0.584085  1
  F  F10  1  0.557021  0.295399  0.081621  1
  F  F11  1  0.057021  0.704601  0.418379  1
  F  F12  1  0.446134  0.280514  0.545580  1
  F  F13  1  0.946134  0.719486  0.954420  1
  F  F14  1  0.553138  0.717746  0.457012  1
  F  F15  1  0.053138  0.282254  0.042988  1
  F  F16  1  0.768493  0.519376  0.857832  1
  F  F17  1  0.268493  0.480624  0.642168  1
  F  F18  1  0.230805  0.482317  0.140073  1
  F  F19  1  0.730805  0.517683  0.359927  1
  F  F20  1  0.757452  0.029956  0.048668  1
  F  F21  1  0.257452  0.970044  0.451332  1
  F  F22  1  0.243759  0.971738  0.949188  1
  F  F23  1  0.743759  0.028262  0.550812  1
  F  F24  1  0.968858  0.729819  0.639230  1
  F  F25  1  0.468858  0.270181  0.860770  1
  F  F26  1  0.032751  0.270867  0.363755  1
  F  F27  1  0.532751  0.729133  0.136245  1
  F  F28  1  0.048023  0.746565  0.172789  1
  F  F29  1  0.548023  0.253435  0.327211  1
  F  F30  1  0.954719  0.253886  0.825336  1
  F  F31  1  0.454719  0.746114  0.674664  1
  F  F32  1  0.414693  0.970268  0.231281  1
  F  F33  1  0.914693  0.029732  0.268719  1
  F  F34  1  0.580113  0.027310  0.768006  1
  F  F35  1  0.080113  0.972690  0.731994  1
