# generated using pymatgen
data_Pa4Al24Fe2Pt7
_symmetry_space_group_name_H-M   'P 1'
_cell_length_a   7.53140960
_cell_length_b   7.58362445
_cell_length_c   12.99688630
_cell_angle_alpha   84.30039460
_cell_angle_beta   78.80992892
_cell_angle_gamma   59.73055955
_symmetry_Int_Tables_number   1
_chemical_formula_structural   Pa4Al24Fe2Pt7
_chemical_formula_sum   'Pa4 Al24 Fe2 Pt7'
_cell_volume   628.92790319
_cell_formula_units_Z   1
loop_
 _symmetry_equiv_pos_site_id
 _symmetry_equiv_pos_as_xyz
  1  'x, y, z'
loop_
 _atom_site_type_symbol
 _atom_site_label
 _atom_site_symmetry_multiplicity
 _atom_site_fract_x
 _atom_site_fract_y
 _atom_site_fract_z
 _atom_site_occupancy
  Pa  Pa0  1  0.383160  0.178449  0.800539  1
  Pa  Pa1  1  0.607882  0.831081  0.191952  1
  Pa  Pa2  1  0.749674  0.495588  0.800265  1
  Pa  Pa3  1  0.264170  0.502326  0.193579  1
  Al  Al4  1  0.689825  0.827675  0.944131  1
  Al  Al5  1  0.308040  0.176202  0.050962  1
  Al  Al6  1  0.145034  0.825016  0.564141  1
  Al  Al7  1  0.853742  0.166300  0.441298  1
  Al  Al8  1  0.472544  0.174318  0.560042  1
  Al  Al9  1  0.517239  0.833631  0.443312  1
  Al  Al10  1  0.213211  0.165562  0.330305  1
  Al  Al11  1  0.797165  0.825395  0.667563  1
  Al  Al12  1  0.424616  0.511196  0.667943  1
  Al  Al13  1  0.565649  0.489524  0.330326  1
  Al  Al14  1  0.113502  0.160451  0.659211  1
  Al  Al15  1  0.889098  0.843662  0.333466  1
  Al  Al16  1  0.347394  0.498720  0.944472  1
  Al  Al17  1  0.657546  0.500764  0.051133  1
  Al  Al18  1  0.014590  0.177864  0.955783  1
  Al  Al19  1  0.987076  0.822051  0.040833  1
  Al  Al20  1  0.183065  0.499758  0.453079  1
  Al  Al21  1  0.821638  0.499609  0.559075  1
  Al  Al22  1  0.738579  0.162990  0.181682  1
  Al  Al23  1  0.262086  0.838016  0.819464  1
  Al  Al24  1  0.060065  0.628807  0.819481  1
  Al  Al25  1  0.941384  0.372491  0.176646  1
  Al  Al26  1  0.857202  0.040909  0.819190  1
  Al  Al27  1  0.141732  0.960980  0.182082  1
  Fe  Fe28  1  0.115837  0.481325  0.652306  1
  Fe  Fe29  1  0.999627  0.500836  0.000369  1
  Pt  Pt30  1  0.880472  0.510069  0.358074  1
  Pt  Pt31  1  0.654630  0.172587  0.001590  1
  Pt  Pt32  1  0.344569  0.827736  0.001502  1
  Pt  Pt33  1  0.535567  0.167852  0.360142  1
  Pt  Pt34  1  0.465436  0.830437  0.641672  1
  Pt  Pt35  1  0.774332  0.176268  0.640851  1
  Pt  Pt36  1  0.222623  0.823558  0.361541  1
