# generated using pymatgen
data_Er10In4BiSb
_symmetry_space_group_name_H-M   'P 1'
_cell_length_a   8.93463041
_cell_length_b   8.89287914
_cell_length_c   6.56684700
_cell_angle_alpha   90.00000000
_cell_angle_beta   90.00000000
_cell_angle_gamma   119.75627121
_symmetry_Int_Tables_number   1
_chemical_formula_structural   Er10In4BiSb
_chemical_formula_sum   'Er10 In4 Bi1 Sb1'
_cell_volume   452.96839008
_cell_formula_units_Z   1
loop_
 _symmetry_equiv_pos_site_id
 _symmetry_equiv_pos_as_xyz
  1  'x, y, z'
loop_
 _atom_site_type_symbol
 _atom_site_label
 _atom_site_symmetry_multiplicity
 _atom_site_fract_x
 _atom_site_fract_y
 _atom_site_fract_z
 _atom_site_occupancy
  Er  Er0  1  0.007195  0.767983  0.750000  1
  Er  Er1  1  0.003907  0.237589  0.250000  1
  Er  Er2  1  0.766759  0.761407  0.250000  1
  Er  Er3  1  0.766773  0.009123  0.750000  1
  Er  Er4  1  0.231163  0.233626  0.750000  1
  Er  Er5  1  0.234541  0.998121  0.250000  1
  Er  Er6  1  0.326879  0.665156  0.498764  1
  Er  Er7  1  0.665873  0.329774  0.001603  1
  Er  Er8  1  0.665873  0.329774  0.498397  1
  Er  Er9  1  0.326879  0.665156  0.001236  1
  In  In10  1  0.398921  0.001504  0.750000  1
  In  In11  1  0.398851  0.398128  0.250000  1
  In  In12  1  0.997085  0.596966  0.250000  1
  In  In13  1  0.997969  0.401205  0.750000  1
  Bi  Bi14  1  0.605316  0.607211  0.750000  1
  Sb  Sb15  1  0.606018  0.997277  0.250000  1
