# generated using pymatgen
data_Pr6Er2Sc12Si15Rh
_symmetry_space_group_name_H-M   'P 1'
_cell_length_a   7.23416037
_cell_length_b   7.46935963
_cell_length_c   14.15694827
_cell_angle_alpha   89.73863805
_cell_angle_beta   90.00610643
_cell_angle_gamma   90.42026227
_symmetry_Int_Tables_number   1
_chemical_formula_structural   Pr6Er2Sc12Si15Rh
_chemical_formula_sum   'Pr6 Er2 Sc12 Si15 Rh1'
_cell_volume   764.93572532
_cell_formula_units_Z   1
loop_
 _symmetry_equiv_pos_site_id
 _symmetry_equiv_pos_as_xyz
  1  'x, y, z'
loop_
 _atom_site_type_symbol
 _atom_site_label
 _atom_site_symmetry_multiplicity
 _atom_site_fract_x
 _atom_site_fract_y
 _atom_site_fract_z
 _atom_site_occupancy
  Pr  Pr0  1  0.012851  0.171829  0.099796  1
  Pr  Pr1  1  0.987170  0.827756  0.899884  1
  Pr  Pr2  1  0.485139  0.674081  0.901820  1
  Pr  Pr3  1  0.988828  0.823557  0.594772  1
  Pr  Pr4  1  0.513075  0.328917  0.096385  1
  Pr  Pr5  1  0.012585  0.177508  0.405230  1
  Er  Er6  1  0.510500  0.322874  0.402342  1
  Er  Er7  1  0.485128  0.670651  0.597978  1
  Sc  Sc8  1  0.161402  0.500276  0.741565  1
  Sc  Sc9  1  0.838974  0.498066  0.254376  1
  Sc  Sc10  1  0.341058  0.995514  0.253024  1
  Sc  Sc11  1  0.660925  0.002024  0.746873  1
  Sc  Sc12  1  0.333050  0.189827  0.619926  1
  Sc  Sc13  1  0.667979  0.822431  0.375251  1
  Sc  Sc14  1  0.174044  0.661479  0.380640  1
  Sc  Sc15  1  0.672347  0.824904  0.128657  1
  Sc  Sc16  1  0.827647  0.329308  0.621408  1
  Sc  Sc17  1  0.327162  0.176886  0.873981  1
  Sc  Sc18  1  0.830894  0.323617  0.873580  1
  Sc  Sc19  1  0.172158  0.675214  0.126658  1
  Si  Si20  1  0.035098  0.125988  0.747290  1
  Si  Si21  1  0.970527  0.871764  0.254118  1
  Si  Si22  1  0.467636  0.618484  0.251375  1
  Si  Si23  1  0.537507  0.379795  0.750294  1
  Si  Si24  1  0.290829  0.885650  0.746320  1
  Si  Si25  1  0.708725  0.122416  0.252522  1
  Si  Si26  1  0.218486  0.377277  0.252195  1
  Si  Si27  1  0.780617  0.620264  0.748401  1
  Si  Si28  1  0.833074  0.534770  0.459094  1
  Si  Si29  1  0.351480  0.961898  0.460863  1
  Si  Si30  1  0.850927  0.538430  0.039601  1
  Si  Si31  1  0.648231  0.035128  0.538986  1
  Si  Si32  1  0.148865  0.462736  0.960946  1
  Si  Si33  1  0.651302  0.037203  0.961280  1
  Si  Si34  1  0.350087  0.962241  0.039591  1
  Rh  Rh35  1  0.153695  0.469238  0.542981  1
