# generated using pymatgen
data_CaTb9(InSi2)2
_symmetry_space_group_name_H-M   'P 1'
_cell_length_a   8.94356263
_cell_length_b   8.94331547
_cell_length_c   8.93617128
_cell_angle_alpha   128.95189037
_cell_angle_beta   128.96222907
_cell_angle_gamma   75.13025026
_symmetry_Int_Tables_number   1
_chemical_formula_structural   CaTb9(InSi2)2
_chemical_formula_sum   'Ca1 Tb9 In2 Si4'
_cell_volume   420.68623416
_cell_formula_units_Z   1
loop_
 _symmetry_equiv_pos_site_id
 _symmetry_equiv_pos_as_xyz
  1  'x, y, z'
loop_
 _atom_site_type_symbol
 _atom_site_label
 _atom_site_symmetry_multiplicity
 _atom_site_fract_x
 _atom_site_fract_y
 _atom_site_fract_z
 _atom_site_occupancy
  Ca  Ca0  1  0.500000  0.500000  0.000000  1
  Tb  Tb1  1  0.531044  0.033518  0.843419  1
  Tb  Tb2  1  0.190187  0.687701  0.156774  1
  Tb  Tb3  1  0.033675  0.189925  0.502305  1
  Tb  Tb4  1  0.687687  0.531417  0.497808  1
  Tb  Tb5  1  0.468956  0.966482  0.156581  1
  Tb  Tb6  1  0.809813  0.312299  0.843226  1
  Tb  Tb7  1  0.966325  0.810075  0.497695  1
  Tb  Tb8  1  0.312313  0.468583  0.502192  1
  Tb  Tb9  1  0.000000  0.000000  0.000000  1
  In  In10  1  0.247277  0.247282  0.999903  1
  In  In11  1  0.752723  0.752718  0.000097  1
  Si  Si12  1  0.882597  0.375837  0.258436  1
  Si  Si13  1  0.117403  0.624163  0.741564  1
  Si  Si14  1  0.375642  0.117643  0.493273  1
  Si  Si15  1  0.624358  0.882357  0.506727  1
