# generated using pymatgen
data_Er12Tm4Cd4Ru3Pt
_symmetry_space_group_name_H-M   'P 1'
_cell_length_a   9.55120897
_cell_length_b   9.59170738
_cell_length_c   9.59117926
_cell_angle_alpha   59.65863783
_cell_angle_beta   59.49288030
_cell_angle_gamma   59.49124556
_symmetry_Int_Tables_number   1
_chemical_formula_structural   Er12Tm4Cd4Ru3Pt
_chemical_formula_sum   'Er12 Tm4 Cd4 Ru3 Pt1'
_cell_volume   614.91978714
_cell_formula_units_Z   1
loop_
 _symmetry_equiv_pos_site_id
 _symmetry_equiv_pos_as_xyz
  1  'x, y, z'
loop_
 _atom_site_type_symbol
 _atom_site_label
 _atom_site_symmetry_multiplicity
 _atom_site_fract_x
 _atom_site_fract_y
 _atom_site_fract_z
 _atom_site_occupancy
  Er  Er0  1  0.814974  0.189209  0.189200  1
  Er  Er1  1  0.185175  0.811427  0.811364  1
  Er  Er2  1  0.187506  0.811079  0.188892  1
  Er  Er3  1  0.813394  0.189450  0.805309  1
  Er  Er4  1  0.187527  0.188877  0.811030  1
  Er  Er5  1  0.813401  0.805296  0.189402  1
  Er  Er6  1  0.937588  0.561061  0.561023  1
  Er  Er7  1  0.558197  0.937516  0.937520  1
  Er  Er8  1  0.558237  0.938183  0.565468  1
  Er  Er9  1  0.937197  0.561308  0.937849  1
  Er  Er10  1  0.558245  0.565487  0.938181  1
  Er  Er11  1  0.937139  0.937872  0.561322  1
  Tm  Tm12  1  0.346651  0.350878  0.350850  1
  Tm  Tm13  1  0.345994  0.350205  0.956235  1
  Tm  Tm14  1  0.346012  0.956217  0.350188  1
  Tm  Tm15  1  0.963754  0.345212  0.345187  1
  Cd  Cd16  1  0.579777  0.580243  0.580367  1
  Cd  Cd17  1  0.580666  0.580244  0.258803  1
  Cd  Cd18  1  0.580487  0.258789  0.580435  1
  Cd  Cd19  1  0.256659  0.581090  0.581093  1
  Ru  Ru20  1  0.145849  0.138761  0.138761  1
  Ru  Ru21  1  0.145390  0.141732  0.576459  1
  Ru  Ru22  1  0.145360  0.576491  0.141721  1
  Pt  Pt23  1  0.574823  0.143373  0.143341  1
