# generated using pymatgen
data_Th2Sc3(SiAu)2
_symmetry_space_group_name_H-M   'P 1'
_cell_length_a   7.32208700
_cell_length_b   7.27078500
_cell_length_c   15.14856500
_cell_angle_alpha   90.00000000
_cell_angle_beta   90.00000000
_cell_angle_gamma   90.00000000
_symmetry_Int_Tables_number   1
_chemical_formula_structural   Th2Sc3(SiAu)2
_chemical_formula_sum   'Th8 Sc12 Si8 Au8'
_cell_volume   806.46900742
_cell_formula_units_Z   4
loop_
 _symmetry_equiv_pos_site_id
 _symmetry_equiv_pos_as_xyz
  1  'x, y, z'
loop_
 _atom_site_type_symbol
 _atom_site_label
 _atom_site_symmetry_multiplicity
 _atom_site_fract_x
 _atom_site_fract_y
 _atom_site_fract_z
 _atom_site_occupancy
  Th  Th0  1  0.011942  0.675421  0.605324  1
  Th  Th1  1  0.988058  0.324579  0.394676  1
  Th  Th2  1  0.488058  0.175421  0.394676  1
  Th  Th3  1  0.988058  0.324579  0.105324  1
  Th  Th4  1  0.511942  0.824579  0.605324  1
  Th  Th5  1  0.011942  0.675421  0.894676  1
  Th  Th6  1  0.511942  0.824579  0.894676  1
  Th  Th7  1  0.488058  0.175421  0.105324  1
  Sc  Sc8  1  0.187907  0.002260  0.750000  1
  Sc  Sc9  1  0.812093  0.997740  0.250000  1
  Sc  Sc10  1  0.312093  0.502260  0.250000  1
  Sc  Sc11  1  0.687907  0.497740  0.750000  1
  Sc  Sc12  1  0.359931  0.328320  0.629497  1
  Sc  Sc13  1  0.640069  0.671680  0.370503  1
  Sc  Sc14  1  0.140069  0.828320  0.370503  1
  Sc  Sc15  1  0.640069  0.671680  0.129497  1
  Sc  Sc16  1  0.859931  0.171680  0.629497  1
  Sc  Sc17  1  0.359931  0.328320  0.870503  1
  Sc  Sc18  1  0.859931  0.171680  0.870503  1
  Sc  Sc19  1  0.140069  0.828320  0.129497  1
  Si  Si20  1  0.061317  0.376114  0.750000  1
  Si  Si21  1  0.938683  0.623886  0.250000  1
  Si  Si22  1  0.438683  0.876114  0.250000  1
  Si  Si23  1  0.561317  0.123886  0.750000  1
  Si  Si24  1  0.311023  0.624728  0.750000  1
  Si  Si25  1  0.688977  0.375272  0.250000  1
  Si  Si26  1  0.188977  0.124728  0.250000  1
  Si  Si27  1  0.811023  0.875272  0.750000  1
  Au  Au28  1  0.184510  0.044813  0.535073  1
  Au  Au29  1  0.815490  0.955187  0.464927  1
  Au  Au30  1  0.315490  0.544813  0.464927  1
  Au  Au31  1  0.815490  0.955187  0.035073  1
  Au  Au32  1  0.684510  0.455187  0.535073  1
  Au  Au33  1  0.184510  0.044813  0.964927  1
  Au  Au34  1  0.684510  0.455187  0.964927  1
  Au  Au35  1  0.315490  0.544813  0.035073  1
