# generated using pymatgen
data_CsZrSbSe4
_symmetry_space_group_name_H-M   'P 1'
_cell_length_a   4.05195800
_cell_length_b   7.00434304
_cell_length_c   8.89611723
_cell_angle_alpha   75.60147154
_cell_angle_beta   90.00000000
_cell_angle_gamma   90.00000000
_symmetry_Int_Tables_number   1
_chemical_formula_structural   CsZrSbSe4
_chemical_formula_sum   'Cs1 Zr1 Sb1 Se4'
_cell_volume   244.55278805
_cell_formula_units_Z   1
loop_
 _symmetry_equiv_pos_site_id
 _symmetry_equiv_pos_as_xyz
  1  'x, y, z'
loop_
 _atom_site_type_symbol
 _atom_site_label
 _atom_site_symmetry_multiplicity
 _atom_site_fract_x
 _atom_site_fract_y
 _atom_site_fract_z
 _atom_site_occupancy
  Cs  Cs0  1  0.000000  0.500000  0.500000  1
  Zr  Zr1  1  0.000000  0.000000  0.000000  1
  Sb  Sb2  1  0.500000  0.500000  0.000000  1
  Se  Se3  1  0.500000  0.790034  0.177547  1
  Se  Se4  1  0.000000  0.256414  0.180415  1
  Se  Se5  1  0.500000  0.209966  0.822453  1
  Se  Se6  1  0.000000  0.743586  0.819585  1
