# generated using pymatgen
data_Fe4Cl7F
_symmetry_space_group_name_H-M   'P 1'
_cell_length_a   7.36719128
_cell_length_b   7.36719040
_cell_length_c   7.36719100
_cell_angle_alpha   57.84047612
_cell_angle_beta   57.84048043
_cell_angle_gamma   57.84047342
_symmetry_Int_Tables_number   1
_chemical_formula_structural   Fe4Cl7F
_chemical_formula_sum   'Fe4 Cl7 F1'
_cell_volume   268.72412031
_cell_formula_units_Z   1
loop_
 _symmetry_equiv_pos_site_id
 _symmetry_equiv_pos_as_xyz
  1  'x, y, z'
loop_
 _atom_site_type_symbol
 _atom_site_label
 _atom_site_symmetry_multiplicity
 _atom_site_fract_x
 _atom_site_fract_y
 _atom_site_fract_z
 _atom_site_occupancy
  Fe  Fe0  1  0.618775  0.132975  0.132975  1
  Fe  Fe1  1  0.127606  0.127606  0.127606  1
  Fe  Fe2  1  0.132975  0.132975  0.618775  1
  Fe  Fe3  1  0.132975  0.618775  0.132975  1
  Cl  Cl4  1  0.373060  0.373060  0.887057  1
  Cl  Cl5  1  0.888494  0.888494  0.888494  1
  Cl  Cl6  1  0.881756  0.881756  0.365036  1
  Cl  Cl7  1  0.365036  0.881756  0.881756  1
  Cl  Cl8  1  0.373060  0.887057  0.373060  1
  Cl  Cl9  1  0.881756  0.365036  0.881756  1
  Cl  Cl10  1  0.887057  0.373060  0.373060  1
  F  F11  1  0.337448  0.337448  0.337448  1
