# generated using pymatgen
data_Tb4Al15(SiIr2)3
_symmetry_space_group_name_H-M   'P 1'
_cell_length_a   7.54488012
_cell_length_b   7.51504225
_cell_length_c   9.42793089
_cell_angle_alpha   89.97520916
_cell_angle_beta   89.93751648
_cell_angle_gamma   119.79135183
_symmetry_Int_Tables_number   1
_chemical_formula_structural   Tb4Al15(SiIr2)3
_chemical_formula_sum   'Tb4 Al15 Si3 Ir6'
_cell_volume   463.91618038
_cell_formula_units_Z   1
loop_
 _symmetry_equiv_pos_site_id
 _symmetry_equiv_pos_as_xyz
  1  'x, y, z'
loop_
 _atom_site_type_symbol
 _atom_site_label
 _atom_site_symmetry_multiplicity
 _atom_site_fract_x
 _atom_site_fract_y
 _atom_site_fract_z
 _atom_site_occupancy
  Tb  Tb0  1  0.995083  0.665205  0.247809  1
  Tb  Tb1  1  0.005053  0.339719  0.753391  1
  Tb  Tb2  1  0.673985  0.000101  0.248042  1
  Tb  Tb3  1  0.321200  0.993939  0.749735  1
  Al  Al4  1  0.129814  0.127054  0.250160  1
  Al  Al5  1  0.870044  0.870769  0.749490  1
  Al  Al6  1  0.339698  0.004404  0.424098  1
  Al  Al7  1  0.001609  0.329226  0.429533  1
  Al  Al8  1  0.665761  0.001278  0.574971  1
  Al  Al9  1  0.661479  0.996845  0.922714  1
  Al  Al10  1  0.339440  0.004282  0.076454  1
  Al  Al11  1  0.333375  0.331967  0.555854  1
  Al  Al12  1  0.663035  0.667506  0.444673  1
  Al  Al13  1  0.662657  0.666966  0.056652  1
  Al  Al14  1  0.336609  0.332591  0.943855  1
  Al  Al15  1  0.338432  0.548621  0.250459  1
  Al  Al16  1  0.660523  0.451936  0.750570  1
  Al  Al17  1  0.548370  0.342486  0.250110  1
  Al  Al18  1  0.454307  0.658807  0.749854  1
  Si  Si19  1  0.002412  0.327891  0.074476  1
  Si  Si20  1  0.997323  0.671983  0.930924  1
  Si  Si21  1  0.998251  0.665963  0.564979  1
  Ir  Ir22  1  0.689895  0.337981  0.001642  1
  Ir  Ir23  1  0.310521  0.662635  0.997929  1
  Ir  Ir24  1  0.319146  0.670279  0.502347  1
  Ir  Ir25  1  0.680890  0.337301  0.499761  1
  Ir  Ir26  1  0.000296  0.999844  0.999521  1
  Ir  Ir27  1  0.000790  0.992423  0.499996  1
