# generated using pymatgen
data_Th10Si16Os
_symmetry_space_group_name_H-M   'P 1'
_cell_length_a   11.37992439
_cell_length_b   11.43691028
_cell_length_c   11.37992444
_cell_angle_alpha   143.31376990
_cell_angle_beta   137.17846757
_cell_angle_gamma   57.53925114
_symmetry_Int_Tables_number   1
_chemical_formula_structural   Th10Si16Os
_chemical_formula_sum   'Th10 Si16 Os1'
_cell_volume   596.60689083
_cell_formula_units_Z   1
loop_
 _symmetry_equiv_pos_site_id
 _symmetry_equiv_pos_as_xyz
  1  'x, y, z'
loop_
 _atom_site_type_symbol
 _atom_site_label
 _atom_site_symmetry_multiplicity
 _atom_site_fract_x
 _atom_site_fract_y
 _atom_site_fract_z
 _atom_site_occupancy
  Th  Th0  1  0.051359  0.564816  0.011474  1
  Th  Th1  1  0.351248  0.369364  0.520236  1
  Th  Th2  1  0.148668  0.165455  0.517472  1
  Th  Th3  1  0.457371  0.964613  0.022277  1
  Th  Th4  1  0.647985  0.165455  0.016788  1
  Th  Th5  1  0.942335  0.964613  0.507241  1
  Th  Th6  1  0.849128  0.369364  0.018115  1
  Th  Th7  1  0.553342  0.564816  0.513456  1
  Th  Th8  1  0.241413  0.761246  0.003507  1
  Th  Th9  1  0.757739  0.761246  0.519833  1
  Si  Si10  1  0.109652  0.054676  0.945023  1
  Si  Si11  1  0.799159  0.214167  0.415008  1
  Si  Si12  1  0.300158  0.896882  0.596725  1
  Si  Si13  1  0.400208  0.503088  0.102881  1
  Si  Si14  1  0.893052  0.842125  0.949073  1
  Si  Si15  1  0.103016  0.704036  0.601020  1
  Si  Si16  1  0.199974  0.605358  0.405384  1
  Si  Si17  1  0.697821  0.292389  0.594570  1
  Si  Si18  1  0.001636  0.435235  0.433599  1
  Si  Si19  1  0.702734  0.646767  0.944033  1
  Si  Si20  1  0.597851  0.700166  0.102314  1
  Si  Si21  1  0.002100  0.092056  0.089956  1
  Si  Si22  1  0.499173  0.407751  0.908578  1
  Si  Si23  1  0.295273  0.243801  0.948528  1
  Si  Si24  1  0.591237  0.039749  0.448510  1
  Si  Si25  1  0.407521  0.855387  0.447867  1
  Os  Os26  1  0.898850  0.504298  0.605449  1
