# generated using pymatgen
data_K4ZrSnI12
_symmetry_space_group_name_H-M   'P 1'
_cell_length_a   8.49373090
_cell_length_b   8.17717198
_cell_length_c   14.15172920
_cell_angle_alpha   54.90688717
_cell_angle_beta   89.81192085
_cell_angle_gamma   89.63535014
_symmetry_Int_Tables_number   1
_chemical_formula_structural   K4ZrSnI12
_chemical_formula_sum   'K4 Zr1 Sn1 I12'
_cell_volume   804.21425440
_cell_formula_units_Z   1
loop_
 _symmetry_equiv_pos_site_id
 _symmetry_equiv_pos_as_xyz
  1  'x, y, z'
loop_
 _atom_site_type_symbol
 _atom_site_label
 _atom_site_symmetry_multiplicity
 _atom_site_fract_x
 _atom_site_fract_y
 _atom_site_fract_z
 _atom_site_occupancy
  K  K0  1  0.579024  0.724180  0.252276  1
  K  K1  1  0.077916  0.272786  0.248371  1
  K  K2  1  0.420976  0.275820  0.747724  1
  K  K3  1  0.922084  0.727214  0.751629  1
  Zr  Zr4  1  0.000000  0.000000  0.000000  1
  Sn  Sn5  1  0.500000  0.000000  0.500000  1
  I  I6  1  0.992912  0.837850  0.242228  1
  I  I7  1  0.492914  0.158070  0.256227  1
  I  I8  1  0.007088  0.162150  0.757772  1
  I  I9  1  0.507086  0.841930  0.743773  1
  I  I10  1  0.692346  0.663072  0.547380  1
  I  I11  1  0.186810  0.331349  0.956452  1
  I  I12  1  0.307654  0.336928  0.452620  1
  I  I13  1  0.813190  0.668651  0.043548  1
  I  I14  1  0.713321  0.221232  0.964379  1
  I  I15  1  0.213671  0.772981  0.538068  1
  I  I16  1  0.286679  0.778768  0.035621  1
  I  I17  1  0.786329  0.227019  0.461932  1
