# generated using pymatgen
data_RbCr3Sb12Os
_symmetry_space_group_name_H-M   'P 1'
_cell_length_a   8.36387688
_cell_length_b   8.26548591
_cell_length_c   8.26548600
_cell_angle_alpha   109.22882985
_cell_angle_beta   109.71254001
_cell_angle_gamma   109.71253227
_symmetry_Int_Tables_number   1
_chemical_formula_structural   RbCr3Sb12Os
_chemical_formula_sum   'Rb1 Cr3 Sb12 Os1'
_cell_volume   438.55135566
_cell_formula_units_Z   1
loop_
 _symmetry_equiv_pos_site_id
 _symmetry_equiv_pos_as_xyz
  1  'x, y, z'
loop_
 _atom_site_type_symbol
 _atom_site_label
 _atom_site_symmetry_multiplicity
 _atom_site_fract_x
 _atom_site_fract_y
 _atom_site_fract_z
 _atom_site_occupancy
  Rb  Rb0  1  0.000000  0.000000  0.000000  1
  Cr  Cr1  1  0.000000  0.000000  0.500000  1
  Cr  Cr2  1  0.000000  0.500000  0.000000  1
  Cr  Cr3  1  0.500000  0.500000  0.500000  1
  Sb  Sb4  1  0.347119  0.186357  0.849669  1
  Sb  Sb5  1  0.652881  0.813643  0.150331  1
  Sb  Sb6  1  0.652737  0.498555  0.846869  1
  Sb  Sb7  1  0.347263  0.501445  0.153131  1
  Sb  Sb8  1  0.194133  0.846869  0.348313  1
  Sb  Sb9  1  0.805867  0.153131  0.651687  1
  Sb  Sb10  1  0.502549  0.849669  0.663312  1
  Sb  Sb11  1  0.497451  0.150331  0.336688  1
  Sb  Sb12  1  0.839239  0.336688  0.186357  1
  Sb  Sb13  1  0.160761  0.663312  0.813643  1
  Sb  Sb14  1  0.845819  0.651687  0.498555  1
  Sb  Sb15  1  0.154181  0.348313  0.501445  1
  Os  Os16  1  0.500000  0.000000  0.000000  1
