# generated using pymatgen
data_Tb3Sm9(ZnAu5)4
_symmetry_space_group_name_H-M   'P 1'
_cell_length_a   8.53076816
_cell_length_b   8.53076895
_cell_length_c   13.51333008
_cell_angle_alpha   90.01096995
_cell_angle_beta   89.98902858
_cell_angle_gamma   127.05753410
_symmetry_Int_Tables_number   1
_chemical_formula_structural   Tb3Sm9(ZnAu5)4
_chemical_formula_sum   'Tb3 Sm9 Zn4 Au20'
_cell_volume   784.79882040
_cell_formula_units_Z   1
loop_
 _symmetry_equiv_pos_site_id
 _symmetry_equiv_pos_as_xyz
  1  'x, y, z'
loop_
 _atom_site_type_symbol
 _atom_site_label
 _atom_site_symmetry_multiplicity
 _atom_site_fract_x
 _atom_site_fract_y
 _atom_site_fract_z
 _atom_site_occupancy
  Tb  Tb0  1  0.629958  0.370042  0.462544  1
  Tb  Tb1  1  0.369913  0.630087  0.537329  1
  Tb  Tb2  1  0.630074  0.369926  0.037319  1
  Sm  Sm3  1  0.928170  0.071830  0.250567  1
  Sm  Sm4  1  0.071108  0.928892  0.749548  1
  Sm  Sm5  1  0.320014  0.679986  0.250323  1
  Sm  Sm6  1  0.679936  0.320064  0.749424  1
  Sm  Sm7  1  0.369893  0.630107  0.962021  1
  Sm  Sm8  1  0.882463  0.117537  0.951306  1
  Sm  Sm9  1  0.117596  0.882404  0.048775  1
  Sm  Sm10  1  0.882483  0.117517  0.548677  1
  Sm  Sm11  1  0.117649  0.882351  0.451340  1
  Zn  Zn12  1  0.720077  0.279923  0.250596  1
  Zn  Zn13  1  0.278972  0.721028  0.749310  1
  Zn  Zn14  1  0.533105  0.466895  0.250203  1
  Zn  Zn15  1  0.467474  0.532526  0.749525  1
  Au  Au16  1  0.320731  0.066980  0.250339  1
  Au  Au17  1  0.067561  0.321235  0.750099  1
  Au  Au18  1  0.678765  0.932439  0.750099  1
  Au  Au19  1  0.933020  0.679269  0.250339  1
  Au  Au20  1  0.568697  0.003904  0.396923  1
  Au  Au21  1  0.003663  0.568316  0.602981  1
  Au  Au22  1  0.569751  0.005226  0.103853  1
  Au  Au23  1  0.001361  0.567738  0.896159  1
  Au  Au24  1  0.431684  0.996337  0.602981  1
  Au  Au25  1  0.996096  0.431303  0.396923  1
  Au  Au26  1  0.432262  0.998639  0.896159  1
  Au  Au27  1  0.994774  0.430249  0.103853  1
  Au  Au28  1  0.683834  0.739561  0.394706  1
  Au  Au29  1  0.739750  0.684057  0.605087  1
  Au  Au30  1  0.686569  0.740638  0.106165  1
  Au  Au31  1  0.741493  0.684641  0.894285  1
  Au  Au32  1  0.315943  0.260250  0.605087  1
  Au  Au33  1  0.260439  0.316166  0.394706  1
  Au  Au34  1  0.315359  0.258507  0.894285  1
  Au  Au35  1  0.259362  0.313431  0.106165  1
