# generated using pymatgen
data_Nd2Ni5As4Pd
_symmetry_space_group_name_H-M   'P 1'
_cell_length_a   4.01571900
_cell_length_b   11.11253300
_cell_length_c   13.05384500
_cell_angle_alpha   90.00000000
_cell_angle_beta   90.00000000
_cell_angle_gamma   90.00000000
_symmetry_Int_Tables_number   1
_chemical_formula_structural   Nd2Ni5As4Pd
_chemical_formula_sum   'Nd6 Ni15 As12 Pd3'
_cell_volume   582.52535167
_cell_formula_units_Z   3
loop_
 _symmetry_equiv_pos_site_id
 _symmetry_equiv_pos_as_xyz
  1  'x, y, z'
loop_
 _atom_site_type_symbol
 _atom_site_label
 _atom_site_symmetry_multiplicity
 _atom_site_fract_x
 _atom_site_fract_y
 _atom_site_fract_z
 _atom_site_occupancy
  Nd  Nd0  1  0.000000  0.500000  0.518374  1
  Nd  Nd1  1  0.500000  0.000000  0.476449  1
  Nd  Nd2  1  0.500000  0.814546  0.206663  1
  Nd  Nd3  1  0.500000  0.185454  0.206663  1
  Nd  Nd4  1  0.000000  0.688966  0.794999  1
  Nd  Nd5  1  0.000000  0.311034  0.794999  1
  Ni  Ni6  1  0.000000  0.000000  0.301304  1
  Ni  Ni7  1  0.000000  0.500000  0.984194  1
  Ni  Ni8  1  0.500000  0.000000  0.019271  1
  Ni  Ni9  1  0.500000  0.330923  0.996844  1
  Ni  Ni10  1  0.500000  0.669077  0.996844  1
  Ni  Ni11  1  0.000000  0.165628  0.005716  1
  Ni  Ni12  1  0.000000  0.834372  0.005716  1
  Ni  Ni13  1  0.500000  0.302866  0.421394  1
  Ni  Ni14  1  0.500000  0.697134  0.421394  1
  Ni  Ni15  1  0.000000  0.193615  0.575103  1
  Ni  Ni16  1  0.000000  0.806385  0.575103  1
  Ni  Ni17  1  0.500000  0.882606  0.709297  1
  Ni  Ni18  1  0.500000  0.117394  0.709297  1
  Ni  Ni19  1  0.000000  0.618866  0.290849  1
  Ni  Ni20  1  0.000000  0.381134  0.290849  1
  As  As21  1  0.500000  0.500000  0.885019  1
  As  As22  1  0.000000  0.000000  0.123976  1
  As  As23  1  0.500000  0.500000  0.345212  1
  As  As24  1  0.000000  0.000000  0.653665  1
  As  As25  1  0.500000  0.301673  0.607438  1
  As  As26  1  0.500000  0.698327  0.607438  1
  As  As27  1  0.000000  0.188683  0.387609  1
  As  As28  1  0.000000  0.811317  0.387609  1
  As  As29  1  0.500000  0.846361  0.897257  1
  As  As30  1  0.500000  0.153639  0.897257  1
  As  As31  1  0.000000  0.655864  0.104513  1
  As  As32  1  0.000000  0.344136  0.104513  1
  Pd  Pd33  1  0.500000  0.500000  0.153996  1
  Pd  Pd34  1  0.000000  0.000000  0.845657  1
  Pd  Pd35  1  0.500000  0.500000  0.697518  1
