# generated using pymatgen
data_Yb(ZrSe2)3
_symmetry_space_group_name_H-M   'P 1'
_cell_length_a   6.54771047
_cell_length_b   6.54775240
_cell_length_c   7.33485518
_cell_angle_alpha   98.61599537
_cell_angle_beta   98.61676564
_cell_angle_gamma   119.93420651
_symmetry_Int_Tables_number   1
_chemical_formula_structural   Yb(ZrSe2)3
_chemical_formula_sum   'Yb1 Zr3 Se6'
_cell_volume   260.01998712
_cell_formula_units_Z   1
loop_
 _symmetry_equiv_pos_site_id
 _symmetry_equiv_pos_as_xyz
  1  'x, y, z'
loop_
 _atom_site_type_symbol
 _atom_site_label
 _atom_site_symmetry_multiplicity
 _atom_site_fract_x
 _atom_site_fract_y
 _atom_site_fract_z
 _atom_site_occupancy
  Yb  Yb0  1  0.000000  0.000000  0.500000  1
  Zr  Zr1  1  0.834761  0.165240  0.000000  1
  Zr  Zr2  1  0.500000  0.500000  0.000000  1
  Zr  Zr3  1  0.165239  0.834760  0.000000  1
  Se  Se4  1  0.250445  0.250446  0.236077  1
  Se  Se5  1  0.910712  0.572452  0.234614  1
  Se  Se6  1  0.572451  0.910713  0.234613  1
  Se  Se7  1  0.427549  0.089287  0.765388  1
  Se  Se8  1  0.089288  0.427548  0.765387  1
  Se  Se9  1  0.749557  0.749556  0.763924  1
