# generated using pymatgen
data_La16Cd4CoCuOs2
_symmetry_space_group_name_H-M   'P 1'
_cell_length_a   10.11423453
_cell_length_b   9.98032285
_cell_length_c   10.11423544
_cell_angle_alpha   60.18259530
_cell_angle_beta   60.12008142
_cell_angle_gamma   60.18259950
_symmetry_Int_Tables_number   1
_chemical_formula_structural   La16Cd4CoCuOs2
_chemical_formula_sum   'La16 Cd4 Co1 Cu1 Os2'
_cell_volume   724.57534607
_cell_formula_units_Z   1
loop_
 _symmetry_equiv_pos_site_id
 _symmetry_equiv_pos_as_xyz
  1  'x, y, z'
loop_
 _atom_site_type_symbol
 _atom_site_label
 _atom_site_symmetry_multiplicity
 _atom_site_fract_x
 _atom_site_fract_y
 _atom_site_fract_z
 _atom_site_occupancy
  La  La0  1  0.936107  0.947546  0.555533  1
  La  La1  1  0.561126  0.942362  0.561126  1
  La  La2  1  0.555533  0.947546  0.936107  1
  La  La3  1  0.700767  0.685646  0.305622  1
  La  La4  1  0.153284  0.157846  0.543870  1
  La  La5  1  0.305622  0.685646  0.700767  1
  La  La6  1  0.151011  0.157721  0.151011  1
  La  La7  1  0.543870  0.157846  0.153284  1
  La  La8  1  0.308004  0.677993  0.308004  1
  La  La9  1  0.309903  0.312381  0.685795  1
  La  La10  1  0.687566  0.314491  0.687566  1
  La  La11  1  0.937132  0.561607  0.559307  1
  La  La12  1  0.559307  0.561607  0.937132  1
  La  La13  1  0.157519  0.533099  0.157519  1
  La  La14  1  0.685795  0.312381  0.309903  1
  La  La15  1  0.940682  0.557756  0.940682  1
  Cd  Cd16  1  0.236458  0.919846  0.921431  1
  Cd  Cd17  1  0.921236  0.921684  0.921236  1
  Cd  Cd18  1  0.921431  0.919846  0.236458  1
  Cd  Cd19  1  0.920039  0.239267  0.920039  1
  Co  Co20  1  0.363596  0.353973  0.363596  1
  Cu  Cu21  1  0.358571  0.922545  0.358571  1
  Os  Os22  1  0.920716  0.354680  0.364723  1
  Os  Os23  1  0.364723  0.354680  0.920716  1
