# generated using pymatgen
data_CsNb(CrS3)2
_symmetry_space_group_name_H-M   'P 1'
_cell_length_a   5.45676000
_cell_length_b   5.45676105
_cell_length_c   17.43763700
_cell_angle_alpha   90.00000000
_cell_angle_beta   90.00000000
_cell_angle_gamma   119.99999361
_symmetry_Int_Tables_number   1
_chemical_formula_structural   CsNb(CrS3)2
_chemical_formula_sum   'Cs2 Nb2 Cr4 S12'
_cell_volume   449.66396154
_cell_formula_units_Z   2
loop_
 _symmetry_equiv_pos_site_id
 _symmetry_equiv_pos_as_xyz
  1  'x, y, z'
loop_
 _atom_site_type_symbol
 _atom_site_label
 _atom_site_symmetry_multiplicity
 _atom_site_fract_x
 _atom_site_fract_y
 _atom_site_fract_z
 _atom_site_occupancy
  Cs  Cs0  1  0.000000  0.000000  0.000000  1
  Cs  Cs1  1  0.000000  0.000000  0.500000  1
  Nb  Nb2  1  0.666667  0.333333  0.250000  1
  Nb  Nb3  1  0.333333  0.666667  0.750000  1
  Cr  Cr4  1  0.000000  0.000000  0.750000  1
  Cr  Cr5  1  0.000000  0.000000  0.250000  1
  Cr  Cr6  1  0.333333  0.666667  0.250000  1
  Cr  Cr7  1  0.666667  0.333333  0.750000  1
  S  S8  1  0.314105  0.978244  0.164508  1
  S  S9  1  0.021756  0.335861  0.164508  1
  S  S10  1  0.664139  0.685895  0.164508  1
  S  S11  1  0.335861  0.314105  0.664508  1
  S  S12  1  0.664139  0.685895  0.335492  1
  S  S13  1  0.685895  0.021756  0.664508  1
  S  S14  1  0.978244  0.664139  0.664508  1
  S  S15  1  0.978244  0.664139  0.835492  1
  S  S16  1  0.335861  0.314105  0.835492  1
  S  S17  1  0.021756  0.335861  0.335492  1
  S  S18  1  0.314105  0.978244  0.335492  1
  S  S19  1  0.685895  0.021756  0.835492  1
