# generated using pymatgen
data_Ho2Si3PbO10
_symmetry_space_group_name_H-M   'P 1'
_cell_length_a   12.26746200
_cell_length_b   5.46844949
_cell_length_c   6.91110071
_cell_angle_alpha   72.34922240
_cell_angle_beta   90.00000000
_cell_angle_gamma   90.00000000
_symmetry_Int_Tables_number   1
_chemical_formula_structural   Ho2Si3PbO10
_chemical_formula_sum   'Ho4 Si6 Pb2 O20'
_cell_volume   441.79790134
_cell_formula_units_Z   2
loop_
 _symmetry_equiv_pos_site_id
 _symmetry_equiv_pos_as_xyz
  1  'x, y, z'
loop_
 _atom_site_type_symbol
 _atom_site_label
 _atom_site_symmetry_multiplicity
 _atom_site_fract_x
 _atom_site_fract_y
 _atom_site_fract_z
 _atom_site_occupancy
  Ho  Ho0  1  0.597674  0.167415  0.314752  1
  Ho  Ho1  1  0.902326  0.167415  0.314752  1
  Ho  Ho2  1  0.097674  0.832585  0.685248  1
  Ho  Ho3  1  0.402326  0.832585  0.685248  1
  Si  Si4  1  0.060678  0.699660  0.214987  1
  Si  Si5  1  0.250000  0.423398  0.485229  1
  Si  Si6  1  0.750000  0.576602  0.514771  1
  Si  Si7  1  0.439322  0.699660  0.214987  1
  Si  Si8  1  0.560678  0.300340  0.785013  1
  Si  Si9  1  0.939322  0.300340  0.785013  1
  Pb  Pb10  1  0.750000  0.805355  0.016401  1
  Pb  Pb11  1  0.250000  0.194645  0.983599  1
  O  O12  1  0.454217  0.892780  0.356412  1
  O  O13  1  0.141174  0.454861  0.341243  1
  O  O14  1  0.858826  0.545139  0.658757  1
  O  O15  1  0.358826  0.454861  0.341243  1
  O  O16  1  0.377824  0.851808  0.001475  1
  O  O17  1  0.877824  0.148192  0.998525  1
  O  O18  1  0.054029  0.431724  0.815660  1
  O  O19  1  0.954217  0.107220  0.643588  1
  O  O20  1  0.545783  0.107220  0.643588  1
  O  O21  1  0.250000  0.637023  0.607758  1
  O  O22  1  0.122176  0.851808  0.001475  1
  O  O23  1  0.554029  0.568276  0.184340  1
  O  O24  1  0.250000  0.128596  0.645451  1
  O  O25  1  0.641174  0.545139  0.658757  1
  O  O26  1  0.750000  0.871404  0.354549  1
  O  O27  1  0.945971  0.568276  0.184340  1
  O  O28  1  0.750000  0.362977  0.392242  1
  O  O29  1  0.445971  0.431724  0.815660  1
  O  O30  1  0.622176  0.148192  0.998525  1
  O  O31  1  0.045783  0.892780  0.356412  1
