# generated using pymatgen
data_Y5HoNb2(Co4P3)4
_symmetry_space_group_name_H-M   'P 1'
_cell_length_a   3.70902400
_cell_length_b   10.63344801
_cell_length_c   12.33111501
_cell_angle_alpha   89.99629251
_cell_angle_beta   90.00000000
_cell_angle_gamma   90.00000000
_symmetry_Int_Tables_number   1
_chemical_formula_structural   Y5HoNb2(Co4P3)4
_chemical_formula_sum   'Y5 Ho1 Nb2 Co16 P12'
_cell_volume   486.33564635
_cell_formula_units_Z   1
loop_
 _symmetry_equiv_pos_site_id
 _symmetry_equiv_pos_as_xyz
  1  'x, y, z'
loop_
 _atom_site_type_symbol
 _atom_site_label
 _atom_site_symmetry_multiplicity
 _atom_site_fract_x
 _atom_site_fract_y
 _atom_site_fract_z
 _atom_site_occupancy
  Y  Y0  1  0.000000  0.499977  0.526271  1
  Y  Y1  1  0.500000  0.999974  0.473784  1
  Y  Y2  1  0.500000  0.820065  0.205247  1
  Y  Y3  1  0.500000  0.179971  0.205295  1
  Y  Y4  1  0.000000  0.679913  0.794709  1
  Ho  Ho5  1  0.000000  0.320124  0.794798  1
  Nb  Nb6  1  0.500000  0.499922  0.156827  1
  Nb  Nb7  1  0.000000  0.000214  0.843135  1
  Co  Co8  1  0.000000  0.499736  0.985666  1
  Co  Co9  1  0.500000  0.000255  0.013943  1
  Co  Co10  1  0.500000  0.295331  0.432679  1
  Co  Co11  1  0.500000  0.704641  0.432463  1
  Co  Co12  1  0.000000  0.204780  0.567942  1
  Co  Co13  1  0.000000  0.795227  0.567583  1
  Co  Co14  1  0.500000  0.877641  0.704442  1
  Co  Co15  1  0.500000  0.122938  0.704847  1
  Co  Co16  1  0.000000  0.622431  0.295541  1
  Co  Co17  1  0.000000  0.377546  0.295615  1
  Co  Co18  1  0.500000  0.332393  0.991269  1
  Co  Co19  1  0.500000  0.667383  0.991453  1
  Co  Co20  1  0.000000  0.167767  0.008115  1
  Co  Co21  1  0.000000  0.832487  0.008327  1
  Co  Co22  1  0.500000  0.499294  0.702405  1
  Co  Co23  1  0.000000  0.000068  0.297861  1
  P  P24  1  0.500000  0.310689  0.616065  1
  P  P25  1  0.500000  0.689149  0.615559  1
  P  P26  1  0.000000  0.189348  0.384657  1
  P  P27  1  0.000000  0.810718  0.384492  1
  P  P28  1  0.500000  0.499494  0.881924  1
  P  P29  1  0.000000  0.000125  0.117747  1
  P  P30  1  0.500000  0.841654  0.893444  1
  P  P31  1  0.500000  0.158897  0.892964  1
  P  P32  1  0.000000  0.658312  0.106382  1
  P  P33  1  0.000000  0.341587  0.106482  1
  P  P34  1  0.500000  0.499973  0.355418  1
  P  P35  1  0.000000  0.999976  0.644647  1
