# generated using pymatgen
data_Ti4NbCo8Si14Mo3
_symmetry_space_group_name_H-M   'P 1'
_cell_length_a   9.13917630
_cell_length_b   9.13885691
_cell_length_c   9.15578110
_cell_angle_alpha   94.18274813
_cell_angle_beta   94.18188448
_cell_angle_gamma   148.63577231
_symmetry_Int_Tables_number   1
_chemical_formula_structural   Ti4NbCo8Si14Mo3
_chemical_formula_sum   'Ti4 Nb1 Co8 Si14 Mo3'
_cell_volume   383.25030900
_cell_formula_units_Z   1
loop_
 _symmetry_equiv_pos_site_id
 _symmetry_equiv_pos_as_xyz
  1  'x, y, z'
loop_
 _atom_site_type_symbol
 _atom_site_label
 _atom_site_symmetry_multiplicity
 _atom_site_fract_x
 _atom_site_fract_y
 _atom_site_fract_z
 _atom_site_occupancy
  Ti  Ti0  1  0.499816  0.690431  0.190208  1
  Ti  Ti1  1  0.500050  0.311124  0.811155  1
  Ti  Ti2  1  0.309606  0.500193  0.809818  1
  Ti  Ti3  1  0.688853  0.499948  0.188844  1
  Nb  Nb4  1  0.133563  0.866472  0.000038  1
  Co  Co5  1  0.399658  0.898956  0.797834  1
  Co  Co6  1  0.101069  0.600374  0.202218  1
  Co  Co7  1  0.100043  0.899866  0.499954  1
  Co  Co8  1  0.399517  0.600494  0.499975  1
  Co  Co9  1  0.600072  0.399893  0.499959  1
  Co  Co10  1  0.899494  0.100470  0.499976  1
  Co  Co11  1  0.898862  0.398169  0.797796  1
  Co  Co12  1  0.601832  0.101150  0.202219  1
  Si  Si13  1  0.293734  0.294117  0.587856  1
  Si  Si14  1  0.705828  0.706246  0.412072  1
  Si  Si15  1  0.707084  0.293223  0.000132  1
  Si  Si16  1  0.293720  0.706226  0.000133  1
  Si  Si17  1  0.000414  0.291805  0.292238  1
  Si  Si18  1  0.998211  0.704944  0.703212  1
  Si  Si19  1  0.708209  0.999592  0.707659  1
  Si  Si20  1  0.295047  0.001678  0.296769  1
  Si  Si21  1  0.500240  0.905627  0.405783  1
  Si  Si22  1  0.499995  0.094468  0.594391  1
  Si  Si23  1  0.094292  0.499693  0.594114  1
  Si  Si24  1  0.905483  0.499968  0.405479  1
  Si  Si25  1  0.749706  0.752584  0.000062  1
  Si  Si26  1  0.247470  0.250344  0.000052  1
  Mo  Mo27  1  0.132822  0.131943  0.264647  1
  Mo  Mo28  1  0.868076  0.867214  0.735373  1
  Mo  Mo29  1  0.867236  0.132788  0.000037  1
