# generated using pymatgen
data_Hf15ZrTa3Ni4Mo
_symmetry_space_group_name_H-M   'P 1'
_cell_length_a   8.76619903
_cell_length_b   8.75952828
_cell_length_c   8.73896236
_cell_angle_alpha   59.90040155
_cell_angle_beta   59.98547480
_cell_angle_gamma   60.01943858
_symmetry_Int_Tables_number   1
_chemical_formula_structural   Hf15ZrTa3Ni4Mo
_chemical_formula_sum   'Hf15 Zr1 Ta3 Ni4 Mo1'
_cell_volume   474.16006661
_cell_formula_units_Z   1
loop_
 _symmetry_equiv_pos_site_id
 _symmetry_equiv_pos_as_xyz
  1  'x, y, z'
loop_
 _atom_site_type_symbol
 _atom_site_label
 _atom_site_symmetry_multiplicity
 _atom_site_fract_x
 _atom_site_fract_y
 _atom_site_fract_z
 _atom_site_occupancy
  Hf  Hf0  1  0.192627  0.602785  0.601885  1
  Hf  Hf1  1  0.601874  0.193825  0.601404  1
  Hf  Hf2  1  0.601902  0.602826  0.601402  1
  Hf  Hf3  1  0.602555  0.602361  0.192770  1
  Hf  Hf4  1  0.447041  0.450280  0.051445  1
  Hf  Hf5  1  0.051945  0.050861  0.446815  1
  Hf  Hf6  1  0.447037  0.051224  0.051413  1
  Hf  Hf7  1  0.051949  0.450338  0.446799  1
  Hf  Hf8  1  0.050885  0.449330  0.050405  1
  Hf  Hf9  1  0.448127  0.051765  0.448467  1
  Hf  Hf10  1  0.814228  0.813335  0.189821  1
  Hf  Hf11  1  0.186993  0.185185  0.814476  1
  Hf  Hf12  1  0.814223  0.182637  0.189823  1
  Hf  Hf13  1  0.186987  0.813368  0.814474  1
  Hf  Hf14  1  0.182131  0.815269  0.187341  1
  Zr  Zr15  1  0.817055  0.183228  0.816456  1
  Ta  Ta16  1  0.500369  0.833767  0.832056  1
  Ta  Ta17  1  0.833972  0.499618  0.833319  1
  Ta  Ta18  1  0.833977  0.833067  0.833344  1
  Ni  Ni19  1  0.823042  0.392013  0.392647  1
  Ni  Ni20  1  0.391993  0.821748  0.393193  1
  Ni  Ni21  1  0.392150  0.393216  0.392940  1
  Ni  Ni22  1  0.392567  0.392850  0.821925  1
  Mo  Mo23  1  0.834374  0.835107  0.495383  1
