# generated using pymatgen
data_Er6Tm4Si5Bi
_symmetry_space_group_name_H-M   'P 1'
_cell_length_a   8.47423400
_cell_length_b   8.47423351
_cell_length_c   6.27007000
_cell_angle_alpha   90.00000000
_cell_angle_beta   90.00000000
_cell_angle_gamma   120.26166638
_symmetry_Int_Tables_number   1
_chemical_formula_structural   Er6Tm4Si5Bi
_chemical_formula_sum   'Er6 Tm4 Si5 Bi1'
_cell_volume   388.91324712
_cell_formula_units_Z   1
loop_
 _symmetry_equiv_pos_site_id
 _symmetry_equiv_pos_as_xyz
  1  'x, y, z'
loop_
 _atom_site_type_symbol
 _atom_site_label
 _atom_site_symmetry_multiplicity
 _atom_site_fract_x
 _atom_site_fract_y
 _atom_site_fract_z
 _atom_site_occupancy
  Er  Er0  1  0.768596  0.768596  0.250000  1
  Er  Er1  1  0.239113  0.984244  0.250000  1
  Er  Er2  1  0.984244  0.239113  0.250000  1
  Er  Er3  1  0.239426  0.239426  0.750000  1
  Er  Er4  1  0.755542  0.998648  0.750000  1
  Er  Er5  1  0.998648  0.755542  0.750000  1
  Tm  Tm6  1  0.677027  0.330763  0.505042  1
  Tm  Tm7  1  0.330763  0.677027  0.505042  1
  Tm  Tm8  1  0.330763  0.677027  0.994958  1
  Tm  Tm9  1  0.677027  0.330763  0.994958  1
  Si  Si10  1  0.603755  0.998630  0.250000  1
  Si  Si11  1  0.998630  0.603755  0.250000  1
  Si  Si12  1  0.606978  0.606978  0.750000  1
  Si  Si13  1  0.393547  0.002651  0.750000  1
  Si  Si14  1  0.002651  0.393547  0.750000  1
  Bi  Bi15  1  0.393293  0.393293  0.250000  1
