# generated using pymatgen
data_Tb10Sn6PS
_symmetry_space_group_name_H-M   'P 1'
_cell_length_a   9.09921300
_cell_length_b   9.09921222
_cell_length_c   6.74919700
_cell_angle_alpha   90.00000000
_cell_angle_beta   90.00000000
_cell_angle_gamma   119.99999920
_symmetry_Int_Tables_number   1
_chemical_formula_structural   Tb10Sn6PS
_chemical_formula_sum   'Tb10 Sn6 P1 S1'
_cell_volume   483.93871337
_cell_formula_units_Z   1
loop_
 _symmetry_equiv_pos_site_id
 _symmetry_equiv_pos_as_xyz
  1  'x, y, z'
loop_
 _atom_site_type_symbol
 _atom_site_label
 _atom_site_symmetry_multiplicity
 _atom_site_fract_x
 _atom_site_fract_y
 _atom_site_fract_z
 _atom_site_occupancy
  Tb  Tb0  1  0.666667  0.333333  0.000000  1
  Tb  Tb1  1  0.333333  0.666667  0.000000  1
  Tb  Tb2  1  0.333333  0.666667  0.500000  1
  Tb  Tb3  1  0.666667  0.333333  0.500000  1
  Tb  Tb4  1  0.758293  0.758293  0.751254  1
  Tb  Tb5  1  0.241707  0.000000  0.751254  1
  Tb  Tb6  1  0.000000  0.241707  0.751254  1
  Tb  Tb7  1  0.241707  0.241707  0.248746  1
  Tb  Tb8  1  0.758293  0.000000  0.248746  1
  Tb  Tb9  1  0.000000  0.758293  0.248746  1
  Sn  Sn10  1  0.398073  0.398073  0.750038  1
  Sn  Sn11  1  0.601927  0.000000  0.750038  1
  Sn  Sn12  1  0.000000  0.601927  0.750038  1
  Sn  Sn13  1  0.601927  0.601927  0.249962  1
  Sn  Sn14  1  0.398073  0.000000  0.249962  1
  Sn  Sn15  1  0.000000  0.398073  0.249962  1
  P  P16  1  0.000000  0.000000  0.000000  1
  S  S17  1  0.000000  0.000000  0.500000  1
