# generated using pymatgen
data_Ca7Er(Si4Mo3)4
_symmetry_space_group_name_H-M   'P 1'
_cell_length_a   6.74169655
_cell_length_b   6.95822747
_cell_length_c   13.08429776
_cell_angle_alpha   89.93620065
_cell_angle_beta   90.03927594
_cell_angle_gamma   89.91759779
_symmetry_Int_Tables_number   1
_chemical_formula_structural   Ca7Er(Si4Mo3)4
_chemical_formula_sum   'Ca7 Er1 Si16 Mo12'
_cell_volume   613.78662538
_cell_formula_units_Z   1
loop_
 _symmetry_equiv_pos_site_id
 _symmetry_equiv_pos_as_xyz
  1  'x, y, z'
loop_
 _atom_site_type_symbol
 _atom_site_label
 _atom_site_symmetry_multiplicity
 _atom_site_fract_x
 _atom_site_fract_y
 _atom_site_fract_z
 _atom_site_occupancy
  Ca  Ca0  1  0.498320  0.333121  0.090912  1
  Ca  Ca1  1  0.998325  0.167018  0.408702  1
  Ca  Ca2  1  0.501458  0.667052  0.591534  1
  Ca  Ca3  1  0.001056  0.830862  0.907846  1
  Ca  Ca4  1  0.500967  0.668143  0.908536  1
  Ca  Ca5  1  0.001312  0.832340  0.591405  1
  Ca  Ca6  1  0.498428  0.333147  0.408642  1
  Er  Er7  1  0.999273  0.170321  0.094059  1
  Si  Si8  1  0.657260  0.043537  0.545966  1
  Si  Si9  1  0.158095  0.456301  0.954948  1
  Si  Si10  1  0.340541  0.957809  0.045837  1
  Si  Si11  1  0.842458  0.543742  0.453885  1
  Si  Si12  1  0.342865  0.956099  0.453833  1
  Si  Si13  1  0.841908  0.543015  0.045734  1
  Si  Si14  1  0.659456  0.042748  0.954924  1
  Si  Si15  1  0.157434  0.456462  0.545974  1
  Si  Si16  1  0.535057  0.372528  0.750598  1
  Si  Si17  1  0.034939  0.126220  0.749891  1
  Si  Si18  1  0.464962  0.629784  0.248818  1
  Si  Si19  1  0.965296  0.871967  0.249589  1
  Si  Si20  1  0.800931  0.628679  0.750172  1
  Si  Si21  1  0.301194  0.870325  0.750113  1
  Si  Si22  1  0.199322  0.370447  0.250357  1
  Si  Si23  1  0.697271  0.130586  0.250302  1
  Mo  Mo24  1  0.834890  0.330781  0.628416  1
  Mo  Mo25  1  0.333799  0.168433  0.872788  1
  Mo  Mo26  1  0.165104  0.668298  0.126944  1
  Mo  Mo27  1  0.665858  0.831059  0.371220  1
  Mo  Mo28  1  0.165336  0.668916  0.370919  1
  Mo  Mo29  1  0.668194  0.833769  0.126909  1
  Mo  Mo30  1  0.836124  0.329084  0.873234  1
  Mo  Mo31  1  0.334950  0.168564  0.628302  1
  Mo  Mo32  1  0.660814  0.010484  0.750513  1
  Mo  Mo33  1  0.161053  0.488759  0.750554  1
  Mo  Mo34  1  0.337532  0.991473  0.249041  1
  Mo  Mo35  1  0.838219  0.508128  0.248584  1
