# generated using pymatgen
data_Tb3Dy2MoRhO12
_symmetry_space_group_name_H-M   'P 1'
_cell_length_a   6.86476270
_cell_length_b   6.86499250
_cell_length_c   7.49529902
_cell_angle_alpha   73.92177659
_cell_angle_beta   73.91773038
_cell_angle_gamma   49.83342133
_symmetry_Int_Tables_number   1
_chemical_formula_structural   Tb3Dy2MoRhO12
_chemical_formula_sum   'Tb3 Dy2 Mo1 Rh1 O12'
_cell_volume   257.02983769
_cell_formula_units_Z   1
loop_
 _symmetry_equiv_pos_site_id
 _symmetry_equiv_pos_as_xyz
  1  'x, y, z'
loop_
 _atom_site_type_symbol
 _atom_site_label
 _atom_site_symmetry_multiplicity
 _atom_site_fract_x
 _atom_site_fract_y
 _atom_site_fract_z
 _atom_site_occupancy
  Tb  Tb0  1  0.317394  0.287986  0.358413  1
  Tb  Tb1  1  0.711971  0.682690  0.641340  1
  Tb  Tb2  1  0.318052  0.305853  0.827835  1
  Dy  Dy3  1  0.694147  0.682053  0.172366  1
  Dy  Dy4  1  0.007147  0.992891  0.499898  1
  Mo  Mo5  1  0.204524  0.795453  0.000069  1
  Rh  Rh6  1  0.755153  0.244764  0.000103  1
  O  O7  1  0.910959  0.436089  0.914576  1
  O  O8  1  0.413334  0.903676  0.916500  1
  O  O9  1  0.095450  0.587148  0.083925  1
  O  O10  1  0.564750  0.087601  0.086150  1
  O  O11  1  0.107869  0.592902  0.569002  1
  O  O12  1  0.601009  0.088064  0.576566  1
  O  O13  1  0.911452  0.399559  0.422783  1
  O  O14  1  0.407597  0.891702  0.430433  1
  O  O15  1  0.999179  0.997705  0.801114  1
  O  O16  1  0.002288  0.000867  0.198841  1
  O  O17  1  0.489053  0.511780  0.821744  1
  O  O18  1  0.488672  0.511215  0.178340  1
