# generated using pymatgen
data_Ti8Al14GaFe3(PdRh)2
_symmetry_space_group_name_H-M   'P 1'
_cell_length_a   8.57670802
_cell_length_b   8.56075738
_cell_length_c   8.57670800
_cell_angle_alpha   119.99040439
_cell_angle_beta   119.95356569
_cell_angle_gamma   90.10199000
_symmetry_Int_Tables_number   1
_chemical_formula_structural   Ti8Al14GaFe3(PdRh)2
_chemical_formula_sum   'Ti8 Al14 Ga1 Fe3 Pd2 Rh2'
_cell_volume   445.26528325
_cell_formula_units_Z   1
loop_
 _symmetry_equiv_pos_site_id
 _symmetry_equiv_pos_as_xyz
  1  'x, y, z'
loop_
 _atom_site_type_symbol
 _atom_site_label
 _atom_site_symmetry_multiplicity
 _atom_site_fract_x
 _atom_site_fract_y
 _atom_site_fract_z
 _atom_site_occupancy
  Ti  Ti0  1  0.782621  0.286439  0.072650  1
  Ti  Ti1  1  0.213791  0.286439  0.503819  1
  Ti  Ti2  1  0.209935  0.721320  0.511385  1
  Ti  Ti3  1  0.223215  0.720552  0.926611  1
  Ti  Ti4  1  0.793941  0.720552  0.497337  1
  Ti  Ti5  1  0.781609  0.271325  0.489717  1
  Ti  Ti6  1  0.377237  0.123857  0.746620  1
  Ti  Ti7  1  0.388053  0.636671  0.248618  1
  Al  Al8  1  0.152743  0.346622  0.193878  1
  Al  Al9  1  0.160836  0.977953  0.817117  1
  Al  Al10  1  0.156128  0.339822  0.806167  1
  Al  Al11  1  0.533654  0.339822  0.183694  1
  Al  Al12  1  0.848576  0.653510  0.804933  1
  Al  Al13  1  0.839354  0.025565  0.186210  1
  Al  Al14  1  0.836922  0.660128  0.186105  1
  Al  Al15  1  0.474024  0.660128  0.823207  1
  Al  Al16  1  0.378561  0.116261  0.251947  1
  Al  Al17  1  0.864315  0.116261  0.737701  1
  Al  Al18  1  0.622958  0.876340  0.253383  1
  Al  Al19  1  0.616104  0.364765  0.748660  1
  Al  Al20  1  0.618767  0.883217  0.747398  1
  Al  Al21  1  0.135817  0.883217  0.264449  1
  Ga  Ga22  1  0.995726  0.494876  0.499150  1
  Fe  Fe23  1  0.002889  0.999765  0.503083  1
  Fe  Fe24  1  0.496681  0.999765  0.996876  1
  Fe  Fe25  1  0.495851  0.498588  0.002737  1
  Pd  Pd26  1  0.500314  0.498620  0.500238  1
  Pd  Pd27  1  0.998381  0.498620  0.998306  1
  Rh  Rh28  1  0.999710  0.999561  0.999851  1
  Rh  Rh29  1  0.501284  0.999437  0.498154  1
