# generated using pymatgen
data_NdTi2O5
_symmetry_space_group_name_H-M   'P 1'
_cell_length_a   7.75722400
_cell_length_b   8.81259500
_cell_length_c   5.85679100
_cell_angle_alpha   90.00000000
_cell_angle_beta   90.00000000
_cell_angle_gamma   90.00000000
_symmetry_Int_Tables_number   1
_chemical_formula_structural   NdTi2O5
_chemical_formula_sum   'Nd4 Ti8 O20'
_cell_volume   400.37769101
_cell_formula_units_Z   4
loop_
 _symmetry_equiv_pos_site_id
 _symmetry_equiv_pos_as_xyz
  1  'x, y, z'
loop_
 _atom_site_type_symbol
 _atom_site_label
 _atom_site_symmetry_multiplicity
 _atom_site_fract_x
 _atom_site_fract_y
 _atom_site_fract_z
 _atom_site_occupancy
  Nd  Nd0  1  0.142508  0.171518  0.000000  1
  Nd  Nd1  1  0.642508  0.328483  0.000000  1
  Nd  Nd2  1  0.357492  0.671518  0.000000  1
  Nd  Nd3  1  0.857492  0.828482  0.000000  1
  Ti  Ti4  1  0.500000  0.000000  0.253165  1
  Ti  Ti5  1  0.000000  0.500000  0.253165  1
  Ti  Ti6  1  0.885295  0.142197  0.500001  1
  Ti  Ti7  1  0.385295  0.357803  0.500001  1
  Ti  Ti8  1  0.614705  0.642196  0.500001  1
  Ti  Ti9  1  0.114705  0.857804  0.500001  1
  Ti  Ti10  1  0.500000  0.000000  0.746834  1
  Ti  Ti11  1  0.000000  0.500000  0.746834  1
  O  O12  1  0.662882  0.053816  0.000000  1
  O  O13  1  0.162882  0.446184  0.000000  1
  O  O14  1  0.837118  0.553815  0.000000  1
  O  O15  1  0.337118  0.946185  0.000000  1
  O  O16  1  0.398039  0.210521  0.254114  1
  O  O17  1  0.898039  0.289479  0.254114  1
  O  O18  1  0.101961  0.710521  0.254114  1
  O  O19  1  0.601961  0.789480  0.254114  1
  O  O20  1  0.000000  0.000000  0.279577  1
  O  O21  1  0.500000  0.500000  0.279577  1
  O  O22  1  0.664697  0.076392  0.500001  1
  O  O23  1  0.164697  0.423608  0.500001  1
  O  O24  1  0.835303  0.576393  0.500001  1
  O  O25  1  0.335303  0.923607  0.500001  1
  O  O26  1  0.000000  0.000000  0.720423  1
  O  O27  1  0.500000  0.500000  0.720423  1
  O  O28  1  0.398039  0.210521  0.745887  1
  O  O29  1  0.898039  0.289479  0.745887  1
  O  O30  1  0.101961  0.710521  0.745887  1
  O  O31  1  0.601961  0.789480  0.745887  1
