# generated using pymatgen
data_ErLu5Co15(P4Rh)3
_symmetry_space_group_name_H-M   'P 1'
_cell_length_a   3.67707200
_cell_length_b   10.55584200
_cell_length_c   12.22708200
_cell_angle_alpha   90.00000000
_cell_angle_beta   90.00000000
_cell_angle_gamma   90.00000000
_symmetry_Int_Tables_number   1
_chemical_formula_structural   ErLu5Co15(P4Rh)3
_chemical_formula_sum   'Er1 Lu5 Co15 P12 Rh3'
_cell_volume   474.58918762
_cell_formula_units_Z   1
loop_
 _symmetry_equiv_pos_site_id
 _symmetry_equiv_pos_as_xyz
  1  'x, y, z'
loop_
 _atom_site_type_symbol
 _atom_site_label
 _atom_site_symmetry_multiplicity
 _atom_site_fract_x
 _atom_site_fract_y
 _atom_site_fract_z
 _atom_site_occupancy
  Er  Er0  1  0.000000  0.500000  0.520726  1
  Lu  Lu1  1  0.500000  0.000000  0.473915  1
  Lu  Lu2  1  0.500000  0.820044  0.207622  1
  Lu  Lu3  1  0.500000  0.179956  0.207622  1
  Lu  Lu4  1  0.000000  0.686371  0.794029  1
  Lu  Lu5  1  0.000000  0.313629  0.794029  1
  Co  Co6  1  0.000000  0.000000  0.295330  1
  Co  Co7  1  0.000000  0.500000  0.989459  1
  Co  Co8  1  0.500000  0.000000  0.014211  1
  Co  Co9  1  0.500000  0.331214  0.994256  1
  Co  Co10  1  0.500000  0.668786  0.994256  1
  Co  Co11  1  0.000000  0.166844  0.008518  1
  Co  Co12  1  0.000000  0.833156  0.008518  1
  Co  Co13  1  0.500000  0.296272  0.429113  1
  Co  Co14  1  0.500000  0.703728  0.429113  1
  Co  Co15  1  0.000000  0.198763  0.567107  1
  Co  Co16  1  0.000000  0.801237  0.567107  1
  Co  Co17  1  0.500000  0.879299  0.707899  1
  Co  Co18  1  0.500000  0.120701  0.707899  1
  Co  Co19  1  0.000000  0.623457  0.291879  1
  Co  Co20  1  0.000000  0.376543  0.291879  1
  P  P21  1  0.500000  0.500000  0.889725  1
  P  P22  1  0.000000  0.000000  0.118540  1
  P  P23  1  0.500000  0.500000  0.352382  1
  P  P24  1  0.000000  0.000000  0.645851  1
  P  P25  1  0.500000  0.303311  0.613155  1
  P  P26  1  0.500000  0.696689  0.613155  1
  P  P27  1  0.000000  0.186326  0.382058  1
  P  P28  1  0.000000  0.813674  0.382058  1
  P  P29  1  0.500000  0.844612  0.893777  1
  P  P30  1  0.500000  0.155388  0.893777  1
  P  P31  1  0.000000  0.657536  0.108437  1
  P  P32  1  0.000000  0.342464  0.108437  1
  Rh  Rh33  1  0.500000  0.500000  0.161942  1
  Rh  Rh34  1  0.000000  0.000000  0.838647  1
  Rh  Rh35  1  0.500000  0.500000  0.703566  1
