# generated using pymatgen
data_Ta12MnAl8Fe3C4
_symmetry_space_group_name_H-M   'P 1'
_cell_length_a   8.18048094
_cell_length_b   8.19257837
_cell_length_c   8.18048100
_cell_angle_alpha   60.04883035
_cell_angle_beta   59.99999570
_cell_angle_gamma   60.04882712
_symmetry_Int_Tables_number   1
_chemical_formula_structural   Ta12MnAl8Fe3C4
_chemical_formula_sum   'Ta12 Mn1 Al8 Fe3 C4'
_cell_volume   387.95683298
_cell_formula_units_Z   1
loop_
 _symmetry_equiv_pos_site_id
 _symmetry_equiv_pos_as_xyz
  1  'x, y, z'
loop_
 _atom_site_type_symbol
 _atom_site_label
 _atom_site_symmetry_multiplicity
 _atom_site_fract_x
 _atom_site_fract_y
 _atom_site_fract_z
 _atom_site_occupancy
  Ta  Ta0  1  0.556962  0.943168  0.556962  1
  Ta  Ta1  1  0.305236  0.692890  0.696639  1
  Ta  Ta2  1  0.693038  0.306832  0.307092  1
  Ta  Ta3  1  0.305236  0.692890  0.305236  1
  Ta  Ta4  1  0.696639  0.692890  0.305236  1
  Ta  Ta5  1  0.307092  0.306832  0.693038  1
  Ta  Ta6  1  0.553361  0.557110  0.944764  1
  Ta  Ta7  1  0.944764  0.557110  0.553361  1
  Ta  Ta8  1  0.556962  0.943168  0.942908  1
  Ta  Ta9  1  0.942908  0.943168  0.556962  1
  Ta  Ta10  1  0.693038  0.306832  0.693038  1
  Ta  Ta11  1  0.944764  0.557110  0.944764  1
  Mn  Mn12  1  0.125000  0.625000  0.125000  1
  Al  Al13  1  0.917149  0.920454  0.917149  1
  Al  Al14  1  0.004752  0.329546  0.332851  1
  Al  Al15  1  0.332599  0.002201  0.332599  1
  Al  Al16  1  0.332851  0.329546  0.004752  1
  Al  Al17  1  0.917401  0.247799  0.917401  1
  Al  Al18  1  0.917149  0.920454  0.245248  1
  Al  Al19  1  0.245248  0.920454  0.917149  1
  Al  Al20  1  0.332851  0.329546  0.332851  1
  Fe  Fe21  1  0.125000  0.125000  0.125000  1
  Fe  Fe22  1  0.625000  0.125000  0.125000  1
  Fe  Fe23  1  0.125000  0.125000  0.625000  1
  C  C24  1  0.625000  0.625000  0.625000  1
  C  C25  1  0.125000  0.625000  0.625000  1
  C  C26  1  0.625000  0.125000  0.625000  1
  C  C27  1  0.625000  0.625000  0.125000  1
