# generated using pymatgen
data_ErTm7B24Ru3W
_symmetry_space_group_name_H-M   'P 1'
_cell_length_a   3.60624900
_cell_length_b   9.10160787
_cell_length_c   11.48755200
_cell_angle_alpha   89.85662933
_cell_angle_beta   90.00000000
_cell_angle_gamma   90.00000000
_symmetry_Int_Tables_number   1
_chemical_formula_structural   ErTm7B24Ru3W
_chemical_formula_sum   'Er1 Tm7 B24 Ru3 W1'
_cell_volume   377.05088215
_cell_formula_units_Z   1
loop_
 _symmetry_equiv_pos_site_id
 _symmetry_equiv_pos_as_xyz
  1  'x, y, z'
loop_
 _atom_site_type_symbol
 _atom_site_label
 _atom_site_symmetry_multiplicity
 _atom_site_fract_x
 _atom_site_fract_y
 _atom_site_fract_z
 _atom_site_occupancy
  Er  Er0  1  0.000000  0.321215  0.413708  1
  Tm  Tm1  1  0.000000  0.677888  0.585493  1
  Tm  Tm2  1  0.000000  0.820240  0.087109  1
  Tm  Tm3  1  0.000000  0.177306  0.914905  1
  Tm  Tm4  1  0.000000  0.946360  0.373376  1
  Tm  Tm5  1  0.000000  0.057537  0.628959  1
  Tm  Tm6  1  0.000000  0.442599  0.125573  1
  Tm  Tm7  1  0.000000  0.556725  0.871048  1
  B  B8  1  0.500000  0.550001  0.436949  1
  B  B9  1  0.500000  0.445918  0.568480  1
  B  B10  1  0.500000  0.053712  0.066335  1
  B  B11  1  0.500000  0.946285  0.933404  1
  B  B12  1  0.500000  0.752442  0.423133  1
  B  B13  1  0.500000  0.251469  0.581128  1
  B  B14  1  0.500000  0.248290  0.079469  1
  B  B15  1  0.500000  0.751191  0.919344  1
  B  B16  1  0.500000  0.796346  0.263610  1
  B  B17  1  0.500000  0.208410  0.734739  1
  B  B18  1  0.500000  0.290601  0.232418  1
  B  B19  1  0.500000  0.709106  0.765495  1
  B  B20  1  0.500000  0.631895  0.181354  1
  B  B21  1  0.500000  0.367957  0.815287  1
  B  B22  1  0.500000  0.131660  0.314372  1
  B  B23  1  0.500000  0.869315  0.685217  1
  B  B24  1  0.500000  0.983625  0.212360  1
  B  B25  1  0.500000  0.017525  0.788231  1
  B  B26  1  0.500000  0.476405  0.286159  1
  B  B27  1  0.500000  0.516919  0.713022  1
  B  B28  1  0.500000  0.606008  0.027303  1
  B  B29  1  0.500000  0.392693  0.969419  1
  B  B30  1  0.500000  0.107383  0.471367  1
  B  B31  1  0.500000  0.896346  0.530804  1
  Ru  Ru32  1  0.000000  0.361127  0.680502  1
  Ru  Ru33  1  0.000000  0.137584  0.177896  1
  Ru  Ru34  1  0.000000  0.862094  0.820770  1
  W  W35  1  0.000000  0.637827  0.321260  1
