# generated using pymatgen
data_Sm3Er(AuO3)4
_symmetry_space_group_name_H-M   'P 1'
_cell_length_a   3.90229550
_cell_length_b   5.63552900
_cell_length_c   12.95392611
_cell_angle_alpha   90.00000000
_cell_angle_beta   90.23378292
_cell_angle_gamma   90.00000000
_symmetry_Int_Tables_number   1
_chemical_formula_structural   Sm3Er(AuO3)4
_chemical_formula_sum   'Sm3 Er1 Au4 O12'
_cell_volume   284.87388754
_cell_formula_units_Z   1
loop_
 _symmetry_equiv_pos_site_id
 _symmetry_equiv_pos_as_xyz
  1  'x, y, z'
loop_
 _atom_site_type_symbol
 _atom_site_label
 _atom_site_symmetry_multiplicity
 _atom_site_fract_x
 _atom_site_fract_y
 _atom_site_fract_z
 _atom_site_occupancy
  Sm  Sm0  1  0.260922  0.750000  0.076991  1
  Sm  Sm1  1  0.262349  0.250000  0.425337  1
  Sm  Sm2  1  0.738035  0.250000  0.920950  1
  Er  Er3  1  0.737705  0.750000  0.576732  1
  Au  Au4  1  0.062913  0.750000  0.827443  1
  Au  Au5  1  0.067666  0.250000  0.667811  1
  Au  Au6  1  0.935455  0.250000  0.170577  1
  Au  Au7  1  0.935193  0.750000  0.332982  1
  O  O8  1  0.194522  0.499892  0.252062  1
  O  O9  1  0.802904  0.996675  0.744697  1
  O  O10  1  0.802904  0.503325  0.744697  1
  O  O11  1  0.194522  0.000108  0.252062  1
  O  O12  1  0.743523  0.498540  0.075211  1
  O  O13  1  0.743007  0.504228  0.429144  1
  O  O14  1  0.255923  0.998917  0.922807  1
  O  O15  1  0.260002  0.992874  0.576669  1
  O  O16  1  0.743007  0.995772  0.429144  1
  O  O17  1  0.743523  0.001460  0.075211  1
  O  O18  1  0.260002  0.507126  0.576669  1
  O  O19  1  0.255923  0.501083  0.922807  1
