# generated using pymatgen
data_Tb3Cd3Ag2Ru
_symmetry_space_group_name_H-M   'P 1'
_cell_length_a   7.85262600
_cell_length_b   7.85262361
_cell_length_c   3.90532100
_cell_angle_alpha   90.00000000
_cell_angle_beta   90.00000000
_cell_angle_gamma   119.99999321
_symmetry_Int_Tables_number   1
_chemical_formula_structural   Tb3Cd3Ag2Ru
_chemical_formula_sum   'Tb3 Cd3 Ag2 Ru1'
_cell_volume   208.55331305
_cell_formula_units_Z   1
loop_
 _symmetry_equiv_pos_site_id
 _symmetry_equiv_pos_as_xyz
  1  'x, y, z'
loop_
 _atom_site_type_symbol
 _atom_site_label
 _atom_site_symmetry_multiplicity
 _atom_site_fract_x
 _atom_site_fract_y
 _atom_site_fract_z
 _atom_site_occupancy
  Tb  Tb0  1  0.569775  0.963157  0.000000  1
  Tb  Tb1  1  0.036843  0.606618  0.000000  1
  Tb  Tb2  1  0.393382  0.430225  0.000000  1
  Cd  Cd3  1  0.263880  0.000304  0.500000  1
  Cd  Cd4  1  0.999696  0.263576  0.500000  1
  Cd  Cd5  1  0.736424  0.736120  0.500000  1
  Ag  Ag6  1  0.666667  0.333333  0.500000  1
  Ag  Ag7  1  0.000000  0.000000  0.000000  1
  Ru  Ru8  1  0.333333  0.666667  0.500000  1
