# generated using pymatgen
data_Ba7Tb2Mn3Cr2O20
_symmetry_space_group_name_H-M   'P 1'
_cell_length_a   5.92226952
_cell_length_b   5.92226980
_cell_length_c   17.69413125
_cell_angle_alpha   80.36616082
_cell_angle_beta   99.63384583
_cell_angle_gamma   120.00000026
_symmetry_Int_Tables_number   1
_chemical_formula_structural   Ba7Tb2Mn3Cr2O20
_chemical_formula_sum   'Ba7 Tb2 Mn3 Cr2 O20'
_cell_volume   527.31761071
_cell_formula_units_Z   1
loop_
 _symmetry_equiv_pos_site_id
 _symmetry_equiv_pos_as_xyz
  1  'x, y, z'
loop_
 _atom_site_type_symbol
 _atom_site_label
 _atom_site_symmetry_multiplicity
 _atom_site_fract_x
 _atom_site_fract_y
 _atom_site_fract_z
 _atom_site_occupancy
  Ba  Ba0  1  0.000000  0.000000  0.000000  1
  Ba  Ba1  1  0.385094  0.614908  0.155280  1
  Ba  Ba2  1  0.771773  0.228226  0.315323  1
  Ba  Ba3  1  0.145811  0.854189  0.437433  1
  Ba  Ba4  1  0.854188  0.145811  0.562567  1
  Ba  Ba5  1  0.228226  0.771774  0.684677  1
  Ba  Ba6  1  0.614907  0.385095  0.844720  1
  Tb  Tb7  1  0.073370  0.926630  0.220111  1
  Tb  Tb8  1  0.926629  0.073370  0.779889  1
  Mn  Mn9  1  0.450533  0.549469  0.351598  1
  Mn  Mn10  1  0.500000  0.500001  0.500000  1
  Mn  Mn11  1  0.549468  0.450534  0.648402  1
  Cr  Cr12  1  0.697775  0.302223  0.093329  1
  Cr  Cr13  1  0.302224  0.697777  0.906671  1
  O  O14  1  0.335466  0.664536  0.006396  1
  O  O15  1  0.874597  0.124987  0.134408  1
  O  O16  1  0.384798  0.125403  0.134408  1
  O  O17  1  0.875013  0.615202  0.134408  1
  O  O18  1  0.275109  0.257733  0.292855  1
  O  O19  1  0.742268  0.724522  0.292855  1
  O  O20  1  0.275479  0.724892  0.292855  1
  O  O21  1  0.622097  0.377618  0.429201  1
  O  O22  1  0.184722  0.377902  0.429201  1
  O  O23  1  0.622381  0.815275  0.429201  1
  O  O24  1  0.377618  0.184723  0.570798  1
  O  O25  1  0.815277  0.622097  0.570798  1
  O  O26  1  0.377901  0.622382  0.570798  1
  O  O27  1  0.724522  0.275109  0.707145  1
  O  O28  1  0.257731  0.275478  0.707145  1
  O  O29  1  0.724892  0.742268  0.707145  1
  O  O30  1  0.124987  0.384798  0.865593  1
  O  O31  1  0.615203  0.874597  0.865593  1
  O  O32  1  0.125402  0.875013  0.865593  1
  O  O33  1  0.664535  0.335466  0.993604  1
