# generated using pymatgen
data_TbYSi2(Os2C)2
_symmetry_space_group_name_H-M   'P 1'
_cell_length_a   5.89277824
_cell_length_b   5.89277835
_cell_length_c   7.13020500
_cell_angle_alpha   90.00000000
_cell_angle_beta   90.00000000
_cell_angle_gamma   141.44900196
_symmetry_Int_Tables_number   1
_chemical_formula_structural   TbYSi2(Os2C)2
_chemical_formula_sum   'Tb1 Y1 Si2 Os4 C2'
_cell_volume   154.30404626
_cell_formula_units_Z   1
loop_
 _symmetry_equiv_pos_site_id
 _symmetry_equiv_pos_as_xyz
  1  'x, y, z'
loop_
 _atom_site_type_symbol
 _atom_site_label
 _atom_site_symmetry_multiplicity
 _atom_site_fract_x
 _atom_site_fract_y
 _atom_site_fract_z
 _atom_site_occupancy
  Tb  Tb0  1  0.548031  0.451969  0.250000  1
  Y  Y1  1  0.452153  0.547847  0.750000  1
  Si  Si2  1  0.268271  0.731729  0.250000  1
  Si  Si3  1  0.731866  0.268134  0.750000  1
  Os  Os4  1  0.834646  0.165354  0.058703  1
  Os  Os5  1  0.165271  0.834729  0.941080  1
  Os  Os6  1  0.165271  0.834729  0.558920  1
  Os  Os7  1  0.834646  0.165354  0.441297  1
  C  C8  1  0.999922  0.000078  0.999748  1
  C  C9  1  0.999922  0.000078  0.500252  1
