# generated using pymatgen
data_Mg2Cr2CuNi9P7
_symmetry_space_group_name_H-M   'P 1'
_cell_length_a   3.56193400
_cell_length_b   9.13594321
_cell_length_c   9.09220680
_cell_angle_alpha   120.24289233
_cell_angle_beta   90.00000000
_cell_angle_gamma   90.00000000
_symmetry_Int_Tables_number   1
_chemical_formula_structural   Mg2Cr2CuNi9P7
_chemical_formula_sum   'Mg2 Cr2 Cu1 Ni9 P7'
_cell_volume   255.60599121
_cell_formula_units_Z   1
loop_
 _symmetry_equiv_pos_site_id
 _symmetry_equiv_pos_as_xyz
  1  'x, y, z'
loop_
 _atom_site_type_symbol
 _atom_site_label
 _atom_site_symmetry_multiplicity
 _atom_site_fract_x
 _atom_site_fract_y
 _atom_site_fract_z
 _atom_site_occupancy
  Mg  Mg0  1  0.000000  0.663314  0.332782  1
  Mg  Mg1  1  0.500000  0.336193  0.664724  1
  Cr  Cr2  1  0.500000  0.782107  0.904300  1
  Cr  Cr3  1  0.500000  0.122230  0.221036  1
  Cu  Cu4  1  0.500000  0.101905  0.873836  1
  Ni  Ni5  1  0.000000  0.562816  0.934384  1
  Ni  Ni6  1  0.000000  0.371730  0.439208  1
  Ni  Ni7  1  0.000000  0.068840  0.627989  1
  Ni  Ni8  1  0.500000  0.941159  0.384074  1
  Ni  Ni9  1  0.500000  0.438668  0.056675  1
  Ni  Ni10  1  0.500000  0.615518  0.558103  1
  Ni  Ni11  1  0.000000  0.873008  0.162175  1
  Ni  Ni12  1  0.000000  0.276063  0.116397  1
  Ni  Ni13  1  0.000000  0.849797  0.723366  1
  P  P14  1  0.500000  0.707104  0.117398  1
  P  P15  1  0.500000  0.406979  0.292209  1
  P  P16  1  0.500000  0.876687  0.585701  1
  P  P17  1  0.000000  0.995537  0.006362  1
  P  P18  1  0.000000  0.592782  0.708558  1
  P  P19  1  0.000000  0.117808  0.411307  1
  P  P20  1  0.000000  0.299753  0.879414  1
