# generated using pymatgen
data_Y8Tc3OsC8
_symmetry_space_group_name_H-M   'P 1'
_cell_length_a   5.12239100
_cell_length_b   6.56695982
_cell_length_c   9.87762542
_cell_angle_alpha   89.83420144
_cell_angle_beta   90.00000000
_cell_angle_gamma   90.00000000
_symmetry_Int_Tables_number   1
_chemical_formula_structural   Y8Tc3OsC8
_chemical_formula_sum   'Y8 Tc3 Os1 C8'
_cell_volume   332.26746594
_cell_formula_units_Z   1
loop_
 _symmetry_equiv_pos_site_id
 _symmetry_equiv_pos_as_xyz
  1  'x, y, z'
loop_
 _atom_site_type_symbol
 _atom_site_label
 _atom_site_symmetry_multiplicity
 _atom_site_fract_x
 _atom_site_fract_y
 _atom_site_fract_z
 _atom_site_occupancy
  Y  Y0  1  0.250000  0.677670  0.556444  1
  Y  Y1  1  0.750000  0.321034  0.443741  1
  Y  Y2  1  0.750000  0.821859  0.056579  1
  Y  Y3  1  0.250000  0.177708  0.943544  1
  Y  Y4  1  0.250000  0.531110  0.215754  1
  Y  Y5  1  0.750000  0.467352  0.784945  1
  Y  Y6  1  0.750000  0.969293  0.713214  1
  Y  Y7  1  0.250000  0.030897  0.285086  1
  Tc  Tc8  1  0.250000  0.721414  0.864669  1
  Tc  Tc9  1  0.750000  0.279167  0.134658  1
  Tc  Tc10  1  0.750000  0.778303  0.365424  1
  Os  Os11  1  0.250000  0.221638  0.635391  1
  C  C12  1  0.250000  0.454076  0.758403  1
  C  C13  1  0.750000  0.546112  0.241149  1
  C  C14  1  0.750000  0.046214  0.259389  1
  C  C15  1  0.250000  0.955569  0.741060  1
  C  C16  1  0.250000  0.821164  0.047637  1
  C  C17  1  0.750000  0.179040  0.951232  1
  C  C18  1  0.750000  0.678581  0.549461  1
  C  C19  1  0.250000  0.321799  0.452219  1
