# generated using pymatgen
data_Tb2Ga9IrPdRh
_symmetry_space_group_name_H-M   'P 1'
_cell_length_a   7.62489270
_cell_length_b   7.62489187
_cell_length_c   9.53001504
_cell_angle_alpha   89.99490097
_cell_angle_beta   89.99489561
_cell_angle_gamma   119.80957746
_symmetry_Int_Tables_number   1
_chemical_formula_structural   Tb2Ga9IrPdRh
_chemical_formula_sum   'Tb4 Ga18 Ir2 Pd2 Rh2'
_cell_volume   480.75275019
_cell_formula_units_Z   2
loop_
 _symmetry_equiv_pos_site_id
 _symmetry_equiv_pos_as_xyz
  1  'x, y, z'
loop_
 _atom_site_type_symbol
 _atom_site_label
 _atom_site_symmetry_multiplicity
 _atom_site_fract_x
 _atom_site_fract_y
 _atom_site_fract_z
 _atom_site_occupancy
  Tb  Tb0  1  0.996636  0.669300  0.249957  1
  Tb  Tb1  1  0.003364  0.330700  0.750043  1
  Tb  Tb2  1  0.669300  0.996636  0.249957  1
  Tb  Tb3  1  0.330700  0.003364  0.750043  1
  Ga  Ga4  1  0.129074  0.129074  0.249984  1
  Ga  Ga5  1  0.870926  0.870926  0.750016  1
  Ga  Ga6  1  0.999529  0.337010  0.080068  1
  Ga  Ga7  1  0.000471  0.662990  0.919932  1
  Ga  Ga8  1  0.000527  0.662635  0.579822  1
  Ga  Ga9  1  0.337365  0.999473  0.420178  1
  Ga  Ga10  1  0.999473  0.337365  0.420178  1
  Ga  Ga11  1  0.662635  0.000527  0.579822  1
  Ga  Ga12  1  0.662990  0.000471  0.919932  1
  Ga  Ga13  1  0.337010  0.999529  0.080068  1
  Ga  Ga14  1  0.336507  0.336507  0.565744  1
  Ga  Ga15  1  0.663493  0.663493  0.434256  1
  Ga  Ga16  1  0.664092  0.664092  0.065845  1
  Ga  Ga17  1  0.335908  0.335908  0.934155  1
  Ga  Ga18  1  0.336950  0.546303  0.250597  1
  Ga  Ga19  1  0.663050  0.453697  0.749403  1
  Ga  Ga20  1  0.546303  0.336950  0.250597  1
  Ga  Ga21  1  0.453697  0.663050  0.749403  1
  Ir  Ir22  1  0.671534  0.328466  0.000000  1
  Ir  Ir23  1  0.328466  0.671534  0.000000  1
  Pd  Pd24  1  0.000000  0.000000  0.000000  1
  Pd  Pd25  1  0.000000  0.000000  0.500000  1
  Rh  Rh26  1  0.328891  0.671109  0.500000  1
  Rh  Rh27  1  0.671109  0.328891  0.500000  1
