# generated using pymatgen
data_Nd16Cd4IrPd2Ru
_symmetry_space_group_name_H-M   'P 1'
_cell_length_a   9.97587781
_cell_length_b   9.97587725
_cell_length_c   10.01634929
_cell_angle_alpha   59.81825954
_cell_angle_beta   59.81826254
_cell_angle_gamma   59.72489788
_symmetry_Int_Tables_number   1
_chemical_formula_structural   Nd16Cd4IrPd2Ru
_chemical_formula_sum   'Nd16 Cd4 Ir1 Pd2 Ru1'
_cell_volume   701.44253233
_cell_formula_units_Z   1
loop_
 _symmetry_equiv_pos_site_id
 _symmetry_equiv_pos_as_xyz
  1  'x, y, z'
loop_
 _atom_site_type_symbol
 _atom_site_label
 _atom_site_symmetry_multiplicity
 _atom_site_fract_x
 _atom_site_fract_y
 _atom_site_fract_z
 _atom_site_occupancy
  Nd  Nd0  1  0.347083  0.347083  0.356360  1
  Nd  Nd1  1  0.350575  0.350575  0.944576  1
  Nd  Nd2  1  0.344891  0.954573  0.351830  1
  Nd  Nd3  1  0.954573  0.344891  0.351830  1
  Nd  Nd4  1  0.814354  0.190067  0.190498  1
  Nd  Nd5  1  0.187153  0.816519  0.803541  1
  Nd  Nd6  1  0.190067  0.814354  0.190498  1
  Nd  Nd7  1  0.816519  0.187153  0.803541  1
  Nd  Nd8  1  0.188897  0.188897  0.809277  1
  Nd  Nd9  1  0.807300  0.807300  0.191126  1
  Nd  Nd10  1  0.936710  0.560039  0.566628  1
  Nd  Nd11  1  0.559119  0.936530  0.938918  1
  Nd  Nd12  1  0.560039  0.936710  0.566628  1
  Nd  Nd13  1  0.936530  0.559119  0.938918  1
  Nd  Nd14  1  0.563062  0.563062  0.938358  1
  Nd  Nd15  1  0.937243  0.937243  0.562528  1
  Cd  Cd16  1  0.580167  0.580167  0.579928  1
  Cd  Cd17  1  0.579954  0.579954  0.259604  1
  Cd  Cd18  1  0.581647  0.257565  0.579647  1
  Cd  Cd19  1  0.257565  0.581647  0.579647  1
  Ir  Ir20  1  0.144689  0.144689  0.139420  1
  Pd  Pd21  1  0.145975  0.572003  0.141022  1
  Pd  Pd22  1  0.572003  0.145975  0.141022  1
  Ru  Ru23  1  0.143887  0.143887  0.574656  1
