# generated using pymatgen
data_Ca(GaBr4)2
_symmetry_space_group_name_H-M   'P 1'
_cell_length_a   7.59314200
_cell_length_b   7.82337105
_cell_length_c   14.36729024
_cell_angle_alpha   87.59769033
_cell_angle_beta   90.00000000
_cell_angle_gamma   90.00000000
_symmetry_Int_Tables_number   1
_chemical_formula_structural   Ca(GaBr4)2
_chemical_formula_sum   'Ca2 Ga4 Br16'
_cell_volume   852.72395607
_cell_formula_units_Z   2
loop_
 _symmetry_equiv_pos_site_id
 _symmetry_equiv_pos_as_xyz
  1  'x, y, z'
loop_
 _atom_site_type_symbol
 _atom_site_label
 _atom_site_symmetry_multiplicity
 _atom_site_fract_x
 _atom_site_fract_y
 _atom_site_fract_z
 _atom_site_occupancy
  Ca  Ca0  1  0.754337  0.077097  0.814185  1
  Ca  Ca1  1  0.245663  0.077097  0.314185  1
  Ga  Ga2  1  0.934205  0.222844  0.578395  1
  Ga  Ga3  1  0.065795  0.222844  0.078395  1
  Ga  Ga4  1  0.570680  0.639426  0.776642  1
  Ga  Ga5  1  0.429320  0.639426  0.276642  1
  Br  Br6  1  0.421302  0.614675  0.639067  1
  Br  Br7  1  0.578698  0.614675  0.139067  1
  Br  Br8  1  0.870373  0.731784  0.761176  1
  Br  Br9  1  0.129627  0.731784  0.261176  1
  Br  Br10  1  0.939532  0.479761  0.495337  1
  Br  Br11  1  0.060468  0.479761  0.995337  1
  Br  Br12  1  0.919334  0.998364  0.999351  1
  Br  Br13  1  0.080666  0.998364  0.499351  1
  Br  Br14  1  0.641977  0.127088  0.617072  1
  Br  Br15  1  0.358023  0.127088  0.117072  1
  Br  Br16  1  0.561924  0.382096  0.874690  1
  Br  Br17  1  0.438076  0.382096  0.374690  1
  Br  Br18  1  0.446792  0.863807  0.866395  1
  Br  Br19  1  0.553208  0.863807  0.366395  1
  Br  Br20  1  0.930970  0.230460  0.229891  1
  Br  Br21  1  0.069030  0.230460  0.729891  1
