# generated using pymatgen
data_Sr12Ga4SnGe7Au12
_symmetry_space_group_name_H-M   'P 1'
_cell_length_a   4.69350200
_cell_length_b   8.12487987
_cell_length_c   23.10862305
_cell_angle_alpha   89.81386633
_cell_angle_beta   90.00000000
_cell_angle_gamma   90.00000000
_symmetry_Int_Tables_number   1
_chemical_formula_structural   Sr12Ga4SnGe7Au12
_chemical_formula_sum   'Sr12 Ga4 Sn1 Ge7 Au12'
_cell_volume   881.22281492
_cell_formula_units_Z   1
loop_
 _symmetry_equiv_pos_site_id
 _symmetry_equiv_pos_as_xyz
  1  'x, y, z'
loop_
 _atom_site_type_symbol
 _atom_site_label
 _atom_site_symmetry_multiplicity
 _atom_site_fract_x
 _atom_site_fract_y
 _atom_site_fract_z
 _atom_site_occupancy
  Sr  Sr0  1  0.750000  0.209822  0.498410  1
  Sr  Sr1  1  0.250000  0.789368  0.166945  1
  Sr  Sr2  1  0.250000  0.791013  0.500979  1
  Sr  Sr3  1  0.250000  0.787624  0.835371  1
  Sr  Sr4  1  0.250000  0.710609  0.333635  1
  Sr  Sr5  1  0.750000  0.215095  0.836037  1
  Sr  Sr6  1  0.750000  0.289514  0.999527  1
  Sr  Sr7  1  0.750000  0.293693  0.665039  1
  Sr  Sr8  1  0.750000  0.288732  0.333588  1
  Sr  Sr9  1  0.250000  0.702432  0.663807  1
  Sr  Sr10  1  0.250000  0.709545  0.002233  1
  Sr  Sr11  1  0.750000  0.209773  0.166845  1
  Ga  Ga12  1  0.250000  0.417974  0.563362  1
  Ga  Ga13  1  0.250000  0.080327  0.395529  1
  Ga  Ga14  1  0.250000  0.080390  0.064738  1
  Ga  Ga15  1  0.250000  0.419845  0.896548  1
  Sn  Sn16  1  0.750000  0.916275  0.728605  1
  Ge  Ge17  1  0.750000  0.581997  0.106708  1
  Ge  Ge18  1  0.250000  0.418072  0.772178  1
  Ge  Ge19  1  0.750000  0.581673  0.226877  1
  Ge  Ge20  1  0.750000  0.583171  0.436095  1
  Ge  Ge21  1  0.750000  0.916518  0.936554  1
  Ge  Ge22  1  0.250000  0.082527  0.271579  1
  Ge  Ge23  1  0.750000  0.917222  0.603381  1
  Au  Au24  1  0.250000  0.091466  0.592416  1
  Au  Au25  1  0.250000  0.099317  0.740808  1
  Au  Au26  1  0.750000  0.585149  0.907471  1
  Au  Au27  1  0.750000  0.914723  0.406477  1
  Au  Au28  1  0.750000  0.575805  0.564929  1
  Au  Au29  1  0.750000  0.575923  0.762304  1
  Au  Au30  1  0.250000  0.413601  0.430416  1
  Au  Au31  1  0.250000  0.415764  0.238724  1
  Au  Au32  1  0.750000  0.923742  0.066298  1
  Au  Au33  1  0.250000  0.408200  0.093271  1
  Au  Au34  1  0.250000  0.086702  0.931015  1
  Au  Au35  1  0.750000  0.916396  0.261296  1
