# generated using pymatgen
data_Yb(EuB8)3
_symmetry_space_group_name_H-M   'P 1'
_cell_length_a   7.21461500
_cell_length_b   7.21461478
_cell_length_c   5.87998200
_cell_angle_alpha   90.00000000
_cell_angle_beta   90.00000000
_cell_angle_gamma   109.53185136
_symmetry_Int_Tables_number   1
_chemical_formula_structural   Yb(EuB8)3
_chemical_formula_sum   'Yb1 Eu3 B24'
_cell_volume   288.44517969
_cell_formula_units_Z   1
loop_
 _symmetry_equiv_pos_site_id
 _symmetry_equiv_pos_as_xyz
  1  'x, y, z'
loop_
 _atom_site_type_symbol
 _atom_site_label
 _atom_site_symmetry_multiplicity
 _atom_site_fract_x
 _atom_site_fract_y
 _atom_site_fract_z
 _atom_site_occupancy
  Yb  Yb0  1  0.000000  0.000000  0.000000  1
  Eu  Eu1  1  0.751681  0.248319  0.500000  1
  Eu  Eu2  1  0.500000  0.500000  0.000000  1
  Eu  Eu3  1  0.248319  0.751681  0.500000  1
  B  B4  1  0.175636  0.324587  0.649753  1
  B  B5  1  0.924915  0.574343  0.149283  1
  B  B6  1  0.675413  0.824364  0.649753  1
  B  B7  1  0.425657  0.075085  0.149283  1
  B  B8  1  0.175636  0.324587  0.350247  1
  B  B9  1  0.924915  0.574343  0.850717  1
  B  B10  1  0.675413  0.824364  0.350247  1
  B  B11  1  0.425657  0.075085  0.850717  1
  B  B12  1  0.399326  0.399326  0.500000  1
  B  B13  1  0.148333  0.650321  0.000000  1
  B  B14  1  0.899294  0.899294  0.500000  1
  B  B15  1  0.650321  0.148333  0.000000  1
  B  B16  1  0.324587  0.175636  0.649753  1
  B  B17  1  0.075085  0.425657  0.149283  1
  B  B18  1  0.824364  0.675413  0.649753  1
  B  B19  1  0.574343  0.924915  0.149283  1
  B  B20  1  0.100706  0.100706  0.500000  1
  B  B21  1  0.851667  0.349679  0.000000  1
  B  B22  1  0.600674  0.600674  0.500000  1
  B  B23  1  0.349679  0.851667  0.000000  1
  B  B24  1  0.324587  0.175636  0.350247  1
  B  B25  1  0.075085  0.425657  0.850717  1
  B  B26  1  0.824364  0.675413  0.350247  1
  B  B27  1  0.574343  0.924915  0.850717  1
