# generated using pymatgen
data_Ti2Nb4Re5Si6W
_symmetry_space_group_name_H-M   'P 1'
_cell_length_a   7.61130991
_cell_length_b   7.61190725
_cell_length_c   7.61190773
_cell_angle_alpha   126.06696719
_cell_angle_beta   128.54773142
_cell_angle_gamma   77.76835611
_symmetry_Int_Tables_number   1
_chemical_formula_structural   Ti2Nb4Re5Si6W
_chemical_formula_sum   'Ti2 Nb4 Re5 Si6 W1'
_cell_volume   270.28787147
_cell_formula_units_Z   1
loop_
 _symmetry_equiv_pos_site_id
 _symmetry_equiv_pos_as_xyz
  1  'x, y, z'
loop_
 _atom_site_type_symbol
 _atom_site_label
 _atom_site_symmetry_multiplicity
 _atom_site_fract_x
 _atom_site_fract_y
 _atom_site_fract_z
 _atom_site_occupancy
  Ti  Ti0  1  0.553177  0.096303  0.042245  1
  Ti  Ti1  1  0.446823  0.489070  0.543127  1
  Nb  Nb2  1  0.947832  0.491446  0.040600  1
  Nb  Nb3  1  0.052168  0.092767  0.543613  1
  Nb  Nb4  1  0.752747  0.906384  0.651742  1
  Nb  Nb5  1  0.247253  0.898996  0.153637  1
  Re  Re6  1  0.000000  0.242925  0.242925  1
  Re  Re7  1  0.131697  0.755095  0.628200  1
  Re  Re8  1  0.868303  0.496503  0.623400  1
  Re  Re9  1  0.626806  0.755998  0.123642  1
  Re  Re10  1  0.373194  0.496835  0.129192  1
  Si  Si11  1  0.751218  0.501530  0.251349  1
  Si  Si12  1  0.248782  0.500131  0.750311  1
  Si  Si13  1  0.338377  0.823987  0.501454  1
  Si  Si14  1  0.661623  0.163076  0.485608  1
  Si  Si15  1  0.823971  0.827406  0.988110  1
  Si  Si16  1  0.176029  0.164139  0.003435  1
  W  W17  1  0.500000  0.239610  0.739610  1
