# generated using pymatgen
data_Cr2(SeO4)3
_symmetry_space_group_name_H-M   'P 1'
_cell_length_a   9.21442503
_cell_length_b   9.21392376
_cell_length_c   9.21446679
_cell_angle_alpha   55.57452397
_cell_angle_beta   55.57575895
_cell_angle_gamma   55.57503520
_symmetry_Int_Tables_number   1
_chemical_formula_structural   Cr2(SeO4)3
_chemical_formula_sum   'Cr4 Se6 O24'
_cell_volume   496.36760381
_cell_formula_units_Z   2
loop_
 _symmetry_equiv_pos_site_id
 _symmetry_equiv_pos_as_xyz
  1  'x, y, z'
loop_
 _atom_site_type_symbol
 _atom_site_label
 _atom_site_symmetry_multiplicity
 _atom_site_fract_x
 _atom_site_fract_y
 _atom_site_fract_z
 _atom_site_occupancy
  Cr  Cr0  1  0.143339  0.143403  0.143481  1
  Cr  Cr1  1  0.348863  0.348870  0.348991  1
  Cr  Cr2  1  0.651137  0.651130  0.651009  1
  Cr  Cr3  1  0.856661  0.856597  0.856519  1
  Se  Se4  1  0.750789  0.036374  0.459982  1
  Se  Se5  1  0.963694  0.540003  0.249107  1
  Se  Se6  1  0.539937  0.249193  0.963687  1
  Se  Se7  1  0.460063  0.750807  0.036313  1
  Se  Se8  1  0.036306  0.459997  0.750893  1
  Se  Se9  1  0.249211  0.963626  0.540018  1
  O  O10  1  0.523033  0.203236  0.176566  1
  O  O11  1  0.203195  0.176517  0.523150  1
  O  O12  1  0.800177  0.019186  0.618658  1
  O  O13  1  0.888475  0.131203  0.243535  1
  O  O14  1  0.176562  0.523054  0.203210  1
  O  O15  1  0.756415  0.111533  0.868859  1
  O  O16  1  0.980902  0.381264  0.199760  1
  O  O17  1  0.524759  0.178559  0.495892  1
  O  O18  1  0.821505  0.504153  0.475124  1
  O  O19  1  0.381193  0.199844  0.980906  1
  O  O20  1  0.868876  0.756465  0.111396  1
  O  O21  1  0.504148  0.475203  0.821454  1
  O  O22  1  0.495852  0.524797  0.178546  1
  O  O23  1  0.131124  0.243535  0.888604  1
  O  O24  1  0.618807  0.800156  0.019094  1
  O  O25  1  0.178495  0.495847  0.524876  1
  O  O26  1  0.475241  0.821441  0.504108  1
  O  O27  1  0.019098  0.618736  0.800240  1
  O  O28  1  0.243585  0.888467  0.131141  1
  O  O29  1  0.823438  0.476946  0.796790  1
  O  O30  1  0.111525  0.868797  0.756465  1
  O  O31  1  0.199823  0.980814  0.381342  1
  O  O32  1  0.796805  0.823483  0.476850  1
  O  O33  1  0.476967  0.796764  0.823434  1
