# generated using pymatgen
data_HoTm7(TcB6)4
_symmetry_space_group_name_H-M   'P 1'
_cell_length_a   3.64629100
_cell_length_b   9.09544800
_cell_length_c   11.45879100
_cell_angle_alpha   89.99853925
_cell_angle_beta   90.00005643
_cell_angle_gamma   89.99990876
_symmetry_Int_Tables_number   1
_chemical_formula_structural   HoTm7(TcB6)4
_chemical_formula_sum   'Ho1 Tm7 Tc4 B24'
_cell_volume   380.02679498
_cell_formula_units_Z   1
loop_
 _symmetry_equiv_pos_site_id
 _symmetry_equiv_pos_as_xyz
  1  'x, y, z'
loop_
 _atom_site_type_symbol
 _atom_site_label
 _atom_site_symmetry_multiplicity
 _atom_site_fract_x
 _atom_site_fract_y
 _atom_site_fract_z
 _atom_site_occupancy
  Ho  Ho0  1  0.999999  0.323537  0.414189  1
  Tm  Tm1  1  0.999998  0.676366  0.585805  1
  Tm  Tm2  1  0.000002  0.823702  0.085686  1
  Tm  Tm3  1  0.999999  0.176277  0.914277  1
  Tm  Tm4  1  0.999999  0.942867  0.369376  1
  Tm  Tm5  1  0.000002  0.056930  0.630692  1
  Tm  Tm6  1  0.000000  0.443009  0.130386  1
  Tm  Tm7  1  0.000001  0.557093  0.869596  1
  Tc  Tc8  1  0.000000  0.639325  0.320234  1
  Tc  Tc9  1  0.999999  0.361064  0.680003  1
  Tc  Tc10  1  0.999999  0.138708  0.179251  1
  Tc  Tc11  1  0.000001  0.861031  0.820441  1
  B  B12  1  0.500002  0.553691  0.433340  1
  B  B13  1  0.500000  0.446944  0.567027  1
  B  B14  1  0.499999  0.053137  0.066460  1
  B  B15  1  0.499999  0.946712  0.933388  1
  B  B16  1  0.500000  0.750020  0.419193  1
  B  B17  1  0.500000  0.250042  0.581402  1
  B  B18  1  0.499999  0.249829  0.080605  1
  B  B19  1  0.500001  0.750175  0.919211  1
  B  B20  1  0.500000  0.792789  0.264650  1
  B  B21  1  0.500000  0.207218  0.735514  1
  B  B22  1  0.499999  0.292515  0.234788  1
  B  B23  1  0.500001  0.707300  0.764819  1
  B  B24  1  0.500000  0.630866  0.184593  1
  B  B25  1  0.499999  0.369335  0.815428  1
  B  B26  1  0.500000  0.130339  0.314893  1
  B  B27  1  0.500001  0.869252  0.684795  1
  B  B28  1  0.500000  0.981278  0.211546  1
  B  B29  1  0.499999  0.018530  0.788393  1
  B  B30  1  0.500000  0.481905  0.287978  1
  B  B31  1  0.500001  0.518709  0.711910  1
  B  B32  1  0.499999  0.599782  0.027756  1
  B  B33  1  0.500000  0.400301  0.972204  1
  B  B34  1  0.500000  0.099077  0.472395  1
  B  B35  1  0.500000  0.900342  0.527776  1
