# generated using pymatgen
data_RbBe3VF9
_symmetry_space_group_name_H-M   'P 1'
_cell_length_a   6.83783900
_cell_length_b   6.83783851
_cell_length_c   9.94466000
_cell_angle_alpha   90.00000000
_cell_angle_beta   90.00000000
_cell_angle_gamma   119.99999755
_symmetry_Int_Tables_number   1
_chemical_formula_structural   RbBe3VF9
_chemical_formula_sum   'Rb2 Be6 V2 F18'
_cell_volume   402.67836119
_cell_formula_units_Z   2
loop_
 _symmetry_equiv_pos_site_id
 _symmetry_equiv_pos_as_xyz
  1  'x, y, z'
loop_
 _atom_site_type_symbol
 _atom_site_label
 _atom_site_symmetry_multiplicity
 _atom_site_fract_x
 _atom_site_fract_y
 _atom_site_fract_z
 _atom_site_occupancy
  Rb  Rb0  1  0.333333  0.666667  0.500000  1
  Rb  Rb1  1  0.333333  0.666667  0.000000  1
  Be  Be2  1  0.876611  0.270400  0.250000  1
  Be  Be3  1  0.876611  0.606211  0.750000  1
  Be  Be4  1  0.393789  0.270400  0.750000  1
  Be  Be5  1  0.729600  0.123389  0.750000  1
  Be  Be6  1  0.729600  0.606211  0.250000  1
  Be  Be7  1  0.393789  0.123389  0.250000  1
  V  V8  1  0.000000  0.000000  0.500000  1
  V  V9  1  0.000000  0.000000  0.000000  1
  F  F10  1  0.749558  0.008136  0.621657  1
  F  F11  1  0.258578  0.250442  0.621657  1
  F  F12  1  0.991864  0.741422  0.621657  1
  F  F13  1  0.991864  0.250442  0.378343  1
  F  F14  1  0.904402  0.517445  0.250000  1
  F  F15  1  0.613043  0.095598  0.250000  1
  F  F16  1  0.482555  0.386957  0.250000  1
  F  F17  1  0.482555  0.095598  0.750000  1
  F  F18  1  0.613043  0.517445  0.750000  1
  F  F19  1  0.904402  0.386957  0.750000  1
  F  F20  1  0.991864  0.250442  0.121657  1
  F  F21  1  0.258578  0.008136  0.378343  1
  F  F22  1  0.749558  0.741422  0.378343  1
  F  F23  1  0.749558  0.741422  0.121657  1
  F  F24  1  0.258578  0.008136  0.121657  1
  F  F25  1  0.749558  0.008136  0.878343  1
  F  F26  1  0.258578  0.250442  0.878343  1
  F  F27  1  0.991864  0.741422  0.878343  1
