# generated using pymatgen
data_ZnIBrO6
_symmetry_space_group_name_H-M   'P 1'
_cell_length_a   5.45133800
_cell_length_b   5.39359665
_cell_length_c   9.38723412
_cell_angle_alpha   89.51357779
_cell_angle_beta   90.00000000
_cell_angle_gamma   90.00000000
_symmetry_Int_Tables_number   1
_chemical_formula_structural   ZnIBrO6
_chemical_formula_sum   'Zn2 I2 Br2 O12'
_cell_volume   275.99649968
_cell_formula_units_Z   2
loop_
 _symmetry_equiv_pos_site_id
 _symmetry_equiv_pos_as_xyz
  1  'x, y, z'
loop_
 _atom_site_type_symbol
 _atom_site_label
 _atom_site_symmetry_multiplicity
 _atom_site_fract_x
 _atom_site_fract_y
 _atom_site_fract_z
 _atom_site_occupancy
  Zn  Zn0  1  0.911606  0.228027  0.252551  1
  Zn  Zn1  1  0.411606  0.771973  0.747449  1
  I  I2  1  0.017162  0.269136  0.600854  1
  I  I3  1  0.517162  0.730864  0.399146  1
  Br  Br4  1  0.522422  0.266029  0.933287  1
  Br  Br5  1  0.022422  0.733971  0.066713  1
  O  O6  1  0.697483  0.441356  0.398676  1
  O  O7  1  0.197483  0.558644  0.601324  1
  O  O8  1  0.628982  0.855344  0.569462  1
  O  O9  1  0.128982  0.144656  0.430538  1
  O  O10  1  0.696591  0.914258  0.271812  1
  O  O11  1  0.196591  0.085742  0.728188  1
  O  O12  1  0.185197  0.647509  0.922514  1
  O  O13  1  0.685197  0.352491  0.077486  1
  O  O14  1  0.131784  0.535097  0.195275  1
  O  O15  1  0.631784  0.464903  0.804725  1
  O  O16  1  0.145775  0.009755  0.115721  1
  O  O17  1  0.645775  0.990245  0.884279  1
