# generated using pymatgen
data_LiYbGePd3
_symmetry_space_group_name_H-M   'P 1'
_cell_length_a   5.07780414
_cell_length_b   5.07780360
_cell_length_c   5.07780201
_cell_angle_alpha   66.27606501
_cell_angle_beta   66.27606665
_cell_angle_gamma   66.27607544
_symmetry_Int_Tables_number   1
_chemical_formula_structural   LiYbGePd3
_chemical_formula_sum   'Li1 Yb1 Ge1 Pd3'
_cell_volume   105.12031852
_cell_formula_units_Z   1
loop_
 _symmetry_equiv_pos_site_id
 _symmetry_equiv_pos_as_xyz
  1  'x, y, z'
loop_
 _atom_site_type_symbol
 _atom_site_label
 _atom_site_symmetry_multiplicity
 _atom_site_fract_x
 _atom_site_fract_y
 _atom_site_fract_z
 _atom_site_occupancy
  Li  Li0  1  0.865870  0.865870  0.865870  1
  Yb  Yb1  1  0.122078  0.122078  0.122078  1
  Ge  Ge2  1  0.503708  0.503708  0.503708  1
  Pd  Pd3  1  0.503021  0.503021  0.002301  1
  Pd  Pd4  1  0.002301  0.503021  0.503021  1
  Pd  Pd5  1  0.503021  0.002301  0.503021  1
