# generated using pymatgen
data_YLu2Sn3HgIr2
_symmetry_space_group_name_H-M   'P 1'
_cell_length_a   7.62888405
_cell_length_b   7.58557796
_cell_length_c   3.96750300
_cell_angle_alpha   90.00000000
_cell_angle_beta   90.00000000
_cell_angle_gamma   120.01191198
_symmetry_Int_Tables_number   1
_chemical_formula_structural   YLu2Sn3HgIr2
_chemical_formula_sum   'Y1 Lu2 Sn3 Hg1 Ir2'
_cell_volume   198.81330449
_cell_formula_units_Z   1
loop_
 _symmetry_equiv_pos_site_id
 _symmetry_equiv_pos_as_xyz
  1  'x, y, z'
loop_
 _atom_site_type_symbol
 _atom_site_label
 _atom_site_symmetry_multiplicity
 _atom_site_fract_x
 _atom_site_fract_y
 _atom_site_fract_z
 _atom_site_occupancy
  Y  Y0  1  0.978878  0.389226  0.500000  1
  Lu  Lu1  1  0.615161  0.589186  0.500000  1
  Lu  Lu2  1  0.410111  0.026374  0.500000  1
  Sn  Sn3  1  0.993506  0.742119  0.000000  1
  Sn  Sn4  1  0.256094  0.249986  0.000000  1
  Sn  Sn5  1  0.749415  0.005191  0.000000  1
  Hg  Hg6  1  0.337065  0.669595  0.000000  1
  Ir  Ir7  1  0.659860  0.331605  0.000000  1
  Ir  Ir8  1  0.999911  0.996719  0.500000  1
