# generated using pymatgen
data_MoRuCl6
_symmetry_space_group_name_H-M   'P 1'
_cell_length_a   5.81749300
_cell_length_b   6.70818100
_cell_length_c   11.54442500
_cell_angle_alpha   90.00000000
_cell_angle_beta   90.00000000
_cell_angle_gamma   90.00000000
_symmetry_Int_Tables_number   1
_chemical_formula_structural   MoRuCl6
_chemical_formula_sum   'Mo2 Ru2 Cl12'
_cell_volume   450.51883068
_cell_formula_units_Z   2
loop_
 _symmetry_equiv_pos_site_id
 _symmetry_equiv_pos_as_xyz
  1  'x, y, z'
loop_
 _atom_site_type_symbol
 _atom_site_label
 _atom_site_symmetry_multiplicity
 _atom_site_fract_x
 _atom_site_fract_y
 _atom_site_fract_z
 _atom_site_occupancy
  Mo  Mo0  1  0.768998  0.744921  0.000000  1
  Mo  Mo1  1  0.268998  0.255079  0.500000  1
  Ru  Ru2  1  0.233807  0.744993  0.000000  1
  Ru  Ru3  1  0.733807  0.255007  0.500000  1
  Cl  Cl4  1  0.504500  0.548639  0.500000  1
  Cl  Cl5  1  0.994513  0.394305  0.360107  1
  Cl  Cl6  1  0.494624  0.023161  0.000000  1
  Cl  Cl7  1  0.004522  0.891694  0.147821  1
  Cl  Cl8  1  0.994513  0.394305  0.639893  1
  Cl  Cl9  1  0.004522  0.891694  0.852179  1
  Cl  Cl10  1  0.494513  0.605695  0.139893  1
  Cl  Cl11  1  0.504522  0.108306  0.647821  1
  Cl  Cl12  1  0.004500  0.451361  0.000000  1
  Cl  Cl13  1  0.994624  0.976839  0.500000  1
  Cl  Cl14  1  0.494513  0.605695  0.860107  1
  Cl  Cl15  1  0.504522  0.108306  0.352179  1
