# generated using pymatgen
data_Sc22Tc4Ir3Pt
_symmetry_space_group_name_H-M   'P 1'
_cell_length_a   9.45349906
_cell_length_b   9.53138871
_cell_length_c   9.52630077
_cell_angle_alpha   59.93614628
_cell_angle_beta   60.28800955
_cell_angle_gamma   60.23444112
_symmetry_Int_Tables_number   1
_chemical_formula_structural   Sc22Tc4Ir3Pt
_chemical_formula_sum   'Sc22 Tc4 Ir3 Pt1'
_cell_volume   609.04552181
_cell_formula_units_Z   1
loop_
 _symmetry_equiv_pos_site_id
 _symmetry_equiv_pos_as_xyz
  1  'x, y, z'
loop_
 _atom_site_type_symbol
 _atom_site_label
 _atom_site_symmetry_multiplicity
 _atom_site_fract_x
 _atom_site_fract_y
 _atom_site_fract_z
 _atom_site_occupancy
  Sc  Sc0  1  0.804496  0.801555  0.198445  1
  Sc  Sc1  1  0.195683  0.803064  0.196936  1
  Sc  Sc2  1  0.802230  0.197770  0.197770  1
  Sc  Sc3  1  0.195504  0.198445  0.801555  1
  Sc  Sc4  1  0.804317  0.196936  0.803064  1
  Sc  Sc5  1  0.197770  0.802230  0.802230  1
  Sc  Sc6  1  0.618346  0.611899  0.150194  1
  Sc  Sc7  1  0.619560  0.150194  0.611899  1
  Sc  Sc8  1  0.147904  0.616396  0.615778  1
  Sc  Sc9  1  0.619922  0.615778  0.616396  1
  Sc  Sc10  1  0.381654  0.388101  0.849806  1
  Sc  Sc11  1  0.380440  0.849806  0.388101  1
  Sc  Sc12  1  0.852096  0.383604  0.384222  1
  Sc  Sc13  1  0.380078  0.384222  0.383604  1
  Sc  Sc14  1  0.843154  0.845503  0.468312  1
  Sc  Sc15  1  0.843031  0.468312  0.845503  1
  Sc  Sc16  1  0.470112  0.842975  0.841372  1
  Sc  Sc17  1  0.845540  0.841372  0.842975  1
  Sc  Sc18  1  0.156846  0.154497  0.531688  1
  Sc  Sc19  1  0.156969  0.531688  0.154497  1
  Sc  Sc20  1  0.529888  0.157025  0.158628  1
  Sc  Sc21  1  0.154460  0.158628  0.157025  1
  Tc  Tc22  1  0.000000  0.000000  0.000000  1
  Tc  Tc23  1  0.000000  0.000000  0.500000  1
  Tc  Tc24  1  0.000000  0.500000  0.500000  1
  Tc  Tc25  1  0.500000  0.500000  0.000000  1
  Ir  Ir26  1  0.500000  0.500000  0.500000  1
  Ir  Ir27  1  0.500000  0.000000  0.500000  1
  Ir  Ir28  1  0.000000  0.500000  0.000000  1
  Pt  Pt29  1  0.500000  0.000000  0.000000  1
