# generated using pymatgen
data_Tm3Zn2(SiAu)2
_symmetry_space_group_name_H-M   'P 1'
_cell_length_a   4.20674100
_cell_length_b   6.98268494
_cell_length_c   6.86873081
_cell_angle_alpha   120.55033794
_cell_angle_beta   90.00000000
_cell_angle_gamma   90.00000000
_symmetry_Int_Tables_number   1
_chemical_formula_structural   Tm3Zn2(SiAu)2
_chemical_formula_sum   'Tm3 Zn2 Si2 Au2'
_cell_volume   173.75612688
_cell_formula_units_Z   1
loop_
 _symmetry_equiv_pos_site_id
 _symmetry_equiv_pos_as_xyz
  1  'x, y, z'
loop_
 _atom_site_type_symbol
 _atom_site_label
 _atom_site_symmetry_multiplicity
 _atom_site_fract_x
 _atom_site_fract_y
 _atom_site_fract_z
 _atom_site_occupancy
  Tm  Tm0  1  0.000000  0.422616  0.000000  1
  Tm  Tm1  1  0.000000  0.583164  0.585360  1
  Tm  Tm2  1  0.000000  0.997805  0.414640  1
  Zn  Zn3  1  0.500000  0.251096  0.251244  1
  Zn  Zn4  1  0.500000  0.999852  0.748756  1
  Si  Si5  1  0.500000  0.668697  0.342256  1
  Si  Si6  1  0.500000  0.326440  0.657744  1
  Au  Au7  1  0.000000  0.018416  0.000000  1
  Au  Au8  1  0.500000  0.732013  0.000000  1
