# generated using pymatgen
data_RbI19
_symmetry_space_group_name_H-M   'P 1'
_cell_length_a   10.30709845
_cell_length_b   12.09885625
_cell_length_c   10.32280233
_cell_angle_alpha   70.11140505
_cell_angle_beta   82.57453959
_cell_angle_gamma   88.99728903
_symmetry_Int_Tables_number   1
_chemical_formula_structural   RbI19
_chemical_formula_sum   'Rb1 I19'
_cell_volume   1199.88099023
_cell_formula_units_Z   1
loop_
 _symmetry_equiv_pos_site_id
 _symmetry_equiv_pos_as_xyz
  1  'x, y, z'
loop_
 _atom_site_type_symbol
 _atom_site_label
 _atom_site_symmetry_multiplicity
 _atom_site_fract_x
 _atom_site_fract_y
 _atom_site_fract_z
 _atom_site_occupancy
  Rb  Rb0  1  0.853668  0.659765  0.253392  1
  I  I1  1  0.352701  0.503178  0.556179  1
  I  I2  1  0.882673  0.472497  0.031043  1
  I  I3  1  0.609803  0.413002  0.542743  1
  I  I4  1  0.131870  0.568064  0.028865  1
  I  I5  1  0.065035  0.635364  0.549764  1
  I  I6  1  0.572789  0.341513  0.038024  1
  I  I7  1  0.900286  0.302191  0.513195  1
  I  I8  1  0.407062  0.680586  0.033798  1
  I  I9  1  0.167068  0.859756  0.548664  1
  I  I10  1  0.709197  0.131174  0.974016  1
  I  I11  1  0.811559  0.143564  0.398726  1
  I  I12  1  0.291298  0.896476  0.042069  1
  I  I13  1  0.262671  0.080469  0.571468  1
  I  I14  1  0.832605  0.944952  0.900989  1
  I  I15  1  0.686078  0.960773  0.289286  1
  I  I16  1  0.152688  0.111532  0.063052  1
  I  I17  1  0.658867  0.779386  0.544784  1
  I  I18  1  0.243078  0.300459  0.814411  1
  I  I19  1  0.409007  0.215300  0.305534  1
