# generated using pymatgen
data_InSn7B6Ir5Rh9
_symmetry_space_group_name_H-M   'P 1'
_cell_length_a   9.34292733
_cell_length_b   9.30909583
_cell_length_c   5.68883621
_cell_angle_alpha   90.07107122
_cell_angle_beta   89.98447585
_cell_angle_gamma   119.94915560
_symmetry_Int_Tables_number   1
_chemical_formula_structural   InSn7B6Ir5Rh9
_chemical_formula_sum   'In1 Sn7 B6 Ir5 Rh9'
_cell_volume   428.71279359
_cell_formula_units_Z   1
loop_
 _symmetry_equiv_pos_site_id
 _symmetry_equiv_pos_as_xyz
  1  'x, y, z'
loop_
 _atom_site_type_symbol
 _atom_site_label
 _atom_site_symmetry_multiplicity
 _atom_site_fract_x
 _atom_site_fract_y
 _atom_site_fract_z
 _atom_site_occupancy
  In  In0  1  0.508104  0.092876  0.749871  1
  Sn  Sn1  1  0.090251  0.588701  0.249601  1
  Sn  Sn2  1  0.904904  0.407577  0.749438  1
  Sn  Sn3  1  0.587526  0.495720  0.748257  1
  Sn  Sn4  1  0.499620  0.914134  0.248878  1
  Sn  Sn5  1  0.331499  0.668199  0.755098  1
  Sn  Sn6  1  0.411024  0.503286  0.248331  1
  Sn  Sn7  1  0.665712  0.331629  0.252999  1
  B  B8  1  0.827188  0.792513  0.250625  1
  B  B9  1  0.966456  0.172487  0.249954  1
  B  B10  1  0.209458  0.036742  0.249842  1
  B  B11  1  0.792043  0.963031  0.750463  1
  B  B12  1  0.037490  0.827397  0.750213  1
  B  B13  1  0.171419  0.207225  0.749175  1
  Ir  Ir14  1  0.349286  0.228827  0.496661  1
  Ir  Ir15  1  0.226425  0.875238  0.999088  1
  Ir  Ir16  1  0.999785  0.998911  0.501068  1
  Ir  Ir17  1  0.000866  0.999971  0.001242  1
  Ir  Ir18  1  0.648659  0.772124  0.998090  1
  Rh  Rh19  1  0.123767  0.354216  0.997500  1
  Rh  Rh20  1  0.774537  0.123317  0.496553  1
  Rh  Rh21  1  0.774311  0.124329  0.003833  1
  Rh  Rh22  1  0.645181  0.770194  0.501060  1
  Rh  Rh23  1  0.124194  0.355435  0.500583  1
  Rh  Rh24  1  0.874019  0.644460  0.001087  1
  Rh  Rh25  1  0.351814  0.230263  0.000238  1
  Rh  Rh26  1  0.228832  0.874726  0.501494  1
  Rh  Rh27  1  0.875631  0.646471  0.498758  1
