# generated using pymatgen
data_Nd4TcB16W3
_symmetry_space_group_name_H-M   'P 1'
_cell_length_a   3.69197700
_cell_length_b   6.11491226
_cell_length_c   11.84365152
_cell_angle_alpha   90.03859400
_cell_angle_beta   90.00000000
_cell_angle_gamma   90.00000000
_symmetry_Int_Tables_number   1
_chemical_formula_structural   Nd4TcB16W3
_chemical_formula_sum   'Nd4 Tc1 B16 W3'
_cell_volume   267.38358315
_cell_formula_units_Z   1
loop_
 _symmetry_equiv_pos_site_id
 _symmetry_equiv_pos_as_xyz
  1  'x, y, z'
loop_
 _atom_site_type_symbol
 _atom_site_label
 _atom_site_symmetry_multiplicity
 _atom_site_fract_x
 _atom_site_fract_y
 _atom_site_fract_z
 _atom_site_occupancy
  Nd  Nd0  1  0.000000  0.625485  0.349582  1
  Nd  Nd1  1  0.000000  0.375797  0.650486  1
  Nd  Nd2  1  0.000000  0.124996  0.150253  1
  Nd  Nd3  1  0.000000  0.875163  0.849334  1
  Tc  Tc4  1  0.000000  0.871970  0.583966  1
  B  B5  1  0.500000  0.782250  0.184762  1
  B  B6  1  0.500000  0.216942  0.814630  1
  B  B7  1  0.500000  0.281518  0.316104  1
  B  B8  1  0.500000  0.720599  0.682765  1
  B  B9  1  0.500000  0.862783  0.032204  1
  B  B10  1  0.500000  0.136975  0.966974  1
  B  B11  1  0.500000  0.361921  0.468563  1
  B  B12  1  0.500000  0.640051  0.533185  1
  B  B13  1  0.500000  0.885995  0.455517  1
  B  B14  1  0.500000  0.110588  0.547401  1
  B  B15  1  0.500000  0.387085  0.045467  1
  B  B16  1  0.500000  0.612416  0.953661  1
  B  B17  1  0.500000  0.974228  0.310253  1
  B  B18  1  0.500000  0.023963  0.689691  1
  B  B19  1  0.500000  0.474916  0.190794  1
  B  B20  1  0.500000  0.525834  0.808666  1
  W  W21  1  0.000000  0.627590  0.083665  1
  W  W22  1  0.000000  0.372074  0.915293  1
  W  W23  1  0.000000  0.128858  0.416785  1
