# generated using pymatgen
data_PuF6
_symmetry_space_group_name_H-M   'P 1'
_cell_length_a   5.40319300
_cell_length_b   9.40713900
_cell_length_c   10.21823000
_cell_angle_alpha   90.00000000
_cell_angle_beta   90.00000000
_cell_angle_gamma   90.00000000
_symmetry_Int_Tables_number   1
_chemical_formula_structural   PuF6
_chemical_formula_sum   'Pu4 F24'
_cell_volume   519.37819862
_cell_formula_units_Z   4
loop_
 _symmetry_equiv_pos_site_id
 _symmetry_equiv_pos_as_xyz
  1  'x, y, z'
loop_
 _atom_site_type_symbol
 _atom_site_label
 _atom_site_symmetry_multiplicity
 _atom_site_fract_x
 _atom_site_fract_y
 _atom_site_fract_z
 _atom_site_occupancy
  Pu  Pu0  1  0.919752  0.750000  0.629529  1
  Pu  Pu1  1  0.080248  0.250000  0.370471  1
  Pu  Pu2  1  0.419752  0.250000  0.870471  1
  Pu  Pu3  1  0.580248  0.750000  0.129529  1
  F  F4  1  0.220989  0.750000  0.515453  1
  F  F5  1  0.779011  0.250000  0.484547  1
  F  F6  1  0.720989  0.250000  0.984547  1
  F  F7  1  0.279011  0.750000  0.015453  1
  F  F8  1  0.618502  0.750000  0.744141  1
  F  F9  1  0.381498  0.250000  0.255859  1
  F  F10  1  0.118502  0.250000  0.755859  1
  F  F11  1  0.881498  0.750000  0.244141  1
  F  F12  1  0.767433  0.599419  0.518044  1
  F  F13  1  0.232567  0.400581  0.481956  1
  F  F14  1  0.267433  0.400581  0.981956  1
  F  F15  1  0.232567  0.099419  0.481956  1
  F  F16  1  0.732567  0.599419  0.018044  1
  F  F17  1  0.767433  0.900581  0.518044  1
  F  F18  1  0.732567  0.900581  0.018044  1
  F  F19  1  0.267433  0.099419  0.981956  1
  F  F20  1  0.070980  0.598888  0.740618  1
  F  F21  1  0.929020  0.401112  0.259382  1
  F  F22  1  0.570980  0.401112  0.759382  1
  F  F23  1  0.929020  0.098888  0.259382  1
  F  F24  1  0.429020  0.598888  0.240618  1
  F  F25  1  0.070980  0.901112  0.740618  1
  F  F26  1  0.429020  0.901112  0.240618  1
  F  F27  1  0.570980  0.098888  0.759382  1
