# generated using pymatgen
data_La8Dy3Tm9Pt16
_symmetry_space_group_name_H-M   'P 1'
_cell_length_a   7.68266886
_cell_length_b   7.82192509
_cell_length_c   14.87466600
_cell_angle_alpha   90.00095225
_cell_angle_beta   89.97294311
_cell_angle_gamma   89.93466124
_symmetry_Int_Tables_number   1
_chemical_formula_structural   La8Dy3Tm9Pt16
_chemical_formula_sum   'La8 Dy3 Tm9 Pt16'
_cell_volume   893.86649429
_cell_formula_units_Z   1
loop_
 _symmetry_equiv_pos_site_id
 _symmetry_equiv_pos_as_xyz
  1  'x, y, z'
loop_
 _atom_site_type_symbol
 _atom_site_label
 _atom_site_symmetry_multiplicity
 _atom_site_fract_x
 _atom_site_fract_y
 _atom_site_fract_z
 _atom_site_occupancy
  La  La0  1  0.493924  0.324476  0.901244  1
  La  La1  1  0.993953  0.175654  0.599317  1
  La  La2  1  0.506529  0.675893  0.400315  1
  La  La3  1  0.006668  0.823518  0.098858  1
  La  La4  1  0.506346  0.676483  0.099049  1
  La  La5  1  0.007560  0.822303  0.401009  1
  La  La6  1  0.492555  0.322285  0.598840  1
  La  La7  1  0.992598  0.179005  0.902424  1
  Dy  Dy8  1  0.337767  0.832898  0.877497  1
  Dy  Dy9  1  0.837950  0.667251  0.622543  1
  Dy  Dy10  1  0.661673  0.167188  0.377139  1
  Tm  Tm11  1  0.161760  0.333172  0.123318  1
  Tm  Tm12  1  0.660750  0.167687  0.122989  1
  Tm  Tm13  1  0.160667  0.331930  0.376967  1
  Tm  Tm14  1  0.339604  0.831827  0.622942  1
  Tm  Tm15  1  0.839313  0.668223  0.876897  1
  Tm  Tm16  1  0.172987  0.497506  0.749689  1
  Tm  Tm17  1  0.673311  0.003037  0.750481  1
  Tm  Tm18  1  0.827769  0.501882  0.249332  1
  Tm  Tm19  1  0.326301  0.998523  0.249791  1
  Pt  Pt20  1  0.326556  0.037185  0.047229  1
  Pt  Pt21  1  0.827945  0.464572  0.453513  1
  Pt  Pt22  1  0.672100  0.964654  0.546235  1
  Pt  Pt23  1  0.171794  0.534126  0.954626  1
  Pt  Pt24  1  0.674637  0.966112  0.954121  1
  Pt  Pt25  1  0.175088  0.534292  0.545680  1
  Pt  Pt26  1  0.325142  0.034145  0.454287  1
  Pt  Pt27  1  0.827119  0.464559  0.046277  1
  Pt  Pt28  1  0.541512  0.631716  0.750231  1
  Pt  Pt29  1  0.041652  0.868458  0.749733  1
  Pt  Pt30  1  0.457215  0.367560  0.249309  1
  Pt  Pt31  1  0.959150  0.132985  0.249058  1
  Pt  Pt32  1  0.306009  0.135623  0.749584  1
  Pt  Pt33  1  0.806342  0.364507  0.750732  1
  Pt  Pt34  1  0.693982  0.864396  0.248923  1
  Pt  Pt35  1  0.193771  0.634368  0.249825  1
