# generated using pymatgen
data_Tb11Yb(In2Au)4
_symmetry_space_group_name_H-M   'P 1'
_cell_length_a   13.28787400
_cell_length_b   13.28787322
_cell_length_c   3.78879500
_cell_angle_alpha   90.00000000
_cell_angle_beta   90.00000000
_cell_angle_gamma   110.53252063
_symmetry_Int_Tables_number   1
_chemical_formula_structural   Tb11Yb(In2Au)4
_chemical_formula_sum   'Tb11 Yb1 In8 Au4'
_cell_volume   626.48037004
_cell_formula_units_Z   1
loop_
 _symmetry_equiv_pos_site_id
 _symmetry_equiv_pos_as_xyz
  1  'x, y, z'
loop_
 _atom_site_type_symbol
 _atom_site_label
 _atom_site_symmetry_multiplicity
 _atom_site_fract_x
 _atom_site_fract_y
 _atom_site_fract_z
 _atom_site_occupancy
  Tb  Tb0  1  0.417858  0.074345  0.000000  1
  Tb  Tb1  1  0.582142  0.925655  0.000000  1
  Tb  Tb2  1  0.074348  0.417860  0.000000  1
  Tb  Tb3  1  0.925652  0.582140  0.000000  1
  Tb  Tb4  1  0.159888  0.840112  0.000000  1
  Tb  Tb5  1  0.840112  0.159888  0.000000  1
  Tb  Tb6  1  0.353485  0.646510  0.000000  1
  Tb  Tb7  1  0.646515  0.353490  0.000000  1
  Tb  Tb8  1  0.283477  0.283478  0.000000  1
  Tb  Tb9  1  0.716523  0.716522  0.000000  1
  Tb  Tb10  1  0.000000  0.000000  0.000000  1
  Yb  Yb11  1  0.500000  0.500000  0.500000  1
  In  In12  1  0.367286  0.856005  0.500000  1
  In  In13  1  0.632714  0.143995  0.500000  1
  In  In14  1  0.856033  0.367272  0.500000  1
  In  In15  1  0.143967  0.632728  0.500000  1
  In  In16  1  0.212287  0.061284  0.500000  1
  In  In17  1  0.787713  0.938716  0.500000  1
  In  In18  1  0.061286  0.212287  0.500000  1
  In  In19  1  0.938714  0.787713  0.500000  1
  Au  Au20  1  0.453689  0.257293  0.500000  1
  Au  Au21  1  0.546311  0.742707  0.500000  1
  Au  Au22  1  0.257292  0.453690  0.500000  1
  Au  Au23  1  0.742708  0.546310  0.500000  1
