# generated using pymatgen
data_Ho2VB8Rh
_symmetry_space_group_name_H-M   'P 1'
_cell_length_a   3.50283900
_cell_length_b   5.97085743
_cell_length_c   11.56157459
_cell_angle_alpha   90.30720669
_cell_angle_beta   90.00000000
_cell_angle_gamma   90.00000000
_symmetry_Int_Tables_number   1
_chemical_formula_structural   Ho2VB8Rh
_chemical_formula_sum   'Ho4 V2 B16 Rh2'
_cell_volume   241.80630506
_cell_formula_units_Z   2
loop_
 _symmetry_equiv_pos_site_id
 _symmetry_equiv_pos_as_xyz
  1  'x, y, z'
loop_
 _atom_site_type_symbol
 _atom_site_label
 _atom_site_symmetry_multiplicity
 _atom_site_fract_x
 _atom_site_fract_y
 _atom_site_fract_z
 _atom_site_occupancy
  Ho  Ho0  1  0.500000  0.124599  0.648269  1
  Ho  Ho1  1  0.500000  0.875401  0.351731  1
  Ho  Ho2  1  0.500000  0.630400  0.847980  1
  Ho  Ho3  1  0.500000  0.369600  0.152020  1
  V  V4  1  0.500000  0.625921  0.584304  1
  V  V5  1  0.500000  0.374079  0.415696  1
  B  B6  1  0.000000  0.476067  0.692458  1
  B  B7  1  0.000000  0.523933  0.307542  1
  B  B8  1  0.000000  0.974798  0.806926  1
  B  B9  1  0.000000  0.025202  0.193074  1
  B  B10  1  0.000000  0.286794  0.812357  1
  B  B11  1  0.000000  0.713206  0.187643  1
  B  B12  1  0.000000  0.787073  0.686110  1
  B  B13  1  0.000000  0.212927  0.313890  1
  B  B14  1  0.000000  0.365008  0.969879  1
  B  B15  1  0.000000  0.634992  0.030121  1
  B  B16  1  0.000000  0.864885  0.532819  1
  B  B17  1  0.000000  0.135115  0.467181  1
  B  B18  1  0.000000  0.386074  0.546562  1
  B  B19  1  0.000000  0.613926  0.453438  1
  B  B20  1  0.000000  0.886620  0.952480  1
  B  B21  1  0.000000  0.113380  0.047520  1
  Rh  Rh22  1  0.500000  0.142176  0.907658  1
  Rh  Rh23  1  0.500000  0.857824  0.092342  1
