# generated using pymatgen
data_Hf16TaPt7
_symmetry_space_group_name_H-M   'P 1'
_cell_length_a   8.88212979
_cell_length_b   8.88213030
_cell_length_c   8.88213009
_cell_angle_alpha   59.80279282
_cell_angle_beta   59.80280127
_cell_angle_gamma   59.80279341
_symmetry_Int_Tables_number   1
_chemical_formula_structural   Hf16TaPt7
_chemical_formula_sum   'Hf16 Ta1 Pt7'
_cell_volume   493.27357250
_cell_formula_units_Z   1
loop_
 _symmetry_equiv_pos_site_id
 _symmetry_equiv_pos_as_xyz
  1  'x, y, z'
loop_
 _atom_site_type_symbol
 _atom_site_label
 _atom_site_symmetry_multiplicity
 _atom_site_fract_x
 _atom_site_fract_y
 _atom_site_fract_z
 _atom_site_occupancy
  Hf  Hf0  1  0.162383  0.610062  0.610062  1
  Hf  Hf1  1  0.610062  0.162383  0.610062  1
  Hf  Hf2  1  0.610062  0.610062  0.162383  1
  Hf  Hf3  1  0.627173  0.627173  0.627173  1
  Hf  Hf4  1  0.814477  0.814477  0.174127  1
  Hf  Hf5  1  0.182193  0.182193  0.815678  1
  Hf  Hf6  1  0.814477  0.174127  0.814477  1
  Hf  Hf7  1  0.182193  0.815678  0.182193  1
  Hf  Hf8  1  0.174127  0.814477  0.814477  1
  Hf  Hf9  1  0.815678  0.182193  0.182193  1
  Hf  Hf10  1  0.440730  0.440730  0.056706  1
  Hf  Hf11  1  0.051502  0.051502  0.453719  1
  Hf  Hf12  1  0.440730  0.056706  0.440730  1
  Hf  Hf13  1  0.051502  0.453719  0.051502  1
  Hf  Hf14  1  0.056706  0.440730  0.440730  1
  Hf  Hf15  1  0.453719  0.051502  0.051502  1
  Ta  Ta16  1  0.831126  0.831126  0.831126  1
  Pt  Pt17  1  0.800908  0.405890  0.405890  1
  Pt  Pt18  1  0.405890  0.800908  0.405890  1
  Pt  Pt19  1  0.405890  0.405890  0.800908  1
  Pt  Pt20  1  0.394804  0.394804  0.394804  1
  Pt  Pt21  1  0.472428  0.850617  0.850617  1
  Pt  Pt22  1  0.850617  0.472428  0.850617  1
  Pt  Pt23  1  0.850617  0.850617  0.472428  1
