# generated using pymatgen
data_YbDy6Y(B6Ru)4
_symmetry_space_group_name_H-M   'P 1'
_cell_length_a   3.66323600
_cell_length_b   9.14307014
_cell_length_c   11.52384910
_cell_angle_alpha   89.90198610
_cell_angle_beta   90.00000000
_cell_angle_gamma   90.00000000
_symmetry_Int_Tables_number   1
_chemical_formula_structural   YbDy6Y(B6Ru)4
_chemical_formula_sum   'Yb1 Dy6 Y1 B24 Ru4'
_cell_volume   385.97029078
_cell_formula_units_Z   1
loop_
 _symmetry_equiv_pos_site_id
 _symmetry_equiv_pos_as_xyz
  1  'x, y, z'
loop_
 _atom_site_type_symbol
 _atom_site_label
 _atom_site_symmetry_multiplicity
 _atom_site_fract_x
 _atom_site_fract_y
 _atom_site_fract_z
 _atom_site_occupancy
  Yb  Yb0  1  0.000000  0.676418  0.586121  1
  Dy  Dy1  1  0.000000  0.822279  0.085251  1
  Dy  Dy2  1  0.000000  0.177281  0.913748  1
  Dy  Dy3  1  0.000000  0.941600  0.371689  1
  Dy  Dy4  1  0.000000  0.056217  0.629161  1
  Dy  Dy5  1  0.000000  0.443631  0.128158  1
  Dy  Dy6  1  0.000000  0.557357  0.870107  1
  Y  Y7  1  0.000000  0.324049  0.415240  1
  B  B8  1  0.500000  0.554435  0.432797  1
  B  B9  1  0.500000  0.446328  0.567607  1
  B  B10  1  0.500000  0.054037  0.067401  1
  B  B11  1  0.500000  0.946603  0.933240  1
  B  B12  1  0.500000  0.747433  0.419015  1
  B  B13  1  0.500000  0.252171  0.581184  1
  B  B14  1  0.500000  0.247927  0.080548  1
  B  B15  1  0.500000  0.752717  0.919172  1
  B  B16  1  0.500000  0.789788  0.265807  1
  B  B17  1  0.500000  0.209128  0.734077  1
  B  B18  1  0.500000  0.290101  0.233767  1
  B  B19  1  0.500000  0.710596  0.766113  1
  B  B20  1  0.500000  0.631463  0.184949  1
  B  B21  1  0.500000  0.368262  0.814079  1
  B  B22  1  0.500000  0.131099  0.314623  1
  B  B23  1  0.500000  0.868743  0.686001  1
  B  B24  1  0.500000  0.983443  0.212452  1
  B  B25  1  0.500000  0.016421  0.788281  1
  B  B26  1  0.500000  0.483949  0.287586  1
  B  B27  1  0.500000  0.516159  0.711946  1
  B  B28  1  0.500000  0.607884  0.029411  1
  B  B29  1  0.500000  0.392071  0.969902  1
  B  B30  1  0.500000  0.105399  0.470839  1
  B  B31  1  0.500000  0.895384  0.529084  1
  Ru  Ru32  1  0.000000  0.637825  0.320076  1
  Ru  Ru33  1  0.000000  0.360920  0.679424  1
  Ru  Ru34  1  0.000000  0.137400  0.178764  1
  Ru  Ru35  1  0.000000  0.863484  0.822382  1
