# generated using pymatgen
data_TbHoTc2F14
_symmetry_space_group_name_H-M   'P 1'
_cell_length_a   5.58976100
_cell_length_b   8.90386446
_cell_length_c   12.02837942
_cell_angle_alpha   62.56340425
_cell_angle_beta   90.00000000
_cell_angle_gamma   90.00000000
_symmetry_Int_Tables_number   1
_chemical_formula_structural   TbHoTc2F14
_chemical_formula_sum   'Tb2 Ho2 Tc4 F28'
_cell_volume   531.32183870
_cell_formula_units_Z   2
loop_
 _symmetry_equiv_pos_site_id
 _symmetry_equiv_pos_as_xyz
  1  'x, y, z'
loop_
 _atom_site_type_symbol
 _atom_site_label
 _atom_site_symmetry_multiplicity
 _atom_site_fract_x
 _atom_site_fract_y
 _atom_site_fract_z
 _atom_site_occupancy
  Tb  Tb0  1  0.758801  0.812710  0.764939  1
  Tb  Tb1  1  0.258801  0.187290  0.735061  1
  Ho  Ho2  1  0.241231  0.185862  0.235395  1
  Ho  Ho3  1  0.741231  0.814138  0.264605  1
  Tc  Tc4  1  0.757561  0.271945  0.958331  1
  Tc  Tc5  1  0.257561  0.728055  0.541669  1
  Tc  Tc6  1  0.242026  0.726277  0.044534  1
  Tc  Tc7  1  0.742026  0.273723  0.455466  1
  F  F8  1  0.442418  0.706204  0.918396  1
  F  F9  1  0.942418  0.293796  0.581604  1
  F  F10  1  0.555725  0.292778  0.083523  1
  F  F11  1  0.055725  0.707222  0.416477  1
  F  F12  1  0.446790  0.277853  0.544151  1
  F  F13  1  0.946790  0.722147  0.955849  1
  F  F14  1  0.553766  0.724040  0.453287  1
  F  F15  1  0.053766  0.275960  0.046713  1
  F  F16  1  0.774601  0.519360  0.860371  1
  F  F17  1  0.274601  0.480640  0.639629  1
  F  F18  1  0.226260  0.478355  0.141362  1
  F  F19  1  0.726260  0.521645  0.358638  1
  F  F20  1  0.755713  0.025339  0.053826  1
  F  F21  1  0.255713  0.974661  0.446174  1
  F  F22  1  0.243882  0.972774  0.948216  1
  F  F23  1  0.743882  0.027226  0.551784  1
  F  F24  1  0.973228  0.727956  0.637549  1
  F  F25  1  0.473228  0.272044  0.862451  1
  F  F26  1  0.026262  0.271359  0.360134  1
  F  F27  1  0.526262  0.728641  0.139866  1
  F  F28  1  0.045638  0.746608  0.173385  1
  F  F29  1  0.545638  0.253392  0.326615  1
  F  F30  1  0.951906  0.253315  0.828275  1
  F  F31  1  0.451906  0.746685  0.671725  1
  F  F32  1  0.420248  0.971579  0.232530  1
  F  F33  1  0.920248  0.028421  0.267470  1
  F  F34  1  0.583943  0.030386  0.768265  1
  F  F35  1  0.083943  0.969614  0.731735  1
