# generated using pymatgen
data_Er2Lu2Ga18PtRh5
_symmetry_space_group_name_H-M   'P 1'
_cell_length_a   7.57391299
_cell_length_b   7.57261441
_cell_length_c   9.46952202
_cell_angle_alpha   90.03046499
_cell_angle_beta   90.05161118
_cell_angle_gamma   119.94432806
_symmetry_Int_Tables_number   1
_chemical_formula_structural   Er2Lu2Ga18PtRh5
_chemical_formula_sum   'Er2 Lu2 Ga18 Pt1 Rh5'
_cell_volume   470.61715146
_cell_formula_units_Z   1
loop_
 _symmetry_equiv_pos_site_id
 _symmetry_equiv_pos_as_xyz
  1  'x, y, z'
loop_
 _atom_site_type_symbol
 _atom_site_label
 _atom_site_symmetry_multiplicity
 _atom_site_fract_x
 _atom_site_fract_y
 _atom_site_fract_z
 _atom_site_occupancy
  Er  Er0  1  0.996749  0.670158  0.250451  1
  Er  Er1  1  0.003251  0.329842  0.749549  1
  Lu  Lu2  1  0.670181  0.996829  0.250521  1
  Lu  Lu3  1  0.329819  0.003171  0.749479  1
  Ga  Ga4  1  0.338234  0.549233  0.250484  1
  Ga  Ga5  1  0.661766  0.450767  0.749516  1
  Ga  Ga6  1  0.548708  0.337706  0.250462  1
  Ga  Ga7  1  0.451292  0.662294  0.749538  1
  Ga  Ga8  1  0.998093  0.337453  0.082437  1
  Ga  Ga9  1  0.001907  0.662547  0.917563  1
  Ga  Ga10  1  0.001767  0.665799  0.580277  1
  Ga  Ga11  1  0.335810  0.999022  0.420306  1
  Ga  Ga12  1  0.998233  0.334201  0.419723  1
  Ga  Ga13  1  0.664190  0.000978  0.579694  1
  Ga  Ga14  1  0.661028  0.001203  0.918059  1
  Ga  Ga15  1  0.338972  0.998797  0.081941  1
  Ga  Ga16  1  0.332308  0.331558  0.567125  1
  Ga  Ga17  1  0.667692  0.668442  0.432875  1
  Ga  Ga18  1  0.663249  0.663989  0.069007  1
  Ga  Ga19  1  0.336751  0.336011  0.930993  1
  Ga  Ga20  1  0.130143  0.130210  0.252768  1
  Ga  Ga21  1  0.869857  0.869790  0.747232  1
  Pt  Pt22  1  0.000000  0.000000  0.000000  1
  Rh  Rh23  1  0.671548  0.329388  0.999993  1
  Rh  Rh24  1  0.328452  0.670612  0.000007  1
  Rh  Rh25  1  0.328055  0.670772  0.500038  1
  Rh  Rh26  1  0.671945  0.329228  0.499962  1
  Rh  Rh27  1  0.000000  0.000000  0.500000  1
