# generated using pymatgen
data_Nb8CoTe8P
_symmetry_space_group_name_H-M   'P 1'
_cell_length_a   4.87295200
_cell_length_b   11.28589700
_cell_length_c   19.95126200
_cell_angle_alpha   90.00000000
_cell_angle_beta   90.00000000
_cell_angle_gamma   90.00000000
_symmetry_Int_Tables_number   1
_chemical_formula_structural   Nb8CoTe8P
_chemical_formula_sum   'Nb16 Co2 Te16 P2'
_cell_volume   1097.23230993
_cell_formula_units_Z   2
loop_
 _symmetry_equiv_pos_site_id
 _symmetry_equiv_pos_as_xyz
  1  'x, y, z'
loop_
 _atom_site_type_symbol
 _atom_site_label
 _atom_site_symmetry_multiplicity
 _atom_site_fract_x
 _atom_site_fract_y
 _atom_site_fract_z
 _atom_site_occupancy
  Nb  Nb0  1  0.500111  0.562136  0.389310  1
  Nb  Nb1  1  0.500111  0.437864  0.610690  1
  Nb  Nb2  1  0.499889  0.062136  0.110690  1
  Nb  Nb3  1  0.499889  0.937864  0.889310  1
  Nb  Nb4  1  0.500012  0.696004  0.534810  1
  Nb  Nb5  1  0.500012  0.303996  0.465190  1
  Nb  Nb6  1  0.499988  0.196004  0.965190  1
  Nb  Nb7  1  0.499988  0.803996  0.034810  1
  Nb  Nb8  1  0.000809  0.682453  0.446306  1
  Nb  Nb9  1  0.000809  0.317547  0.553694  1
  Nb  Nb10  1  0.999191  0.182453  0.053694  1
  Nb  Nb11  1  0.999191  0.817547  0.946306  1
  Nb  Nb12  1  0.000324  0.405567  0.397052  1
  Nb  Nb13  1  0.000324  0.594433  0.602948  1
  Nb  Nb14  1  0.999676  0.905567  0.102948  1
  Nb  Nb15  1  0.999676  0.094433  0.897052  1
  Co  Co16  1  0.250071  0.500000  0.500000  1
  Co  Co17  1  0.749929  0.000000  0.000000  1
  Te  Te18  1  0.007857  0.834859  0.559934  1
  Te  Te19  1  0.007857  0.165141  0.440066  1
  Te  Te20  1  0.992143  0.334859  0.940066  1
  Te  Te21  1  0.992143  0.665141  0.059934  1
  Te  Te22  1  0.492405  0.338075  0.324015  1
  Te  Te23  1  0.492405  0.661925  0.675985  1
  Te  Te24  1  0.507595  0.838075  0.175985  1
  Te  Te25  1  0.507595  0.161925  0.824015  1
  Te  Te26  1  0.493016  0.812166  0.408258  1
  Te  Te27  1  0.493016  0.187834  0.591742  1
  Te  Te28  1  0.506984  0.312166  0.091742  1
  Te  Te29  1  0.506984  0.687834  0.908258  1
  Te  Te30  1  0.008087  0.605938  0.310463  1
  Te  Te31  1  0.008087  0.394062  0.689537  1
  Te  Te32  1  0.991913  0.105938  0.189537  1
  Te  Te33  1  0.991913  0.894062  0.810463  1
  P  P34  1  0.750231  0.500000  0.500000  1
  P  P35  1  0.249769  0.000000  0.000000  1
