# generated using pymatgen
data_Lu4MnTc2Ru5
_symmetry_space_group_name_H-M   'P 1'
_cell_length_a   5.30371116
_cell_length_b   5.20846994
_cell_length_c   8.91144600
_cell_angle_alpha   90.00000000
_cell_angle_beta   90.00000000
_cell_angle_gamma   121.87781459
_symmetry_Int_Tables_number   1
_chemical_formula_structural   Lu4MnTc2Ru5
_chemical_formula_sum   'Lu4 Mn1 Tc2 Ru5'
_cell_volume   209.04319745
_cell_formula_units_Z   1
loop_
 _symmetry_equiv_pos_site_id
 _symmetry_equiv_pos_as_xyz
  1  'x, y, z'
loop_
 _atom_site_type_symbol
 _atom_site_label
 _atom_site_symmetry_multiplicity
 _atom_site_fract_x
 _atom_site_fract_y
 _atom_site_fract_z
 _atom_site_occupancy
  Lu  Lu0  1  0.332451  0.660991  0.435602  1
  Lu  Lu1  1  0.667602  0.337170  0.566531  1
  Lu  Lu2  1  0.667602  0.337170  0.933469  1
  Lu  Lu3  1  0.332451  0.660991  0.064398  1
  Mn  Mn4  1  0.165216  0.331219  0.750000  1
  Tc  Tc5  1  0.346049  0.176911  0.250000  1
  Tc  Tc6  1  0.832018  0.671061  0.250000  1
  Ru  Ru7  1  0.175296  0.828773  0.750000  1
  Ru  Ru8  1  0.650664  0.827616  0.750000  1
  Ru  Ru9  1  0.002747  0.996571  0.996369  1
  Ru  Ru10  1  0.825156  0.174959  0.250000  1
  Ru  Ru11  1  0.002747  0.996571  0.503631  1
