# generated using pymatgen
data_Tb3P6Rh8W
_symmetry_space_group_name_H-M   'P 1'
_cell_length_a   3.94195200
_cell_length_b   11.12757500
_cell_length_c   12.85041400
_cell_angle_alpha   90.00000000
_cell_angle_beta   90.00000000
_cell_angle_gamma   90.00000000
_symmetry_Int_Tables_number   1
_chemical_formula_structural   Tb3P6Rh8W
_chemical_formula_sum   'Tb6 P12 Rh16 W2'
_cell_volume   563.67526971
_cell_formula_units_Z   2
loop_
 _symmetry_equiv_pos_site_id
 _symmetry_equiv_pos_as_xyz
  1  'x, y, z'
loop_
 _atom_site_type_symbol
 _atom_site_label
 _atom_site_symmetry_multiplicity
 _atom_site_fract_x
 _atom_site_fract_y
 _atom_site_fract_z
 _atom_site_occupancy
  Tb  Tb0  1  0.000000  0.500000  0.521407  1
  Tb  Tb1  1  0.500000  0.000000  0.478593  1
  Tb  Tb2  1  0.500000  0.816713  0.202952  1
  Tb  Tb3  1  0.500000  0.183287  0.202952  1
  Tb  Tb4  1  0.000000  0.683287  0.797048  1
  Tb  Tb5  1  0.000000  0.316713  0.797048  1
  P  P6  1  0.500000  0.500000  0.874689  1
  P  P7  1  0.000000  0.000000  0.125311  1
  P  P8  1  0.500000  0.500000  0.345300  1
  P  P9  1  0.000000  0.000000  0.654700  1
  P  P10  1  0.500000  0.314492  0.617353  1
  P  P11  1  0.500000  0.685508  0.617353  1
  P  P12  1  0.000000  0.185508  0.382647  1
  P  P13  1  0.000000  0.814492  0.382647  1
  P  P14  1  0.500000  0.847754  0.887406  1
  P  P15  1  0.500000  0.152246  0.887406  1
  P  P16  1  0.000000  0.652246  0.112594  1
  P  P17  1  0.000000  0.347754  0.112594  1
  Rh  Rh18  1  0.500000  0.500000  0.698100  1
  Rh  Rh19  1  0.000000  0.000000  0.301900  1
  Rh  Rh20  1  0.000000  0.500000  0.988785  1
  Rh  Rh21  1  0.500000  0.000000  0.011215  1
  Rh  Rh22  1  0.500000  0.331910  0.984447  1
  Rh  Rh23  1  0.500000  0.668090  0.984447  1
  Rh  Rh24  1  0.000000  0.168090  0.015553  1
  Rh  Rh25  1  0.000000  0.831910  0.015553  1
  Rh  Rh26  1  0.500000  0.294898  0.431708  1
  Rh  Rh27  1  0.500000  0.705102  0.431708  1
  Rh  Rh28  1  0.000000  0.205102  0.568292  1
  Rh  Rh29  1  0.000000  0.794898  0.568292  1
  Rh  Rh30  1  0.500000  0.875464  0.708769  1
  Rh  Rh31  1  0.500000  0.124536  0.708769  1
  Rh  Rh32  1  0.000000  0.624536  0.291231  1
  Rh  Rh33  1  0.000000  0.375464  0.291231  1
  W  W34  1  0.500000  0.500000  0.156927  1
  W  W35  1  0.000000  0.000000  0.843073  1
