# generated using pymatgen
data_CeNdY6(Si3Rh)4
_symmetry_space_group_name_H-M   'P 1'
_cell_length_a   8.19240500
_cell_length_b   8.19297705
_cell_length_c   8.04769600
_cell_angle_alpha   89.99989791
_cell_angle_beta   90.00011291
_cell_angle_gamma   120.00029044
_symmetry_Int_Tables_number   1
_chemical_formula_structural   CeNdY6(Si3Rh)4
_chemical_formula_sum   'Ce1 Nd1 Y6 Si12 Rh4'
_cell_volume   467.79338458
_cell_formula_units_Z   1
loop_
 _symmetry_equiv_pos_site_id
 _symmetry_equiv_pos_as_xyz
  1  'x, y, z'
loop_
 _atom_site_type_symbol
 _atom_site_label
 _atom_site_symmetry_multiplicity
 _atom_site_fract_x
 _atom_site_fract_y
 _atom_site_fract_z
 _atom_site_occupancy
  Ce  Ce0  1  0.000035  0.000036  0.250002  1
  Nd  Nd1  1  0.000002  0.000000  0.750000  1
  Y  Y2  1  0.508078  0.491921  0.250001  1
  Y  Y3  1  0.508085  0.016156  0.250001  1
  Y  Y4  1  0.983834  0.491910  0.250001  1
  Y  Y5  1  0.491447  0.508578  0.749998  1
  Y  Y6  1  0.491438  0.982876  0.749999  1
  Y  Y7  1  0.017140  0.508583  0.749999  1
  Si  Si8  1  0.167563  0.832460  0.498615  1
  Si  Si9  1  0.167568  0.335121  0.498635  1
  Si  Si10  1  0.664932  0.832469  0.498576  1
  Si  Si11  1  0.831986  0.167974  0.497378  1
  Si  Si12  1  0.831982  0.663989  0.497424  1
  Si  Si13  1  0.335953  0.167971  0.497354  1
  Si  Si14  1  0.831987  0.167973  0.002620  1
  Si  Si15  1  0.831983  0.663990  0.002574  1
  Si  Si16  1  0.335952  0.167970  0.002644  1
  Si  Si17  1  0.167563  0.832461  0.001388  1
  Si  Si18  1  0.167568  0.335121  0.001366  1
  Si  Si19  1  0.664933  0.832470  0.001425  1
  Rh  Rh20  1  0.333336  0.666668  0.469731  1
  Rh  Rh21  1  0.666650  0.333318  0.533716  1
  Rh  Rh22  1  0.666650  0.333317  0.966286  1
  Rh  Rh23  1  0.333336  0.666668  0.030268  1
