# generated using pymatgen
data_MgVSbF12
_symmetry_space_group_name_H-M   'P 1'
_cell_length_a   5.45833535
_cell_length_b   11.10622703
_cell_length_c   5.47451434
_cell_angle_alpha   58.32932829
_cell_angle_beta   58.00248126
_cell_angle_gamma   58.72916004
_symmetry_Int_Tables_number   1
_chemical_formula_structural   MgVSbF12
_chemical_formula_sum   'Mg1 V1 Sb1 F12'
_cell_volume   225.80545668
_cell_formula_units_Z   1
loop_
 _symmetry_equiv_pos_site_id
 _symmetry_equiv_pos_as_xyz
  1  'x, y, z'
loop_
 _atom_site_type_symbol
 _atom_site_label
 _atom_site_symmetry_multiplicity
 _atom_site_fract_x
 _atom_site_fract_y
 _atom_site_fract_z
 _atom_site_occupancy
  Mg  Mg0  1  0.504278  0.743884  0.503520  1
  V  V1  1  0.989155  0.497292  0.013561  1
  Sb  Sb2  1  0.011275  0.002760  0.986328  1
  F  F3  1  0.370196  0.053904  0.770008  1
  F  F4  1  0.298320  0.586873  0.765762  1
  F  F5  1  0.128972  0.396943  0.314610  1
  F  F6  1  0.153880  0.871230  0.335494  1
  F  F7  1  0.215212  0.357229  0.849635  1
  F  F8  1  0.243406  0.827205  0.853655  1
  F  F9  1  0.882053  0.108515  0.648186  1
  F  F10  1  0.832894  0.625247  0.687651  1
  F  F11  1  0.665571  0.441029  0.226395  1
  F  F12  1  0.681648  0.915283  0.240108  1
  F  F13  1  0.766200  0.160382  0.144434  1
  F  F14  1  0.756939  0.662224  0.160654  1
