# generated using pymatgen
data_Tb13Yb3(LuIr3)4
_symmetry_space_group_name_H-M   'P 1'
_cell_length_a   10.88054640
_cell_length_b   10.90696729
_cell_length_c   6.36084299
_cell_angle_alpha   89.93957606
_cell_angle_beta   90.09334954
_cell_angle_gamma   90.08192046
_symmetry_Int_Tables_number   1
_chemical_formula_structural   Tb13Yb3(LuIr3)4
_chemical_formula_sum   'Tb13 Yb3 Lu4 Ir12'
_cell_volume   754.86298660
_cell_formula_units_Z   1
loop_
 _symmetry_equiv_pos_site_id
 _symmetry_equiv_pos_as_xyz
  1  'x, y, z'
loop_
 _atom_site_type_symbol
 _atom_site_label
 _atom_site_symmetry_multiplicity
 _atom_site_fract_x
 _atom_site_fract_y
 _atom_site_fract_z
 _atom_site_occupancy
  Tb  Tb0  1  0.708770  0.913921  0.378662  1
  Tb  Tb1  1  0.586764  0.793195  0.878372  1
  Tb  Tb2  1  0.586319  0.207565  0.378502  1
  Tb  Tb3  1  0.411826  0.793227  0.378587  1
  Tb  Tb4  1  0.413407  0.207031  0.878679  1
  Tb  Tb5  1  0.210690  0.412557  0.622213  1
  Tb  Tb6  1  0.210589  0.587135  0.122286  1
  Tb  Tb7  1  0.789910  0.412651  0.121432  1
  Tb  Tb8  1  0.789187  0.587490  0.621264  1
  Tb  Tb9  1  0.912970  0.710829  0.122288  1
  Tb  Tb10  1  0.912165  0.288568  0.622152  1
  Tb  Tb11  1  0.087449  0.711295  0.620997  1
  Tb  Tb12  1  0.088277  0.288905  0.121528  1
  Yb  Yb13  1  0.289927  0.086522  0.376255  1
  Yb  Yb14  1  0.289515  0.912893  0.876495  1
  Yb  Yb15  1  0.710234  0.086918  0.876585  1
  Lu  Lu16  1  0.001334  0.000165  0.498240  1
  Lu  Lu17  1  0.999844  0.000377  0.998575  1
  Lu  Lu18  1  0.499913  0.499965  0.999245  1
  Lu  Lu19  1  0.499571  0.499997  0.499621  1
  Ir  Ir20  1  0.852159  0.151535  0.254600  1
  Ir  Ir21  1  0.852486  0.846212  0.748148  1
  Ir  Ir22  1  0.146794  0.154609  0.753034  1
  Ir  Ir23  1  0.146485  0.845557  0.252192  1
  Ir  Ir24  1  0.648891  0.352292  0.748850  1
  Ir  Ir25  1  0.649874  0.650974  0.249609  1
  Ir  Ir26  1  0.350673  0.352137  0.247701  1
  Ir  Ir27  1  0.350291  0.647737  0.748335  1
  Ir  Ir28  1  0.501413  0.999345  0.123968  1
  Ir  Ir29  1  0.502053  0.998885  0.622600  1
  Ir  Ir30  1  0.000209  0.499868  0.879351  1
  Ir  Ir31  1  0.000010  0.499641  0.379635  1
