# generated using pymatgen
data_ErLu2CuRu2
_symmetry_space_group_name_H-M   'P 1'
_cell_length_a   3.38388100
_cell_length_b   3.38388100
_cell_length_c   10.06788400
_cell_angle_alpha   90.00000000
_cell_angle_beta   90.00000000
_cell_angle_gamma   90.00000000
_symmetry_Int_Tables_number   1
_chemical_formula_structural   ErLu2CuRu2
_chemical_formula_sum   'Er1 Lu2 Cu1 Ru2'
_cell_volume   115.28382219
_cell_formula_units_Z   1
loop_
 _symmetry_equiv_pos_site_id
 _symmetry_equiv_pos_as_xyz
  1  'x, y, z'
loop_
 _atom_site_type_symbol
 _atom_site_label
 _atom_site_symmetry_multiplicity
 _atom_site_fract_x
 _atom_site_fract_y
 _atom_site_fract_z
 _atom_site_occupancy
  Er  Er0  1  0.499999  0.499999  0.323857  1
  Lu  Lu1  1  0.499999  0.499999  0.998635  1
  Lu  Lu2  1  0.499999  0.499999  0.677036  1
  Cu  Cu3  1  0.000000  0.000000  0.503870  1
  Ru  Ru4  1  0.000000  0.000000  0.167776  1
  Ru  Ru5  1  0.000000  0.000000  0.828825  1
