# generated using pymatgen
data_Ho20Co4SnBi7
_symmetry_space_group_name_H-M   'P 1'
_cell_length_a   7.96528431
_cell_length_b   8.87679124
_cell_length_c   12.33893331
_cell_angle_alpha   89.93941164
_cell_angle_beta   90.08729631
_cell_angle_gamma   89.99702073
_symmetry_Int_Tables_number   1
_chemical_formula_structural   Ho20Co4SnBi7
_chemical_formula_sum   'Ho20 Co4 Sn1 Bi7'
_cell_volume   872.43716554
_cell_formula_units_Z   1
loop_
 _symmetry_equiv_pos_site_id
 _symmetry_equiv_pos_as_xyz
  1  'x, y, z'
loop_
 _atom_site_type_symbol
 _atom_site_label
 _atom_site_symmetry_multiplicity
 _atom_site_fract_x
 _atom_site_fract_y
 _atom_site_fract_z
 _atom_site_occupancy
  Ho  Ho0  1  0.349786  0.746389  0.701769  1
  Ho  Ho1  1  0.652285  0.249502  0.300221  1
  Ho  Ho2  1  0.843501  0.253375  0.799201  1
  Ho  Ho3  1  0.153060  0.749571  0.199183  1
  Ho  Ho4  1  0.880581  0.747061  0.811314  1
  Ho  Ho5  1  0.114592  0.250164  0.189061  1
  Ho  Ho6  1  0.389429  0.253787  0.690492  1
  Ho  Ho7  1  0.614275  0.749800  0.311262  1
  Ho  Ho8  1  0.673963  0.536852  0.567052  1
  Ho  Ho9  1  0.324713  0.463298  0.436412  1
  Ho  Ho10  1  0.178934  0.463443  0.935861  1
  Ho  Ho11  1  0.324495  0.037938  0.437029  1
  Ho  Ho12  1  0.823508  0.537596  0.060956  1
  Ho  Ho13  1  0.676215  0.961868  0.563254  1
  Ho  Ho14  1  0.824066  0.963346  0.063186  1
  Ho  Ho15  1  0.174951  0.036897  0.936446  1
  Ho  Ho16  1  0.053210  0.750366  0.497720  1
  Ho  Ho17  1  0.947801  0.249530  0.502464  1
  Ho  Ho18  1  0.552212  0.253509  0.000405  1
  Ho  Ho19  1  0.450213  0.746452  0.995313  1
  Co  Co20  1  0.065075  0.750516  0.991676  1
  Co  Co21  1  0.934227  0.249907  0.008232  1
  Co  Co22  1  0.566786  0.250179  0.508107  1
  Co  Co23  1  0.433104  0.750273  0.491669  1
  Sn  Sn24  1  0.571426  0.508255  0.828228  1
  Bi  Bi25  1  0.427649  0.490420  0.173912  1
  Bi  Bi26  1  0.072986  0.490644  0.672759  1
  Bi  Bi27  1  0.427532  0.009237  0.172182  1
  Bi  Bi28  1  0.927300  0.509327  0.327004  1
  Bi  Bi29  1  0.572074  0.991142  0.826935  1
  Bi  Bi30  1  0.928045  0.990488  0.326395  1
  Bi  Bi31  1  0.072008  0.008869  0.674300  1
