# generated using pymatgen
data_Ho6Er10CdIn3IrPd3
_symmetry_space_group_name_H-M   'P 1'
_cell_length_a   9.62779052
_cell_length_b   9.60009863
_cell_length_c   9.60009800
_cell_angle_alpha   60.00000217
_cell_angle_beta   60.09510208
_cell_angle_gamma   60.09510203
_symmetry_Int_Tables_number   1
_chemical_formula_structural   Ho6Er10CdIn3IrPd3
_chemical_formula_sum   'Ho6 Er10 Cd1 In3 Ir1 Pd3'
_cell_volume   628.32710330
_cell_formula_units_Z   1
loop_
 _symmetry_equiv_pos_site_id
 _symmetry_equiv_pos_as_xyz
  1  'x, y, z'
loop_
 _atom_site_type_symbol
 _atom_site_label
 _atom_site_symmetry_multiplicity
 _atom_site_fract_x
 _atom_site_fract_y
 _atom_site_fract_z
 _atom_site_occupancy
  Ho  Ho0  1  0.187244  0.814487  0.814487  1
  Ho  Ho1  1  0.816366  0.186561  0.186561  1
  Ho  Ho2  1  0.816366  0.186561  0.810510  1
  Ho  Ho3  1  0.187244  0.814487  0.183783  1
  Ho  Ho4  1  0.816366  0.810510  0.186561  1
  Ho  Ho5  1  0.187244  0.183783  0.814487  1
  Er  Er6  1  0.605713  0.599305  0.599305  1
  Er  Er7  1  0.605713  0.599305  0.195679  1
  Er  Er8  1  0.605713  0.195679  0.599305  1
  Er  Er9  1  0.190754  0.603083  0.603083  1
  Er  Er10  1  0.056708  0.438796  0.438796  1
  Er  Er11  1  0.439068  0.060996  0.060996  1
  Er  Er12  1  0.439068  0.060996  0.438940  1
  Er  Er13  1  0.056708  0.438796  0.065701  1
  Er  Er14  1  0.439068  0.438940  0.060996  1
  Er  Er15  1  0.056708  0.065701  0.438796  1
  Cd  Cd16  1  0.500973  0.833009  0.833009  1
  In  In17  1  0.832128  0.833019  0.833019  1
  In  In18  1  0.832128  0.833019  0.501831  1
  In  In19  1  0.832128  0.501831  0.833019  1
  Ir  Ir20  1  0.820315  0.393228  0.393228  1
  Pd  Pd21  1  0.392093  0.394338  0.394338  1
  Pd  Pd22  1  0.392093  0.394338  0.819234  1
  Pd  Pd23  1  0.392093  0.819234  0.394338  1
