# generated using pymatgen
data_Cr3FeGe2(O2F)4
_symmetry_space_group_name_H-M   'P 1'
_cell_length_a   4.94779061
_cell_length_b   8.99229703
_cell_length_c   9.42935513
_cell_angle_alpha   89.96178712
_cell_angle_beta   89.95837427
_cell_angle_gamma   90.03887525
_symmetry_Int_Tables_number   1
_chemical_formula_structural   Cr3FeGe2(O2F)4
_chemical_formula_sum   'Cr6 Fe2 Ge4 O16 F8'
_cell_volume   419.53059449
_cell_formula_units_Z   2
loop_
 _symmetry_equiv_pos_site_id
 _symmetry_equiv_pos_as_xyz
  1  'x, y, z'
loop_
 _atom_site_type_symbol
 _atom_site_label
 _atom_site_symmetry_multiplicity
 _atom_site_fract_x
 _atom_site_fract_y
 _atom_site_fract_z
 _atom_site_occupancy
  Cr  Cr0  1  0.903354  0.417358  0.369468  1
  Cr  Cr1  1  0.096646  0.582642  0.630532  1
  Cr  Cr2  1  0.404016  0.582383  0.131188  1
  Cr  Cr3  1  0.902270  0.083187  0.369917  1
  Cr  Cr4  1  0.097730  0.916813  0.630083  1
  Cr  Cr5  1  0.595984  0.417617  0.868812  1
  Fe  Fe6  1  0.402641  0.916149  0.129681  1
  Fe  Fe7  1  0.597359  0.083851  0.870319  1
  Ge  Ge8  1  0.602913  0.749790  0.440048  1
  Ge  Ge9  1  0.898519  0.748721  0.938558  1
  Ge  Ge10  1  0.101481  0.251279  0.061442  1
  Ge  Ge11  1  0.397087  0.250210  0.559952  1
  O  O12  1  0.716866  0.910994  0.991195  1
  O  O13  1  0.783787  0.912326  0.493424  1
  O  O14  1  0.784453  0.587447  0.493534  1
  O  O15  1  0.216132  0.748791  0.028106  1
  O  O16  1  0.283134  0.089006  0.008805  1
  O  O17  1  0.284750  0.412776  0.006990  1
  O  O18  1  0.952016  0.749367  0.750835  1
  O  O19  1  0.282935  0.749437  0.527663  1
  O  O20  1  0.216213  0.087674  0.506576  1
  O  O21  1  0.548037  0.750182  0.252202  1
  O  O22  1  0.783868  0.251209  0.971894  1
  O  O23  1  0.215547  0.412553  0.506466  1
  O  O24  1  0.715250  0.587224  0.993010  1
  O  O25  1  0.717065  0.250563  0.472337  1
  O  O26  1  0.047984  0.250633  0.249165  1
  O  O27  1  0.451963  0.249818  0.747798  1
  F  F28  1  0.085726  0.936326  0.252611  1
  F  F29  1  0.086883  0.565162  0.252338  1
  F  F30  1  0.913117  0.434838  0.747662  1
  F  F31  1  0.412438  0.935881  0.751538  1
  F  F32  1  0.587562  0.064119  0.248462  1
  F  F33  1  0.586849  0.434705  0.247661  1
  F  F34  1  0.413151  0.565295  0.752339  1
  F  F35  1  0.914274  0.063674  0.747389  1
