# generated using pymatgen
data_Ga3Ni8MoPt4
_symmetry_space_group_name_H-M   'P 1'
_cell_length_a   3.75922700
_cell_length_b   3.69392600
_cell_length_c   14.92417700
_cell_angle_alpha   90.00000000
_cell_angle_beta   90.00000000
_cell_angle_gamma   90.00000000
_symmetry_Int_Tables_number   1
_chemical_formula_structural   Ga3Ni8MoPt4
_chemical_formula_sum   'Ga3 Ni8 Mo1 Pt4'
_cell_volume   207.24169392
_cell_formula_units_Z   1
loop_
 _symmetry_equiv_pos_site_id
 _symmetry_equiv_pos_as_xyz
  1  'x, y, z'
loop_
 _atom_site_type_symbol
 _atom_site_label
 _atom_site_symmetry_multiplicity
 _atom_site_fract_x
 _atom_site_fract_y
 _atom_site_fract_z
 _atom_site_occupancy
  Ga  Ga0  1  0.000000  0.000000  0.256079  1
  Ga  Ga1  1  0.000000  0.000000  0.500000  1
  Ga  Ga2  1  0.000000  0.000000  0.743921  1
  Ni  Ni3  1  0.500000  0.500000  0.000000  1
  Ni  Ni4  1  0.500000  0.500000  0.249543  1
  Ni  Ni5  1  0.500000  0.500000  0.500000  1
  Ni  Ni6  1  0.500000  0.500000  0.750457  1
  Ni  Ni7  1  0.000000  0.500000  0.121316  1
  Ni  Ni8  1  0.000000  0.500000  0.376948  1
  Ni  Ni9  1  0.000000  0.500000  0.623052  1
  Ni  Ni10  1  0.000000  0.500000  0.878684  1
  Mo  Mo11  1  0.000000  0.000000  0.000000  1
  Pt  Pt12  1  0.500000  0.000000  0.125976  1
  Pt  Pt13  1  0.500000  0.000000  0.375609  1
  Pt  Pt14  1  0.500000  0.000000  0.624391  1
  Pt  Pt15  1  0.500000  0.000000  0.874024  1
