# generated using pymatgen
data_Nb4Al2FeB4Ru9
_symmetry_space_group_name_H-M   'P 1'
_cell_length_a   9.24166031
_cell_length_b   9.24166031
_cell_length_c   2.99821300
_cell_angle_alpha   90.00000000
_cell_angle_beta   90.00000000
_cell_angle_gamma   89.77189946
_symmetry_Int_Tables_number   1
_chemical_formula_structural   Nb4Al2FeB4Ru9
_chemical_formula_sum   'Nb4 Al2 Fe1 B4 Ru9'
_cell_volume   256.07020193
_cell_formula_units_Z   1
loop_
 _symmetry_equiv_pos_site_id
 _symmetry_equiv_pos_as_xyz
  1  'x, y, z'
loop_
 _atom_site_type_symbol
 _atom_site_label
 _atom_site_symmetry_multiplicity
 _atom_site_fract_x
 _atom_site_fract_y
 _atom_site_fract_z
 _atom_site_occupancy
  Nb  Nb0  1  0.821507  0.678493  0.000000  1
  Nb  Nb1  1  0.178493  0.321507  0.000000  1
  Nb  Nb2  1  0.327663  0.827663  0.000000  1
  Nb  Nb3  1  0.672337  0.172337  0.000000  1
  Al  Al4  1  0.500000  0.500000  0.000000  1
  Al  Al5  1  0.000000  0.000000  0.000000  1
  Fe  Fe6  1  0.500000  0.000000  0.500000  1
  B  B7  1  0.616785  0.883215  0.000000  1
  B  B8  1  0.383215  0.116785  0.000000  1
  B  B9  1  0.125604  0.625604  0.000000  1
  B  B10  1  0.874396  0.374396  0.000000  1
  Ru  Ru11  1  0.565177  0.720005  0.500000  1
  Ru  Ru12  1  0.434823  0.279995  0.500000  1
  Ru  Ru13  1  0.067594  0.786074  0.500000  1
  Ru  Ru14  1  0.932406  0.213926  0.500000  1
  Ru  Ru15  1  0.286074  0.567594  0.500000  1
  Ru  Ru16  1  0.713926  0.432406  0.500000  1
  Ru  Ru17  1  0.220005  0.065177  0.500000  1
  Ru  Ru18  1  0.779995  0.934823  0.500000  1
  Ru  Ru19  1  0.000000  0.500000  0.500000  1
