# generated using pymatgen
data_Tb18YbInIr12
_symmetry_space_group_name_H-M   'P 1'
_cell_length_a   10.92581700
_cell_length_b   10.92581700
_cell_length_c   6.32127800
_cell_angle_alpha   90.00000000
_cell_angle_beta   90.00000000
_cell_angle_gamma   90.00000000
_symmetry_Int_Tables_number   1
_chemical_formula_structural   Tb18YbInIr12
_chemical_formula_sum   'Tb18 Yb1 In1 Ir12'
_cell_volume   754.59293469
_cell_formula_units_Z   1
loop_
 _symmetry_equiv_pos_site_id
 _symmetry_equiv_pos_as_xyz
  1  'x, y, z'
loop_
 _atom_site_type_symbol
 _atom_site_label
 _atom_site_symmetry_multiplicity
 _atom_site_fract_x
 _atom_site_fract_y
 _atom_site_fract_z
 _atom_site_occupancy
  Tb  Tb0  1  0.283304  0.086187  0.381329  1
  Tb  Tb1  1  0.291131  0.911513  0.880911  1
  Tb  Tb2  1  0.708869  0.088487  0.880911  1
  Tb  Tb3  1  0.716696  0.913813  0.381329  1
  Tb  Tb4  1  0.587810  0.790576  0.883040  1
  Tb  Tb5  1  0.588595  0.207840  0.380280  1
  Tb  Tb6  1  0.411405  0.792160  0.380280  1
  Tb  Tb7  1  0.412190  0.209424  0.883040  1
  Tb  Tb8  1  0.207840  0.411405  0.619720  1
  Tb  Tb9  1  0.209424  0.587810  0.116960  1
  Tb  Tb10  1  0.790576  0.412190  0.116960  1
  Tb  Tb11  1  0.792160  0.588595  0.619720  1
  Tb  Tb12  1  0.911513  0.708869  0.119089  1
  Tb  Tb13  1  0.913813  0.283304  0.618671  1
  Tb  Tb14  1  0.086187  0.716696  0.618671  1
  Tb  Tb15  1  0.088487  0.291131  0.119089  1
  Tb  Tb16  1  0.000000  0.000000  0.000000  1
  Tb  Tb17  1  0.500000  0.500000  0.500000  1
  Yb  Yb18  1  0.500000  0.500000  0.000000  1
  In  In19  1  0.000000  0.000000  0.500000  1
  Ir  Ir20  1  0.846372  0.155579  0.245355  1
  Ir  Ir21  1  0.844421  0.846372  0.754645  1
  Ir  Ir22  1  0.155579  0.153628  0.754645  1
  Ir  Ir23  1  0.153628  0.844421  0.245355  1
  Ir  Ir24  1  0.656764  0.344500  0.743854  1
  Ir  Ir25  1  0.655500  0.656764  0.256146  1
  Ir  Ir26  1  0.344500  0.343236  0.256146  1
  Ir  Ir27  1  0.343236  0.655500  0.743854  1
  Ir  Ir28  1  0.500000  0.000000  0.125246  1
  Ir  Ir29  1  0.500000  0.000000  0.620248  1
  Ir  Ir30  1  0.000000  0.500000  0.874754  1
  Ir  Ir31  1  0.000000  0.500000  0.379752  1
