# generated using pymatgen
data_Yb9ErIr4
_symmetry_space_group_name_H-M   'P 1'
_cell_length_a   6.43674536
_cell_length_b   7.42104827
_cell_length_c   8.43141667
_cell_angle_alpha   96.80910430
_cell_angle_beta   112.43976217
_cell_angle_gamma   90.00000155
_symmetry_Int_Tables_number   1
_chemical_formula_structural   Yb9ErIr4
_chemical_formula_sum   'Yb9 Er1 Ir4'
_cell_volume   369.17610988
_cell_formula_units_Z   1
loop_
 _symmetry_equiv_pos_site_id
 _symmetry_equiv_pos_as_xyz
  1  'x, y, z'
loop_
 _atom_site_type_symbol
 _atom_site_label
 _atom_site_symmetry_multiplicity
 _atom_site_fract_x
 _atom_site_fract_y
 _atom_site_fract_z
 _atom_site_occupancy
  Yb  Yb0  1  0.964657  0.920988  0.170293  1
  Yb  Yb1  1  0.794364  0.579012  0.829707  1
  Yb  Yb2  1  0.031648  0.078717  0.828605  1
  Yb  Yb3  1  0.203043  0.421283  0.171395  1
  Yb  Yb4  1  0.641754  0.822012  0.436613  1
  Yb  Yb5  1  0.205141  0.677988  0.563387  1
  Yb  Yb6  1  0.356159  0.178710  0.560097  1
  Yb  Yb7  1  0.796062  0.321290  0.439903  1
  Yb  Yb8  1  0.429054  0.750000  0.000000  1
  Er  Er9  1  0.565315  0.250000  0.000000  1
  Ir  Ir10  1  0.819907  0.569498  0.213571  1
  Ir  Ir11  1  0.606336  0.930502  0.786429  1
  Ir  Ir12  1  0.186126  0.418140  0.785691  1
  Ir  Ir13  1  0.400434  0.081860  0.214309  1
