# generated using pymatgen
data_Gd2PdRhPb
_symmetry_space_group_name_H-M   'P 1'
_cell_length_a   3.64839400
_cell_length_b   7.84864008
_cell_length_c   7.84864000
_cell_angle_alpha   90.09180597
_cell_angle_beta   90.00000000
_cell_angle_gamma   90.00000000
_symmetry_Int_Tables_number   1
_chemical_formula_structural   Gd2PdRhPb
_chemical_formula_sum   'Gd4 Pd2 Rh2 Pb2'
_cell_volume   224.74497916
_cell_formula_units_Z   2
loop_
 _symmetry_equiv_pos_site_id
 _symmetry_equiv_pos_as_xyz
  1  'x, y, z'
loop_
 _atom_site_type_symbol
 _atom_site_label
 _atom_site_symmetry_multiplicity
 _atom_site_fract_x
 _atom_site_fract_y
 _atom_site_fract_z
 _atom_site_occupancy
  Gd  Gd0  1  0.500000  0.179347  0.679347  1
  Gd  Gd1  1  0.500000  0.820653  0.320653  1
  Gd  Gd2  1  0.500000  0.334924  0.165076  1
  Gd  Gd3  1  0.500000  0.665076  0.834924  1
  Pd  Pd4  1  0.000000  0.874110  0.625890  1
  Pd  Pd5  1  0.000000  0.125890  0.374110  1
  Rh  Rh6  1  0.000000  0.629098  0.129098  1
  Rh  Rh7  1  0.000000  0.370902  0.870902  1
  Pb  Pb8  1  0.000000  0.000000  0.000000  1
  Pb  Pb9  1  0.000000  0.500000  0.500000  1
