# generated using pymatgen
data_Pa4Co5(Ge3Mo)2
_symmetry_space_group_name_H-M   'P 1'
_cell_length_a   7.14909870
_cell_length_b   7.14909933
_cell_length_c   7.14909900
_cell_angle_alpha   109.84104461
_cell_angle_beta   108.73408532
_cell_angle_gamma   109.84104134
_symmetry_Int_Tables_number   1
_chemical_formula_structural   Pa4Co5(Ge3Mo)2
_chemical_formula_sum   'Pa4 Co5 Ge6 Mo2'
_cell_volume   281.24071216
_cell_formula_units_Z   1
loop_
 _symmetry_equiv_pos_site_id
 _symmetry_equiv_pos_as_xyz
  1  'x, y, z'
loop_
 _atom_site_type_symbol
 _atom_site_label
 _atom_site_symmetry_multiplicity
 _atom_site_fract_x
 _atom_site_fract_y
 _atom_site_fract_z
 _atom_site_occupancy
  Pa  Pa0  1  0.503714  0.500000  0.496286  1
  Pa  Pa1  1  0.996286  0.500000  0.003714  1
  Pa  Pa2  1  0.503714  0.007427  0.003714  1
  Pa  Pa3  1  0.996286  0.992573  0.496286  1
  Co  Co4  1  0.495988  0.247444  0.743432  1
  Co  Co5  1  0.751454  0.247444  0.504012  1
  Co  Co6  1  0.256568  0.752556  0.504012  1
  Co  Co7  1  0.250000  0.500000  0.750000  1
  Co  Co8  1  0.495988  0.752556  0.248546  1
  Ge  Ge9  1  0.673884  0.000000  0.673884  1
  Ge  Ge10  1  0.669020  0.677589  0.991431  1
  Ge  Ge11  1  0.313842  0.322411  0.991431  1
  Ge  Ge12  1  0.008569  0.677589  0.686158  1
  Ge  Ge13  1  0.008569  0.322411  0.330980  1
  Ge  Ge14  1  0.326116  0.000000  0.326116  1
  Mo  Mo15  1  0.750000  0.500000  0.250000  1
  Mo  Mo16  1  0.000000  0.000000  0.000000  1
