# generated using pymatgen
data_HoUGa5Co6
_symmetry_space_group_name_H-M   'P 1'
_cell_length_a   5.06804278
_cell_length_b   6.55061954
_cell_length_c   6.55062004
_cell_angle_alpha   86.11564542
_cell_angle_beta   67.24217343
_cell_angle_gamma   67.24217336
_symmetry_Int_Tables_number   1
_chemical_formula_structural   HoUGa5Co6
_chemical_formula_sum   'Ho1 U1 Ga5 Co6'
_cell_volume   184.06989725
_cell_formula_units_Z   1
loop_
 _symmetry_equiv_pos_site_id
 _symmetry_equiv_pos_as_xyz
  1  'x, y, z'
loop_
 _atom_site_type_symbol
 _atom_site_label
 _atom_site_symmetry_multiplicity
 _atom_site_fract_x
 _atom_site_fract_y
 _atom_site_fract_z
 _atom_site_occupancy
  Ho  Ho0  1  0.000000  0.991683  0.008317  1
  U  U1  1  0.000000  0.351415  0.648585  1
  Ga  Ga2  1  0.000000  0.674028  0.325972  1
  Ga  Ga3  1  0.500000  0.165473  0.834527  1
  Ga  Ga4  1  0.500000  0.819804  0.180196  1
  Ga  Ga5  1  0.343312  0.660941  0.652434  1
  Ga  Ga6  1  0.656688  0.347566  0.339059  1
  Co  Co7  1  0.246588  0.251850  0.254973  1
  Co  Co8  1  0.753412  0.745027  0.748150  1
  Co  Co9  1  0.491860  0.004838  0.508730  1
  Co  Co10  1  0.508140  0.491270  0.995162  1
  Co  Co11  1  0.005429  0.491270  0.995162  1
  Co  Co12  1  0.994571  0.004838  0.508730  1
