# generated using pymatgen
data_KAc5S8
_symmetry_space_group_name_H-M   'P 1'
_cell_length_a   7.85955718
_cell_length_b   7.85955652
_cell_length_c   7.85955712
_cell_angle_alpha   109.28256217
_cell_angle_beta   109.28256108
_cell_angle_gamma   109.84919969
_symmetry_Int_Tables_number   1
_chemical_formula_structural   KAc5S8
_chemical_formula_sum   'K1 Ac5 S8'
_cell_volume   373.73014045
_cell_formula_units_Z   1
loop_
 _symmetry_equiv_pos_site_id
 _symmetry_equiv_pos_as_xyz
  1  'x, y, z'
loop_
 _atom_site_type_symbol
 _atom_site_label
 _atom_site_symmetry_multiplicity
 _atom_site_fract_x
 _atom_site_fract_y
 _atom_site_fract_z
 _atom_site_occupancy
  K  K0  1  0.000000  0.000000  0.000000  1
  Ac  Ac1  1  0.240106  0.118711  0.617769  1
  Ac  Ac2  1  0.750000  0.250000  0.500000  1
  Ac  Ac3  1  0.500941  0.622337  0.382231  1
  Ac  Ac4  1  0.881289  0.499059  0.121396  1
  Ac  Ac5  1  0.377663  0.759894  0.878604  1
  S  S6  1  0.764726  0.870857  0.256962  1
  S  S7  1  0.283530  0.871448  0.256884  1
  S  S8  1  0.128552  0.385436  0.412082  1
  S  S9  1  0.614564  0.026646  0.743116  1
  S  S10  1  0.492236  0.235274  0.106132  1
  S  S11  1  0.613896  0.507764  0.743038  1
  S  S12  1  0.129143  0.386104  0.893868  1
  S  S13  1  0.973354  0.716470  0.587918  1
