# generated using pymatgen
data_LaPrB2(PtRh)4
_symmetry_space_group_name_H-M   'P 1'
_cell_length_a   5.49273292
_cell_length_b   5.49273331
_cell_length_c   7.54583000
_cell_angle_alpha   90.00000000
_cell_angle_beta   90.00000000
_cell_angle_gamma   119.90371983
_symmetry_Int_Tables_number   1
_chemical_formula_structural   LaPrB2(PtRh)4
_chemical_formula_sum   'La1 Pr1 B2 Pt4 Rh4'
_cell_volume   197.34910972
_cell_formula_units_Z   1
loop_
 _symmetry_equiv_pos_site_id
 _symmetry_equiv_pos_as_xyz
  1  'x, y, z'
loop_
 _atom_site_type_symbol
 _atom_site_label
 _atom_site_symmetry_multiplicity
 _atom_site_fract_x
 _atom_site_fract_y
 _atom_site_fract_z
 _atom_site_occupancy
  La  La0  1  0.000000  0.000000  0.500000  1
  Pr  Pr1  1  0.000000  0.000000  0.000000  1
  B  B2  1  0.333683  0.666317  0.000000  1
  B  B3  1  0.666317  0.333683  0.000000  1
  Pt  Pt4  1  0.320710  0.679290  0.500000  1
  Pt  Pt5  1  0.679290  0.320710  0.500000  1
  Pt  Pt6  1  0.500000  0.500000  0.206754  1
  Pt  Pt7  1  0.500000  0.500000  0.793246  1
  Rh  Rh8  1  0.500000  0.000000  0.193716  1
  Rh  Rh9  1  0.500000  0.000000  0.806284  1
  Rh  Rh10  1  0.000000  0.500000  0.193716  1
  Rh  Rh11  1  0.000000  0.500000  0.806284  1
