# generated using pymatgen
data_Tb4Ho(GeB4)2
_symmetry_space_group_name_H-M   'P 1'
_cell_length_a   7.27186600
_cell_length_b   7.27186600
_cell_length_c   8.19249000
_cell_angle_alpha   90.00000000
_cell_angle_beta   90.00000000
_cell_angle_gamma   90.00000000
_symmetry_Int_Tables_number   1
_chemical_formula_structural   Tb4Ho(GeB4)2
_chemical_formula_sum   'Tb8 Ho2 Ge4 B16'
_cell_volume   433.21915894
_cell_formula_units_Z   2
loop_
 _symmetry_equiv_pos_site_id
 _symmetry_equiv_pos_as_xyz
  1  'x, y, z'
loop_
 _atom_site_type_symbol
 _atom_site_label
 _atom_site_symmetry_multiplicity
 _atom_site_fract_x
 _atom_site_fract_y
 _atom_site_fract_z
 _atom_site_occupancy
  Tb  Tb0  1  0.680280  0.180280  0.221307  1
  Tb  Tb1  1  0.319720  0.819720  0.778693  1
  Tb  Tb2  1  0.319720  0.819720  0.221307  1
  Tb  Tb3  1  0.819720  0.680280  0.221307  1
  Tb  Tb4  1  0.819720  0.680280  0.778693  1
  Tb  Tb5  1  0.680280  0.180280  0.778693  1
  Tb  Tb6  1  0.180280  0.319720  0.778693  1
  Tb  Tb7  1  0.180280  0.319720  0.221307  1
  Ho  Ho8  1  0.000000  0.000000  0.500000  1
  Ho  Ho9  1  0.500000  0.500000  0.500000  1
  Ge  Ge10  1  0.120068  0.620068  0.500000  1
  Ge  Ge11  1  0.879932  0.379932  0.500000  1
  Ge  Ge12  1  0.379932  0.120068  0.500000  1
  Ge  Ge13  1  0.620068  0.879932  0.500000  1
  B  B14  1  0.171832  0.039343  0.000000  1
  B  B15  1  0.828168  0.960657  0.000000  1
  B  B16  1  0.960657  0.171832  0.000000  1
  B  B17  1  0.328168  0.539343  0.000000  1
  B  B18  1  0.039343  0.828168  0.000000  1
  B  B19  1  0.671832  0.460657  0.000000  1
  B  B20  1  0.539343  0.671832  0.000000  1
  B  B21  1  0.460657  0.328168  0.000000  1
  B  B22  1  0.090570  0.590570  0.000000  1
  B  B23  1  0.909430  0.409430  0.000000  1
  B  B24  1  0.409430  0.090570  0.000000  1
  B  B25  1  0.590570  0.909430  0.000000  1
  B  B26  1  0.000000  0.000000  0.160710  1
  B  B27  1  0.000000  0.000000  0.839290  1
  B  B28  1  0.500000  0.500000  0.839290  1
  B  B29  1  0.500000  0.500000  0.160710  1
