# generated using pymatgen
data_Ho2Tm2AlRu7
_symmetry_space_group_name_H-M   'P 1'
_cell_length_a   5.35176022
_cell_length_b   5.35176002
_cell_length_c   8.56072006
_cell_angle_alpha   90.00386073
_cell_angle_beta   89.99614136
_cell_angle_gamma   120.01291185
_symmetry_Int_Tables_number   1
_chemical_formula_structural   Ho2Tm2AlRu7
_chemical_formula_sum   'Ho2 Tm2 Al1 Ru7'
_cell_volume   212.31353619
_cell_formula_units_Z   1
loop_
 _symmetry_equiv_pos_site_id
 _symmetry_equiv_pos_as_xyz
  1  'x, y, z'
loop_
 _atom_site_type_symbol
 _atom_site_label
 _atom_site_symmetry_multiplicity
 _atom_site_fract_x
 _atom_site_fract_y
 _atom_site_fract_z
 _atom_site_occupancy
  Ho  Ho0  1  0.666662  0.333338  0.570186  1
  Ho  Ho1  1  0.333338  0.666662  0.429814  1
  Tm  Tm2  1  0.333371  0.666629  0.063929  1
  Tm  Tm3  1  0.666629  0.333371  0.936071  1
  Al  Al4  1  0.000000  0.000000  0.500000  1
  Ru  Ru5  1  0.000000  0.000000  0.000000  1
  Ru  Ru6  1  0.171349  0.342750  0.749368  1
  Ru  Ru7  1  0.171358  0.828642  0.749357  1
  Ru  Ru8  1  0.657250  0.828651  0.749368  1
  Ru  Ru9  1  0.828651  0.657250  0.250632  1
  Ru  Ru10  1  0.828642  0.171358  0.250643  1
  Ru  Ru11  1  0.342750  0.171349  0.250632  1
