# generated using pymatgen
data_SrGa3Ag
_symmetry_space_group_name_H-M   'P 1'
_cell_length_a   6.28453888
_cell_length_b   6.28453884
_cell_length_c   6.28453854
_cell_angle_alpha   137.97905530
_cell_angle_beta   137.97904925
_cell_angle_gamma   60.93508844
_symmetry_Int_Tables_number   1
_chemical_formula_structural   SrGa3Ag
_chemical_formula_sum   'Sr1 Ga3 Ag1'
_cell_volume   110.00622764
_cell_formula_units_Z   1
loop_
 _symmetry_equiv_pos_site_id
 _symmetry_equiv_pos_as_xyz
  1  'x, y, z'
loop_
 _atom_site_type_symbol
 _atom_site_label
 _atom_site_symmetry_multiplicity
 _atom_site_fract_x
 _atom_site_fract_y
 _atom_site_fract_z
 _atom_site_occupancy
  Sr  Sr0  1  0.000000  0.000000  0.000000  1
  Ga  Ga1  1  0.616752  0.616752  0.000000  1
  Ga  Ga2  1  0.383248  0.383248  0.000000  1
  Ga  Ga3  1  0.750000  0.250000  0.500000  1
  Ag  Ag4  1  0.250000  0.750000  0.500000  1
