# generated using pymatgen
data_Tb2Er10InCo4Pt
_symmetry_space_group_name_H-M   'P 1'
_cell_length_a   8.22943223
_cell_length_b   8.22943200
_cell_length_c   8.22736044
_cell_angle_alpha   110.96210434
_cell_angle_beta   110.64431313
_cell_angle_gamma   106.84975562
_symmetry_Int_Tables_number   1
_chemical_formula_structural   Tb2Er10InCo4Pt
_chemical_formula_sum   'Tb2 Er10 In1 Co4 Pt1'
_cell_volume   428.18963296
_cell_formula_units_Z   1
loop_
 _symmetry_equiv_pos_site_id
 _symmetry_equiv_pos_as_xyz
  1  'x, y, z'
loop_
 _atom_site_type_symbol
 _atom_site_label
 _atom_site_symmetry_multiplicity
 _atom_site_fract_x
 _atom_site_fract_y
 _atom_site_fract_z
 _atom_site_occupancy
  Tb  Tb0  1  0.185893  0.290090  0.475983  1
  Tb  Tb1  1  0.814107  0.709910  0.524017  1
  Er  Er2  1  0.186575  0.710766  0.897341  1
  Er  Er3  1  0.813425  0.289234  0.102659  1
  Er  Er4  1  0.314915  0.620982  0.304544  1
  Er  Er5  1  0.685085  0.379018  0.695456  1
  Er  Er6  1  0.316438  0.010372  0.695456  1
  Er  Er7  1  0.683562  0.989628  0.304544  1
  Er  Er8  1  0.415104  0.216012  0.197497  1
  Er  Er9  1  0.584896  0.783988  0.802503  1
  Er  Er10  1  0.018515  0.217608  0.802503  1
  Er  Er11  1  0.981485  0.782392  0.197497  1
  In  In12  1  0.500000  0.500000  0.000000  1
  Co  Co13  1  0.112560  0.612560  0.500000  1
  Co  Co14  1  0.887440  0.387440  0.500000  1
  Co  Co15  1  0.378347  0.999681  0.378028  1
  Co  Co16  1  0.621653  0.000319  0.621972  1
  Pt  Pt17  1  0.000000  0.000000  0.000000  1
