# generated using pymatgen
data_Dy4Er(OsO6)2
_symmetry_space_group_name_H-M   'P 1'
_cell_length_a   6.86957904
_cell_length_b   6.86957941
_cell_length_c   7.47335652
_cell_angle_alpha   73.98558532
_cell_angle_beta   73.98558315
_cell_angle_gamma   48.64461841
_symmetry_Int_Tables_number   1
_chemical_formula_structural   Dy4Er(OsO6)2
_chemical_formula_sum   'Dy4 Er1 Os2 O12'
_cell_volume   252.30404878
_cell_formula_units_Z   1
loop_
 _symmetry_equiv_pos_site_id
 _symmetry_equiv_pos_as_xyz
  1  'x, y, z'
loop_
 _atom_site_type_symbol
 _atom_site_label
 _atom_site_symmetry_multiplicity
 _atom_site_fract_x
 _atom_site_fract_y
 _atom_site_fract_z
 _atom_site_occupancy
  Dy  Dy0  1  0.698961  0.698961  0.642003  1
  Dy  Dy1  1  0.301039  0.301039  0.357997  1
  Dy  Dy2  1  0.687623  0.687623  0.171893  1
  Dy  Dy3  1  0.312377  0.312377  0.828107  1
  Er  Er4  1  0.000000  0.000000  0.500000  1
  Os  Os5  1  0.780304  0.219696  0.000000  1
  Os  Os6  1  0.219696  0.780304  0.000000  1
  O  O7  1  0.001403  0.001403  0.203624  1
  O  O8  1  0.998597  0.998597  0.796376  1
  O  O9  1  0.580559  0.086257  0.086309  1
  O  O10  1  0.419441  0.913743  0.913691  1
  O  O11  1  0.913743  0.419441  0.913691  1
  O  O12  1  0.086257  0.580559  0.086309  1
  O  O13  1  0.498907  0.498907  0.174750  1
  O  O14  1  0.501093  0.501093  0.825250  1
  O  O15  1  0.401822  0.901278  0.428346  1
  O  O16  1  0.598178  0.098722  0.571654  1
  O  O17  1  0.098722  0.598178  0.571654  1
  O  O18  1  0.901278  0.401822  0.428346  1
