# generated using pymatgen
data_NdY3CoAg
_symmetry_space_group_name_H-M   'P 1'
_cell_length_a   9.52388804
_cell_length_b   9.52388864
_cell_length_c   9.52388900
_cell_angle_alpha   60.00000221
_cell_angle_beta   60.00000015
_cell_angle_gamma   60.00000618
_symmetry_Int_Tables_number   1
_chemical_formula_structural   NdY3CoAg
_chemical_formula_sum   'Nd4 Y12 Co4 Ag4'
_cell_volume   610.84067068
_cell_formula_units_Z   4
loop_
 _symmetry_equiv_pos_site_id
 _symmetry_equiv_pos_as_xyz
  1  'x, y, z'
loop_
 _atom_site_type_symbol
 _atom_site_label
 _atom_site_symmetry_multiplicity
 _atom_site_fract_x
 _atom_site_fract_y
 _atom_site_fract_z
 _atom_site_occupancy
  Nd  Nd0  1  0.350746  0.350746  0.350746  1
  Nd  Nd1  1  0.350746  0.350746  0.947763  1
  Nd  Nd2  1  0.350746  0.947763  0.350746  1
  Nd  Nd3  1  0.947763  0.350746  0.350746  1
  Y  Y4  1  0.813354  0.186646  0.186646  1
  Y  Y5  1  0.186646  0.813354  0.813354  1
  Y  Y6  1  0.186646  0.813354  0.186646  1
  Y  Y7  1  0.813354  0.186646  0.813354  1
  Y  Y8  1  0.186646  0.186646  0.813354  1
  Y  Y9  1  0.813354  0.813354  0.186646  1
  Y  Y10  1  0.936564  0.563436  0.563436  1
  Y  Y11  1  0.563436  0.936564  0.936564  1
  Y  Y12  1  0.563436  0.936564  0.563436  1
  Y  Y13  1  0.936564  0.563436  0.936564  1
  Y  Y14  1  0.563436  0.563436  0.936564  1
  Y  Y15  1  0.936564  0.936564  0.563436  1
  Co  Co16  1  0.140806  0.140806  0.140806  1
  Co  Co17  1  0.140806  0.140806  0.577581  1
  Co  Co18  1  0.140806  0.577581  0.140806  1
  Co  Co19  1  0.577581  0.140806  0.140806  1
  Ag  Ag20  1  0.581825  0.581825  0.581825  1
  Ag  Ag21  1  0.581825  0.581825  0.254526  1
  Ag  Ag22  1  0.581825  0.254526  0.581825  1
  Ag  Ag23  1  0.254526  0.581825  0.581825  1
