# generated using pymatgen
data_Tb3Pa3TaCo17P12
_symmetry_space_group_name_H-M   'P 1'
_cell_length_a   3.73934900
_cell_length_b   10.50304235
_cell_length_c   12.21966200
_cell_angle_alpha   90.08422771
_cell_angle_beta   90.00000000
_cell_angle_gamma   90.00000000
_symmetry_Int_Tables_number   1
_chemical_formula_structural   Tb3Pa3TaCo17P12
_chemical_formula_sum   'Tb3 Pa3 Ta1 Co17 P12'
_cell_volume   479.92109648
_cell_formula_units_Z   1
loop_
 _symmetry_equiv_pos_site_id
 _symmetry_equiv_pos_as_xyz
  1  'x, y, z'
loop_
 _atom_site_type_symbol
 _atom_site_label
 _atom_site_symmetry_multiplicity
 _atom_site_fract_x
 _atom_site_fract_y
 _atom_site_fract_z
 _atom_site_occupancy
  Tb  Tb0  1  0.500000  0.186304  0.204065  1
  Tb  Tb1  1  0.000000  0.682119  0.793524  1
  Tb  Tb2  1  0.000000  0.318082  0.792161  1
  Pa  Pa3  1  0.000000  0.498913  0.527520  1
  Pa  Pa4  1  0.500000  0.000654  0.470319  1
  Pa  Pa5  1  0.500000  0.818143  0.206310  1
  Ta  Ta6  1  0.000000  0.999917  0.848133  1
  Co  Co7  1  0.500000  0.500351  0.161148  1
  Co  Co8  1  0.500000  0.499182  0.694773  1
  Co  Co9  1  0.000000  0.993970  0.301525  1
  Co  Co10  1  0.000000  0.499919  0.981704  1
  Co  Co11  1  0.500000  0.999655  0.016033  1
  Co  Co12  1  0.500000  0.337996  0.994430  1
  Co  Co13  1  0.500000  0.663996  0.996182  1
  Co  Co14  1  0.000000  0.171048  0.010185  1
  Co  Co15  1  0.000000  0.831463  0.013189  1
  Co  Co16  1  0.500000  0.299764  0.431778  1
  Co  Co17  1  0.500000  0.697482  0.430349  1
  Co  Co18  1  0.000000  0.199072  0.565777  1
  Co  Co19  1  0.000000  0.799814  0.568875  1
  Co  Co20  1  0.500000  0.879394  0.708744  1
  Co  Co21  1  0.500000  0.120776  0.708185  1
  Co  Co22  1  0.000000  0.621727  0.287657  1
  Co  Co23  1  0.000000  0.381853  0.290152  1
  P  P24  1  0.500000  0.500265  0.878027  1
  P  P25  1  0.000000  0.003709  0.120443  1
  P  P26  1  0.500000  0.498590  0.344162  1
  P  P27  1  0.000000  0.999547  0.647542  1
  P  P28  1  0.500000  0.306809  0.614781  1
  P  P29  1  0.500000  0.691808  0.615706  1
  P  P30  1  0.000000  0.191747  0.381131  1
  P  P31  1  0.000000  0.805129  0.387089  1
  P  P32  1  0.500000  0.839532  0.897141  1
  P  P33  1  0.500000  0.161605  0.897341  1
  P  P34  1  0.000000  0.646517  0.106086  1
  P  P35  1  0.000000  0.353154  0.107837  1
