# generated using pymatgen
data_Hf3In3Rh2
_symmetry_space_group_name_H-M   'P 1'
_cell_length_a   7.50501000
_cell_length_b   7.50501023
_cell_length_c   3.27216400
_cell_angle_alpha   90.00000000
_cell_angle_beta   90.00000000
_cell_angle_gamma   120.00000782
_symmetry_Int_Tables_number   1
_chemical_formula_structural   Hf3In3Rh2
_chemical_formula_sum   'Hf3 In3 Rh2'
_cell_volume   159.61298638
_cell_formula_units_Z   1
loop_
 _symmetry_equiv_pos_site_id
 _symmetry_equiv_pos_as_xyz
  1  'x, y, z'
loop_
 _atom_site_type_symbol
 _atom_site_label
 _atom_site_symmetry_multiplicity
 _atom_site_fract_x
 _atom_site_fract_y
 _atom_site_fract_z
 _atom_site_occupancy
  Hf  Hf0  1  0.419873  0.000000  0.500000  1
  Hf  Hf1  1  0.580127  0.580127  0.500000  1
  Hf  Hf2  1  0.000000  0.419873  0.500000  1
  In  In3  1  0.767507  0.000000  0.000000  1
  In  In4  1  0.232493  0.232493  0.000000  1
  In  In5  1  0.000000  0.767507  0.000000  1
  Rh  Rh6  1  0.333333  0.666667  0.000000  1
  Rh  Rh7  1  0.666667  0.333333  0.000000  1
