# generated using pymatgen
data_Zr2Ta2WN6
_symmetry_space_group_name_H-M   'P 1'
_cell_length_a   5.26282200
_cell_length_b   5.24483221
_cell_length_c   10.61754800
_cell_angle_alpha   90.00000000
_cell_angle_beta   90.00000000
_cell_angle_gamma   119.88700171
_symmetry_Int_Tables_number   1
_chemical_formula_structural   Zr2Ta2WN6
_chemical_formula_sum   'Zr4 Ta4 W2 N12'
_cell_volume   254.09640879
_cell_formula_units_Z   2
loop_
 _symmetry_equiv_pos_site_id
 _symmetry_equiv_pos_as_xyz
  1  'x, y, z'
loop_
 _atom_site_type_symbol
 _atom_site_label
 _atom_site_symmetry_multiplicity
 _atom_site_fract_x
 _atom_site_fract_y
 _atom_site_fract_z
 _atom_site_occupancy
  Zr  Zr0  1  0.331245  0.665623  0.500000  1
  Zr  Zr1  1  0.666860  0.333429  0.000000  1
  Zr  Zr2  1  0.666860  0.333429  0.500000  1
  Zr  Zr3  1  0.331245  0.665623  0.000000  1
  Ta  Ta4  1  0.999849  0.326112  0.250000  1
  Ta  Ta5  1  0.999849  0.673736  0.750000  1
  Ta  Ta6  1  0.325885  0.325716  0.750000  1
  Ta  Ta7  1  0.325885  0.000169  0.250000  1
  W  W8  1  0.674333  0.999912  0.750000  1
  W  W9  1  0.674333  0.674421  0.250000  1
  N  N10  1  0.340181  0.340073  0.371313  1
  N  N11  1  0.661566  0.998926  0.371966  1
  N  N12  1  0.999167  0.662761  0.371500  1
  N  N13  1  0.999167  0.336407  0.871500  1
  N  N14  1  0.661566  0.998926  0.128034  1
  N  N15  1  0.661566  0.662641  0.871966  1
  N  N16  1  0.340181  0.000108  0.871313  1
  N  N17  1  0.661566  0.662641  0.628034  1
  N  N18  1  0.999167  0.336407  0.628500  1
  N  N19  1  0.999167  0.662761  0.128500  1
  N  N20  1  0.340181  0.000108  0.628687  1
  N  N21  1  0.340181  0.340073  0.128687  1
