# generated using pymatgen
data_Ce4Ta3MoN8
_symmetry_space_group_name_H-M   'P 1'
_cell_length_a   3.27763500
_cell_length_b   5.66780385
_cell_length_c   10.87939800
_cell_angle_alpha   89.79622252
_cell_angle_beta   90.00000000
_cell_angle_gamma   90.00000000
_symmetry_Int_Tables_number   1
_chemical_formula_structural   Ce4Ta3MoN8
_chemical_formula_sum   'Ce4 Ta3 Mo1 N8'
_cell_volume   202.10521420
_cell_formula_units_Z   1
loop_
 _symmetry_equiv_pos_site_id
 _symmetry_equiv_pos_as_xyz
  1  'x, y, z'
loop_
 _atom_site_type_symbol
 _atom_site_label
 _atom_site_symmetry_multiplicity
 _atom_site_fract_x
 _atom_site_fract_y
 _atom_site_fract_z
 _atom_site_occupancy
  Ce  Ce0  1  0.250000  0.581295  0.859518  1
  Ce  Ce1  1  0.750000  0.416346  0.143406  1
  Ce  Ce2  1  0.750000  0.923601  0.360858  1
  Ce  Ce3  1  0.250000  0.080413  0.639304  1
  Ta  Ta4  1  0.250000  0.918970  0.106045  1
  Ta  Ta5  1  0.750000  0.079650  0.894781  1
  Ta  Ta6  1  0.750000  0.574909  0.599687  1
  Mo  Mo7  1  0.250000  0.426804  0.397039  1
  N  N8  1  0.250000  0.662170  0.247121  1
  N  N9  1  0.750000  0.337526  0.753372  1
  N  N10  1  0.750000  0.836035  0.744415  1
  N  N11  1  0.250000  0.161628  0.252505  1
  N  N12  1  0.250000  0.746935  0.508971  1
  N  N13  1  0.750000  0.255886  0.492849  1
  N  N14  1  0.750000  0.758128  0.008790  1
  N  N15  1  0.250000  0.239703  0.991341  1
