# generated using pymatgen
data_Th5Fe18P12Pd
_symmetry_space_group_name_H-M   'P 1'
_cell_length_a   12.11402500
_cell_length_b   12.11402578
_cell_length_c   3.79882900
_cell_angle_alpha   90.00000000
_cell_angle_beta   90.00000000
_cell_angle_gamma   120.00000061
_symmetry_Int_Tables_number   1
_chemical_formula_structural   Th5Fe18P12Pd
_chemical_formula_sum   'Th5 Fe18 P12 Pd1'
_cell_volume   482.78896255
_cell_formula_units_Z   1
loop_
 _symmetry_equiv_pos_site_id
 _symmetry_equiv_pos_as_xyz
  1  'x, y, z'
loop_
 _atom_site_type_symbol
 _atom_site_label
 _atom_site_symmetry_multiplicity
 _atom_site_fract_x
 _atom_site_fract_y
 _atom_site_fract_z
 _atom_site_occupancy
  Th  Th0  1  0.666667  0.333333  0.000000  1
  Th  Th1  1  0.333333  0.666667  0.000000  1
  Th  Th2  1  0.197827  0.197827  0.500000  1
  Th  Th3  1  0.802173  0.000000  0.500000  1
  Th  Th4  1  0.000000  0.802173  0.500000  1
  Fe  Fe5  1  0.817227  0.197420  0.000000  1
  Fe  Fe6  1  0.802580  0.619804  0.000000  1
  Fe  Fe7  1  0.380196  0.182773  0.000000  1
  Fe  Fe8  1  0.197420  0.817227  0.000000  1
  Fe  Fe9  1  0.619804  0.802580  0.000000  1
  Fe  Fe10  1  0.182773  0.380196  0.000000  1
  Fe  Fe11  1  0.561022  0.561022  0.000000  1
  Fe  Fe12  1  0.438978  0.000000  0.000000  1
  Fe  Fe13  1  0.000000  0.438978  0.000000  1
  Fe  Fe14  1  0.632928  0.121019  0.500000  1
  Fe  Fe15  1  0.878981  0.511910  0.500000  1
  Fe  Fe16  1  0.488090  0.367072  0.500000  1
  Fe  Fe17  1  0.121019  0.632928  0.500000  1
  Fe  Fe18  1  0.511910  0.878981  0.500000  1
  Fe  Fe19  1  0.367072  0.488090  0.500000  1
  Fe  Fe20  1  0.713193  0.713193  0.500000  1
  Fe  Fe21  1  0.286807  0.000000  0.500000  1
  Fe  Fe22  1  0.000000  0.286807  0.500000  1
  P  P23  1  0.381590  0.381590  0.000000  1
  P  P24  1  0.618410  0.000000  0.000000  1
  P  P25  1  0.000000  0.618410  0.000000  1
  P  P26  1  0.832654  0.307099  0.500000  1
  P  P27  1  0.692901  0.525556  0.500000  1
  P  P28  1  0.474444  0.167346  0.500000  1
  P  P29  1  0.307099  0.832654  0.500000  1
  P  P30  1  0.525556  0.692901  0.500000  1
  P  P31  1  0.167346  0.474444  0.500000  1
  P  P32  1  0.802297  0.802297  0.000000  1
  P  P33  1  0.197703  0.000000  0.000000  1
  P  P34  1  0.000000  0.197703  0.000000  1
  Pd  Pd35  1  0.000000  0.000000  0.000000  1
