# generated using pymatgen
data_Yb4CrFe3O10
_symmetry_space_group_name_H-M   'P 1'
_cell_length_a   5.40869900
_cell_length_b   5.62131483
_cell_length_c   15.64935220
_cell_angle_alpha   68.98316770
_cell_angle_beta   90.00000000
_cell_angle_gamma   90.00000000
_symmetry_Int_Tables_number   1
_chemical_formula_structural   Yb4CrFe3O10
_chemical_formula_sum   'Yb8 Cr2 Fe6 O20'
_cell_volume   444.15016466
_cell_formula_units_Z   2
loop_
 _symmetry_equiv_pos_site_id
 _symmetry_equiv_pos_as_xyz
  1  'x, y, z'
loop_
 _atom_site_type_symbol
 _atom_site_label
 _atom_site_symmetry_multiplicity
 _atom_site_fract_x
 _atom_site_fract_y
 _atom_site_fract_z
 _atom_site_occupancy
  Yb  Yb0  1  0.977589  0.370080  0.105334  1
  Yb  Yb1  1  0.477589  0.629920  0.394666  1
  Yb  Yb2  1  0.023034  0.920679  0.605592  1
  Yb  Yb3  1  0.523034  0.079321  0.894408  1
  Yb  Yb4  1  0.022411  0.629920  0.894666  1
  Yb  Yb5  1  0.522411  0.370080  0.605334  1
  Yb  Yb6  1  0.976966  0.079321  0.394408  1
  Yb  Yb7  1  0.476966  0.920679  0.105592  1
  Cr  Cr8  1  0.500000  0.500000  0.000000  1
  Cr  Cr9  1  0.000000  0.500000  0.500000  1
  Fe  Fe10  1  0.446100  0.317256  0.249110  1
  Fe  Fe11  1  0.946100  0.682744  0.250890  1
  Fe  Fe12  1  0.553900  0.682744  0.750890  1
  Fe  Fe13  1  0.053900  0.317256  0.749110  1
  Fe  Fe14  1  0.500000  0.000000  0.500000  1
  Fe  Fe15  1  0.000000  0.000000  0.000000  1
  O  O16  1  0.764832  0.280325  0.982275  1
  O  O17  1  0.264832  0.719675  0.517725  1
  O  O18  1  0.235931  0.252578  0.481931  1
  O  O19  1  0.735931  0.747422  0.018069  1
  O  O20  1  0.235168  0.719675  0.017725  1
  O  O21  1  0.735168  0.280325  0.482275  1
  O  O22  1  0.764069  0.747422  0.518069  1
  O  O23  1  0.264069  0.252578  0.981931  1
  O  O24  1  0.531358  0.285509  0.137886  1
  O  O25  1  0.031358  0.714491  0.362114  1
  O  O26  1  0.464988  0.940753  0.641729  1
  O  O27  1  0.964988  0.059247  0.858271  1
  O  O28  1  0.468642  0.714491  0.862114  1
  O  O29  1  0.968642  0.285509  0.637886  1
  O  O30  1  0.535012  0.059247  0.358271  1
  O  O31  1  0.035012  0.940753  0.141729  1
  O  O32  1  0.087081  0.365616  0.249991  1
  O  O33  1  0.587081  0.634384  0.250009  1
  O  O34  1  0.912919  0.634384  0.750009  1
  O  O35  1  0.412919  0.365616  0.749991  1
