# generated using pymatgen
data_Tb4NdDyTa2O14
_symmetry_space_group_name_H-M   'P 1'
_cell_length_a   6.52300969
_cell_length_b   6.51872445
_cell_length_c   7.55888379
_cell_angle_alpha   90.08534631
_cell_angle_beta   89.89930083
_cell_angle_gamma   108.98629913
_symmetry_Int_Tables_number   1
_chemical_formula_structural   Tb4NdDyTa2O14
_chemical_formula_sum   'Tb4 Nd1 Dy1 Ta2 O14'
_cell_volume   303.92977627
_cell_formula_units_Z   1
loop_
 _symmetry_equiv_pos_site_id
 _symmetry_equiv_pos_as_xyz
  1  'x, y, z'
loop_
 _atom_site_type_symbol
 _atom_site_label
 _atom_site_symmetry_multiplicity
 _atom_site_fract_x
 _atom_site_fract_y
 _atom_site_fract_z
 _atom_site_occupancy
  Tb  Tb0  1  0.536002  0.534542  0.500077  1
  Tb  Tb1  1  0.001300  0.464854  0.744206  1
  Tb  Tb2  1  0.533919  0.001771  0.752006  1
  Tb  Tb3  1  0.464834  0.000966  0.255902  1
  Nd  Nd4  1  0.495458  0.495588  0.000389  1
  Dy  Dy5  1  0.001962  0.533879  0.247716  1
  Ta  Ta6  1  0.002718  0.002925  0.499776  1
  Ta  Ta7  1  0.999183  0.999083  0.000340  1
  O  O8  1  0.935379  0.064606  0.750360  1
  O  O9  1  0.064466  0.933694  0.249740  1
  O  O10  1  0.358888  0.640100  0.257868  1
  O  O11  1  0.641032  0.360815  0.742914  1
  O  O12  1  0.368754  0.632728  0.742465  1
  O  O13  1  0.634653  0.369642  0.256895  1
  O  O14  1  0.321014  0.072100  0.970793  1
  O  O15  1  0.674435  0.919259  0.472673  1
  O  O16  1  0.310147  0.055020  0.537659  1
  O  O17  1  0.681938  0.932235  0.035963  1
  O  O18  1  0.048689  0.308431  0.460268  1
  O  O19  1  0.934161  0.682281  0.964334  1
  O  O20  1  0.920930  0.674907  0.527094  1
  O  O21  1  0.070135  0.320573  0.030561  1
