# generated using pymatgen
data_HfNi4Te6Mo
_symmetry_space_group_name_H-M   'P 1'
_cell_length_a   7.77792008
_cell_length_b   3.77896700
_cell_length_c   10.48195699
_cell_angle_alpha   90.00000000
_cell_angle_beta   109.32424175
_cell_angle_gamma   90.00000000
_symmetry_Int_Tables_number   1
_chemical_formula_structural   HfNi4Te6Mo
_chemical_formula_sum   'Hf1 Ni4 Te6 Mo1'
_cell_volume   290.73342761
_cell_formula_units_Z   1
loop_
 _symmetry_equiv_pos_site_id
 _symmetry_equiv_pos_as_xyz
  1  'x, y, z'
loop_
 _atom_site_type_symbol
 _atom_site_label
 _atom_site_symmetry_multiplicity
 _atom_site_fract_x
 _atom_site_fract_y
 _atom_site_fract_z
 _atom_site_occupancy
  Hf  Hf0  1  0.212277  0.750000  0.702126  1
  Ni  Ni1  1  0.597487  0.750000  0.094832  1
  Ni  Ni2  1  0.034063  0.750000  0.429884  1
  Ni  Ni3  1  0.954664  0.250001  0.561538  1
  Ni  Ni4  1  0.411441  0.250001  0.912071  1
  Te  Te5  1  0.433359  0.250001  0.163178  1
  Te  Te6  1  0.937372  0.750000  0.173436  1
  Te  Te7  1  0.267403  0.250001  0.496848  1
  Te  Te8  1  0.723241  0.750000  0.488022  1
  Te  Te9  1  0.049791  0.250001  0.828403  1
  Te  Te10  1  0.587818  0.750000  0.848049  1
  Mo  Mo11  1  0.791084  0.250001  0.301607  1
