# generated using pymatgen
data_Tm(Ti3Bi2)2
_symmetry_space_group_name_H-M   'P 1'
_cell_length_a   8.46322156
_cell_length_b   8.46322130
_cell_length_c   8.46322032
_cell_angle_alpha   40.57976757
_cell_angle_beta   40.57976861
_cell_angle_gamma   40.57977179
_symmetry_Int_Tables_number   1
_chemical_formula_structural   Tm(Ti3Bi2)2
_chemical_formula_sum   'Tm1 Ti6 Bi4'
_cell_volume   231.38463433
_cell_formula_units_Z   1
loop_
 _symmetry_equiv_pos_site_id
 _symmetry_equiv_pos_as_xyz
  1  'x, y, z'
loop_
 _atom_site_type_symbol
 _atom_site_label
 _atom_site_symmetry_multiplicity
 _atom_site_fract_x
 _atom_site_fract_y
 _atom_site_fract_z
 _atom_site_occupancy
  Tm  Tm0  1  0.000000  0.000000  0.000000  1
  Ti  Ti1  1  0.596662  0.596662  0.122156  1
  Ti  Ti2  1  0.877843  0.403338  0.403338  1
  Ti  Ti3  1  0.403338  0.877843  0.403338  1
  Ti  Ti4  1  0.596662  0.122157  0.596662  1
  Ti  Ti5  1  0.122157  0.596662  0.596662  1
  Ti  Ti6  1  0.403338  0.403338  0.877843  1
  Bi  Bi7  1  0.128742  0.128742  0.128742  1
  Bi  Bi8  1  0.331485  0.331485  0.331485  1
  Bi  Bi9  1  0.668515  0.668515  0.668515  1
  Bi  Bi10  1  0.871258  0.871258  0.871258  1
