# generated using pymatgen
data_Ba3TaAl3(SiO7)2
_symmetry_space_group_name_H-M   'P 1'
_cell_length_a   8.56612100
_cell_length_b   8.56612127
_cell_length_c   5.18461600
_cell_angle_alpha   90.00000000
_cell_angle_beta   90.00000000
_cell_angle_gamma   119.99999509
_symmetry_Int_Tables_number   1
_chemical_formula_structural   Ba3TaAl3(SiO7)2
_chemical_formula_sum   'Ba3 Ta1 Al3 Si2 O14'
_cell_volume   329.46984539
_cell_formula_units_Z   1
loop_
 _symmetry_equiv_pos_site_id
 _symmetry_equiv_pos_as_xyz
  1  'x, y, z'
loop_
 _atom_site_type_symbol
 _atom_site_label
 _atom_site_symmetry_multiplicity
 _atom_site_fract_x
 _atom_site_fract_y
 _atom_site_fract_z
 _atom_site_occupancy
  Ba  Ba0  1  0.574593  0.574593  0.000000  1
  Ba  Ba1  1  0.000000  0.425407  0.000000  1
  Ba  Ba2  1  0.425407  0.000000  0.000000  1
  Ta  Ta3  1  0.000000  0.000000  0.000000  1
  Al  Al4  1  0.261105  0.261105  0.500000  1
  Al  Al5  1  0.000000  0.738895  0.500000  1
  Al  Al6  1  0.738895  0.000000  0.500000  1
  Si  Si7  1  0.666667  0.333333  0.511583  1
  Si  Si8  1  0.333333  0.666667  0.488417  1
  O  O9  1  0.117497  0.216749  0.768787  1
  O  O10  1  0.783251  0.900748  0.768787  1
  O  O11  1  0.099252  0.882503  0.768787  1
  O  O12  1  0.900748  0.783251  0.231213  1
  O  O13  1  0.882503  0.099252  0.231213  1
  O  O14  1  0.216749  0.117497  0.231213  1
  O  O15  1  0.300504  0.473008  0.367069  1
  O  O16  1  0.526992  0.827495  0.367069  1
  O  O17  1  0.172505  0.699496  0.367069  1
  O  O18  1  0.333333  0.666667  0.799249  1
  O  O19  1  0.666667  0.333333  0.200751  1
  O  O20  1  0.473008  0.300504  0.632931  1
  O  O21  1  0.699496  0.172505  0.632931  1
  O  O22  1  0.827495  0.526992  0.632931  1
