# generated using pymatgen
data_TbCeY3Co4
_symmetry_space_group_name_H-M   'P 1'
_cell_length_a   5.80895205
_cell_length_b   5.80895106
_cell_length_c   9.22193372
_cell_angle_alpha   71.77863024
_cell_angle_beta   71.77863434
_cell_angle_gamma   39.73244230
_symmetry_Int_Tables_number   1
_chemical_formula_structural   TbCeY3Co4
_chemical_formula_sum   'Tb1 Ce1 Y3 Co4'
_cell_volume   187.59438068
_cell_formula_units_Z   1
loop_
 _symmetry_equiv_pos_site_id
 _symmetry_equiv_pos_as_xyz
  1  'x, y, z'
loop_
 _atom_site_type_symbol
 _atom_site_label
 _atom_site_symmetry_multiplicity
 _atom_site_fract_x
 _atom_site_fract_y
 _atom_site_fract_z
 _atom_site_occupancy
  Tb  Tb0  1  0.729071  0.729071  0.680068  1
  Ce  Ce1  1  0.499753  0.499753  0.500126  1
  Y  Y2  1  0.270474  0.270474  0.320181  1
  Y  Y3  1  0.389989  0.389989  0.898962  1
  Y  Y4  1  0.609907  0.609907  0.101452  1
  Co  Co5  1  0.031358  0.031358  0.644224  1
  Co  Co6  1  0.969107  0.969107  0.355361  1
  Co  Co7  1  0.087835  0.087835  0.879958  1
  Co  Co8  1  0.912506  0.912506  0.119668  1
