# generated using pymatgen
data_Zr3Ga3FePd2
_symmetry_space_group_name_H-M   'P 1'
_cell_length_a   7.25675200
_cell_length_b   7.25675150
_cell_length_c   6.76526200
_cell_angle_alpha   90.00000000
_cell_angle_beta   90.00000000
_cell_angle_gamma   120.00000229
_symmetry_Int_Tables_number   1
_chemical_formula_structural   Zr3Ga3FePd2
_chemical_formula_sum   'Zr6 Ga6 Fe2 Pd4'
_cell_volume   308.53168743
_cell_formula_units_Z   2
loop_
 _symmetry_equiv_pos_site_id
 _symmetry_equiv_pos_as_xyz
  1  'x, y, z'
loop_
 _atom_site_type_symbol
 _atom_site_label
 _atom_site_symmetry_multiplicity
 _atom_site_fract_x
 _atom_site_fract_y
 _atom_site_fract_z
 _atom_site_occupancy
  Zr  Zr0  1  0.746655  0.055072  0.000000  1
  Zr  Zr1  1  0.308416  0.253345  0.000000  1
  Zr  Zr2  1  0.944928  0.691584  0.000000  1
  Zr  Zr3  1  0.311136  0.253993  0.500000  1
  Zr  Zr4  1  0.746007  0.057142  0.500000  1
  Zr  Zr5  1  0.942858  0.688864  0.500000  1
  Ga  Ga6  1  0.608017  0.666409  0.749909  1
  Ga  Ga7  1  0.058393  0.391983  0.749909  1
  Ga  Ga8  1  0.333591  0.941607  0.749909  1
  Ga  Ga9  1  0.608017  0.666409  0.250091  1
  Ga  Ga10  1  0.058393  0.391983  0.250091  1
  Ga  Ga11  1  0.333591  0.941607  0.250091  1
  Fe  Fe12  1  0.000000  0.000000  0.251393  1
  Fe  Fe13  1  0.000000  0.000000  0.748607  1
  Pd  Pd14  1  0.333333  0.666667  0.000000  1
  Pd  Pd15  1  0.333333  0.666667  0.500000  1
  Pd  Pd16  1  0.666667  0.333333  0.753838  1
  Pd  Pd17  1  0.666667  0.333333  0.246162  1
