# generated using pymatgen
data_Cs6CaSe4
_symmetry_space_group_name_H-M   'P 1'
_cell_length_a   11.49278900
_cell_length_b   11.49278905
_cell_length_c   8.85533300
_cell_angle_alpha   90.00000000
_cell_angle_beta   90.00000000
_cell_angle_gamma   120.00000274
_symmetry_Int_Tables_number   1
_chemical_formula_structural   Cs6CaSe4
_chemical_formula_sum   'Cs12 Ca2 Se8'
_cell_volume   1012.94621398
_cell_formula_units_Z   2
loop_
 _symmetry_equiv_pos_site_id
 _symmetry_equiv_pos_as_xyz
  1  'x, y, z'
loop_
 _atom_site_type_symbol
 _atom_site_label
 _atom_site_symmetry_multiplicity
 _atom_site_fract_x
 _atom_site_fract_y
 _atom_site_fract_z
 _atom_site_occupancy
  Cs  Cs0  1  0.146153  0.853847  0.543304  1
  Cs  Cs1  1  0.292306  0.146153  0.043304  1
  Cs  Cs2  1  0.853847  0.707694  0.043304  1
  Cs  Cs3  1  0.146153  0.292306  0.543304  1
  Cs  Cs4  1  0.707694  0.853847  0.543304  1
  Cs  Cs5  1  0.853847  0.146153  0.043304  1
  Cs  Cs6  1  0.530223  0.469777  0.365277  1
  Cs  Cs7  1  0.060446  0.530223  0.865277  1
  Cs  Cs8  1  0.469777  0.939554  0.865277  1
  Cs  Cs9  1  0.530223  0.060446  0.365277  1
  Cs  Cs10  1  0.939554  0.469777  0.365277  1
  Cs  Cs11  1  0.469777  0.530223  0.865277  1
  Ca  Ca12  1  0.333333  0.666667  0.251041  1
  Ca  Ca13  1  0.666667  0.333333  0.751041  1
  Se  Se14  1  0.333333  0.666667  0.575247  1
  Se  Se15  1  0.666667  0.333333  0.075247  1
  Se  Se16  1  0.195279  0.804721  0.152557  1
  Se  Se17  1  0.390557  0.195279  0.652557  1
  Se  Se18  1  0.804721  0.609443  0.652557  1
  Se  Se19  1  0.195279  0.390557  0.152557  1
  Se  Se20  1  0.609443  0.804721  0.152557  1
  Se  Se21  1  0.804721  0.195279  0.652557  1
