# generated using pymatgen
data_Tb8Sb(Pd2Pt)8
_symmetry_space_group_name_H-M   'P 1'
_cell_length_a   8.39712527
_cell_length_b   8.42163649
_cell_length_c   8.45740900
_cell_angle_alpha   89.81796276
_cell_angle_beta   89.89708814
_cell_angle_gamma   89.82446112
_symmetry_Int_Tables_number   1
_chemical_formula_structural   Tb8Sb(Pd2Pt)8
_chemical_formula_sum   'Tb8 Sb1 Pd16 Pt8'
_cell_volume   598.08035138
_cell_formula_units_Z   1
loop_
 _symmetry_equiv_pos_site_id
 _symmetry_equiv_pos_as_xyz
  1  'x, y, z'
loop_
 _atom_site_type_symbol
 _atom_site_label
 _atom_site_symmetry_multiplicity
 _atom_site_fract_x
 _atom_site_fract_y
 _atom_site_fract_z
 _atom_site_occupancy
  Tb  Tb0  1  0.747039  0.746240  0.253985  1
  Tb  Tb1  1  0.745961  0.253374  0.746244  1
  Tb  Tb2  1  0.253697  0.746497  0.745383  1
  Tb  Tb3  1  0.746441  0.746893  0.746217  1
  Tb  Tb4  1  0.746123  0.253888  0.253965  1
  Tb  Tb5  1  0.254147  0.253784  0.745127  1
  Tb  Tb6  1  0.253074  0.745474  0.254623  1
  Tb  Tb7  1  0.253905  0.254522  0.254944  1
  Sb  Sb8  1  0.999973  0.000817  0.999749  1
  Pd  Pd9  1  0.000401  0.000321  0.304685  1
  Pd  Pd10  1  0.499809  0.000785  0.264318  1
  Pd  Pd11  1  0.999892  0.263630  0.499987  1
  Pd  Pd12  1  0.499788  0.735111  0.999746  1
  Pd  Pd13  1  0.500161  0.746097  0.500064  1
  Pd  Pd14  1  0.746203  0.500340  0.499884  1
  Pd  Pd15  1  0.306786  0.999156  0.000456  1
  Pd  Pd16  1  0.000162  0.999675  0.695138  1
  Pd  Pd17  1  0.000268  0.499704  0.264116  1
  Pd  Pd18  1  0.000276  0.306331  0.999936  1
  Pd  Pd19  1  0.999745  0.694097  0.999707  1
  Pd  Pd20  1  0.693107  0.999033  0.000252  1
  Pd  Pd21  1  0.264083  0.500208  0.000252  1
  Pd  Pd22  1  0.263304  0.999596  0.499782  1
  Pd  Pd23  1  0.000213  0.499704  0.735699  1
  Pd  Pd24  1  0.499742  0.264360  0.000036  1
  Pt  Pt25  1  0.736404  0.999506  0.499857  1
  Pt  Pt26  1  0.735675  0.500278  0.000185  1
  Pt  Pt27  1  0.499849  0.000825  0.735687  1
  Pt  Pt28  1  0.999794  0.735968  0.499913  1
  Pt  Pt29  1  0.253960  0.500512  0.499905  1
  Pt  Pt30  1  0.499922  0.499650  0.746779  1
  Pt  Pt31  1  0.499935  0.499473  0.253479  1
  Pt  Pt32  1  0.500161  0.254152  0.499898  1
