# generated using pymatgen
data_Pr2NdLu(AsPt)4
_symmetry_space_group_name_H-M   'P 1'
_cell_length_a   4.30888000
_cell_length_b   4.30887953
_cell_length_c   16.09570600
_cell_angle_alpha   90.00000000
_cell_angle_beta   90.00000000
_cell_angle_gamma   120.00000360
_symmetry_Int_Tables_number   1
_chemical_formula_structural   Pr2NdLu(AsPt)4
_chemical_formula_sum   'Pr2 Nd1 Lu1 As4 Pt4'
_cell_volume   258.80305474
_cell_formula_units_Z   1
loop_
 _symmetry_equiv_pos_site_id
 _symmetry_equiv_pos_as_xyz
  1  'x, y, z'
loop_
 _atom_site_type_symbol
 _atom_site_label
 _atom_site_symmetry_multiplicity
 _atom_site_fract_x
 _atom_site_fract_y
 _atom_site_fract_z
 _atom_site_occupancy
  Pr  Pr0  1  0.000000  0.000000  0.507292  1
  Pr  Pr1  1  0.000000  0.000000  0.992708  1
  Nd  Nd2  1  0.000000  0.000000  0.250000  1
  Lu  Lu3  1  0.000000  0.000000  0.750000  1
  As  As4  1  0.333333  0.666667  0.876632  1
  As  As5  1  0.666667  0.333333  0.118851  1
  As  As6  1  0.666667  0.333333  0.381149  1
  As  As7  1  0.333333  0.666667  0.623368  1
  Pt  Pt8  1  0.333333  0.666667  0.373807  1
  Pt  Pt9  1  0.666667  0.333333  0.649937  1
  Pt  Pt10  1  0.666667  0.333333  0.850063  1
  Pt  Pt11  1  0.333333  0.666667  0.126193  1
