# generated using pymatgen
data_Ac6CdSn5Pd6
_symmetry_space_group_name_H-M   'P 1'
_cell_length_a   7.87467500
_cell_length_b   7.85102906
_cell_length_c   8.61899400
_cell_angle_alpha   90.02099597
_cell_angle_beta   90.00000000
_cell_angle_gamma   120.09968475
_symmetry_Int_Tables_number   1
_chemical_formula_structural   Ac6CdSn5Pd6
_chemical_formula_sum   'Ac6 Cd1 Sn5 Pd6'
_cell_volume   461.00886163
_cell_formula_units_Z   1
loop_
 _symmetry_equiv_pos_site_id
 _symmetry_equiv_pos_as_xyz
  1  'x, y, z'
loop_
 _atom_site_type_symbol
 _atom_site_label
 _atom_site_symmetry_multiplicity
 _atom_site_fract_x
 _atom_site_fract_y
 _atom_site_fract_z
 _atom_site_occupancy
  Ac  Ac0  1  0.415665  0.000293  0.248366  1
  Ac  Ac1  1  0.584182  0.584054  0.249008  1
  Ac  Ac2  1  0.999756  0.415754  0.249062  1
  Ac  Ac3  1  0.415372  0.999707  0.751634  1
  Ac  Ac4  1  0.584002  0.584246  0.750938  1
  Ac  Ac5  1  0.000129  0.415946  0.750992  1
  Cd  Cd6  1  0.758567  0.000000  0.000000  1
  Sn  Sn7  1  0.247196  0.246741  0.500040  1
  Sn  Sn8  1  0.000456  0.753259  0.499960  1
  Sn  Sn9  1  0.995625  0.763433  0.000029  1
  Sn  Sn10  1  0.232191  0.236567  0.999971  1
  Sn  Sn11  1  0.755777  0.000000  0.500000  1
  Pd  Pd12  1  0.326353  0.661848  0.000673  1
  Pd  Pd13  1  0.335323  0.666090  0.499070  1
  Pd  Pd14  1  0.664507  0.338152  0.999327  1
  Pd  Pd15  1  0.669233  0.333910  0.500930  1
  Pd  Pd16  1  0.007859  0.000051  0.257703  1
  Pd  Pd17  1  0.007809  0.999949  0.742297  1
