# generated using pymatgen
data_YbDy2Y7Ru4
_symmetry_space_group_name_H-M   'P 1'
_cell_length_a   8.52729349
_cell_length_b   8.52829590
_cell_length_c   7.29359790
_cell_angle_alpha   83.40982119
_cell_angle_beta   83.28776075
_cell_angle_gamma   43.94064343
_symmetry_Int_Tables_number   1
_chemical_formula_structural   YbDy2Y7Ru4
_chemical_formula_sum   'Yb1 Dy2 Y7 Ru4'
_cell_volume   365.17790008
_cell_formula_units_Z   1
loop_
 _symmetry_equiv_pos_site_id
 _symmetry_equiv_pos_as_xyz
  1  'x, y, z'
loop_
 _atom_site_type_symbol
 _atom_site_label
 _atom_site_symmetry_multiplicity
 _atom_site_fract_x
 _atom_site_fract_y
 _atom_site_fract_z
 _atom_site_occupancy
  Yb  Yb0  1  0.206201  0.979814  0.582736  1
  Dy  Dy1  1  0.576167  0.424327  0.750239  1
  Dy  Dy2  1  0.422656  0.579175  0.249659  1
  Y  Y3  1  0.021821  0.793526  0.916173  1
  Y  Y4  1  0.204257  0.361999  0.314359  1
  Y  Y5  1  0.641397  0.792436  0.183650  1
  Y  Y6  1  0.795109  0.640431  0.684740  1
  Y  Y7  1  0.360719  0.204848  0.815403  1
  Y  Y8  1  0.978584  0.208815  0.084257  1
  Y  Y9  1  0.793595  0.020892  0.414857  1
  Ru  Ru10  1  0.177697  0.596146  0.575512  1
  Ru  Ru11  1  0.400381  0.818810  0.929695  1
  Ru  Ru12  1  0.818775  0.399274  0.424246  1
  Ru  Ru13  1  0.602640  0.179505  0.074474  1
