# generated using pymatgen
data_Ba2BiSb2
_symmetry_space_group_name_H-M   'P 1'
_cell_length_a   4.79163914
_cell_length_b   6.82746509
_cell_length_c   6.82746521
_cell_angle_alpha   96.57311655
_cell_angle_beta   110.54292769
_cell_angle_gamma   110.54293261
_symmetry_Int_Tables_number   1
_chemical_formula_structural   Ba2BiSb2
_chemical_formula_sum   'Ba2 Bi1 Sb2'
_cell_volume   188.52736536
_cell_formula_units_Z   1
loop_
 _symmetry_equiv_pos_site_id
 _symmetry_equiv_pos_as_xyz
  1  'x, y, z'
loop_
 _atom_site_type_symbol
 _atom_site_label
 _atom_site_symmetry_multiplicity
 _atom_site_fract_x
 _atom_site_fract_y
 _atom_site_fract_z
 _atom_site_occupancy
  Ba  Ba0  1  0.500000  0.721073  0.278927  1
  Ba  Ba1  1  0.500000  0.278927  0.721073  1
  Bi  Bi2  1  0.000000  0.000000  0.000000  1
  Sb  Sb3  1  0.798337  0.298337  0.298337  1
  Sb  Sb4  1  0.201662  0.701662  0.701662  1
