# generated using pymatgen
data_Er3Be(SiIr3)2
_symmetry_space_group_name_H-M   'P 1'
_cell_length_a   5.51841200
_cell_length_b   5.51841202
_cell_length_c   14.92150600
_cell_angle_alpha   90.00000000
_cell_angle_beta   90.00000000
_cell_angle_gamma   119.99999990
_symmetry_Int_Tables_number   1
_chemical_formula_structural   Er3Be(SiIr3)2
_chemical_formula_sum   'Er6 Be2 Si4 Ir12'
_cell_volume   393.52428107
_cell_formula_units_Z   2
loop_
 _symmetry_equiv_pos_site_id
 _symmetry_equiv_pos_as_xyz
  1  'x, y, z'
loop_
 _atom_site_type_symbol
 _atom_site_label
 _atom_site_symmetry_multiplicity
 _atom_site_fract_x
 _atom_site_fract_y
 _atom_site_fract_z
 _atom_site_occupancy
  Er  Er0  1  0.333333  0.666667  0.538164  1
  Er  Er1  1  0.666667  0.333333  0.461836  1
  Er  Er2  1  0.666667  0.333333  0.038164  1
  Er  Er3  1  0.333333  0.666667  0.961836  1
  Er  Er4  1  0.333333  0.666667  0.750000  1
  Er  Er5  1  0.666667  0.333333  0.250000  1
  Be  Be6  1  0.000000  0.000000  0.250000  1
  Be  Be7  1  0.000000  0.000000  0.750000  1
  Si  Si8  1  0.333333  0.666667  0.250000  1
  Si  Si9  1  0.666667  0.333333  0.750000  1
  Si  Si10  1  0.000000  0.000000  0.000000  1
  Si  Si11  1  0.000000  0.000000  0.500000  1
  Ir  Ir12  1  0.165181  0.330363  0.131120  1
  Ir  Ir13  1  0.834819  0.669637  0.868880  1
  Ir  Ir14  1  0.669637  0.834819  0.131120  1
  Ir  Ir15  1  0.834819  0.669637  0.631120  1
  Ir  Ir16  1  0.330363  0.165181  0.868880  1
  Ir  Ir17  1  0.165181  0.330363  0.368880  1
  Ir  Ir18  1  0.165181  0.834819  0.131120  1
  Ir  Ir19  1  0.330363  0.165181  0.631120  1
  Ir  Ir20  1  0.834819  0.165181  0.868880  1
  Ir  Ir21  1  0.669637  0.834819  0.368880  1
  Ir  Ir22  1  0.834819  0.165181  0.631120  1
  Ir  Ir23  1  0.165181  0.834819  0.368880  1
