# generated using pymatgen
data_MgSc2(SeO3)4
_symmetry_space_group_name_H-M   'P 1'
_cell_length_a   8.40831900
_cell_length_b   8.49886486
_cell_length_c   8.51283304
_cell_angle_alpha   86.93530919
_cell_angle_beta   90.00000000
_cell_angle_gamma   90.00000000
_symmetry_Int_Tables_number   1
_chemical_formula_structural   MgSc2(SeO3)4
_chemical_formula_sum   'Mg2 Sc4 Se8 O24'
_cell_volume   607.46694334
_cell_formula_units_Z   2
loop_
 _symmetry_equiv_pos_site_id
 _symmetry_equiv_pos_as_xyz
  1  'x, y, z'
loop_
 _atom_site_type_symbol
 _atom_site_label
 _atom_site_symmetry_multiplicity
 _atom_site_fract_x
 _atom_site_fract_y
 _atom_site_fract_z
 _atom_site_occupancy
  Mg  Mg0  1  0.599009  0.342690  0.158049  1
  Mg  Mg1  1  0.400991  0.842690  0.158049  1
  Sc  Sc2  1  0.762816  0.748729  0.003087  1
  Sc  Sc3  1  0.735336  0.245772  0.508347  1
  Sc  Sc4  1  0.237184  0.248729  0.003087  1
  Sc  Sc5  1  0.264664  0.745772  0.508347  1
  Se  Se6  1  0.103083  0.552662  0.198721  1
  Se  Se7  1  0.896917  0.052662  0.198721  1
  Se  Se8  1  0.566950  0.453679  0.826128  1
  Se  Se9  1  0.328108  0.153807  0.406950  1
  Se  Se10  1  0.055358  0.422328  0.678403  1
  Se  Se11  1  0.433050  0.953679  0.826128  1
  Se  Se12  1  0.671892  0.653807  0.406950  1
  Se  Se13  1  0.944642  0.922328  0.678403  1
  O  O14  1  0.961719  0.682678  0.125690  1
  O  O15  1  0.314116  0.007523  0.985700  1
  O  O16  1  0.160958  0.270919  0.776116  1
  O  O17  1  0.656599  0.456507  0.357120  1
  O  O18  1  0.753412  0.186245  0.260785  1
  O  O19  1  0.191935  0.489939  0.032118  1
  O  O20  1  0.208230  0.517498  0.576589  1
  O  O21  1  0.619596  0.749144  0.227024  1
  O  O22  1  0.702018  0.359749  0.717097  1
  O  O23  1  0.343401  0.956507  0.357120  1
  O  O24  1  0.968733  0.322307  0.528914  1
  O  O25  1  0.483263  0.299388  0.942244  1
  O  O26  1  0.839042  0.770919  0.776116  1
  O  O27  1  0.507154  0.679135  0.516820  1
  O  O28  1  0.297982  0.859749  0.717097  1
  O  O29  1  0.246588  0.686245  0.260785  1
  O  O30  1  0.380404  0.249144  0.227024  1
  O  O31  1  0.038281  0.182678  0.125690  1
  O  O32  1  0.031267  0.822307  0.528914  1
  O  O33  1  0.516737  0.799388  0.942244  1
  O  O34  1  0.685884  0.507522  0.985700  1
  O  O35  1  0.791770  0.017498  0.576589  1
  O  O36  1  0.492846  0.179135  0.516820  1
  O  O37  1  0.808065  0.989939  0.032118  1
