# generated using pymatgen
data_Dy4AlGa5Ru2
_symmetry_space_group_name_H-M   'P 1'
_cell_length_a   5.50054900
_cell_length_b   5.46837014
_cell_length_c   8.75476900
_cell_angle_alpha   90.00000000
_cell_angle_beta   90.00000000
_cell_angle_gamma   120.19484472
_symmetry_Int_Tables_number   1
_chemical_formula_structural   Dy4AlGa5Ru2
_chemical_formula_sum   'Dy4 Al1 Ga5 Ru2'
_cell_volume   227.60574736
_cell_formula_units_Z   1
loop_
 _symmetry_equiv_pos_site_id
 _symmetry_equiv_pos_as_xyz
  1  'x, y, z'
loop_
 _atom_site_type_symbol
 _atom_site_label
 _atom_site_symmetry_multiplicity
 _atom_site_fract_x
 _atom_site_fract_y
 _atom_site_fract_z
 _atom_site_occupancy
  Dy  Dy0  1  0.667791  0.335581  0.050852  1
  Dy  Dy1  1  0.667791  0.335581  0.449149  1
  Dy  Dy2  1  0.333285  0.666570  0.552560  1
  Dy  Dy3  1  0.333285  0.666570  0.947440  1
  Al  Al4  1  0.159557  0.319114  0.250000  1
  Ga  Ga5  1  0.162307  0.830797  0.250000  1
  Ga  Ga6  1  0.668491  0.830797  0.250000  1
  Ga  Ga7  1  0.329147  0.163943  0.749999  1
  Ga  Ga8  1  0.834795  0.163943  0.749999  1
  Ga  Ga9  1  0.836016  0.672030  0.749999  1
  Ru  Ru10  1  0.003768  0.007536  0.000457  1
  Ru  Ru11  1  0.003768  0.007536  0.499543  1
