# generated using pymatgen
data_Sc8Ga3Os
_symmetry_space_group_name_H-M   'P 1'
_cell_length_a   9.44123903
_cell_length_b   9.44122049
_cell_length_c   6.43498000
_cell_angle_alpha   90.00000000
_cell_angle_beta   90.00000000
_cell_angle_gamma   119.99125825
_symmetry_Int_Tables_number   1
_chemical_formula_structural   Sc8Ga3Os
_chemical_formula_sum   'Sc16 Ga6 Os2'
_cell_volume   496.79042377
_cell_formula_units_Z   2
loop_
 _symmetry_equiv_pos_site_id
 _symmetry_equiv_pos_as_xyz
  1  'x, y, z'
loop_
 _atom_site_type_symbol
 _atom_site_label
 _atom_site_symmetry_multiplicity
 _atom_site_fract_x
 _atom_site_fract_y
 _atom_site_fract_z
 _atom_site_occupancy
  Sc  Sc0  1  0.171660  0.828347  0.501112  1
  Sc  Sc1  1  0.656747  0.828369  0.501042  1
  Sc  Sc2  1  0.171631  0.343246  0.501037  1
  Sc  Sc3  1  0.828340  0.171653  0.001112  1
  Sc  Sc4  1  0.343253  0.171631  0.001042  1
  Sc  Sc5  1  0.828369  0.656754  0.001037  1
  Sc  Sc6  1  0.333353  0.666653  0.850462  1
  Sc  Sc7  1  0.666647  0.333347  0.350462  1
  Sc  Sc8  1  0.472546  0.527461  0.209480  1
  Sc  Sc9  1  0.054870  0.527449  0.209541  1
  Sc  Sc10  1  0.472547  0.945120  0.209543  1
  Sc  Sc11  1  0.527454  0.472539  0.709480  1
  Sc  Sc12  1  0.945130  0.472551  0.709541  1
  Sc  Sc13  1  0.527453  0.054880  0.709543  1
  Sc  Sc14  1  0.000007  0.999993  0.229348  1
  Sc  Sc15  1  0.999993  0.000007  0.729348  1
  Ga  Ga16  1  0.164252  0.835752  0.962277  1
  Ga  Ga17  1  0.671556  0.835802  0.962430  1
  Ga  Ga18  1  0.164201  0.328443  0.962430  1
  Ga  Ga19  1  0.835748  0.164248  0.462277  1
  Ga  Ga20  1  0.328444  0.164198  0.462430  1
  Ga  Ga21  1  0.835799  0.671557  0.462430  1
  Os  Os22  1  0.333357  0.666634  0.438717  1
  Os  Os23  1  0.666643  0.333366  0.938717  1
