# generated using pymatgen
data_Li4Sm3Gd(SiO4)4
_symmetry_space_group_name_H-M   'P 1'
_cell_length_a   6.32440728
_cell_length_b   5.51487130
_cell_length_c   11.09813146
_cell_angle_alpha   66.68461849
_cell_angle_beta   90.04609557
_cell_angle_gamma   90.07036491
_symmetry_Int_Tables_number   1
_chemical_formula_structural   Li4Sm3Gd(SiO4)4
_chemical_formula_sum   'Li4 Sm3 Gd1 Si4 O16'
_cell_volume   355.47437556
_cell_formula_units_Z   1
loop_
 _symmetry_equiv_pos_site_id
 _symmetry_equiv_pos_as_xyz
  1  'x, y, z'
loop_
 _atom_site_type_symbol
 _atom_site_label
 _atom_site_symmetry_multiplicity
 _atom_site_fract_x
 _atom_site_fract_y
 _atom_site_fract_z
 _atom_site_occupancy
  Li  Li0  1  0.133896  0.923117  0.428195  1
  Li  Li1  1  0.633301  0.076411  0.071564  1
  Li  Li2  1  0.866838  0.077996  0.570666  1
  Li  Li3  1  0.366649  0.922465  0.928624  1
  Sm  Sm4  1  0.116972  0.443336  0.849105  1
  Sm  Sm5  1  0.883329  0.555913  0.151932  1
  Sm  Sm6  1  0.616603  0.556798  0.650852  1
  Gd  Gd7  1  0.383436  0.444375  0.348868  1
  Si  Si8  1  0.650943  0.907367  0.358417  1
  Si  Si9  1  0.347365  0.093411  0.640737  1
  Si  Si10  1  0.153915  0.092204  0.142448  1
  Si  Si11  1  0.847572  0.907333  0.858433  1
  O  O12  1  0.857738  0.229143  0.776912  1
  O  O13  1  0.639857  0.229454  0.277552  1
  O  O14  1  0.163301  0.180122  0.526520  1
  O  O15  1  0.837524  0.764395  0.752536  1
  O  O16  1  0.144051  0.770045  0.224199  1
  O  O17  1  0.568525  0.219471  0.556673  1
  O  O18  1  0.660889  0.763990  0.252568  1
  O  O19  1  0.430586  0.777855  0.442617  1
  O  O20  1  0.068456  0.780603  0.942759  1
  O  O21  1  0.662925  0.821564  0.972048  1
  O  O22  1  0.164921  0.236715  0.247822  1
  O  O23  1  0.931918  0.217558  0.058984  1
  O  O24  1  0.337678  0.177980  0.028243  1
  O  O25  1  0.337388  0.236221  0.746776  1
  O  O26  1  0.356851  0.771564  0.722363  1
  O  O27  1  0.836573  0.822597  0.471587  1
