# generated using pymatgen
data_Yb2SmSc(Ga2Ag)4
_symmetry_space_group_name_H-M   'P 1'
_cell_length_a   4.33424600
_cell_length_b   6.96869433
_cell_length_c   10.34878747
_cell_angle_alpha   90.63381026
_cell_angle_beta   90.00000000
_cell_angle_gamma   90.00000000
_symmetry_Int_Tables_number   1
_chemical_formula_structural   Yb2SmSc(Ga2Ag)4
_chemical_formula_sum   'Yb2 Sm1 Sc1 Ga8 Ag4'
_cell_volume   312.55601977
_cell_formula_units_Z   1
loop_
 _symmetry_equiv_pos_site_id
 _symmetry_equiv_pos_as_xyz
  1  'x, y, z'
loop_
 _atom_site_type_symbol
 _atom_site_label
 _atom_site_symmetry_multiplicity
 _atom_site_fract_x
 _atom_site_fract_y
 _atom_site_fract_z
 _atom_site_occupancy
  Yb  Yb0  1  0.750000  0.225203  0.172498  1
  Yb  Yb1  1  0.750000  0.725018  0.325993  1
  Sm  Sm2  1  0.250000  0.279502  0.675122  1
  Sc  Sc3  1  0.250000  0.780450  0.831522  1
  Ga  Ga4  1  0.250000  0.709786  0.540014  1
  Ga  Ga5  1  0.750000  0.299698  0.464998  1
  Ga  Ga6  1  0.750000  0.794557  0.029442  1
  Ga  Ga7  1  0.250000  0.194070  0.966132  1
  Ga  Ga8  1  0.250000  0.926474  0.148064  1
  Ga  Ga9  1  0.750000  0.062394  0.843622  1
  Ga  Ga10  1  0.750000  0.582837  0.659402  1
  Ga  Ga11  1  0.250000  0.429259  0.351516  1
  Ag  Ag12  1  0.250000  0.539920  0.096741  1
  Ag  Ag13  1  0.750000  0.455410  0.900764  1
  Ag  Ag14  1  0.750000  0.955473  0.596120  1
  Ag  Ag15  1  0.250000  0.039948  0.398050  1
