# generated using pymatgen
data_Er3CI5
_symmetry_space_group_name_H-M   'P 1'
_cell_length_a   7.59047827
_cell_length_b   9.46519046
_cell_length_c   9.54341891
_cell_angle_alpha   106.90637266
_cell_angle_beta   96.41437528
_cell_angle_gamma   104.22223747
_symmetry_Int_Tables_number   1
_chemical_formula_structural   Er3CI5
_chemical_formula_sum   'Er6 C2 I10'
_cell_volume   623.38561569
_cell_formula_units_Z   2
loop_
 _symmetry_equiv_pos_site_id
 _symmetry_equiv_pos_as_xyz
  1  'x, y, z'
loop_
 _atom_site_type_symbol
 _atom_site_label
 _atom_site_symmetry_multiplicity
 _atom_site_fract_x
 _atom_site_fract_y
 _atom_site_fract_z
 _atom_site_occupancy
  Er  Er0  1  0.102733  0.037941  0.784750  1
  Er  Er1  1  0.373741  0.131288  0.176668  1
  Er  Er2  1  0.897267  0.962059  0.215250  1
  Er  Er3  1  0.028957  0.747125  0.927151  1
  Er  Er4  1  0.971043  0.252875  0.072849  1
  Er  Er5  1  0.626259  0.868712  0.823332  1
  C  C6  1  0.906930  0.969785  0.958307  1
  C  C7  1  0.093070  0.030215  0.041693  1
  I  I8  1  0.193813  0.738491  0.652393  1
  I  I9  1  0.086580  0.361917  0.823591  1
  I  I10  1  0.456326  0.811639  0.093321  1
  I  I11  1  0.254000  0.084230  0.455704  1
  I  I12  1  0.543674  0.188361  0.906679  1
  I  I13  1  0.806187  0.261509  0.347607  1
  I  I14  1  0.343791  0.449963  0.271684  1
  I  I15  1  0.913420  0.638083  0.176409  1
  I  I16  1  0.656209  0.550037  0.728316  1
  I  I17  1  0.746000  0.915770  0.544296  1
