# generated using pymatgen
data_Yb8Pt3Rh
_symmetry_space_group_name_H-M   'P 1'
_cell_length_a   4.41260700
_cell_length_b   7.45461383
_cell_length_c   8.93324558
_cell_angle_alpha   89.54594909
_cell_angle_beta   90.00000000
_cell_angle_gamma   90.00000000
_symmetry_Int_Tables_number   1
_chemical_formula_structural   Yb8Pt3Rh
_chemical_formula_sum   'Yb8 Pt3 Rh1'
_cell_volume   293.84346461
_cell_formula_units_Z   1
loop_
 _symmetry_equiv_pos_site_id
 _symmetry_equiv_pos_as_xyz
  1  'x, y, z'
loop_
 _atom_site_type_symbol
 _atom_site_label
 _atom_site_symmetry_multiplicity
 _atom_site_fract_x
 _atom_site_fract_y
 _atom_site_fract_z
 _atom_site_occupancy
  Yb  Yb0  1  0.250000  0.857920  0.929435  1
  Yb  Yb1  1  0.250000  0.352862  0.575335  1
  Yb  Yb2  1  0.750000  0.147777  0.063868  1
  Yb  Yb3  1  0.750000  0.643902  0.430450  1
  Yb  Yb4  1  0.250000  0.976592  0.331154  1
  Yb  Yb5  1  0.250000  0.472376  0.165961  1
  Yb  Yb6  1  0.750000  0.026357  0.669177  1
  Yb  Yb7  1  0.750000  0.522109  0.833951  1
  Pt  Pt8  1  0.250000  0.745019  0.619435  1
  Pt  Pt9  1  0.750000  0.755088  0.119407  1
  Pt  Pt10  1  0.750000  0.255323  0.380455  1
  Rh  Rh11  1  0.250000  0.244675  0.881371  1
