# generated using pymatgen
data_LuPa3Ge6Os7
_symmetry_space_group_name_H-M   'P 1'
_cell_length_a   7.26435871
_cell_length_b   7.27191389
_cell_length_c   7.26435849
_cell_angle_alpha   109.49229273
_cell_angle_beta   109.45013645
_cell_angle_gamma   109.49229601
_symmetry_Int_Tables_number   1
_chemical_formula_structural   LuPa3Ge6Os7
_chemical_formula_sum   'Lu1 Pa3 Ge6 Os7'
_cell_volume   295.33055533
_cell_formula_units_Z   1
loop_
 _symmetry_equiv_pos_site_id
 _symmetry_equiv_pos_as_xyz
  1  'x, y, z'
loop_
 _atom_site_type_symbol
 _atom_site_label
 _atom_site_symmetry_multiplicity
 _atom_site_fract_x
 _atom_site_fract_y
 _atom_site_fract_z
 _atom_site_occupancy
  Lu  Lu0  1  0.000000  0.500000  0.000000  1
  Pa  Pa1  1  0.000000  0.000000  0.500000  1
  Pa  Pa2  1  0.500000  0.000000  0.000000  1
  Pa  Pa3  1  0.500000  0.500000  0.500000  1
  Ge  Ge4  1  0.691021  0.686304  0.000000  1
  Ge  Ge5  1  0.308979  0.995283  0.308979  1
  Ge  Ge6  1  0.000000  0.313696  0.308979  1
  Ge  Ge7  1  0.308979  0.313696  0.000000  1
  Ge  Ge8  1  0.691021  0.004717  0.691021  1
  Ge  Ge9  1  0.000000  0.686304  0.691021  1
  Os  Os10  1  0.749038  0.249038  0.498076  1
  Os  Os11  1  0.749038  0.500000  0.250962  1
  Os  Os12  1  0.498076  0.249038  0.749038  1
  Os  Os13  1  0.250962  0.500000  0.749038  1
  Os  Os14  1  0.250962  0.750962  0.501924  1
  Os  Os15  1  0.501924  0.750962  0.250962  1
  Os  Os16  1  0.000000  0.000000  0.000000  1
