# generated using pymatgen
data_Cr2FeB7IO13
_symmetry_space_group_name_H-M   'P 1'
_cell_length_a   8.79255716
_cell_length_b   8.71393609
_cell_length_c   12.40100194
_cell_angle_alpha   89.99347285
_cell_angle_beta   89.91977408
_cell_angle_gamma   89.89053562
_symmetry_Int_Tables_number   1
_chemical_formula_structural   Cr2FeB7IO13
_chemical_formula_sum   'Cr8 Fe4 B28 I4 O52'
_cell_volume   950.13458116
_cell_formula_units_Z   4
loop_
 _symmetry_equiv_pos_site_id
 _symmetry_equiv_pos_as_xyz
  1  'x, y, z'
loop_
 _atom_site_type_symbol
 _atom_site_label
 _atom_site_symmetry_multiplicity
 _atom_site_fract_x
 _atom_site_fract_y
 _atom_site_fract_z
 _atom_site_occupancy
  Cr  Cr0  1  0.998665  0.986810  0.009658  1
  Cr  Cr1  1  0.501286  0.986906  0.509558  1
  Cr  Cr2  1  0.500251  0.514608  0.506795  1
  Cr  Cr3  1  0.998652  0.513490  0.007701  1
  Cr  Cr4  1  0.245716  0.748765  0.748875  1
  Cr  Cr5  1  0.001981  0.488576  0.506524  1
  Cr  Cr6  1  0.744661  0.250092  0.749738  1
  Cr  Cr7  1  0.755820  0.251155  0.251278  1
  Fe  Fe8  1  0.999143  0.015961  0.511191  1
  Fe  Fe9  1  0.498213  0.015977  0.010188  1
  Fe  Fe10  1  0.257885  0.748388  0.247244  1
  Fe  Fe11  1  0.498389  0.482248  0.007050  1
  B  B12  1  0.002324  0.498424  0.755603  1
  B  B13  1  0.998554  0.502827  0.255749  1
  B  B14  1  0.553129  0.749901  0.854477  1
  B  B15  1  0.244051  0.245991  0.003761  1
  B  B16  1  0.255083  0.246897  0.504053  1
  B  B17  1  0.498544  0.497648  0.255725  1
  B  B18  1  0.243761  0.401249  0.176910  1
  B  B19  1  0.255572  0.095961  0.677201  1
  B  B20  1  0.052243  0.249986  0.854294  1
  B  B21  1  0.094502  0.250264  0.329296  1
  B  B22  1  0.405950  0.249513  0.828028  1
  B  B23  1  0.500589  0.996005  0.756191  1
  B  B24  1  0.000394  0.002031  0.756577  1
  B  B25  1  0.743620  0.753904  0.004945  1
  B  B26  1  0.501989  0.501390  0.755065  1
  B  B27  1  0.498893  0.003403  0.257195  1
  B  B28  1  0.744207  0.904090  0.177703  1
  B  B29  1  0.756990  0.597227  0.676788  1
  B  B30  1  0.256789  0.402423  0.676303  1
  B  B31  1  0.755644  0.753559  0.504698  1
  B  B32  1  0.448381  0.250150  0.355438  1
  B  B33  1  0.742982  0.597703  0.177600  1
  B  B34  1  0.906121  0.750409  0.829881  1
  B  B35  1  0.999686  0.997776  0.256725  1
  B  B36  1  0.243640  0.096263  0.177736  1
  B  B37  1  0.593588  0.750706  0.329878  1
  B  B38  1  0.947182  0.751023  0.354087  1
  B  B39  1  0.755424  0.902851  0.677249  1
  I  I40  1  0.758298  0.244053  0.506366  1
  I  I41  1  0.261421  0.748643  0.013658  1
  I  I42  1  0.244913  0.755443  0.502014  1
  I  I43  1  0.735608  0.251124  0.005323  1
  O  O44  1  0.683482  0.637031  0.574673  1
  O  O45  1  0.228118  0.250130  0.244576  1
  O  O46  1  0.666605  0.481781  0.735038  1
  O  O47  1  0.876288  0.674455  0.438699  1
  O  O48  1  0.588476  0.540934  0.161136  1
  O  O49  1  0.953614  0.591731  0.849099  1
  O  O50  1  0.824840  0.872439  0.572162  1
  O  O51  1  0.143129  0.180021  0.430511  1
  O  O52  1  0.174571  0.125617  0.070898  1
  O  O53  1  0.533904  0.331938  0.281346  1
  O  O54  1  0.640565  0.822012  0.432176  1
  O  O55  1  0.674151  0.874111  0.072270  1
  O  O56  1  0.094405  0.055515  0.665333  1
  O  O57  1  0.047665  0.409078  0.348345  1
  O  O58  1  0.166757  0.517809  0.735778  1
  O  O59  1  0.161798  0.975998  0.233783  1
  O  O60  1  0.540747  0.908112  0.855825  1
  O  O61  1  0.913584  0.541083  0.659680  1
  O  O62  1  0.728325  0.750656  0.246071  1
  O  O63  1  0.315711  0.361827  0.073601  1
  O  O64  1  0.405438  0.057060  0.166395  1
  O  O65  1  0.121235  0.325831  0.939395  1
  O  O66  1  0.378408  0.326575  0.440111  1
  O  O67  1  0.030129  0.839151  0.779893  1
  O  O68  1  0.957507  0.909025  0.356004  1
  O  O69  1  0.357369  0.177788  0.929844  1
  O  O70  1  0.546387  0.592070  0.349181  1
  O  O71  1  0.087356  0.459759  0.159327  1
  O  O72  1  0.836812  0.024817  0.734490  1
  O  O73  1  0.453062  0.407145  0.846573  1
  O  O74  1  0.623711  0.674513  0.939187  1
  O  O75  1  0.270886  0.250023  0.744812  1
  O  O76  1  0.967706  0.332655  0.779980  1
  O  O77  1  0.593662  0.941624  0.664737  1
  O  O78  1  0.859399  0.822300  0.932189  1
  O  O79  1  0.334416  0.513896  0.235866  1
  O  O80  1  0.458774  0.091697  0.357740  1
  O  O81  1  0.182920  0.362367  0.574702  1
  O  O82  1  0.970496  0.161422  0.279274  1
  O  O83  1  0.816740  0.638177  0.075029  1
  O  O84  1  0.412797  0.459850  0.658534  1
  O  O85  1  0.336839  0.973378  0.733630  1
  O  O86  1  0.467828  0.666980  0.780206  1
  O  O87  1  0.905769  0.944014  0.164586  1
  O  O88  1  0.040101  0.091445  0.857048  1
  O  O89  1  0.528875  0.159541  0.777646  1
  O  O90  1  0.834583  0.482902  0.235933  1
  O  O91  1  0.325333  0.126275  0.571594  1
  O  O92  1  0.033462  0.667804  0.280467  1
  O  O93  1  0.662669  0.026208  0.234627  1
  O  O94  1  0.469940  0.840182  0.280132  1
  O  O95  1  0.771924  0.749434  0.745957  1
