# generated using pymatgen
data_Sm8Ho11ScSi15Os
_symmetry_space_group_name_H-M   'P 1'
_cell_length_a   7.37769834
_cell_length_b   7.78962292
_cell_length_c   14.62797800
_cell_angle_alpha   90.00000000
_cell_angle_beta   90.00000000
_cell_angle_gamma   90.19379305
_symmetry_Int_Tables_number   1
_chemical_formula_structural   Sm8Ho11ScSi15Os
_chemical_formula_sum   'Sm8 Ho11 Sc1 Si15 Os1'
_cell_volume   840.65759872
_cell_formula_units_Z   1
loop_
 _symmetry_equiv_pos_site_id
 _symmetry_equiv_pos_as_xyz
  1  'x, y, z'
loop_
 _atom_site_type_symbol
 _atom_site_label
 _atom_site_symmetry_multiplicity
 _atom_site_fract_x
 _atom_site_fract_y
 _atom_site_fract_z
 _atom_site_occupancy
  Sm  Sm0  1  0.020943  0.182456  0.098867  1
  Sm  Sm1  1  0.984030  0.826830  0.904912  1
  Sm  Sm2  1  0.481993  0.678802  0.905188  1
  Sm  Sm3  1  0.984030  0.826830  0.595088  1
  Sm  Sm4  1  0.516875  0.318784  0.097764  1
  Sm  Sm5  1  0.020943  0.182456  0.401133  1
  Sm  Sm6  1  0.516875  0.318784  0.402236  1
  Sm  Sm7  1  0.481993  0.678802  0.594812  1
  Ho  Ho8  1  0.151812  0.508327  0.750000  1
  Ho  Ho9  1  0.842936  0.487376  0.250000  1
  Ho  Ho10  1  0.665333  0.989451  0.750000  1
  Ho  Ho11  1  0.313266  0.174294  0.626054  1
  Ho  Ho12  1  0.676438  0.825424  0.373869  1
  Ho  Ho13  1  0.178116  0.681170  0.374388  1
  Ho  Ho14  1  0.676438  0.825424  0.126131  1
  Ho  Ho15  1  0.832926  0.314681  0.625428  1
  Ho  Ho16  1  0.313266  0.174294  0.873946  1
  Ho  Ho17  1  0.832926  0.314681  0.874572  1
  Ho  Ho18  1  0.178116  0.681170  0.125612  1
  Sc  Sc19  1  0.342015  0.016055  0.250000  1
  Si  Si20  1  0.977073  0.897235  0.250000  1
  Si  Si21  1  0.473563  0.606380  0.250000  1
  Si  Si22  1  0.527319  0.394911  0.750000  1
  Si  Si23  1  0.274344  0.868247  0.750000  1
  Si  Si24  1  0.716176  0.127660  0.250000  1
  Si  Si25  1  0.225326  0.367174  0.250000  1
  Si  Si26  1  0.766756  0.621413  0.750000  1
  Si  Si27  1  0.154046  0.472809  0.536370  1
  Si  Si28  1  0.849644  0.532989  0.461351  1
  Si  Si29  1  0.349245  0.969482  0.459095  1
  Si  Si30  1  0.849644  0.532989  0.038649  1
  Si  Si31  1  0.647755  0.030657  0.536879  1
  Si  Si32  1  0.154046  0.472809  0.963630  1
  Si  Si33  1  0.647755  0.030657  0.963121  1
  Si  Si34  1  0.349245  0.969482  0.040905  1
  Os  Os35  1  0.026798  0.099016  0.750000  1
