# generated using pymatgen
data_CaNd(Er3Sb10)2
_symmetry_space_group_name_H-M   'P 1'
_cell_length_a   4.21396700
_cell_length_b   13.22609260
_cell_length_c   14.61878800
_cell_angle_alpha   78.44020604
_cell_angle_beta   90.00000000
_cell_angle_gamma   90.00000000
_symmetry_Int_Tables_number   1
_chemical_formula_structural   CaNd(Er3Sb10)2
_chemical_formula_sum   'Ca1 Nd1 Er6 Sb20'
_cell_volume   798.24150800
_cell_formula_units_Z   1
loop_
 _symmetry_equiv_pos_site_id
 _symmetry_equiv_pos_as_xyz
  1  'x, y, z'
loop_
 _atom_site_type_symbol
 _atom_site_label
 _atom_site_symmetry_multiplicity
 _atom_site_fract_x
 _atom_site_fract_y
 _atom_site_fract_z
 _atom_site_occupancy
  Ca  Ca0  1  0.750000  0.045790  0.639456  1
  Nd  Nd1  1  0.250000  0.953510  0.358403  1
  Er  Er2  1  0.250000  0.396271  0.770958  1
  Er  Er3  1  0.750000  0.603289  0.229322  1
  Er  Er4  1  0.250000  0.660610  0.856397  1
  Er  Er5  1  0.750000  0.338570  0.143170  1
  Er  Er6  1  0.250000  0.667210  0.577900  1
  Er  Er7  1  0.750000  0.336022  0.422177  1
  Sb  Sb8  1  0.250000  0.148420  0.784757  1
  Sb  Sb9  1  0.750000  0.851651  0.218504  1
  Sb  Sb10  1  0.250000  0.151974  0.475798  1
  Sb  Sb11  1  0.750000  0.846987  0.520935  1
  Sb  Sb12  1  0.250000  0.154957  0.167427  1
  Sb  Sb13  1  0.750000  0.843571  0.832482  1
  Sb  Sb14  1  0.250000  0.421334  0.974880  1
  Sb  Sb15  1  0.750000  0.578622  0.025050  1
  Sb  Sb16  1  0.750000  0.029598  0.906419  1
  Sb  Sb17  1  0.250000  0.971374  0.093223  1
  Sb  Sb18  1  0.750000  0.146643  0.322650  1
  Sb  Sb19  1  0.250000  0.856867  0.680640  1
  Sb  Sb20  1  0.750000  0.280225  0.935668  1
  Sb  Sb21  1  0.250000  0.719325  0.063904  1
  Sb  Sb22  1  0.750000  0.287112  0.650803  1
  Sb  Sb23  1  0.250000  0.710429  0.348306  1
  Sb  Sb24  1  0.750000  0.575503  0.734982  1
  Sb  Sb25  1  0.250000  0.424462  0.264447  1
  Sb  Sb26  1  0.750000  0.571629  0.447079  1
  Sb  Sb27  1  0.250000  0.428043  0.554264  1
