# generated using pymatgen
data_Fe3ReSiMo
_symmetry_space_group_name_H-M   'P 1'
_cell_length_a   4.72667360
_cell_length_b   4.73075182
_cell_length_c   7.58810419
_cell_angle_alpha   90.02491687
_cell_angle_beta   89.98223538
_cell_angle_gamma   120.02466295
_symmetry_Int_Tables_number   1
_chemical_formula_structural   Fe3ReSiMo
_chemical_formula_sum   'Fe6 Re2 Si2 Mo2'
_cell_volume   146.90672171
_cell_formula_units_Z   2
loop_
 _symmetry_equiv_pos_site_id
 _symmetry_equiv_pos_as_xyz
  1  'x, y, z'
loop_
 _atom_site_type_symbol
 _atom_site_label
 _atom_site_symmetry_multiplicity
 _atom_site_fract_x
 _atom_site_fract_y
 _atom_site_fract_z
 _atom_site_occupancy
  Fe  Fe0  1  0.829158  0.658280  0.751842  1
  Fe  Fe1  1  0.829187  0.170848  0.751909  1
  Fe  Fe2  1  0.341514  0.170813  0.751888  1
  Fe  Fe3  1  0.170842  0.341720  0.248158  1
  Fe  Fe4  1  0.170813  0.829152  0.248091  1
  Fe  Fe5  1  0.658486  0.829187  0.248112  1
  Re  Re6  1  0.666674  0.333404  0.061474  1
  Re  Re7  1  0.333326  0.666596  0.938526  1
  Si  Si8  1  0.000000  0.000000  0.500000  1
  Si  Si9  1  0.000000  0.000000  0.000000  1
  Mo  Mo10  1  0.333352  0.666677  0.569386  1
  Mo  Mo11  1  0.666648  0.333323  0.430614  1
