# generated using pymatgen
data_Yb2Nb3Si7Pt9
_symmetry_space_group_name_H-M   'P 1'
_cell_length_a   9.91596700
_cell_length_b   9.91596747
_cell_length_c   4.00598400
_cell_angle_alpha   90.00000000
_cell_angle_beta   90.00000000
_cell_angle_gamma   120.00000845
_symmetry_Int_Tables_number   1
_chemical_formula_structural   Yb2Nb3Si7Pt9
_chemical_formula_sum   'Yb2 Nb3 Si7 Pt9'
_cell_volume   341.12219001
_cell_formula_units_Z   1
loop_
 _symmetry_equiv_pos_site_id
 _symmetry_equiv_pos_as_xyz
  1  'x, y, z'
loop_
 _atom_site_type_symbol
 _atom_site_label
 _atom_site_symmetry_multiplicity
 _atom_site_fract_x
 _atom_site_fract_y
 _atom_site_fract_z
 _atom_site_occupancy
  Yb  Yb0  1  0.000000  0.000000  0.000000  1
  Yb  Yb1  1  0.333333  0.666667  0.500000  1
  Nb  Nb2  1  0.882677  0.455492  0.500000  1
  Nb  Nb3  1  0.572814  0.117323  0.500000  1
  Nb  Nb4  1  0.544508  0.427186  0.500000  1
  Si  Si5  1  0.255874  0.210701  0.500000  1
  Si  Si6  1  0.789299  0.045175  0.500000  1
  Si  Si7  1  0.954825  0.744126  0.500000  1
  Si  Si8  1  0.550971  0.635408  0.000000  1
  Si  Si9  1  0.364592  0.915563  0.000000  1
  Si  Si10  1  0.084437  0.449029  0.000000  1
  Si  Si11  1  0.666667  0.333333  0.000000  1
  Pt  Pt12  1  0.225054  0.941911  0.500000  1
  Pt  Pt13  1  0.058089  0.283144  0.500000  1
  Pt  Pt14  1  0.716856  0.774946  0.500000  1
  Pt  Pt15  1  0.302986  0.405386  0.000000  1
  Pt  Pt16  1  0.594614  0.897600  0.000000  1
  Pt  Pt17  1  0.102400  0.697014  0.000000  1
  Pt  Pt18  1  0.386238  0.171448  0.000000  1
  Pt  Pt19  1  0.828552  0.214790  0.000000  1
  Pt  Pt20  1  0.785210  0.613762  0.000000  1
