# generated using pymatgen
data_Tb2YHf3(GaPt)6
_symmetry_space_group_name_H-M   'P 1'
_cell_length_a   7.27390917
_cell_length_b   7.27656977
_cell_length_c   7.38466200
_cell_angle_alpha   90.00000000
_cell_angle_beta   90.00000000
_cell_angle_gamma   120.01273325
_symmetry_Int_Tables_number   1
_chemical_formula_structural   Tb2YHf3(GaPt)6
_chemical_formula_sum   'Tb2 Y1 Hf3 Ga6 Pt6'
_cell_volume   338.45434003
_cell_formula_units_Z   1
loop_
 _symmetry_equiv_pos_site_id
 _symmetry_equiv_pos_as_xyz
  1  'x, y, z'
loop_
 _atom_site_type_symbol
 _atom_site_label
 _atom_site_symmetry_multiplicity
 _atom_site_fract_x
 _atom_site_fract_y
 _atom_site_fract_z
 _atom_site_occupancy
  Tb  Tb0  1  0.590523  0.998962  0.750000  1
  Tb  Tb1  1  0.408370  0.409549  0.750000  1
  Y  Y2  1  0.001135  0.591716  0.750000  1
  Hf  Hf3  1  0.390280  0.388930  0.250000  1
  Hf  Hf4  1  0.998716  0.609728  0.250000  1
  Hf  Hf5  1  0.611010  0.001223  0.250000  1
  Ga  Ga6  1  0.262379  0.999094  0.008298  1
  Ga  Ga7  1  0.262379  0.999094  0.491702  1
  Ga  Ga8  1  0.000768  0.263295  0.491788  1
  Ga  Ga9  1  0.000768  0.263295  0.008212  1
  Ga  Ga10  1  0.736847  0.737489  0.008297  1
  Ga  Ga11  1  0.736847  0.737489  0.491703  1
  Pt  Pt12  1  0.666609  0.333298  0.469983  1
  Pt  Pt13  1  0.000008  0.000156  0.750000  1
  Pt  Pt14  1  0.666609  0.333298  0.030017  1
  Pt  Pt15  1  0.333377  0.666684  0.033326  1
  Pt  Pt16  1  0.333377  0.666684  0.466674  1
  Pt  Pt17  1  0.999998  0.000017  0.250000  1
