# generated using pymatgen
data_Ga3CuPd20
_symmetry_space_group_name_H-M   'P 1'
_cell_length_a   4.02215400
_cell_length_b   8.24857619
_cell_length_c   10.98955602
_cell_angle_alpha   90.75782728
_cell_angle_beta   90.00000000
_cell_angle_gamma   90.00000000
_symmetry_Int_Tables_number   1
_chemical_formula_structural   Ga3CuPd20
_chemical_formula_sum   'Ga3 Cu1 Pd20'
_cell_volume   364.56908881
_cell_formula_units_Z   1
loop_
 _symmetry_equiv_pos_site_id
 _symmetry_equiv_pos_as_xyz
  1  'x, y, z'
loop_
 _atom_site_type_symbol
 _atom_site_label
 _atom_site_symmetry_multiplicity
 _atom_site_fract_x
 _atom_site_fract_y
 _atom_site_fract_z
 _atom_site_occupancy
  Ga  Ga0  1  0.750000  0.117362  0.918227  1
  Ga  Ga1  1  0.250000  0.604148  0.573482  1
  Ga  Ga2  1  0.250000  0.883857  0.082226  1
  Cu  Cu3  1  0.750000  0.390830  0.422903  1
  Pd  Pd4  1  0.250000  0.218049  0.043313  1
  Pd  Pd5  1  0.750000  0.713711  0.204830  1
  Pd  Pd6  1  0.250000  0.548011  0.330903  1
  Pd  Pd7  1  0.750000  0.455070  0.666959  1
  Pd  Pd8  1  0.250000  0.955449  0.835745  1
  Pd  Pd9  1  0.250000  0.286796  0.795787  1
  Pd  Pd10  1  0.750000  0.721413  0.456748  1
  Pd  Pd11  1  0.250000  0.569033  0.069381  1
  Pd  Pd12  1  0.250000  0.927905  0.570392  1
  Pd  Pd13  1  0.750000  0.785702  0.703741  1
  Pd  Pd14  1  0.750000  0.384330  0.182519  1
  Pd  Pd15  1  0.750000  0.069342  0.430522  1
  Pd  Pd16  1  0.250000  0.274264  0.544677  1
  Pd  Pd17  1  0.750000  0.781409  0.957413  1
  Pd  Pd18  1  0.250000  0.217928  0.298417  1
  Pd  Pd19  1  0.750000  0.045839  0.166129  1
  Pd  Pd20  1  0.250000  0.616134  0.815525  1
  Pd  Pd21  1  0.750000  0.431702  0.930386  1
  Pd  Pd22  1  0.250000  0.886981  0.317246  1
  Pd  Pd23  1  0.750000  0.114733  0.682528  1
