# generated using pymatgen
data_K2Nb6SnCl18
_symmetry_space_group_name_H-M   'P 1'
_cell_length_a   10.36807372
_cell_length_b   10.36979133
_cell_length_c   10.36979024
_cell_angle_alpha   54.83754958
_cell_angle_beta   54.83369963
_cell_angle_gamma   54.84147558
_symmetry_Int_Tables_number   1
_chemical_formula_structural   K2Nb6SnCl18
_chemical_formula_sum   'K2 Nb6 Sn1 Cl18'
_cell_volume   693.60197951
_cell_formula_units_Z   1
loop_
 _symmetry_equiv_pos_site_id
 _symmetry_equiv_pos_as_xyz
  1  'x, y, z'
loop_
 _atom_site_type_symbol
 _atom_site_label
 _atom_site_symmetry_multiplicity
 _atom_site_fract_x
 _atom_site_fract_y
 _atom_site_fract_z
 _atom_site_occupancy
  K  K0  1  0.722878  0.722886  0.722882  1
  K  K1  1  0.277122  0.277114  0.277118  1
  Nb  Nb2  1  0.581889  0.351915  0.702774  1
  Nb  Nb3  1  0.351888  0.702801  0.581899  1
  Nb  Nb4  1  0.702940  0.581933  0.351794  1
  Nb  Nb5  1  0.648112  0.297199  0.418101  1
  Nb  Nb6  1  0.418111  0.648085  0.297226  1
  Nb  Nb7  1  0.297060  0.418067  0.648206  1
  Sn  Sn8  1  0.000000  0.000000  0.000000  1
  Cl  Cl9  1  0.913138  0.356982  0.230662  1
  Cl  Cl10  1  0.834973  0.423422  0.565364  1
  Cl  Cl11  1  0.769301  0.086983  0.642931  1
  Cl  Cl12  1  0.086862  0.643018  0.769338  1
  Cl  Cl13  1  0.676313  0.170662  0.966134  1
  Cl  Cl14  1  0.230699  0.913017  0.357069  1
  Cl  Cl15  1  0.434620  0.165069  0.576550  1
  Cl  Cl16  1  0.642978  0.769340  0.086910  1
  Cl  Cl17  1  0.576548  0.434629  0.165135  1
  Cl  Cl18  1  0.033601  0.323685  0.829487  1
  Cl  Cl19  1  0.565380  0.834931  0.423450  1
  Cl  Cl20  1  0.357022  0.230660  0.913090  1
  Cl  Cl21  1  0.966399  0.676315  0.170513  1
  Cl  Cl22  1  0.165027  0.576578  0.434636  1
  Cl  Cl23  1  0.829390  0.033855  0.323663  1
  Cl  Cl24  1  0.423452  0.565371  0.834865  1
  Cl  Cl25  1  0.170610  0.966145  0.676337  1
  Cl  Cl26  1  0.323687  0.829338  0.033866  1
