# generated using pymatgen
data_Sr4Dy3Y(BO4)4
_symmetry_space_group_name_H-M   'P 1'
_cell_length_a   3.68238500
_cell_length_b   9.75216800
_cell_length_c   10.98015101
_cell_angle_alpha   89.99652919
_cell_angle_beta   90.00000000
_cell_angle_gamma   90.00000000
_symmetry_Int_Tables_number   1
_chemical_formula_structural   Sr4Dy3Y(BO4)4
_chemical_formula_sum   'Sr4 Dy3 Y1 B4 O16'
_cell_volume   394.31080626
_cell_formula_units_Z   1
loop_
 _symmetry_equiv_pos_site_id
 _symmetry_equiv_pos_as_xyz
  1  'x, y, z'
loop_
 _atom_site_type_symbol
 _atom_site_label
 _atom_site_symmetry_multiplicity
 _atom_site_fract_x
 _atom_site_fract_y
 _atom_site_fract_z
 _atom_site_occupancy
  Sr  Sr0  1  0.250000  0.659341  0.083558  1
  Sr  Sr1  1  0.750000  0.340619  0.916355  1
  Sr  Sr2  1  0.750000  0.159565  0.416561  1
  Sr  Sr3  1  0.250000  0.840470  0.583672  1
  Dy  Dy4  1  0.750000  0.918168  0.889354  1
  Dy  Dy5  1  0.750000  0.581788  0.389562  1
  Dy  Dy6  1  0.250000  0.418207  0.610520  1
  Y  Y7  1  0.250000  0.081488  0.110629  1
  B  B8  1  0.250000  0.363636  0.204549  1
  B  B9  1  0.750000  0.636602  0.795484  1
  B  B10  1  0.750000  0.863287  0.295620  1
  B  B11  1  0.250000  0.136612  0.704526  1
  O  O12  1  0.250000  0.490067  0.262773  1
  O  O13  1  0.750000  0.510059  0.737344  1
  O  O14  1  0.750000  0.990003  0.237668  1
  O  O15  1  0.250000  0.010028  0.762575  1
  O  O16  1  0.250000  0.241014  0.270289  1
  O  O17  1  0.750000  0.759100  0.729669  1
  O  O18  1  0.750000  0.740926  0.229714  1
  O  O19  1  0.250000  0.259119  0.770263  1
  O  O20  1  0.250000  0.357101  0.077055  1
  O  O21  1  0.750000  0.643287  0.922972  1
  O  O22  1  0.750000  0.856545  0.423098  1
  O  O23  1  0.250000  0.143369  0.576998  1
  O  O24  1  0.250000  0.612498  0.500161  1
  O  O25  1  0.750000  0.387518  0.499853  1
  O  O26  1  0.750000  0.112575  0.999327  1
  O  O27  1  0.250000  0.887005  0.999850  1
