# generated using pymatgen
data_HoGa3Pt2
_symmetry_space_group_name_H-M   'P 1'
_cell_length_a   7.14139600
_cell_length_b   7.14139619
_cell_length_c   7.29035200
_cell_angle_alpha   90.00000000
_cell_angle_beta   90.00000000
_cell_angle_gamma   120.00000837
_symmetry_Int_Tables_number   1
_chemical_formula_structural   HoGa3Pt2
_chemical_formula_sum   'Ho3 Ga9 Pt6'
_cell_volume   321.99218901
_cell_formula_units_Z   3
loop_
 _symmetry_equiv_pos_site_id
 _symmetry_equiv_pos_as_xyz
  1  'x, y, z'
loop_
 _atom_site_type_symbol
 _atom_site_label
 _atom_site_symmetry_multiplicity
 _atom_site_fract_x
 _atom_site_fract_y
 _atom_site_fract_z
 _atom_site_occupancy
  Ho  Ho0  1  0.591892  0.999978  0.750000  1
  Ho  Ho1  1  0.408086  0.408108  0.750000  1
  Ho  Ho2  1  0.000022  0.591914  0.750000  1
  Ga  Ga3  1  0.379509  0.379458  0.250000  1
  Ga  Ga4  1  0.999948  0.620491  0.250000  1
  Ga  Ga5  1  0.620542  0.000052  0.250000  1
  Ga  Ga6  1  0.268957  0.999980  0.011985  1
  Ga  Ga7  1  0.268957  0.999980  0.488015  1
  Ga  Ga8  1  0.000020  0.268976  0.488015  1
  Ga  Ga9  1  0.000020  0.268976  0.011985  1
  Ga  Ga10  1  0.731024  0.731043  0.011985  1
  Ga  Ga11  1  0.731024  0.731043  0.488015  1
  Pt  Pt12  1  0.666667  0.333333  0.456567  1
  Pt  Pt13  1  0.000000  0.000000  0.750000  1
  Pt  Pt14  1  0.666667  0.333333  0.043433  1
  Pt  Pt15  1  0.333333  0.666667  0.043470  1
  Pt  Pt16  1  0.333333  0.666667  0.456530  1
  Pt  Pt17  1  0.000000  0.000000  0.250000  1
