# generated using pymatgen
data_Lu6GaTe2
_symmetry_space_group_name_H-M   'P 1'
_cell_length_a   4.17173600
_cell_length_b   11.19312332
_cell_length_c   20.60397828
_cell_angle_alpha   90.00841915
_cell_angle_beta   90.00000000
_cell_angle_gamma   90.00000000
_symmetry_Int_Tables_number   1
_chemical_formula_structural   Lu6GaTe2
_chemical_formula_sum   'Lu24 Ga4 Te8'
_cell_volume   962.09771756
_cell_formula_units_Z   4
loop_
 _symmetry_equiv_pos_site_id
 _symmetry_equiv_pos_as_xyz
  1  'x, y, z'
loop_
 _atom_site_type_symbol
 _atom_site_label
 _atom_site_symmetry_multiplicity
 _atom_site_fract_x
 _atom_site_fract_y
 _atom_site_fract_z
 _atom_site_occupancy
  Lu  Lu0  1  0.750000  0.675135  0.892200  1
  Lu  Lu1  1  0.250000  0.375714  0.477133  1
  Lu  Lu2  1  0.750000  0.875469  0.023065  1
  Lu  Lu3  1  0.750000  0.962528  0.845482  1
  Lu  Lu4  1  0.250000  0.175288  0.607790  1
  Lu  Lu5  1  0.250000  0.748654  0.271477  1
  Lu  Lu6  1  0.750000  0.109058  0.493650  1
  Lu  Lu7  1  0.750000  0.566554  0.140374  1
  Lu  Lu8  1  0.250000  0.324643  0.107890  1
  Lu  Lu9  1  0.250000  0.036944  0.154646  1
  Lu  Lu10  1  0.250000  0.462850  0.654735  1
  Lu  Lu11  1  0.250000  0.751111  0.771493  1
  Lu  Lu12  1  0.750000  0.537704  0.345583  1
  Lu  Lu13  1  0.750000  0.933247  0.640531  1
  Lu  Lu14  1  0.250000  0.608777  0.006248  1
  Lu  Lu15  1  0.750000  0.251144  0.728425  1
  Lu  Lu16  1  0.750000  0.248594  0.228392  1
  Lu  Lu17  1  0.750000  0.624495  0.522976  1
  Lu  Lu18  1  0.750000  0.825311  0.391953  1
  Lu  Lu19  1  0.250000  0.124248  0.977144  1
  Lu  Lu20  1  0.250000  0.891047  0.506230  1
  Lu  Lu21  1  0.750000  0.390823  0.993817  1
  Lu  Lu22  1  0.250000  0.433133  0.859405  1
  Lu  Lu23  1  0.250000  0.066935  0.359394  1
  Ga  Ga24  1  0.750000  0.140655  0.076244  1
  Ga  Ga25  1  0.250000  0.641616  0.423854  1
  Ga  Ga26  1  0.250000  0.859387  0.924057  1
  Ga  Ga27  1  0.750000  0.359740  0.576101  1
  Te  Te28  1  0.250000  0.773607  0.124906  1
  Te  Te29  1  0.250000  0.726130  0.624950  1
  Te  Te30  1  0.250000  0.035158  0.739369  1
  Te  Te31  1  0.750000  0.273913  0.374946  1
  Te  Te32  1  0.750000  0.535198  0.760662  1
  Te  Te33  1  0.250000  0.464631  0.239308  1
  Te  Te34  1  0.750000  0.964612  0.260564  1
  Te  Te35  1  0.750000  0.225944  0.875006  1
