# generated using pymatgen
data_TbYbHo5FeI12
_symmetry_space_group_name_H-M   'P 1'
_cell_length_a   9.73996622
_cell_length_b   9.71334367
_cell_length_c   9.80481750
_cell_angle_alpha   106.74046801
_cell_angle_beta   107.19870335
_cell_angle_gamma   106.80342308
_symmetry_Int_Tables_number   1
_chemical_formula_structural   TbYbHo5FeI12
_chemical_formula_sum   'Tb1 Yb1 Ho5 Fe1 I12'
_cell_volume   774.31276542
_cell_formula_units_Z   1
loop_
 _symmetry_equiv_pos_site_id
 _symmetry_equiv_pos_as_xyz
  1  'x, y, z'
loop_
 _atom_site_type_symbol
 _atom_site_label
 _atom_site_symmetry_multiplicity
 _atom_site_fract_x
 _atom_site_fract_y
 _atom_site_fract_z
 _atom_site_occupancy
  Tb  Tb0  1  0.712757  0.976056  0.907136  1
  Yb  Yb1  1  0.500225  0.499646  0.499976  1
  Ho  Ho2  1  0.092841  0.285092  0.023302  1
  Ho  Ho3  1  0.024373  0.095484  0.298390  1
  Ho  Ho4  1  0.284260  0.024023  0.092120  1
  Ho  Ho5  1  0.907865  0.715304  0.976844  1
  Ho  Ho6  1  0.975368  0.904633  0.701682  1
  Fe  Fe7  1  0.998949  0.000268  0.999639  1
  I  I8  1  0.454321  0.376923  0.149713  1
  I  I9  1  0.149342  0.454800  0.375603  1
  I  I10  1  0.378327  0.148328  0.454161  1
  I  I11  1  0.545664  0.620386  0.849969  1
  I  I12  1  0.851388  0.545406  0.624525  1
  I  I13  1  0.621393  0.849861  0.543101  1
  I  I14  1  0.778561  0.318628  0.926865  1
  I  I15  1  0.926164  0.773719  0.317632  1
  I  I16  1  0.317364  0.927320  0.778238  1
  I  I17  1  0.223454  0.684561  0.073751  1
  I  I18  1  0.074747  0.226357  0.682585  1
  I  I19  1  0.682637  0.073206  0.224768  1
