# generated using pymatgen
data_Zr6Al16Co3Pt4
_symmetry_space_group_name_H-M   'P 1'
_cell_length_a   8.68105294
_cell_length_b   8.68105265
_cell_length_c   8.67671984
_cell_angle_alpha   60.05774643
_cell_angle_beta   60.05774394
_cell_angle_gamma   59.94812265
_symmetry_Int_Tables_number   1
_chemical_formula_structural   Zr6Al16Co3Pt4
_chemical_formula_sum   'Zr6 Al16 Co3 Pt4'
_cell_volume   462.58657535
_cell_formula_units_Z   1
loop_
 _symmetry_equiv_pos_site_id
 _symmetry_equiv_pos_as_xyz
  1  'x, y, z'
loop_
 _atom_site_type_symbol
 _atom_site_label
 _atom_site_symmetry_multiplicity
 _atom_site_fract_x
 _atom_site_fract_y
 _atom_site_fract_z
 _atom_site_occupancy
  Zr  Zr0  1  0.687415  0.310156  0.312927  1
  Zr  Zr1  1  0.689844  0.312585  0.687073  1
  Zr  Zr2  1  0.687119  0.687119  0.315147  1
  Zr  Zr3  1  0.312585  0.689844  0.687073  1
  Zr  Zr4  1  0.310156  0.687415  0.312927  1
  Zr  Zr5  1  0.312881  0.312881  0.684853  1
  Al  Al6  1  0.649230  0.113647  0.126457  1
  Al  Al7  1  0.113647  0.649230  0.126457  1
  Al  Al8  1  0.120966  0.120966  0.648291  1
  Al  Al9  1  0.115564  0.115564  0.118041  1
  Al  Al10  1  0.350770  0.886353  0.873543  1
  Al  Al11  1  0.886353  0.350770  0.873543  1
  Al  Al12  1  0.879034  0.879034  0.351709  1
  Al  Al13  1  0.884436  0.884436  0.881959  1
  Al  Al14  1  0.995729  0.340018  0.340389  1
  Al  Al15  1  0.340018  0.995729  0.340389  1
  Al  Al16  1  0.335417  0.335417  0.994182  1
  Al  Al17  1  0.329850  0.329850  0.343652  1
  Al  Al18  1  0.004271  0.659982  0.659611  1
  Al  Al19  1  0.659982  0.004271  0.659611  1
  Al  Al20  1  0.664583  0.664583  0.005818  1
  Al  Al21  1  0.670150  0.670150  0.656348  1
  Co  Co22  1  0.000000  0.000000  0.000000  1
  Co  Co23  1  0.500000  0.000000  0.500000  1
  Co  Co24  1  0.000000  0.500000  0.500000  1
  Pt  Pt25  1  0.500000  0.000000  0.000000  1
  Pt  Pt26  1  0.500000  0.500000  0.000000  1
  Pt  Pt27  1  0.000000  0.500000  0.000000  1
  Pt  Pt28  1  0.000000  0.000000  0.500000  1
