# generated using pymatgen
data_Th8Ni3Os2Ru3
_symmetry_space_group_name_H-M   'P 1'
_cell_length_a   4.15519000
_cell_length_b   5.95179574
_cell_length_c   14.61163936
_cell_angle_alpha   89.99777070
_cell_angle_beta   90.00000000
_cell_angle_gamma   90.00000000
_symmetry_Int_Tables_number   1
_chemical_formula_structural   Th8Ni3Os2Ru3
_chemical_formula_sum   'Th8 Ni3 Os2 Ru3'
_cell_volume   361.35814621
_cell_formula_units_Z   1
loop_
 _symmetry_equiv_pos_site_id
 _symmetry_equiv_pos_as_xyz
  1  'x, y, z'
loop_
 _atom_site_type_symbol
 _atom_site_label
 _atom_site_symmetry_multiplicity
 _atom_site_fract_x
 _atom_site_fract_y
 _atom_site_fract_z
 _atom_site_occupancy
  Th  Th0  1  0.250000  0.548515  0.285153  1
  Th  Th1  1  0.750000  0.454188  0.716373  1
  Th  Th2  1  0.250000  0.953170  0.784619  1
  Th  Th3  1  0.250000  0.760456  0.534571  1
  Th  Th4  1  0.250000  0.739757  0.034031  1
  Th  Th5  1  0.750000  0.256106  0.963954  1
  Th  Th6  1  0.750000  0.047029  0.215256  1
  Th  Th7  1  0.750000  0.248692  0.463493  1
  Ni  Ni8  1  0.750000  0.766943  0.900836  1
  Ni  Ni9  1  0.250000  0.234120  0.099017  1
  Ni  Ni10  1  0.250000  0.261491  0.602820  1
  Os  Os11  1  0.250000  0.062320  0.349921  1
  Os  Os12  1  0.250000  0.444431  0.853337  1
  Ru  Ru13  1  0.750000  0.557274  0.140993  1
  Ru  Ru14  1  0.750000  0.717996  0.404772  1
  Ru  Ru15  1  0.750000  0.947513  0.650854  1
