# generated using pymatgen
data_Gd4HoLu5Ir4
_symmetry_space_group_name_H-M   'P 1'
_cell_length_a   6.41465613
_cell_length_b   7.20447538
_cell_length_c   8.42410900
_cell_angle_alpha   97.11909199
_cell_angle_beta   112.37903317
_cell_angle_gamma   90.00000277
_symmetry_Int_Tables_number   1
_chemical_formula_structural   Gd4HoLu5Ir4
_chemical_formula_sum   'Gd4 Ho1 Lu5 Ir4'
_cell_volume   356.74479470
_cell_formula_units_Z   1
loop_
 _symmetry_equiv_pos_site_id
 _symmetry_equiv_pos_as_xyz
  1  'x, y, z'
loop_
 _atom_site_type_symbol
 _atom_site_label
 _atom_site_symmetry_multiplicity
 _atom_site_fract_x
 _atom_site_fract_y
 _atom_site_fract_z
 _atom_site_occupancy
  Gd  Gd0  1  0.974442  0.918757  0.188312  1
  Gd  Gd1  1  0.786132  0.581243  0.811688  1
  Gd  Gd2  1  0.026444  0.079740  0.810960  1
  Gd  Gd3  1  0.215484  0.420260  0.189040  1
  Ho  Ho4  1  0.575016  0.250000  0.000000  1
  Lu  Lu5  1  0.644841  0.816349  0.438704  1
  Lu  Lu6  1  0.206138  0.683651  0.561296  1
  Lu  Lu7  1  0.353249  0.183014  0.559921  1
  Lu  Lu8  1  0.793328  0.316986  0.440079  1
  Lu  Lu9  1  0.426653  0.750000  0.000000  1
  Ir  Ir10  1  0.819042  0.575933  0.224835  1
  Ir  Ir11  1  0.594208  0.924067  0.775165  1
  Ir  Ir12  1  0.180263  0.425525  0.775503  1
  Ir  Ir13  1  0.404758  0.074475  0.224497  1
