# generated using pymatgen
data_Nd6Al24Os5Au3
_symmetry_space_group_name_H-M   'P 1'
_cell_length_a   8.96570823
_cell_length_b   9.00913066
_cell_length_c   9.68192178
_cell_angle_alpha   89.97308379
_cell_angle_beta   90.16731672
_cell_angle_gamma   119.42357088
_symmetry_Int_Tables_number   1
_chemical_formula_structural   Nd6Al24Os5Au3
_chemical_formula_sum   'Nd6 Al24 Os5 Au3'
_cell_volume   681.16287485
_cell_formula_units_Z   1
loop_
 _symmetry_equiv_pos_site_id
 _symmetry_equiv_pos_as_xyz
  1  'x, y, z'
loop_
 _atom_site_type_symbol
 _atom_site_label
 _atom_site_symmetry_multiplicity
 _atom_site_fract_x
 _atom_site_fract_y
 _atom_site_fract_z
 _atom_site_occupancy
  Nd  Nd0  1  0.189008  0.378983  0.247591  1
  Nd  Nd1  1  0.810992  0.621017  0.752409  1
  Nd  Nd2  1  0.619106  0.810978  0.253994  1
  Nd  Nd3  1  0.380894  0.189022  0.746006  1
  Nd  Nd4  1  0.192873  0.808781  0.249199  1
  Nd  Nd5  1  0.807127  0.191219  0.750801  1
  Al  Al6  1  0.339032  0.677763  0.026273  1
  Al  Al7  1  0.660968  0.322237  0.973727  1
  Al  Al8  1  0.672285  0.328026  0.524797  1
  Al  Al9  1  0.327715  0.671974  0.475203  1
  Al  Al10  1  0.150053  0.322015  0.572499  1
  Al  Al11  1  0.849947  0.677985  0.427501  1
  Al  Al12  1  0.677009  0.848824  0.575636  1
  Al  Al13  1  0.840372  0.682634  0.080636  1
  Al  Al14  1  0.322991  0.151176  0.424364  1
  Al  Al15  1  0.159628  0.317366  0.919364  1
  Al  Al16  1  0.164493  0.835676  0.574977  1
  Al  Al17  1  0.322960  0.150755  0.076942  1
  Al  Al18  1  0.835507  0.164324  0.425023  1
  Al  Al19  1  0.677040  0.849245  0.923058  1
  Al  Al20  1  0.827585  0.151941  0.080658  1
  Al  Al21  1  0.172415  0.848059  0.919342  1
  Al  Al22  1  0.562214  0.122676  0.250310  1
  Al  Al23  1  0.437786  0.877324  0.749690  1
  Al  Al24  1  0.871274  0.433785  0.257596  1
  Al  Al25  1  0.128726  0.566215  0.742404  1
  Al  Al26  1  0.565757  0.432803  0.250273  1
  Al  Al27  1  0.434243  0.567197  0.749727  1
  Al  Al28  1  0.999881  0.002677  0.250580  1
  Al  Al29  1  0.000119  0.997323  0.749420  1
  Os  Os30  1  0.500000  0.000000  0.000000  1
  Os  Os31  1  0.500000  0.000000  0.500000  1
  Os  Os32  1  0.000000  0.500000  0.500000  1
  Os  Os33  1  0.000000  0.000000  0.000000  1
  Os  Os34  1  0.000000  0.000000  0.500000  1
  Au  Au35  1  0.000000  0.500000  0.000000  1
  Au  Au36  1  0.500000  0.500000  0.000000  1
  Au  Au37  1  0.500000  0.500000  0.500000  1
