# generated using pymatgen
data_Pa2Si2Ir
_symmetry_space_group_name_H-M   'P 1'
_cell_length_a   5.56213749
_cell_length_b   5.56213676
_cell_length_c   10.23619564
_cell_angle_alpha   115.25378761
_cell_angle_beta   115.25378132
_cell_angle_gamma   44.58001430
_symmetry_Int_Tables_number   1
_chemical_formula_structural   Pa2Si2Ir
_chemical_formula_sum   'Pa4 Si4 Ir2'
_cell_volume   197.24163767
_cell_formula_units_Z   2
loop_
 _symmetry_equiv_pos_site_id
 _symmetry_equiv_pos_as_xyz
  1  'x, y, z'
loop_
 _atom_site_type_symbol
 _atom_site_label
 _atom_site_symmetry_multiplicity
 _atom_site_fract_x
 _atom_site_fract_y
 _atom_site_fract_z
 _atom_site_occupancy
  Pa  Pa0  1  0.186880  0.186880  0.111335  1
  Pa  Pa1  1  0.003386  0.003386  0.323961  1
  Pa  Pa2  1  0.996613  0.996613  0.676038  1
  Pa  Pa3  1  0.813120  0.813120  0.888664  1
  Si  Si4  1  0.470603  0.470603  0.110335  1
  Si  Si5  1  0.358885  0.358885  0.444442  1
  Si  Si6  1  0.641116  0.641116  0.555559  1
  Si  Si7  1  0.529397  0.529397  0.889665  1
  Ir  Ir8  1  0.719850  0.719850  0.332913  1
  Ir  Ir9  1  0.280151  0.280151  0.667088  1
