# generated using pymatgen
data_TbDy2MoO7
_symmetry_space_group_name_H-M   'P 1'
_cell_length_a   6.45633711
_cell_length_b   6.45633717
_cell_length_c   7.52892300
_cell_angle_alpha   90.00000000
_cell_angle_beta   90.00000000
_cell_angle_gamma   109.35135418
_symmetry_Int_Tables_number   1
_chemical_formula_structural   TbDy2MoO7
_chemical_formula_sum   'Tb2 Dy4 Mo2 O14'
_cell_volume   296.10732819
_cell_formula_units_Z   2
loop_
 _symmetry_equiv_pos_site_id
 _symmetry_equiv_pos_as_xyz
  1  'x, y, z'
loop_
 _atom_site_type_symbol
 _atom_site_label
 _atom_site_symmetry_multiplicity
 _atom_site_fract_x
 _atom_site_fract_y
 _atom_site_fract_z
 _atom_site_occupancy
  Tb  Tb0  1  0.500000  0.500000  0.500000  1
  Tb  Tb1  1  0.500000  0.500000  0.000000  1
  Dy  Dy2  1  0.535213  0.000522  0.750000  1
  Dy  Dy3  1  0.000522  0.535213  0.250000  1
  Dy  Dy4  1  0.464787  0.999478  0.250000  1
  Dy  Dy5  1  0.999478  0.464787  0.750000  1
  Mo  Mo6  1  0.000000  0.000000  0.500000  1
  Mo  Mo7  1  0.000000  0.000000  0.000000  1
  O  O8  1  0.677658  0.925373  0.470115  1
  O  O9  1  0.925373  0.677658  0.529885  1
  O  O10  1  0.677658  0.925373  0.029885  1
  O  O11  1  0.925373  0.677658  0.970115  1
  O  O12  1  0.322342  0.074627  0.529885  1
  O  O13  1  0.074627  0.322342  0.470115  1
  O  O14  1  0.322342  0.074627  0.970115  1
  O  O15  1  0.074627  0.322342  0.029885  1
  O  O16  1  0.927253  0.072747  0.750000  1
  O  O17  1  0.072747  0.927253  0.250000  1
  O  O18  1  0.368737  0.631263  0.750000  1
  O  O19  1  0.631263  0.368737  0.250000  1
  O  O20  1  0.636731  0.363269  0.750000  1
  O  O21  1  0.363269  0.636731  0.250000  1
