# generated using pymatgen
data_Nd6Cd(InPb2)3
_symmetry_space_group_name_H-M   'P 1'
_cell_length_a   6.71450025
_cell_length_b   6.71450003
_cell_length_c   10.68476930
_cell_angle_alpha   90.38896307
_cell_angle_beta   90.38896657
_cell_angle_gamma   102.56193138
_symmetry_Int_Tables_number   1
_chemical_formula_structural   Nd6Cd(InPb2)3
_chemical_formula_sum   'Nd6 Cd1 In3 Pb6'
_cell_volume   470.15831499
_cell_formula_units_Z   1
loop_
 _symmetry_equiv_pos_site_id
 _symmetry_equiv_pos_as_xyz
  1  'x, y, z'
loop_
 _atom_site_type_symbol
 _atom_site_label
 _atom_site_symmetry_multiplicity
 _atom_site_fract_x
 _atom_site_fract_y
 _atom_site_fract_z
 _atom_site_occupancy
  Nd  Nd0  1  0.627010  0.627010  0.250671  1
  Nd  Nd1  1  0.372603  0.372603  0.749937  1
  Nd  Nd2  1  0.202691  0.797276  0.499729  1
  Nd  Nd3  1  0.202935  0.795436  0.000020  1
  Nd  Nd4  1  0.797276  0.202691  0.499729  1
  Nd  Nd5  1  0.795436  0.202935  0.000020  1
  Cd  Cd6  1  0.312419  0.312419  0.042362  1
  In  In7  1  0.687390  0.687390  0.959018  1
  In  In8  1  0.311064  0.311064  0.458081  1
  In  In9  1  0.689414  0.689414  0.541922  1
  Pb  Pb10  1  0.015408  0.015407  0.249062  1
  Pb  Pb11  1  0.985839  0.985838  0.751151  1
  Pb  Pb12  1  0.503139  0.076047  0.248431  1
  Pb  Pb13  1  0.924586  0.496743  0.750719  1
  Pb  Pb14  1  0.496743  0.924586  0.750719  1
  Pb  Pb15  1  0.076047  0.503139  0.248431  1
