# generated using pymatgen
data_Dy5Y3Cd2NiOs
_symmetry_space_group_name_H-M   'P 1'
_cell_length_a   9.62106067
_cell_length_b   9.62106079
_cell_length_c   9.71134500
_cell_angle_alpha   59.68908717
_cell_angle_beta   59.68908677
_cell_angle_gamma   59.52572605
_symmetry_Int_Tables_number   1
_chemical_formula_structural   Dy5Y3Cd2NiOs
_chemical_formula_sum   'Dy10 Y6 Cd4 Ni2 Os2'
_cell_volume   630.35774744
_cell_formula_units_Z   2
loop_
 _symmetry_equiv_pos_site_id
 _symmetry_equiv_pos_as_xyz
  1  'x, y, z'
loop_
 _atom_site_type_symbol
 _atom_site_label
 _atom_site_symmetry_multiplicity
 _atom_site_fract_x
 _atom_site_fract_y
 _atom_site_fract_z
 _atom_site_occupancy
  Dy  Dy0  1  0.599935  0.599935  0.592548  1
  Dy  Dy1  1  0.599935  0.599935  0.207581  1
  Dy  Dy2  1  0.600845  0.207077  0.596038  1
  Dy  Dy3  1  0.207077  0.600845  0.596038  1
  Dy  Dy4  1  0.061203  0.436215  0.440525  1
  Dy  Dy5  1  0.436215  0.061203  0.062057  1
  Dy  Dy6  1  0.436215  0.061203  0.440525  1
  Dy  Dy7  1  0.061203  0.436215  0.062057  1
  Dy  Dy8  1  0.438530  0.438530  0.061470  1
  Dy  Dy9  1  0.059697  0.059697  0.440303  1
  Y  Y10  1  0.189724  0.805504  0.816057  1
  Y  Y11  1  0.805504  0.189724  0.188715  1
  Y  Y12  1  0.805504  0.189724  0.816057  1
  Y  Y13  1  0.189724  0.805504  0.188715  1
  Y  Y14  1  0.815073  0.815073  0.184927  1
  Y  Y15  1  0.191905  0.191905  0.808095  1
  Cd  Cd16  1  0.828944  0.828944  0.832738  1
  Cd  Cd17  1  0.828944  0.828944  0.509373  1
  Cd  Cd18  1  0.830093  0.506507  0.831699  1
  Cd  Cd19  1  0.506507  0.830093  0.831699  1
  Ni  Ni20  1  0.392398  0.827018  0.390293  1
  Ni  Ni21  1  0.827018  0.392398  0.390293  1
  Os  Os22  1  0.393904  0.393904  0.387625  1
  Os  Os23  1  0.393904  0.393904  0.824570  1
