# generated using pymatgen
data_Pr6DyPI12
_symmetry_space_group_name_H-M   'P 1'
_cell_length_a   10.00038834
_cell_length_b   10.00038825
_cell_length_c   10.00038962
_cell_angle_alpha   107.74330859
_cell_angle_beta   107.74329112
_cell_angle_gamma   107.74329592
_symmetry_Int_Tables_number   1
_chemical_formula_structural   Pr6DyPI12
_chemical_formula_sum   'Pr6 Dy1 P1 I12'
_cell_volume   815.42910719
_cell_formula_units_Z   1
loop_
 _symmetry_equiv_pos_site_id
 _symmetry_equiv_pos_as_xyz
  1  'x, y, z'
loop_
 _atom_site_type_symbol
 _atom_site_label
 _atom_site_symmetry_multiplicity
 _atom_site_fract_x
 _atom_site_fract_y
 _atom_site_fract_z
 _atom_site_occupancy
  Pr  Pr0  1  0.970918  0.899435  0.694749  1
  Pr  Pr1  1  0.029082  0.100565  0.305251  1
  Pr  Pr2  1  0.100565  0.305251  0.029082  1
  Pr  Pr3  1  0.305251  0.029082  0.100565  1
  Pr  Pr4  1  0.899435  0.694749  0.970918  1
  Pr  Pr5  1  0.694749  0.970918  0.899435  1
  Dy  Dy6  1  0.500000  0.500000  0.500000  1
  P  P7  1  0.000000  0.000000  0.000000  1
  I  I8  1  0.530111  0.608738  0.834217  1
  I  I9  1  0.469889  0.391262  0.165783  1
  I  I10  1  0.315289  0.925369  0.771107  1
  I  I11  1  0.391262  0.165783  0.469889  1
  I  I12  1  0.925369  0.771107  0.315289  1
  I  I13  1  0.684711  0.074631  0.228893  1
  I  I14  1  0.074631  0.228893  0.684711  1
  I  I15  1  0.771107  0.315289  0.925369  1
  I  I16  1  0.228893  0.684711  0.074631  1
  I  I17  1  0.834217  0.530111  0.608738  1
  I  I18  1  0.165783  0.469889  0.391262  1
  I  I19  1  0.608738  0.834217  0.530111  1
