# generated using pymatgen
data_NdDy5(RuBr3)2
_symmetry_space_group_name_H-M   'P 1'
_cell_length_a   4.17030500
_cell_length_b   8.54153967
_cell_length_c   11.89294065
_cell_angle_alpha   86.38002476
_cell_angle_beta   90.00000000
_cell_angle_gamma   90.00000000
_symmetry_Int_Tables_number   1
_chemical_formula_structural   NdDy5(RuBr3)2
_chemical_formula_sum   'Nd1 Dy5 Ru2 Br6'
_cell_volume   422.79111534
_cell_formula_units_Z   1
loop_
 _symmetry_equiv_pos_site_id
 _symmetry_equiv_pos_as_xyz
  1  'x, y, z'
loop_
 _atom_site_type_symbol
 _atom_site_label
 _atom_site_symmetry_multiplicity
 _atom_site_fract_x
 _atom_site_fract_y
 _atom_site_fract_z
 _atom_site_occupancy
  Nd  Nd0  1  0.750000  0.116654  0.171209  1
  Dy  Dy1  1  0.250000  0.271717  0.399501  1
  Dy  Dy2  1  0.750000  0.727641  0.602543  1
  Dy  Dy3  1  0.250000  0.860937  0.366383  1
  Dy  Dy4  1  0.750000  0.136890  0.632225  1
  Dy  Dy5  1  0.250000  0.885595  0.822029  1
  Ru  Ru6  1  0.250000  0.941125  0.592703  1
  Ru  Ru7  1  0.750000  0.056946  0.406809  1
  Br  Br8  1  0.250000  0.422409  0.632435  1
  Br  Br9  1  0.750000  0.573390  0.374333  1
  Br  Br10  1  0.250000  0.871695  0.104189  1
  Br  Br11  1  0.750000  0.115754  0.889914  1
  Br  Br12  1  0.250000  0.369836  0.148160  1
  Br  Br13  1  0.750000  0.649411  0.857567  1
