# generated using pymatgen
data_Y3Ho17(Bi2As)4
_symmetry_space_group_name_H-M   'P 1'
_cell_length_a   8.03109010
_cell_length_b   9.13277000
_cell_length_c   12.03953415
_cell_angle_alpha   90.00000000
_cell_angle_beta   90.01797647
_cell_angle_gamma   90.00000000
_symmetry_Int_Tables_number   1
_chemical_formula_structural   Y3Ho17(Bi2As)4
_chemical_formula_sum   'Y3 Ho17 Bi8 As4'
_cell_volume   883.05281673
_cell_formula_units_Z   1
loop_
 _symmetry_equiv_pos_site_id
 _symmetry_equiv_pos_as_xyz
  1  'x, y, z'
loop_
 _atom_site_type_symbol
 _atom_site_label
 _atom_site_symmetry_multiplicity
 _atom_site_fract_x
 _atom_site_fract_y
 _atom_site_fract_z
 _atom_site_occupancy
  Y  Y0  1  0.156341  0.750000  0.211048  1
  Y  Y1  1  0.343686  0.750000  0.710988  1
  Y  Y2  1  0.843695  0.250000  0.789010  1
  Ho  Ho3  1  0.817056  0.556045  0.062845  1
  Ho  Ho4  1  0.682898  0.943867  0.562819  1
  Ho  Ho5  1  0.182932  0.056134  0.937200  1
  Ho  Ho6  1  0.317105  0.443834  0.437183  1
  Ho  Ho7  1  0.182932  0.443866  0.937200  1
  Ho  Ho8  1  0.317105  0.056166  0.437183  1
  Ho  Ho9  1  0.817056  0.943955  0.062845  1
  Ho  Ho10  1  0.682898  0.556133  0.562819  1
  Ho  Ho11  1  0.656168  0.250000  0.289253  1
  Ho  Ho12  1  0.463891  0.750000  0.000028  1
  Ho  Ho13  1  0.036197  0.750000  0.499968  1
  Ho  Ho14  1  0.536306  0.250000  0.000141  1
  Ho  Ho15  1  0.963790  0.250000  0.499929  1
  Ho  Ho16  1  0.634281  0.750000  0.292724  1
  Ho  Ho17  1  0.865623  0.750000  0.792723  1
  Ho  Ho18  1  0.365709  0.250000  0.707184  1
  Ho  Ho19  1  0.134112  0.250000  0.207310  1
  Bi  Bi20  1  0.925369  0.509791  0.327012  1
  Bi  Bi21  1  0.574311  0.990052  0.827049  1
  Bi  Bi22  1  0.074322  0.009977  0.672924  1
  Bi  Bi23  1  0.425975  0.489816  0.173114  1
  Bi  Bi24  1  0.074322  0.490023  0.672924  1
  Bi  Bi25  1  0.425975  0.010184  0.173114  1
  Bi  Bi26  1  0.925369  0.990209  0.327012  1
  Bi  Bi27  1  0.574311  0.509948  0.827049  1
  As  As28  1  0.412907  0.750000  0.478014  1
  As  As29  1  0.087116  0.750000  0.978050  1
  As  As30  1  0.587305  0.250000  0.521422  1
  As  As31  1  0.912936  0.250000  0.021917  1
