# generated using pymatgen
data_Dy2Al5Si4IrOs2
_symmetry_space_group_name_H-M   'P 1'
_cell_length_a   7.43109509
_cell_length_b   7.43109508
_cell_length_c   9.35751500
_cell_angle_alpha   90.00000000
_cell_angle_beta   90.00000000
_cell_angle_gamma   119.84380523
_symmetry_Int_Tables_number   1
_chemical_formula_structural   Dy2Al5Si4IrOs2
_chemical_formula_sum   'Dy4 Al10 Si8 Ir2 Os4'
_cell_volume   448.20654757
_cell_formula_units_Z   2
loop_
 _symmetry_equiv_pos_site_id
 _symmetry_equiv_pos_as_xyz
  1  'x, y, z'
loop_
 _atom_site_type_symbol
 _atom_site_label
 _atom_site_symmetry_multiplicity
 _atom_site_fract_x
 _atom_site_fract_y
 _atom_site_fract_z
 _atom_site_occupancy
  Dy  Dy0  1  0.002612  0.669109  0.750000  1
  Dy  Dy1  1  0.997388  0.330891  0.250000  1
  Dy  Dy2  1  0.669109  0.002612  0.750000  1
  Dy  Dy3  1  0.330891  0.997388  0.250000  1
  Al  Al4  1  0.129497  0.129497  0.750000  1
  Al  Al5  1  0.870503  0.870503  0.250000  1
  Al  Al6  1  0.337355  0.337355  0.059648  1
  Al  Al7  1  0.662645  0.662645  0.940352  1
  Al  Al8  1  0.662645  0.662645  0.559648  1
  Al  Al9  1  0.337355  0.337355  0.440352  1
  Al  Al10  1  0.339623  0.548436  0.750000  1
  Al  Al11  1  0.660377  0.451564  0.250000  1
  Al  Al12  1  0.548436  0.339623  0.750000  1
  Al  Al13  1  0.451564  0.660377  0.250000  1
  Si  Si14  1  0.008325  0.337385  0.570700  1
  Si  Si15  1  0.991675  0.662615  0.429300  1
  Si  Si16  1  0.991675  0.662615  0.070700  1
  Si  Si17  1  0.337385  0.008325  0.929300  1
  Si  Si18  1  0.008325  0.337385  0.929300  1
  Si  Si19  1  0.662615  0.991675  0.070700  1
  Si  Si20  1  0.662615  0.991675  0.429300  1
  Si  Si21  1  0.337385  0.008325  0.570700  1
  Ir  Ir22  1  0.000000  0.000000  0.500000  1
  Ir  Ir23  1  0.000000  0.000000  0.000000  1
  Os  Os24  1  0.680899  0.319101  0.500000  1
  Os  Os25  1  0.319101  0.680899  0.500000  1
  Os  Os26  1  0.319101  0.680899  0.000000  1
  Os  Os27  1  0.680899  0.319101  0.000000  1
