# generated using pymatgen
data_Th5Si3Mo3P9Ir16
_symmetry_space_group_name_H-M   'P 1'
_cell_length_a   12.85925200
_cell_length_b   12.85925208
_cell_length_c   4.03990400
_cell_angle_alpha   90.00000000
_cell_angle_beta   90.00000000
_cell_angle_gamma   119.99999979
_symmetry_Int_Tables_number   1
_chemical_formula_structural   Th5Si3Mo3P9Ir16
_chemical_formula_sum   'Th5 Si3 Mo3 P9 Ir16'
_cell_volume   578.53960515
_cell_formula_units_Z   1
loop_
 _symmetry_equiv_pos_site_id
 _symmetry_equiv_pos_as_xyz
  1  'x, y, z'
loop_
 _atom_site_type_symbol
 _atom_site_label
 _atom_site_symmetry_multiplicity
 _atom_site_fract_x
 _atom_site_fract_y
 _atom_site_fract_z
 _atom_site_occupancy
  Th  Th0  1  0.333333  0.666667  0.500000  1
  Th  Th1  1  0.666667  0.333333  0.500000  1
  Th  Th2  1  0.001943  0.814061  0.000000  1
  Th  Th3  1  0.185939  0.187882  0.000000  1
  Th  Th4  1  0.812118  0.998057  0.000000  1
  Si  Si5  1  0.519775  0.683240  0.000000  1
  Si  Si6  1  0.316760  0.836534  0.000000  1
  Si  Si7  1  0.163466  0.480225  0.000000  1
  Mo  Mo8  1  0.996968  0.448979  0.500000  1
  Mo  Mo9  1  0.551021  0.547989  0.500000  1
  Mo  Mo10  1  0.452011  0.003032  0.500000  1
  P  P11  1  0.004768  0.634986  0.500000  1
  P  P12  1  0.365014  0.369781  0.500000  1
  P  P13  1  0.630219  0.995232  0.500000  1
  P  P14  1  0.480980  0.165802  0.000000  1
  P  P15  1  0.684822  0.519020  0.000000  1
  P  P16  1  0.834198  0.315178  0.000000  1
  P  P17  1  0.998434  0.177599  0.500000  1
  P  P18  1  0.822401  0.820834  0.500000  1
  P  P19  1  0.179166  0.001566  0.500000  1
  Ir  Ir20  1  0.516271  0.874292  0.000000  1
  Ir  Ir21  1  0.125708  0.641981  0.000000  1
  Ir  Ir22  1  0.358019  0.483729  0.000000  1
  Ir  Ir23  1  0.492522  0.357991  0.000000  1
  Ir  Ir24  1  0.865471  0.507478  0.000000  1
  Ir  Ir25  1  0.642009  0.134529  0.000000  1
  Ir  Ir26  1  0.994993  0.281769  0.000000  1
  Ir  Ir27  1  0.718231  0.713224  0.000000  1
  Ir  Ir28  1  0.286776  0.005007  0.000000  1
  Ir  Ir29  1  0.626591  0.801891  0.500000  1
  Ir  Ir30  1  0.198109  0.824700  0.500000  1
  Ir  Ir31  1  0.175300  0.373409  0.500000  1
  Ir  Ir32  1  0.373813  0.182144  0.500000  1
  Ir  Ir33  1  0.808331  0.626187  0.500000  1
  Ir  Ir34  1  0.817856  0.191669  0.500000  1
  Ir  Ir35  1  0.000000  0.000000  0.500000  1
