# generated using pymatgen
data_BaLi2Sm4O8
_symmetry_space_group_name_H-M   'P 1'
_cell_length_a   7.04826899
_cell_length_b   7.04827051
_cell_length_c   9.81420190
_cell_angle_alpha   61.57114254
_cell_angle_beta   61.57113533
_cell_angle_gamma   29.84205702
_symmetry_Int_Tables_number   1
_chemical_formula_structural   BaLi2Sm4O8
_chemical_formula_sum   'Ba1 Li2 Sm4 O8'
_cell_volume   211.12238345
_cell_formula_units_Z   1
loop_
 _symmetry_equiv_pos_site_id
 _symmetry_equiv_pos_as_xyz
  1  'x, y, z'
loop_
 _atom_site_type_symbol
 _atom_site_label
 _atom_site_symmetry_multiplicity
 _atom_site_fract_x
 _atom_site_fract_y
 _atom_site_fract_z
 _atom_site_occupancy
  Ba  Ba0  1  0.500000  0.500000  0.000000  1
  Li  Li1  1  0.190297  0.190297  0.737101  1
  Li  Li2  1  0.809703  0.809703  0.262899  1
  Sm  Sm3  1  0.609858  0.609858  0.561345  1
  Sm  Sm4  1  0.390142  0.390142  0.438655  1
  Sm  Sm5  1  0.164199  0.164199  0.187940  1
  Sm  Sm6  1  0.835801  0.835801  0.812060  1
  O  O7  1  0.044784  0.044784  0.745898  1
  O  O8  1  0.955216  0.955216  0.254102  1
  O  O9  1  0.238141  0.238141  0.377772  1
  O  O10  1  0.761859  0.761859  0.622228  1
  O  O11  1  0.812107  0.812107  0.065503  1
  O  O12  1  0.187893  0.187893  0.934497  1
  O  O13  1  0.583190  0.583190  0.342895  1
  O  O14  1  0.416810  0.416810  0.657105  1
