# generated using pymatgen
data_Ca3Nd(CdPt)4
_symmetry_space_group_name_H-M   'P 1'
_cell_length_a   4.24084400
_cell_length_b   7.36861232
_cell_length_c   8.80595152
_cell_angle_alpha   90.08875078
_cell_angle_beta   90.00000000
_cell_angle_gamma   90.00000000
_symmetry_Int_Tables_number   1
_chemical_formula_structural   Ca3Nd(CdPt)4
_chemical_formula_sum   'Ca3 Nd1 Cd4 Pt4'
_cell_volume   275.17804053
_cell_formula_units_Z   1
loop_
 _symmetry_equiv_pos_site_id
 _symmetry_equiv_pos_as_xyz
  1  'x, y, z'
loop_
 _atom_site_type_symbol
 _atom_site_label
 _atom_site_symmetry_multiplicity
 _atom_site_fract_x
 _atom_site_fract_y
 _atom_site_fract_z
 _atom_site_occupancy
  Ca  Ca0  1  0.250000  0.537982  0.175032  1
  Ca  Ca1  1  0.750000  0.960538  0.682211  1
  Ca  Ca2  1  0.750000  0.462055  0.821136  1
  Nd  Nd3  1  0.250000  0.039629  0.324687  1
  Cd  Cd4  1  0.250000  0.143672  0.934141  1
  Cd  Cd5  1  0.250000  0.642719  0.564828  1
  Cd  Cd6  1  0.750000  0.852446  0.060445  1
  Cd  Cd7  1  0.750000  0.365310  0.437885  1
  Pt  Pt8  1  0.250000  0.250512  0.625277  1
  Pt  Pt9  1  0.250000  0.752084  0.869509  1
  Pt  Pt10  1  0.750000  0.753831  0.370121  1
  Pt  Pt11  1  0.750000  0.239221  0.134728  1
