# generated using pymatgen
data_Ti10C8O
_symmetry_space_group_name_H-M   'P 1'
_cell_length_a   8.10714681
_cell_length_b   8.10108033
_cell_length_c   10.14416898
_cell_angle_alpha   62.94214820
_cell_angle_beta   62.93235937
_cell_angle_gamma   44.42158724
_symmetry_Int_Tables_number   1
_chemical_formula_structural   Ti10C8O
_chemical_formula_sum   'Ti20 C16 O2'
_cell_volume   406.12551307
_cell_formula_units_Z   2
loop_
 _symmetry_equiv_pos_site_id
 _symmetry_equiv_pos_as_xyz
  1  'x, y, z'
loop_
 _atom_site_type_symbol
 _atom_site_label
 _atom_site_symmetry_multiplicity
 _atom_site_fract_x
 _atom_site_fract_y
 _atom_site_fract_z
 _atom_site_occupancy
  Ti  Ti0  1  0.237623  0.477969  0.943697  1
  Ti  Ti1  1  0.719476  0.968475  0.959381  1
  Ti  Ti2  1  0.562146  0.331947  0.648297  1
  Ti  Ti3  1  0.437854  0.668053  0.351703  1
  Ti  Ti4  1  0.280524  0.031525  0.040619  1
  Ti  Ti5  1  0.085356  0.815323  0.639985  1
  Ti  Ti6  1  0.126971  0.366765  0.748380  1
  Ti  Ti7  1  0.914644  0.184677  0.360015  1
  Ti  Ti8  1  0.966427  0.720691  0.457478  1
  Ti  Ti9  1  0.762377  0.522031  0.056303  1
  Ti  Ti10  1  0.621827  0.881797  0.746098  1
  Ti  Ti11  1  0.813789  0.082652  0.143697  1
  Ti  Ti12  1  0.477925  0.224528  0.445935  1
  Ti  Ti13  1  0.670719  0.437510  0.851078  1
  Ti  Ti14  1  0.522075  0.775472  0.554065  1
  Ti  Ti15  1  0.329281  0.562490  0.148922  1
  Ti  Ti16  1  0.378173  0.118203  0.253902  1
  Ti  Ti17  1  0.186211  0.917348  0.856303  1
  Ti  Ti18  1  0.033573  0.279309  0.542522  1
  Ti  Ti19  1  0.873029  0.633235  0.251620  1
  C  C20  1  0.575396  0.826268  0.148257  1
  C  C21  1  0.778485  0.023931  0.551093  1
  C  C22  1  0.424604  0.173732  0.851743  1
  C  C23  1  0.626801  0.375399  0.249188  1
  C  C24  1  0.273243  0.529123  0.550183  1
  C  C25  1  0.474859  0.725542  0.951468  1
  C  C26  1  0.322432  0.075449  0.651221  1
  C  C27  1  0.174527  0.424481  0.350429  1
  C  C28  1  0.974969  0.224677  0.951389  1
  C  C29  1  0.825473  0.575519  0.649571  1
  C  C30  1  0.025031  0.775323  0.048611  1
  C  C31  1  0.677568  0.924551  0.348779  1
  C  C32  1  0.726757  0.470877  0.449817  1
  C  C33  1  0.525141  0.274458  0.048532  1
  C  C34  1  0.373199  0.624601  0.750812  1
  C  C35  1  0.221515  0.976069  0.448907  1
  O  O36  1  0.075064  0.322523  0.148290  1
  O  O37  1  0.924936  0.677477  0.851710  1
