# generated using pymatgen
data_Li2InSbPd4
_symmetry_space_group_name_H-M   'P 1'
_cell_length_a   7.81885101
_cell_length_b   7.81885182
_cell_length_c   7.81885239
_cell_angle_alpha   33.53178465
_cell_angle_beta   33.53177604
_cell_angle_gamma   33.53178438
_symmetry_Int_Tables_number   1
_chemical_formula_structural   Li2InSbPd4
_chemical_formula_sum   'Li2 In1 Sb1 Pd4'
_cell_volume   129.91524602
_cell_formula_units_Z   1
loop_
 _symmetry_equiv_pos_site_id
 _symmetry_equiv_pos_as_xyz
  1  'x, y, z'
loop_
 _atom_site_type_symbol
 _atom_site_label
 _atom_site_symmetry_multiplicity
 _atom_site_fract_x
 _atom_site_fract_y
 _atom_site_fract_z
 _atom_site_occupancy
  Li  Li0  1  0.251143  0.251143  0.251143  1
  Li  Li1  1  0.748857  0.748857  0.748857  1
  In  In2  1  0.000000  0.000000  0.000000  1
  Sb  Sb3  1  0.500000  0.500000  0.500000  1
  Pd  Pd4  1  0.624080  0.624080  0.624080  1
  Pd  Pd5  1  0.125433  0.125433  0.125433  1
  Pd  Pd6  1  0.874567  0.874567  0.874567  1
  Pd  Pd7  1  0.375920  0.375920  0.375920  1
