# generated using pymatgen
data_CeHo2SnRh3Pb2
_symmetry_space_group_name_H-M   'P 1'
_cell_length_a   7.69905300
_cell_length_b   7.67521658
_cell_length_c   3.89411800
_cell_angle_alpha   90.00000000
_cell_angle_beta   90.00000000
_cell_angle_gamma   120.10279119
_symmetry_Int_Tables_number   1
_chemical_formula_structural   CeHo2SnRh3Pb2
_chemical_formula_sum   'Ce1 Ho2 Sn1 Rh3 Pb2'
_cell_volume   199.07508788
_cell_formula_units_Z   1
loop_
 _symmetry_equiv_pos_site_id
 _symmetry_equiv_pos_as_xyz
  1  'x, y, z'
loop_
 _atom_site_type_symbol
 _atom_site_label
 _atom_site_symmetry_multiplicity
 _atom_site_fract_x
 _atom_site_fract_y
 _atom_site_fract_z
 _atom_site_occupancy
  Ce  Ce0  1  0.414289  0.000000  0.000000  1
  Ho  Ho1  1  0.992293  0.398212  0.000000  1
  Ho  Ho2  1  0.594081  0.601788  0.000000  1
  Sn  Sn3  1  0.747517  0.000000  0.500000  1
  Rh  Rh4  1  0.657746  0.311735  0.500000  1
  Rh  Rh5  1  0.346010  0.688265  0.500000  1
  Rh  Rh6  1  0.994115  0.000000  0.000000  1
  Pb  Pb7  1  0.262596  0.271244  0.500000  1
  Pb  Pb8  1  0.991352  0.728756  0.500000  1
