# generated using pymatgen
data_Sm4Te3N2
_symmetry_space_group_name_H-M   'P 1'
_cell_length_a   7.47794900
_cell_length_b   11.23808200
_cell_length_c   11.92310200
_cell_angle_alpha   90.00000000
_cell_angle_beta   90.00000000
_cell_angle_gamma   90.00000000
_symmetry_Int_Tables_number   1
_chemical_formula_structural   Sm4Te3N2
_chemical_formula_sum   'Sm16 Te12 N8'
_cell_volume   1001.99130959
_cell_formula_units_Z   4
loop_
 _symmetry_equiv_pos_site_id
 _symmetry_equiv_pos_as_xyz
  1  'x, y, z'
loop_
 _atom_site_type_symbol
 _atom_site_label
 _atom_site_symmetry_multiplicity
 _atom_site_fract_x
 _atom_site_fract_y
 _atom_site_fract_z
 _atom_site_occupancy
  Sm  Sm0  1  0.161584  0.383523  0.653242  1
  Sm  Sm1  1  0.338416  0.383523  0.346758  1
  Sm  Sm2  1  0.161584  0.116477  0.846758  1
  Sm  Sm3  1  0.338416  0.116477  0.153242  1
  Sm  Sm4  1  0.838416  0.616477  0.346758  1
  Sm  Sm5  1  0.661584  0.616477  0.653242  1
  Sm  Sm6  1  0.838416  0.883523  0.153242  1
  Sm  Sm7  1  0.661584  0.883523  0.846758  1
  Sm  Sm8  1  0.476621  0.323630  0.908702  1
  Sm  Sm9  1  0.023379  0.323630  0.091298  1
  Sm  Sm10  1  0.476621  0.176370  0.591298  1
  Sm  Sm11  1  0.023379  0.176370  0.408702  1
  Sm  Sm12  1  0.523379  0.676370  0.091298  1
  Sm  Sm13  1  0.976621  0.676370  0.908702  1
  Sm  Sm14  1  0.523379  0.823630  0.408702  1
  Sm  Sm15  1  0.976621  0.823630  0.591298  1
  Te  Te16  1  0.250000  0.890556  0.000000  1
  Te  Te17  1  0.250000  0.609444  0.500000  1
  Te  Te18  1  0.750000  0.109444  0.000000  1
  Te  Te19  1  0.750000  0.390556  0.500000  1
  Te  Te20  1  0.369201  0.582435  0.838574  1
  Te  Te21  1  0.130799  0.582435  0.161426  1
  Te  Te22  1  0.369201  0.917565  0.661426  1
  Te  Te23  1  0.130799  0.917565  0.338574  1
  Te  Te24  1  0.630799  0.417565  0.161426  1
  Te  Te25  1  0.869201  0.417565  0.838574  1
  Te  Te26  1  0.630799  0.082435  0.338574  1
  Te  Te27  1  0.869201  0.082435  0.661426  1
  N  N28  1  0.250000  0.225371  0.000000  1
  N  N29  1  0.250000  0.274629  0.500000  1
  N  N30  1  0.750000  0.774629  0.000000  1
  N  N31  1  0.750000  0.725371  0.500000  1
  N  N32  1  0.342216  0.250000  0.750000  1
  N  N33  1  0.157784  0.250000  0.250000  1
  N  N34  1  0.657784  0.750000  0.250000  1
  N  N35  1  0.842216  0.750000  0.750000  1
