# generated using pymatgen
data_Sm6GaGeBr6
_symmetry_space_group_name_H-M   'P 1'
_cell_length_a   10.32447509
_cell_length_b   10.32447404
_cell_length_c   10.32062174
_cell_angle_alpha   109.47695415
_cell_angle_beta   109.47696127
_cell_angle_gamma   109.47486809
_symmetry_Int_Tables_number   1
_chemical_formula_structural   Sm6GaGeBr6
_chemical_formula_sum   'Sm12 Ga2 Ge2 Br12'
_cell_volume   846.71803999
_cell_formula_units_Z   2
loop_
 _symmetry_equiv_pos_site_id
 _symmetry_equiv_pos_as_xyz
  1  'x, y, z'
loop_
 _atom_site_type_symbol
 _atom_site_label
 _atom_site_symmetry_multiplicity
 _atom_site_fract_x
 _atom_site_fract_y
 _atom_site_fract_z
 _atom_site_occupancy
  Sm  Sm0  1  0.479658  0.489717  0.239548  1
  Sm  Sm1  1  0.750169  0.240110  0.260452  1
  Sm  Sm2  1  0.750167  0.009734  0.489849  1
  Sm  Sm3  1  0.239682  0.480116  0.489849  1
  Sm  Sm4  1  0.259890  0.749831  0.239548  1
  Sm  Sm5  1  0.019884  0.260318  0.010151  1
  Sm  Sm6  1  0.010283  0.020342  0.260452  1
  Sm  Sm7  1  0.490266  0.749833  0.010151  1
  Sm  Sm8  1  0.490493  0.240493  0.480986  1
  Sm  Sm9  1  0.010850  0.489150  0.750000  1
  Sm  Sm10  1  0.259507  0.009507  0.019014  1
  Sm  Sm11  1  0.239150  0.260850  0.750000  1
  Ga  Ga12  1  0.250251  0.249749  0.250000  1
  Ga  Ga13  1  0.499749  0.000251  0.250000  1
  Ge  Ge14  1  0.999597  0.249597  0.499194  1
  Ge  Ge15  1  0.250403  0.500403  0.000806  1
  Br  Br16  1  0.249611  0.753574  0.745457  1
  Br  Br17  1  0.508116  0.504153  0.754543  1
  Br  Br18  1  0.989616  0.744025  0.994404  1
  Br  Br19  1  0.746426  0.250389  0.754543  1
  Br  Br20  1  0.995847  0.991884  0.745457  1
  Br  Br21  1  0.249621  0.995211  0.505596  1
  Br  Br22  1  0.755975  0.510384  0.505596  1
  Br  Br23  1  0.504789  0.250379  0.994404  1
  Br  Br24  1  0.754841  0.745159  0.250000  1
  Br  Br25  1  0.745580  0.995580  0.991161  1
  Br  Br26  1  0.995159  0.504841  0.250000  1
  Br  Br27  1  0.504420  0.754420  0.508839  1
