# generated using pymatgen
data_Ho2Er14MgCd3Ir4
_symmetry_space_group_name_H-M   'P 1'
_cell_length_a   9.60107190
_cell_length_b   9.60107158
_cell_length_c   9.59957701
_cell_angle_alpha   59.68115244
_cell_angle_beta   59.68115682
_cell_angle_gamma   59.67233604
_symmetry_Int_Tables_number   1
_chemical_formula_structural   Ho2Er14MgCd3Ir4
_chemical_formula_sum   'Ho2 Er14 Mg1 Cd3 Ir4'
_cell_volume   621.14077844
_cell_formula_units_Z   1
loop_
 _symmetry_equiv_pos_site_id
 _symmetry_equiv_pos_as_xyz
  1  'x, y, z'
loop_
 _atom_site_type_symbol
 _atom_site_label
 _atom_site_symmetry_multiplicity
 _atom_site_fract_x
 _atom_site_fract_y
 _atom_site_fract_z
 _atom_site_occupancy
  Ho  Ho0  1  0.813005  0.813005  0.189129  1
  Ho  Ho1  1  0.187595  0.187595  0.812388  1
  Er  Er2  1  0.599165  0.599165  0.599291  1
  Er  Er3  1  0.598449  0.598449  0.205286  1
  Er  Er4  1  0.598573  0.205248  0.598506  1
  Er  Er5  1  0.205248  0.598573  0.598506  1
  Er  Er6  1  0.059458  0.439785  0.439657  1
  Er  Er7  1  0.437108  0.061556  0.061543  1
  Er  Er8  1  0.439785  0.059458  0.439657  1
  Er  Er9  1  0.061556  0.437108  0.061543  1
  Er  Er10  1  0.439746  0.439746  0.059456  1
  Er  Er11  1  0.061512  0.061512  0.437151  1
  Er  Er12  1  0.189292  0.812821  0.812891  1
  Er  Er13  1  0.812245  0.187714  0.187701  1
  Er  Er14  1  0.812821  0.189292  0.812891  1
  Er  Er15  1  0.187714  0.812245  0.187701  1
  Mg  Mg16  1  0.826203  0.826203  0.826053  1
  Cd  Cd17  1  0.831232  0.831232  0.505999  1
  Cd  Cd18  1  0.831124  0.505999  0.831252  1
  Cd  Cd19  1  0.505999  0.831124  0.831252  1
  Ir  Ir20  1  0.391853  0.391853  0.391736  1
  Ir  Ir21  1  0.392684  0.392684  0.825025  1
  Ir  Ir22  1  0.392616  0.825019  0.392694  1
  Ir  Ir23  1  0.825019  0.392616  0.392694  1
