# generated using pymatgen
data_Eu20CdAg11
_symmetry_space_group_name_H-M   'P 1'
_cell_length_a   8.26537700
_cell_length_b   8.26537700
_cell_length_c   15.19089200
_cell_angle_alpha   90.00000000
_cell_angle_beta   90.00000000
_cell_angle_gamma   90.00000000
_symmetry_Int_Tables_number   1
_chemical_formula_structural   Eu20CdAg11
_chemical_formula_sum   'Eu20 Cd1 Ag11'
_cell_volume   1037.78791938
_cell_formula_units_Z   1
loop_
 _symmetry_equiv_pos_site_id
 _symmetry_equiv_pos_as_xyz
  1  'x, y, z'
loop_
 _atom_site_type_symbol
 _atom_site_label
 _atom_site_symmetry_multiplicity
 _atom_site_fract_x
 _atom_site_fract_y
 _atom_site_fract_z
 _atom_site_occupancy
  Eu  Eu0  1  0.664005  0.169074  0.105485  1
  Eu  Eu1  1  0.167515  0.666617  0.604729  1
  Eu  Eu2  1  0.335995  0.830926  0.105485  1
  Eu  Eu3  1  0.832485  0.333383  0.604729  1
  Eu  Eu4  1  0.830926  0.664005  0.105485  1
  Eu  Eu5  1  0.333383  0.167515  0.604729  1
  Eu  Eu6  1  0.169074  0.335995  0.105485  1
  Eu  Eu7  1  0.666617  0.832485  0.604729  1
  Eu  Eu8  1  0.830926  0.335995  0.894515  1
  Eu  Eu9  1  0.333383  0.832485  0.395271  1
  Eu  Eu10  1  0.169074  0.664005  0.894515  1
  Eu  Eu11  1  0.666617  0.167515  0.395271  1
  Eu  Eu12  1  0.664005  0.830926  0.894515  1
  Eu  Eu13  1  0.167515  0.333383  0.395271  1
  Eu  Eu14  1  0.335995  0.169074  0.894515  1
  Eu  Eu15  1  0.832485  0.666617  0.395271  1
  Eu  Eu16  1  0.500000  0.500000  0.750140  1
  Eu  Eu17  1  0.000000  0.000000  0.249752  1
  Eu  Eu18  1  0.000000  0.000000  0.750248  1
  Eu  Eu19  1  0.500000  0.500000  0.249860  1
  Cd  Cd20  1  0.000000  0.000000  0.000000  1
  Ag  Ag21  1  0.500000  0.500000  0.500000  1
  Ag  Ag22  1  0.500000  0.500000  0.000000  1
  Ag  Ag23  1  0.000000  0.000000  0.500000  1
  Ag  Ag24  1  0.625466  0.124865  0.749893  1
  Ag  Ag25  1  0.124865  0.625466  0.250107  1
  Ag  Ag26  1  0.875135  0.374534  0.250107  1
  Ag  Ag27  1  0.374534  0.875135  0.749893  1
  Ag  Ag28  1  0.875135  0.625466  0.749893  1
  Ag  Ag29  1  0.374534  0.124865  0.250107  1
  Ag  Ag30  1  0.124865  0.374534  0.749893  1
  Ag  Ag31  1  0.625466  0.875135  0.250107  1
