# generated using pymatgen
data_Pa8Mn3ZnO24
_symmetry_space_group_name_H-M   'P 1'
_cell_length_a   5.39590100
_cell_length_b   5.36975172
_cell_length_c   15.98586910
_cell_angle_alpha   89.76776207
_cell_angle_beta   90.00000000
_cell_angle_gamma   90.00000000
_symmetry_Int_Tables_number   1
_chemical_formula_structural   Pa8Mn3ZnO24
_chemical_formula_sum   'Pa8 Mn3 Zn1 O24'
_cell_volume   463.18113594
_cell_formula_units_Z   1
loop_
 _symmetry_equiv_pos_site_id
 _symmetry_equiv_pos_as_xyz
  1  'x, y, z'
loop_
 _atom_site_type_symbol
 _atom_site_label
 _atom_site_symmetry_multiplicity
 _atom_site_fract_x
 _atom_site_fract_y
 _atom_site_fract_z
 _atom_site_occupancy
  Pa  Pa0  1  0.255937  0.459765  0.658001  1
  Pa  Pa1  1  0.244605  0.957369  0.840195  1
  Pa  Pa2  1  0.244605  0.042631  0.159805  1
  Pa  Pa3  1  0.255937  0.540235  0.341999  1
  Pa  Pa4  1  0.746769  0.040636  0.341945  1
  Pa  Pa5  1  0.754453  0.542569  0.159749  1
  Pa  Pa6  1  0.754453  0.457431  0.840251  1
  Pa  Pa7  1  0.746769  0.959364  0.658055  1
  Mn  Mn8  1  0.292476  0.500000  0.000000  1
  Mn  Mn9  1  0.208711  0.000000  0.500000  1
  Mn  Mn10  1  0.705294  0.000000  0.000000  1
  Zn  Zn11  1  0.787729  0.500000  0.500000  1
  O  O12  1  0.050438  0.652166  0.907519  1
  O  O13  1  0.445213  0.150672  0.593210  1
  O  O14  1  0.445213  0.849328  0.406790  1
  O  O15  1  0.050438  0.347834  0.092481  1
  O  O16  1  0.947516  0.848126  0.092967  1
  O  O17  1  0.559333  0.350698  0.410337  1
  O  O18  1  0.559333  0.649302  0.589663  1
  O  O19  1  0.947516  0.151874  0.907033  1
  O  O20  1  0.023547  0.784476  0.252168  1
  O  O21  1  0.477002  0.283936  0.251051  1
  O  O22  1  0.477002  0.716064  0.748949  1
  O  O23  1  0.023547  0.215524  0.747832  1
  O  O24  1  0.976229  0.716121  0.749524  1
  O  O25  1  0.524007  0.215817  0.750454  1
  O  O26  1  0.524007  0.784183  0.249546  1
  O  O27  1  0.976229  0.283879  0.250476  1
  O  O28  1  0.050322  0.745084  0.589350  1
  O  O29  1  0.454250  0.235757  0.912397  1
  O  O30  1  0.454250  0.764243  0.087603  1
  O  O31  1  0.050322  0.254916  0.410650  1
  O  O32  1  0.950085  0.752814  0.415793  1
  O  O33  1  0.543190  0.264077  0.088022  1
  O  O34  1  0.543190  0.735923  0.911978  1
  O  O35  1  0.950085  0.247186  0.584207  1
