# generated using pymatgen
data_PrPbF7
_symmetry_space_group_name_H-M   'P 1'
_cell_length_a   5.97969300
_cell_length_b   6.36279599
_cell_length_c   8.62444838
_cell_angle_alpha   77.88165395
_cell_angle_beta   90.00000000
_cell_angle_gamma   90.00000000
_symmetry_Int_Tables_number   1
_chemical_formula_structural   PrPbF7
_chemical_formula_sum   'Pr2 Pb2 F14'
_cell_volume   320.82704081
_cell_formula_units_Z   2
loop_
 _symmetry_equiv_pos_site_id
 _symmetry_equiv_pos_as_xyz
  1  'x, y, z'
loop_
 _atom_site_type_symbol
 _atom_site_label
 _atom_site_symmetry_multiplicity
 _atom_site_fract_x
 _atom_site_fract_y
 _atom_site_fract_z
 _atom_site_occupancy
  Pr  Pr0  1  0.198549  0.655963  0.313412  1
  Pr  Pr1  1  0.698549  0.344037  0.686588  1
  Pb  Pb2  1  0.208481  0.810525  0.774657  1
  Pb  Pb3  1  0.708481  0.189475  0.225343  1
  F  F4  1  0.391317  0.454849  0.524563  1
  F  F5  1  0.891317  0.545151  0.475437  1
  F  F6  1  0.924840  0.928642  0.227733  1
  F  F7  1  0.424840  0.071358  0.772267  1
  F  F8  1  0.445167  0.964141  0.239330  1
  F  F9  1  0.945167  0.035859  0.760670  1
  F  F10  1  0.495823  0.456600  0.209616  1
  F  F11  1  0.995823  0.543400  0.790384  1
  F  F12  1  0.200600  0.757554  0.022070  1
  F  F13  1  0.700600  0.242446  0.977930  1
  F  F14  1  0.211087  0.867849  0.525654  1
  F  F15  1  0.711087  0.132151  0.474346  1
  F  F16  1  0.000495  0.380374  0.213581  1
  F  F17  1  0.500495  0.619626  0.786419  1
