# generated using pymatgen
data_LaThSb2AsSe
_symmetry_space_group_name_H-M   'P 1'
_cell_length_a   4.26453600
_cell_length_b   4.26453600
_cell_length_c   9.09178100
_cell_angle_alpha   90.00000000
_cell_angle_beta   90.00000000
_cell_angle_gamma   90.00000000
_symmetry_Int_Tables_number   1
_chemical_formula_structural   LaThSb2AsSe
_chemical_formula_sum   'La1 Th1 Sb2 As1 Se1'
_cell_volume   165.34555946
_cell_formula_units_Z   1
loop_
 _symmetry_equiv_pos_site_id
 _symmetry_equiv_pos_as_xyz
  1  'x, y, z'
loop_
 _atom_site_type_symbol
 _atom_site_label
 _atom_site_symmetry_multiplicity
 _atom_site_fract_x
 _atom_site_fract_y
 _atom_site_fract_z
 _atom_site_occupancy
  La  La0  1  0.000000  0.500000  0.701210  1
  Th  Th1  1  0.500000  0.000000  0.301119  1
  Sb  Sb2  1  0.000000  0.000000  0.002888  1
  Sb  Sb3  1  0.500000  0.500000  0.002888  1
  As  As4  1  0.000000  0.500000  0.360607  1
  Se  Se5  1  0.500000  0.000000  0.631288  1
