# generated using pymatgen
data_Sm2UFeCoSi7
_symmetry_space_group_name_H-M   'P 1'
_cell_length_a   12.33273276
_cell_length_b   12.33273305
_cell_length_c   4.07797200
_cell_angle_alpha   90.00000000
_cell_angle_beta   90.00000000
_cell_angle_gamma   161.05415073
_symmetry_Int_Tables_number   1
_chemical_formula_structural   Sm2UFeCoSi7
_chemical_formula_sum   'Sm2 U1 Fe1 Co1 Si7'
_cell_volume   201.37749152
_cell_formula_units_Z   1
loop_
 _symmetry_equiv_pos_site_id
 _symmetry_equiv_pos_as_xyz
  1  'x, y, z'
loop_
 _atom_site_type_symbol
 _atom_site_label
 _atom_site_symmetry_multiplicity
 _atom_site_fract_x
 _atom_site_fract_y
 _atom_site_fract_z
 _atom_site_occupancy
  Sm  Sm0  1  0.316057  0.683943  0.000000  1
  Sm  Sm1  1  0.683457  0.316543  0.000000  1
  U  U2  1  0.999293  0.000707  0.500000  1
  Fe  Fe3  1  0.876315  0.123685  0.500000  1
  Co  Co4  1  0.125483  0.874517  0.500000  1
  Si  Si5  1  0.221472  0.778528  0.500000  1
  Si  Si6  1  0.779399  0.220601  0.500000  1
  Si  Si7  1  0.084689  0.915311  0.000000  1
  Si  Si8  1  0.914718  0.085282  0.000000  1
  Si  Si9  1  0.414805  0.585195  0.500000  1
  Si  Si10  1  0.499876  0.500124  0.000000  1
  Si  Si11  1  0.584437  0.415563  0.500000  1
