# generated using pymatgen
data_ErTh(B2Ir3)3
_symmetry_space_group_name_H-M   'P 1'
_cell_length_a   5.66997100
_cell_length_b   5.66997045
_cell_length_c   8.66520700
_cell_angle_alpha   90.00000000
_cell_angle_beta   90.00000000
_cell_angle_gamma   120.00000905
_symmetry_Int_Tables_number   1
_chemical_formula_structural   ErTh(B2Ir3)3
_chemical_formula_sum   'Er1 Th1 B6 Ir9'
_cell_volume   241.25213592
_cell_formula_units_Z   1
loop_
 _symmetry_equiv_pos_site_id
 _symmetry_equiv_pos_as_xyz
  1  'x, y, z'
loop_
 _atom_site_type_symbol
 _atom_site_label
 _atom_site_symmetry_multiplicity
 _atom_site_fract_x
 _atom_site_fract_y
 _atom_site_fract_z
 _atom_site_occupancy
  Er  Er0  1  0.000000  0.000000  0.290232  1
  Th  Th1  1  0.000000  0.000000  0.699347  1
  B  B2  1  0.666667  0.333333  0.002627  1
  B  B3  1  0.333333  0.666667  0.002627  1
  B  B4  1  0.666667  0.333333  0.667640  1
  B  B5  1  0.333333  0.666667  0.667640  1
  B  B6  1  0.333333  0.666667  0.331739  1
  B  B7  1  0.666667  0.333333  0.331739  1
  Ir  Ir8  1  0.500000  0.500000  0.837617  1
  Ir  Ir9  1  0.500000  0.000000  0.837617  1
  Ir  Ir10  1  0.000000  0.500000  0.837617  1
  Ir  Ir11  1  0.500000  0.500000  0.165374  1
  Ir  Ir12  1  0.500000  0.000000  0.165374  1
  Ir  Ir13  1  0.000000  0.500000  0.165374  1
  Ir  Ir14  1  0.500000  0.500000  0.499145  1
  Ir  Ir15  1  0.500000  0.000000  0.499145  1
  Ir  Ir16  1  0.000000  0.500000  0.499145  1
