# generated using pymatgen
data_Tb2Th3U(Ni3Sb4)2
_symmetry_space_group_name_H-M   'P 1'
_cell_length_a   8.26255194
_cell_length_b   8.26255159
_cell_length_c   8.24626839
_cell_angle_alpha   109.67330374
_cell_angle_beta   109.15945109
_cell_angle_gamma   109.66106977
_symmetry_Int_Tables_number   1
_chemical_formula_structural   Tb2Th3U(Ni3Sb4)2
_chemical_formula_sum   'Tb2 Th3 U1 Ni6 Sb8'
_cell_volume   432.93734282
_cell_formula_units_Z   1
loop_
 _symmetry_equiv_pos_site_id
 _symmetry_equiv_pos_as_xyz
  1  'x, y, z'
loop_
 _atom_site_type_symbol
 _atom_site_label
 _atom_site_symmetry_multiplicity
 _atom_site_fract_x
 _atom_site_fract_y
 _atom_site_fract_z
 _atom_site_occupancy
  Tb  Tb0  1  0.876079  0.251167  0.125227  1
  Tb  Tb1  1  0.625940  0.750852  0.374773  1
  Th  Th2  1  0.248790  0.124647  0.875550  1
  Th  Th3  1  0.749097  0.373240  0.624450  1
  Th  Th4  1  0.124873  0.874873  0.250000  1
  U  U5  1  0.376038  0.626038  0.750000  1
  Ni  Ni6  1  0.375714  0.264217  0.632571  1
  Ni  Ni7  1  0.131645  0.743143  0.867429  1
  Ni  Ni8  1  0.256887  0.625073  0.390109  1
  Ni  Ni9  1  0.734964  0.866778  0.109891  1
  Ni  Ni10  1  0.623440  0.373440  0.250000  1
  Ni  Ni11  1  0.877045  0.127045  0.750000  1
  Sb  Sb12  1  0.660557  0.502202  0.003756  1
  Sb  Sb13  1  0.502930  0.996793  0.663489  1
  Sb  Sb14  1  0.998446  0.656801  0.496244  1
  Sb  Sb15  1  0.833304  0.839441  0.836511  1
  Sb  Sb16  1  0.502712  0.999326  0.159150  1
  Sb  Sb17  1  0.163949  0.500289  0.002875  1
  Sb  Sb18  1  0.997414  0.161074  0.497125  1
  Sb  Sb19  1  0.340176  0.343562  0.340850  1
