# generated using pymatgen
data_NdTm3Lu(FeB3)2
_symmetry_space_group_name_H-M   'P 1'
_cell_length_a   8.20725003
_cell_length_b   8.20724994
_cell_length_c   8.20724935
_cell_angle_alpha   38.28940268
_cell_angle_beta   38.28940640
_cell_angle_gamma   38.28939224
_symmetry_Int_Tables_number   1
_chemical_formula_structural   NdTm3Lu(FeB3)2
_chemical_formula_sum   'Nd1 Tm3 Lu1 Fe2 B6'
_cell_volume   190.63368726
_cell_formula_units_Z   1
loop_
 _symmetry_equiv_pos_site_id
 _symmetry_equiv_pos_as_xyz
  1  'x, y, z'
loop_
 _atom_site_type_symbol
 _atom_site_label
 _atom_site_symmetry_multiplicity
 _atom_site_fract_x
 _atom_site_fract_y
 _atom_site_fract_z
 _atom_site_occupancy
  Nd  Nd0  1  0.999806  0.999806  0.999806  1
  Tm  Tm1  1  0.417716  0.417716  0.417716  1
  Tm  Tm2  1  0.750214  0.750214  0.750214  1
  Tm  Tm3  1  0.249868  0.249868  0.249868  1
  Lu  Lu4  1  0.581537  0.581537  0.581537  1
  Fe  Fe5  1  0.884155  0.884155  0.884155  1
  Fe  Fe6  1  0.115989  0.115989  0.115989  1
  B  B7  1  0.499971  0.831882  0.168504  1
  B  B8  1  0.168504  0.499971  0.831882  1
  B  B9  1  0.831882  0.168504  0.499971  1
  B  B10  1  0.499971  0.168504  0.831882  1
  B  B11  1  0.831882  0.499971  0.168504  1
  B  B12  1  0.168504  0.831882  0.499971  1
