# generated using pymatgen
data_HoU3(TaN2)4
_symmetry_space_group_name_H-M   'P 1'
_cell_length_a   3.25106800
_cell_length_b   5.66696303
_cell_length_c   10.95114904
_cell_angle_alpha   90.01054653
_cell_angle_beta   90.00000000
_cell_angle_gamma   90.00000000
_symmetry_Int_Tables_number   1
_chemical_formula_structural   HoU3(TaN2)4
_chemical_formula_sum   'Ho1 U3 Ta4 N8'
_cell_volume   201.76048573
_cell_formula_units_Z   1
loop_
 _symmetry_equiv_pos_site_id
 _symmetry_equiv_pos_as_xyz
  1  'x, y, z'
loop_
 _atom_site_type_symbol
 _atom_site_label
 _atom_site_symmetry_multiplicity
 _atom_site_fract_x
 _atom_site_fract_y
 _atom_site_fract_z
 _atom_site_occupancy
  Ho  Ho0  1  0.250000  0.579321  0.856413  1
  U  U1  1  0.750000  0.422542  0.139733  1
  U  U2  1  0.750000  0.922030  0.357575  1
  U  U3  1  0.250000  0.079763  0.643154  1
  Ta  Ta4  1  0.250000  0.921938  0.102838  1
  Ta  Ta5  1  0.750000  0.074063  0.899269  1
  Ta  Ta6  1  0.750000  0.577439  0.603787  1
  Ta  Ta7  1  0.250000  0.423628  0.397539  1
  N  N8  1  0.250000  0.661449  0.245462  1
  N  N9  1  0.750000  0.333938  0.753285  1
  N  N10  1  0.750000  0.841886  0.743990  1
  N  N11  1  0.250000  0.162030  0.255187  1
  N  N12  1  0.250000  0.757820  0.505870  1
  N  N13  1  0.750000  0.241614  0.495511  1
  N  N14  1  0.750000  0.739855  0.004302  1
  N  N15  1  0.250000  0.260681  0.996084  1
