# generated using pymatgen
data_Th3B2(CN)2
_symmetry_space_group_name_H-M   'P 1'
_cell_length_a   6.59486409
_cell_length_b   6.59486432
_cell_length_c   6.59486310
_cell_angle_alpha   148.24263450
_cell_angle_beta   122.07137508
_cell_angle_gamma   67.58824710
_symmetry_Int_Tables_number   1
_chemical_formula_structural   Th3B2(CN)2
_chemical_formula_sum   'Th3 B2 C2 N2'
_cell_volume   126.32850517
_cell_formula_units_Z   1
loop_
 _symmetry_equiv_pos_site_id
 _symmetry_equiv_pos_as_xyz
  1  'x, y, z'
loop_
 _atom_site_type_symbol
 _atom_site_label
 _atom_site_symmetry_multiplicity
 _atom_site_fract_x
 _atom_site_fract_y
 _atom_site_fract_z
 _atom_site_occupancy
  Th  Th0  1  0.697911  0.197911  0.500000  1
  Th  Th1  1  0.303667  0.803667  0.500000  1
  Th  Th2  1  0.001475  0.001475  0.000000  1
  B  B3  1  0.355543  0.498247  0.857296  1
  B  B4  1  0.640951  0.498247  0.142704  1
  C  C5  1  0.359530  0.621992  0.737539  1
  C  C6  1  0.884451  0.621992  0.262461  1
  N  N7  1  0.118878  0.378235  0.740641  1
  N  N8  1  0.637594  0.378235  0.259359  1
