# generated using pymatgen
data_Dy5MnTc3(P4Rh5)3
_symmetry_space_group_name_H-M   'P 1'
_cell_length_a   12.66733169
_cell_length_b   12.64066275
_cell_length_c   3.91191400
_cell_angle_alpha   90.00000000
_cell_angle_beta   90.00000000
_cell_angle_gamma   120.26277010
_symmetry_Int_Tables_number   1
_chemical_formula_structural   Dy5MnTc3(P4Rh5)3
_chemical_formula_sum   'Dy5 Mn1 Tc3 P12 Rh15'
_cell_volume   541.02691668
_cell_formula_units_Z   1
loop_
 _symmetry_equiv_pos_site_id
 _symmetry_equiv_pos_as_xyz
  1  'x, y, z'
loop_
 _atom_site_type_symbol
 _atom_site_label
 _atom_site_symmetry_multiplicity
 _atom_site_fract_x
 _atom_site_fract_y
 _atom_site_fract_z
 _atom_site_occupancy
  Dy  Dy0  1  0.337746  0.668691  0.500000  1
  Dy  Dy1  1  0.666995  0.333843  0.500000  1
  Dy  Dy2  1  0.997110  0.813028  0.000000  1
  Dy  Dy3  1  0.187560  0.187890  0.000000  1
  Dy  Dy4  1  0.808068  0.996745  0.000000  1
  Mn  Mn5  1  0.619924  0.795929  0.500000  1
  Tc  Tc6  1  0.999827  0.450631  0.500000  1
  Tc  Tc7  1  0.552409  0.548875  0.500000  1
  Tc  Tc8  1  0.453188  0.001328  0.500000  1
  P  P9  1  0.000396  0.635573  0.500000  1
  P  P10  1  0.366013  0.366404  0.500000  1
  P  P11  1  0.633927  0.988405  0.500000  1
  P  P12  1  0.523135  0.692638  0.000000  1
  P  P13  1  0.318825  0.835916  0.000000  1
  P  P14  1  0.167222  0.483322  0.000000  1
  P  P15  1  0.483044  0.164967  0.000000  1
  P  P16  1  0.682330  0.518236  0.000000  1
  P  P17  1  0.835751  0.317743  0.000000  1
  P  P18  1  0.998618  0.175447  0.500000  1
  P  P19  1  0.811832  0.824688  0.500000  1
  P  P20  1  0.175033  0.998388  0.500000  1
  Rh  Rh21  1  0.514685  0.873410  0.000000  1
  Rh  Rh22  1  0.131225  0.642970  0.000000  1
  Rh  Rh23  1  0.360859  0.491161  0.000000  1
  Rh  Rh24  1  0.486003  0.356319  0.000000  1
  Rh  Rh25  1  0.870132  0.512938  0.000000  1
  Rh  Rh26  1  0.644419  0.133339  0.000000  1
  Rh  Rh27  1  0.999957  0.283263  0.000000  1
  Rh  Rh28  1  0.716017  0.715323  0.000000  1
  Rh  Rh29  1  0.283401  0.999765  0.000000  1
  Rh  Rh30  1  0.196664  0.820954  0.500000  1
  Rh  Rh31  1  0.179642  0.375874  0.500000  1
  Rh  Rh32  1  0.374071  0.178266  0.500000  1
  Rh  Rh33  1  0.805957  0.625509  0.500000  1
  Rh  Rh34  1  0.819831  0.193738  0.500000  1
  Rh  Rh35  1  0.998184  0.998485  0.500000  1
