# generated using pymatgen
data_Er4Al18CuRu2Rh3
_symmetry_space_group_name_H-M   'P 1'
_cell_length_a   7.54743685
_cell_length_b   7.54743722
_cell_length_c   9.44293266
_cell_angle_alpha   90.20411097
_cell_angle_beta   90.20410755
_cell_angle_gamma   119.60011723
_symmetry_Int_Tables_number   1
_chemical_formula_structural   Er4Al18CuRu2Rh3
_chemical_formula_sum   'Er4 Al18 Cu1 Ru2 Rh3'
_cell_volume   467.69372991
_cell_formula_units_Z   1
loop_
 _symmetry_equiv_pos_site_id
 _symmetry_equiv_pos_as_xyz
  1  'x, y, z'
loop_
 _atom_site_type_symbol
 _atom_site_label
 _atom_site_symmetry_multiplicity
 _atom_site_fract_x
 _atom_site_fract_y
 _atom_site_fract_z
 _atom_site_occupancy
  Er  Er0  1  0.995624  0.671574  0.748810  1
  Er  Er1  1  0.004376  0.328426  0.251190  1
  Er  Er2  1  0.671574  0.995624  0.748810  1
  Er  Er3  1  0.328426  0.004376  0.251190  1
  Al  Al4  1  0.128265  0.128265  0.751324  1
  Al  Al5  1  0.871735  0.871735  0.248676  1
  Al  Al6  1  0.001719  0.339768  0.576009  1
  Al  Al7  1  0.998281  0.660232  0.423991  1
  Al  Al8  1  0.000052  0.665015  0.074632  1
  Al  Al9  1  0.334985  0.999948  0.925368  1
  Al  Al10  1  0.999948  0.334985  0.925368  1
  Al  Al11  1  0.665015  0.000052  0.074632  1
  Al  Al12  1  0.660232  0.998281  0.423991  1
  Al  Al13  1  0.339768  0.001719  0.576009  1
  Al  Al14  1  0.333277  0.333277  0.050289  1
  Al  Al15  1  0.666723  0.666723  0.949711  1
  Al  Al16  1  0.662885  0.662885  0.548932  1
  Al  Al17  1  0.337115  0.337115  0.451068  1
  Al  Al18  1  0.338101  0.550578  0.749103  1
  Al  Al19  1  0.661899  0.449422  0.250897  1
  Al  Al20  1  0.550578  0.338101  0.749103  1
  Al  Al21  1  0.449422  0.661899  0.250897  1
  Cu  Cu22  1  0.000000  0.000000  0.500000  1
  Ru  Ru23  1  0.672675  0.327325  0.500000  1
  Ru  Ru24  1  0.327325  0.672675  0.500000  1
  Rh  Rh25  1  0.328062  0.671938  0.000000  1
  Rh  Rh26  1  0.671938  0.328062  0.000000  1
  Rh  Rh27  1  0.000000  0.000000  0.000000  1
