# generated using pymatgen
data_PrTm3(Rh2O7)2
_symmetry_space_group_name_H-M   'P 1'
_cell_length_a   7.26281862
_cell_length_b   7.26281994
_cell_length_c   7.26281918
_cell_angle_alpha   59.35704091
_cell_angle_beta   59.35703416
_cell_angle_gamma   59.35703517
_symmetry_Int_Tables_number   1
_chemical_formula_structural   PrTm3(Rh2O7)2
_chemical_formula_sum   'Pr1 Tm3 Rh4 O14'
_cell_volume   266.93019056
_cell_formula_units_Z   1
loop_
 _symmetry_equiv_pos_site_id
 _symmetry_equiv_pos_as_xyz
  1  'x, y, z'
loop_
 _atom_site_type_symbol
 _atom_site_label
 _atom_site_symmetry_multiplicity
 _atom_site_fract_x
 _atom_site_fract_y
 _atom_site_fract_z
 _atom_site_occupancy
  Pr  Pr0  1  0.125000  0.125000  0.125000  1
  Tm  Tm1  1  0.125000  0.625000  0.125000  1
  Tm  Tm2  1  0.625000  0.125000  0.125000  1
  Tm  Tm3  1  0.125000  0.125000  0.625000  1
  Rh  Rh4  1  0.625000  0.625000  0.625000  1
  Rh  Rh5  1  0.625000  0.625000  0.125000  1
  Rh  Rh6  1  0.125000  0.625000  0.625000  1
  Rh  Rh7  1  0.625000  0.125000  0.625000  1
  O  O8  1  0.255260  0.255260  0.255260  1
  O  O9  1  0.288349  0.700693  0.288349  1
  O  O10  1  0.961651  0.961651  0.549307  1
  O  O11  1  0.537539  0.961795  0.537539  1
  O  O12  1  0.712461  0.712461  0.288205  1
  O  O13  1  0.961795  0.537539  0.537539  1
  O  O14  1  0.712461  0.288205  0.712461  1
  O  O15  1  0.288349  0.288349  0.700693  1
  O  O16  1  0.700693  0.288349  0.288349  1
  O  O17  1  0.288205  0.712461  0.712461  1
  O  O18  1  0.961651  0.549307  0.961651  1
  O  O19  1  0.537539  0.537539  0.961795  1
  O  O20  1  0.994740  0.994740  0.994740  1
  O  O21  1  0.549307  0.961651  0.961651  1
