# generated using pymatgen
data_Hf3Zr12Nb(Ir2N)4
_symmetry_space_group_name_H-M   'P 1'
_cell_length_a   8.80102370
_cell_length_b   8.80102435
_cell_length_c   8.80102368
_cell_angle_alpha   59.69561750
_cell_angle_beta   59.69562405
_cell_angle_gamma   59.69561575
_symmetry_Int_Tables_number   1
_chemical_formula_structural   Hf3Zr12Nb(Ir2N)4
_chemical_formula_sum   'Hf3 Zr12 Nb1 Ir8 N4'
_cell_volume   478.70877832
_cell_formula_units_Z   1
loop_
 _symmetry_equiv_pos_site_id
 _symmetry_equiv_pos_as_xyz
  1  'x, y, z'
loop_
 _atom_site_type_symbol
 _atom_site_label
 _atom_site_symmetry_multiplicity
 _atom_site_fract_x
 _atom_site_fract_y
 _atom_site_fract_z
 _atom_site_occupancy
  Hf  Hf0  1  0.125000  0.625000  0.625000  1
  Hf  Hf1  1  0.625000  0.125000  0.625000  1
  Hf  Hf2  1  0.625000  0.625000  0.125000  1
  Zr  Zr3  1  0.814027  0.814027  0.186374  1
  Zr  Zr4  1  0.184264  0.184264  0.815877  1
  Zr  Zr5  1  0.814027  0.186374  0.814027  1
  Zr  Zr6  1  0.184264  0.815877  0.184264  1
  Zr  Zr7  1  0.186374  0.814027  0.814027  1
  Zr  Zr8  1  0.815877  0.184264  0.184264  1
  Zr  Zr9  1  0.435973  0.435973  0.063626  1
  Zr  Zr10  1  0.065736  0.065736  0.434123  1
  Zr  Zr11  1  0.435973  0.063626  0.435973  1
  Zr  Zr12  1  0.065736  0.434123  0.065736  1
  Zr  Zr13  1  0.063626  0.435973  0.435973  1
  Zr  Zr14  1  0.434123  0.065736  0.065736  1
  Nb  Nb15  1  0.625000  0.625000  0.625000  1
  Ir  Ir16  1  0.762211  0.415511  0.415511  1
  Ir  Ir17  1  0.415511  0.762211  0.415511  1
  Ir  Ir18  1  0.415511  0.415511  0.762211  1
  Ir  Ir19  1  0.409262  0.409262  0.409262  1
  Ir  Ir20  1  0.487789  0.834489  0.834489  1
  Ir  Ir21  1  0.834489  0.487789  0.834489  1
  Ir  Ir22  1  0.834489  0.834489  0.487789  1
  Ir  Ir23  1  0.840738  0.840738  0.840738  1
  N  N24  1  0.625000  0.125000  0.125000  1
  N  N25  1  0.125000  0.625000  0.125000  1
  N  N26  1  0.125000  0.125000  0.625000  1
  N  N27  1  0.125000  0.125000  0.125000  1
