# generated using pymatgen
data_CuNi11Sn10
_symmetry_space_group_name_H-M   'P 1'
_cell_length_a   6.53307371
_cell_length_b   6.52367308
_cell_length_c   9.58789514
_cell_angle_alpha   80.69451443
_cell_angle_beta   80.84727811
_cell_angle_gamma   65.03637483
_symmetry_Int_Tables_number   1
_chemical_formula_structural   CuNi11Sn10
_chemical_formula_sum   'Cu1 Ni11 Sn10'
_cell_volume   363.69264561
_cell_formula_units_Z   1
loop_
 _symmetry_equiv_pos_site_id
 _symmetry_equiv_pos_as_xyz
  1  'x, y, z'
loop_
 _atom_site_type_symbol
 _atom_site_label
 _atom_site_symmetry_multiplicity
 _atom_site_fract_x
 _atom_site_fract_y
 _atom_site_fract_z
 _atom_site_occupancy
  Cu  Cu0  1  0.000000  0.000000  0.000000  1
  Ni  Ni1  1  0.380894  0.420214  0.699345  1
  Ni  Ni2  1  0.583516  0.615263  0.798869  1
  Ni  Ni3  1  0.619106  0.579786  0.300655  1
  Ni  Ni4  1  0.416484  0.384737  0.201131  1
  Ni  Ni5  1  0.197755  0.188474  0.103299  1
  Ni  Ni6  1  0.809392  0.800210  0.396763  1
  Ni  Ni7  1  0.802245  0.811526  0.896701  1
  Ni  Ni8  1  0.190608  0.199790  0.603237  1
  Ni  Ni9  1  0.000000  0.000000  0.500000  1
  Ni  Ni10  1  0.157686  0.844400  0.751366  1
  Ni  Ni11  1  0.842314  0.155600  0.248634  1
  Sn  Sn12  1  0.762860  0.458386  0.036117  1
  Sn  Sn13  1  0.550826  0.231294  0.465824  1
  Sn  Sn14  1  0.237140  0.541614  0.963883  1
  Sn  Sn15  1  0.449174  0.768706  0.534176  1
  Sn  Sn16  1  0.374306  0.047142  0.850125  1
  Sn  Sn17  1  0.952072  0.634414  0.647210  1
  Sn  Sn18  1  0.625694  0.952858  0.149875  1
  Sn  Sn19  1  0.047928  0.365586  0.352790  1
  Sn  Sn20  1  0.799675  0.202164  0.743294  1
  Sn  Sn21  1  0.200325  0.797836  0.256706  1
