# generated using pymatgen
data_Ac8Zn(Si4Ag)3
_symmetry_space_group_name_H-M   'P 1'
_cell_length_a   11.85558051
_cell_length_b   10.19596546
_cell_length_c   8.51831886
_cell_angle_alpha   78.05077619
_cell_angle_beta   57.38942616
_cell_angle_gamma   44.66320926
_symmetry_Int_Tables_number   1
_chemical_formula_structural   Ac8Zn(Si4Ag)3
_chemical_formula_sum   'Ac8 Zn1 Si12 Ag3'
_cell_volume   582.05845739
_cell_formula_units_Z   1
loop_
 _symmetry_equiv_pos_site_id
 _symmetry_equiv_pos_as_xyz
  1  'x, y, z'
loop_
 _atom_site_type_symbol
 _atom_site_label
 _atom_site_symmetry_multiplicity
 _atom_site_fract_x
 _atom_site_fract_y
 _atom_site_fract_z
 _atom_site_occupancy
  Ac  Ac0  1  0.377639  0.378210  0.621809  1
  Ac  Ac1  1  0.621809  0.622341  0.377639  1
  Ac  Ac2  1  0.872574  0.873908  0.629170  1
  Ac  Ac3  1  0.629170  0.624347  0.872574  1
  Ac  Ac4  1  0.875774  0.877235  0.121059  1
  Ac  Ac5  1  0.121059  0.125932  0.875774  1
  Ac  Ac6  1  0.378475  0.372221  0.123099  1
  Ac  Ac7  1  0.123099  0.126205  0.378475  1
  Zn  Zn8  1  0.832838  0.167162  0.832838  1
  Si  Si9  1  0.666137  0.333863  0.666137  1
  Si  Si10  1  0.337624  0.662376  0.337624  1
  Si  Si11  1  0.587301  0.912699  0.587301  1
  Si  Si12  1  0.912619  0.587381  0.912619  1
  Si  Si13  1  0.335751  0.661571  0.826746  1
  Si  Si14  1  0.169089  0.833554  0.665422  1
  Si  Si15  1  0.826746  0.175931  0.335751  1
  Si  Si16  1  0.665422  0.331935  0.169089  1
  Si  Si17  1  0.914548  0.589021  0.422669  1
  Si  Si18  1  0.073897  0.423982  0.588303  1
  Si  Si19  1  0.422669  0.073763  0.914548  1
  Si  Si20  1  0.588303  0.913819  0.073897  1
  Ag  Ag21  1  0.167138  0.832862  0.167138  1
  Ag  Ag22  1  0.417262  0.082738  0.417262  1
  Ag  Ag23  1  0.083056  0.416944  0.083056  1
