# generated using pymatgen
data_Ho5TmReBi2
_symmetry_space_group_name_H-M   'P 1'
_cell_length_a   8.23954919
_cell_length_b   8.23954982
_cell_length_c   4.32884300
_cell_angle_alpha   90.00000000
_cell_angle_beta   90.00000000
_cell_angle_gamma   120.02453697
_symmetry_Int_Tables_number   1
_chemical_formula_structural   Ho5TmReBi2
_chemical_formula_sum   'Ho5 Tm1 Re1 Bi2'
_cell_volume   254.44971498
_cell_formula_units_Z   1
loop_
 _symmetry_equiv_pos_site_id
 _symmetry_equiv_pos_as_xyz
  1  'x, y, z'
loop_
 _atom_site_type_symbol
 _atom_site_label
 _atom_site_symmetry_multiplicity
 _atom_site_fract_x
 _atom_site_fract_y
 _atom_site_fract_z
 _atom_site_occupancy
  Ho  Ho0  1  0.232414  0.999906  0.500000  1
  Ho  Ho1  1  0.999906  0.232414  0.500000  1
  Ho  Ho2  1  0.613959  0.999723  0.000000  1
  Ho  Ho3  1  0.999723  0.613959  0.000000  1
  Ho  Ho4  1  0.386435  0.386435  0.000000  1
  Tm  Tm5  1  0.768043  0.768043  0.500000  1
  Re  Re6  1  0.998933  0.998933  0.000000  1
  Bi  Bi7  1  0.333846  0.666741  0.500000  1
  Bi  Bi8  1  0.666741  0.333846  0.500000  1
