# generated using pymatgen
data_Np2CrRhF24
_symmetry_space_group_name_H-M   'P 1'
_cell_length_a   5.39224880
_cell_length_b   9.26947200
_cell_length_c   10.10759822
_cell_angle_alpha   90.00000000
_cell_angle_beta   90.24655813
_cell_angle_gamma   90.00000000
_symmetry_Int_Tables_number   1
_chemical_formula_structural   Np2CrRhF24
_chemical_formula_sum   'Np2 Cr1 Rh1 F24'
_cell_volume   505.20642915
_cell_formula_units_Z   1
loop_
 _symmetry_equiv_pos_site_id
 _symmetry_equiv_pos_as_xyz
  1  'x, y, z'
loop_
 _atom_site_type_symbol
 _atom_site_label
 _atom_site_symmetry_multiplicity
 _atom_site_fract_x
 _atom_site_fract_y
 _atom_site_fract_z
 _atom_site_occupancy
  Np  Np0  1  0.916356  0.750000  0.630820  1
  Np  Np1  1  0.084410  0.250000  0.369083  1
  Cr  Cr2  1  0.419037  0.250000  0.870527  1
  Rh  Rh3  1  0.580530  0.750000  0.129795  1
  F  F4  1  0.218539  0.750000  0.516185  1
  F  F5  1  0.782095  0.250000  0.484418  1
  F  F6  1  0.683358  0.250000  0.973095  1
  F  F7  1  0.299476  0.750000  0.019653  1
  F  F8  1  0.612883  0.750000  0.744677  1
  F  F9  1  0.387579  0.250000  0.254552  1
  F  F10  1  0.155202  0.250000  0.766580  1
  F  F11  1  0.861860  0.750000  0.240180  1
  F  F12  1  0.763250  0.596689  0.517134  1
  F  F13  1  0.237221  0.402950  0.483902  1
  F  F14  1  0.282384  0.384020  0.969383  1
  F  F15  1  0.237221  0.097050  0.483902  1
  F  F16  1  0.725704  0.606997  0.023976  1
  F  F17  1  0.763250  0.903311  0.517134  1
  F  F18  1  0.725704  0.893003  0.023976  1
  F  F19  1  0.282384  0.115980  0.969383  1
  F  F20  1  0.068547  0.596954  0.744634  1
  F  F21  1  0.931687  0.402338  0.254737  1
  F  F22  1  0.554692  0.384355  0.770917  1
  F  F23  1  0.931687  0.097662  0.254737  1
  F  F24  1  0.435853  0.606710  0.235536  1
  F  F25  1  0.068547  0.903046  0.744634  1
  F  F26  1  0.435853  0.893290  0.235536  1
  F  F27  1  0.554692  0.115645  0.770917  1
