# generated using pymatgen
data_ErScFeSi2Rh
_symmetry_space_group_name_H-M   'P 1'
_cell_length_a   4.15861000
_cell_length_b   6.72942700
_cell_length_c   6.98897100
_cell_angle_alpha   90.00000000
_cell_angle_beta   90.00000000
_cell_angle_gamma   90.00000000
_symmetry_Int_Tables_number   1
_chemical_formula_structural   ErScFeSi2Rh
_chemical_formula_sum   'Er2 Sc2 Fe2 Si4 Rh2'
_cell_volume   195.58678966
_cell_formula_units_Z   2
loop_
 _symmetry_equiv_pos_site_id
 _symmetry_equiv_pos_as_xyz
  1  'x, y, z'
loop_
 _atom_site_type_symbol
 _atom_site_label
 _atom_site_symmetry_multiplicity
 _atom_site_fract_x
 _atom_site_fract_y
 _atom_site_fract_z
 _atom_site_occupancy
  Er  Er0  1  0.250000  0.998673  0.319203  1
  Er  Er1  1  0.250000  0.498673  0.180797  1
  Sc  Sc2  1  0.750000  0.516995  0.801239  1
  Sc  Sc3  1  0.750000  0.016995  0.698761  1
  Fe  Fe4  1  0.250000  0.643133  0.569977  1
  Fe  Fe5  1  0.250000  0.143133  0.930023  1
  Si  Si6  1  0.250000  0.803201  0.866816  1
  Si  Si7  1  0.250000  0.303201  0.633184  1
  Si  Si8  1  0.750000  0.203367  0.085041  1
  Si  Si9  1  0.750000  0.703367  0.414959  1
  Rh  Rh10  1  0.750000  0.834632  0.056982  1
  Rh  Rh11  1  0.750000  0.334632  0.443018  1
