# generated using pymatgen
data_CsPrTiS4
_symmetry_space_group_name_H-M   'P 1'
_cell_length_a   6.81034900
_cell_length_b   6.92077800
_cell_length_c   18.24448300
_cell_angle_alpha   90.00000000
_cell_angle_beta   90.00000000
_cell_angle_gamma   90.00000000
_symmetry_Int_Tables_number   1
_chemical_formula_structural   CsPrTiS4
_chemical_formula_sum   'Cs4 Pr4 Ti4 S16'
_cell_volume   859.91563967
_cell_formula_units_Z   4
loop_
 _symmetry_equiv_pos_site_id
 _symmetry_equiv_pos_as_xyz
  1  'x, y, z'
loop_
 _atom_site_type_symbol
 _atom_site_label
 _atom_site_symmetry_multiplicity
 _atom_site_fract_x
 _atom_site_fract_y
 _atom_site_fract_z
 _atom_site_occupancy
  Cs  Cs0  1  0.984085  0.008562  0.033319  1
  Cs  Cs1  1  0.015915  0.508563  0.466681  1
  Cs  Cs2  1  0.515915  0.991437  0.533319  1
  Cs  Cs3  1  0.484085  0.491438  0.966680  1
  Pr  Pr4  1  0.298725  0.476939  0.226937  1
  Pr  Pr5  1  0.701277  0.976940  0.273063  1
  Pr  Pr6  1  0.201276  0.523060  0.726937  1
  Pr  Pr7  1  0.798724  0.023061  0.773063  1
  Ti  Ti8  1  0.799479  0.512960  0.166290  1
  Ti  Ti9  1  0.200521  0.012959  0.333710  1
  Ti  Ti10  1  0.700522  0.487040  0.666290  1
  Ti  Ti11  1  0.299478  0.987041  0.833710  1
  S  S12  1  0.065963  0.509657  0.093129  1
  S  S13  1  0.574766  0.747476  0.145983  1
  S  S14  1  0.601570  0.245176  0.157146  1
  S  S15  1  0.096257  0.079369  0.219824  1
  S  S16  1  0.903743  0.579370  0.280176  1
  S  S17  1  0.398430  0.745175  0.342854  1
  S  S18  1  0.425234  0.247475  0.354018  1
  S  S19  1  0.934037  0.009656  0.406871  1
  S  S20  1  0.434038  0.490343  0.593129  1
  S  S21  1  0.925233  0.252525  0.645983  1
  S  S22  1  0.898431  0.754825  0.657146  1
  S  S23  1  0.403742  0.920631  0.719824  1
  S  S24  1  0.596258  0.420630  0.780176  1
  S  S25  1  0.101569  0.254825  0.842854  1
  S  S26  1  0.074767  0.752524  0.854018  1
  S  S27  1  0.565962  0.990343  0.906871  1
