# generated using pymatgen
data_Sm2GdUN4
_symmetry_space_group_name_H-M   'P 1'
_cell_length_a   6.08824181
_cell_length_b   6.08749390
_cell_length_c   4.99167806
_cell_angle_alpha   65.80123414
_cell_angle_beta   65.78928271
_cell_angle_gamma   48.40578582
_symmetry_Int_Tables_number   1
_chemical_formula_structural   Sm2GdUN4
_chemical_formula_sum   'Sm2 Gd1 U1 N4'
_cell_volume   123.59059005
_cell_formula_units_Z   1
loop_
 _symmetry_equiv_pos_site_id
 _symmetry_equiv_pos_as_xyz
  1  'x, y, z'
loop_
 _atom_site_type_symbol
 _atom_site_label
 _atom_site_symmetry_multiplicity
 _atom_site_fract_x
 _atom_site_fract_y
 _atom_site_fract_z
 _atom_site_occupancy
  Sm  Sm0  1  0.247162  0.252838  0.252838  1
  Sm  Sm1  1  0.497188  0.502812  0.502812  1
  Gd  Gd2  1  0.747073  0.752927  0.752927  1
  U  U3  1  0.997482  0.002518  0.002518  1
  N  N4  1  0.994870  0.000354  0.507243  1
  N  N5  1  0.219561  0.224845  0.780528  1
  N  N6  1  0.497533  0.507243  0.000354  1
  N  N7  1  0.775067  0.780528  0.224845  1
