# generated using pymatgen
data_Y3ThAgIr
_symmetry_space_group_name_H-M   'P 1'
_cell_length_a   9.68860247
_cell_length_b   9.68860234
_cell_length_c   9.68860400
_cell_angle_alpha   60.00000117
_cell_angle_beta   60.00000160
_cell_angle_gamma   60.00000458
_symmetry_Int_Tables_number   1
_chemical_formula_structural   Y3ThAgIr
_chemical_formula_sum   'Y12 Th4 Ag4 Ir4'
_cell_volume   643.08517773
_cell_formula_units_Z   4
loop_
 _symmetry_equiv_pos_site_id
 _symmetry_equiv_pos_as_xyz
  1  'x, y, z'
loop_
 _atom_site_type_symbol
 _atom_site_label
 _atom_site_symmetry_multiplicity
 _atom_site_fract_x
 _atom_site_fract_y
 _atom_site_fract_z
 _atom_site_occupancy
  Y  Y0  1  0.061439  0.438561  0.438561  1
  Y  Y1  1  0.438561  0.061439  0.061439  1
  Y  Y2  1  0.438561  0.061439  0.438561  1
  Y  Y3  1  0.061439  0.438561  0.061439  1
  Y  Y4  1  0.438561  0.438561  0.061439  1
  Y  Y5  1  0.061439  0.061439  0.438561  1
  Y  Y6  1  0.184786  0.815214  0.815214  1
  Y  Y7  1  0.815214  0.184786  0.184786  1
  Y  Y8  1  0.815214  0.184786  0.815214  1
  Y  Y9  1  0.184786  0.815214  0.184786  1
  Y  Y10  1  0.815214  0.815214  0.184786  1
  Y  Y11  1  0.184786  0.184786  0.815214  1
  Th  Th12  1  0.601252  0.601252  0.601252  1
  Th  Th13  1  0.601252  0.601252  0.196242  1
  Th  Th14  1  0.601252  0.196242  0.601252  1
  Th  Th15  1  0.196242  0.601252  0.601252  1
  Ag  Ag16  1  0.832606  0.832606  0.832606  1
  Ag  Ag17  1  0.832606  0.832606  0.502183  1
  Ag  Ag18  1  0.832606  0.502183  0.832606  1
  Ag  Ag19  1  0.502183  0.832606  0.832606  1
  Ir  Ir20  1  0.393743  0.393743  0.393743  1
  Ir  Ir21  1  0.393743  0.393743  0.818769  1
  Ir  Ir22  1  0.393743  0.818769  0.393743  1
  Ir  Ir23  1  0.818769  0.393743  0.393743  1
