# generated using pymatgen
data_Dy3Lu2InSb2
_symmetry_space_group_name_H-M   'P 1'
_cell_length_a   6.41286300
_cell_length_b   8.90127525
_cell_length_c   8.89259600
_cell_angle_alpha   119.96948805
_cell_angle_beta   90.00064619
_cell_angle_gamma   90.00102774
_symmetry_Int_Tables_number   1
_chemical_formula_structural   Dy3Lu2InSb2
_chemical_formula_sum   'Dy6 Lu4 In2 Sb4'
_cell_volume   439.74087091
_cell_formula_units_Z   2
loop_
 _symmetry_equiv_pos_site_id
 _symmetry_equiv_pos_as_xyz
  1  'x, y, z'
loop_
 _atom_site_type_symbol
 _atom_site_label
 _atom_site_symmetry_multiplicity
 _atom_site_fract_x
 _atom_site_fract_y
 _atom_site_fract_z
 _atom_site_occupancy
  Dy  Dy0  1  0.749971  0.244080  0.003537  1
  Dy  Dy1  1  0.750021  0.755879  0.759438  1
  Dy  Dy2  1  0.750007  0.999996  0.241659  1
  Dy  Dy3  1  0.250025  0.757526  0.998052  1
  Dy  Dy4  1  0.249986  0.242498  0.240560  1
  Dy  Dy5  1  0.249978  0.000004  0.756436  1
  Lu  Lu6  1  0.500484  0.335826  0.668100  1
  Lu  Lu7  1  0.500489  0.664202  0.332282  1
  Lu  Lu8  1  0.999514  0.664175  0.332248  1
  Lu  Lu9  1  0.999528  0.335820  0.668118  1
  In  In10  1  0.750003  0.605971  0.000612  1
  In  In11  1  0.750003  0.394011  0.394622  1
  Sb  Sb12  1  0.749995  0.999996  0.607275  1
  Sb  Sb13  1  0.250004  0.394726  0.999405  1
  Sb  Sb14  1  0.250003  0.605276  0.604671  1
  Sb  Sb15  1  0.249994  0.000010  0.392985  1
