# generated using pymatgen
data_Rb3Ta2Br10O
_symmetry_space_group_name_H-M   'P 1'
_cell_length_a   7.60011000
_cell_length_b   7.60011000
_cell_length_c   19.70293100
_cell_angle_alpha   90.00000000
_cell_angle_beta   90.00000000
_cell_angle_gamma   90.00000000
_symmetry_Int_Tables_number   1
_chemical_formula_structural   Rb3Ta2Br10O
_chemical_formula_sum   'Rb6 Ta4 Br20 O2'
_cell_volume   1138.07423810
_cell_formula_units_Z   2
loop_
 _symmetry_equiv_pos_site_id
 _symmetry_equiv_pos_as_xyz
  1  'x, y, z'
loop_
 _atom_site_type_symbol
 _atom_site_label
 _atom_site_symmetry_multiplicity
 _atom_site_fract_x
 _atom_site_fract_y
 _atom_site_fract_z
 _atom_site_occupancy
  Rb  Rb0  1  0.500000  0.500000  0.000000  1
  Rb  Rb1  1  0.000000  0.000000  0.500000  1
  Rb  Rb2  1  0.000000  0.500000  0.250000  1
  Rb  Rb3  1  0.500000  0.000000  0.750000  1
  Rb  Rb4  1  0.500000  0.000000  0.250000  1
  Rb  Rb5  1  0.000000  0.500000  0.750000  1
  Ta  Ta6  1  0.500000  0.500000  0.403254  1
  Ta  Ta7  1  0.000000  0.000000  0.903254  1
  Ta  Ta8  1  0.500000  0.500000  0.596746  1
  Ta  Ta9  1  0.000000  0.000000  0.096746  1
  Br  Br10  1  0.782235  0.684849  0.396991  1
  Br  Br11  1  0.217765  0.315151  0.396991  1
  Br  Br12  1  0.717765  0.184849  0.896991  1
  Br  Br13  1  0.282235  0.815151  0.896991  1
  Br  Br14  1  0.684849  0.217765  0.396991  1
  Br  Br15  1  0.315151  0.782235  0.396991  1
  Br  Br16  1  0.184849  0.282235  0.896991  1
  Br  Br17  1  0.815151  0.717765  0.896991  1
  Br  Br18  1  0.217765  0.315151  0.603009  1
  Br  Br19  1  0.782235  0.684849  0.603009  1
  Br  Br20  1  0.282235  0.815151  0.103009  1
  Br  Br21  1  0.717765  0.184849  0.103009  1
  Br  Br22  1  0.315151  0.782235  0.603009  1
  Br  Br23  1  0.684849  0.217765  0.603009  1
  Br  Br24  1  0.815151  0.717765  0.103009  1
  Br  Br25  1  0.184849  0.282235  0.103009  1
  Br  Br26  1  0.500000  0.500000  0.266727  1
  Br  Br27  1  0.000000  0.000000  0.766727  1
  Br  Br28  1  0.500000  0.500000  0.733273  1
  Br  Br29  1  0.000000  0.000000  0.233273  1
  O  O30  1  0.500000  0.500000  0.500000  1
  O  O31  1  0.000000  0.000000  0.000000  1
