# generated using pymatgen
data_TbNd16Ho3Pb16
_symmetry_space_group_name_H-M   'P 1'
_cell_length_a   8.38857400
_cell_length_b   8.49105112
_cell_length_c   16.15560400
_cell_angle_alpha   90.00000000
_cell_angle_beta   90.00000000
_cell_angle_gamma   90.00960210
_symmetry_Int_Tables_number   1
_chemical_formula_structural   TbNd16Ho3Pb16
_chemical_formula_sum   'Tb1 Nd16 Ho3 Pb16'
_cell_volume   1150.72828651
_cell_formula_units_Z   1
loop_
 _symmetry_equiv_pos_site_id
 _symmetry_equiv_pos_as_xyz
  1  'x, y, z'
loop_
 _atom_site_type_symbol
 _atom_site_label
 _atom_site_symmetry_multiplicity
 _atom_site_fract_x
 _atom_site_fract_y
 _atom_site_fract_z
 _atom_site_occupancy
  Tb  Tb0  1  0.207758  0.503762  0.750000  1
  Nd  Nd1  1  0.376698  0.842155  0.880591  1
  Nd  Nd2  1  0.876010  0.658343  0.619399  1
  Nd  Nd3  1  0.623554  0.158014  0.380556  1
  Nd  Nd4  1  0.123554  0.341964  0.119533  1
  Nd  Nd5  1  0.623554  0.158014  0.119444  1
  Nd  Nd6  1  0.123554  0.341964  0.380467  1
  Nd  Nd7  1  0.376698  0.842155  0.619409  1
  Nd  Nd8  1  0.876010  0.658343  0.880601  1
  Nd  Nd9  1  0.533813  0.322370  0.899808  1
  Nd  Nd10  1  0.033487  0.177189  0.600262  1
  Nd  Nd11  1  0.466376  0.677467  0.399698  1
  Nd  Nd12  1  0.966403  0.822552  0.100225  1
  Nd  Nd13  1  0.466376  0.677467  0.100302  1
  Nd  Nd14  1  0.966403  0.822552  0.399775  1
  Nd  Nd15  1  0.533813  0.322370  0.600192  1
  Nd  Nd16  1  0.033487  0.177189  0.899738  1
  Ho  Ho17  1  0.708411  0.996028  0.750000  1
  Ho  Ho18  1  0.791677  0.495950  0.250000  1
  Ho  Ho19  1  0.291692  0.003919  0.250000  1
  Pb  Pb20  1  0.281164  0.031160  0.046031  1
  Pb  Pb21  1  0.781179  0.468901  0.453977  1
  Pb  Pb22  1  0.718891  0.968913  0.545871  1
  Pb  Pb23  1  0.218815  0.531220  0.954479  1
  Pb  Pb24  1  0.718891  0.968913  0.954129  1
  Pb  Pb25  1  0.218815  0.531220  0.545521  1
  Pb  Pb26  1  0.281164  0.031160  0.453969  1
  Pb  Pb27  1  0.781179  0.468901  0.046023  1
  Pb  Pb28  1  0.571510  0.625728  0.750000  1
  Pb  Pb29  1  0.070627  0.875173  0.750000  1
  Pb  Pb30  1  0.429505  0.374325  0.250000  1
  Pb  Pb31  1  0.929410  0.125509  0.250000  1
  Pb  Pb32  1  0.343178  0.152467  0.750000  1
  Pb  Pb33  1  0.842881  0.346540  0.750000  1
  Pb  Pb34  1  0.656706  0.846611  0.250000  1
  Pb  Pb35  1  0.156757  0.653496  0.250000  1
