# generated using pymatgen
data_Nd2MnZnO6
_symmetry_space_group_name_H-M   'P 1'
_cell_length_a   5.45131247
_cell_length_b   5.68949601
_cell_length_c   7.77528410
_cell_angle_alpha   89.99751853
_cell_angle_beta   89.88273281
_cell_angle_gamma   90.00072882
_symmetry_Int_Tables_number   1
_chemical_formula_structural   Nd2MnZnO6
_chemical_formula_sum   'Nd4 Mn2 Zn2 O12'
_cell_volume   241.15164604
_cell_formula_units_Z   2
loop_
 _symmetry_equiv_pos_site_id
 _symmetry_equiv_pos_as_xyz
  1  'x, y, z'
loop_
 _atom_site_type_symbol
 _atom_site_label
 _atom_site_symmetry_multiplicity
 _atom_site_fract_x
 _atom_site_fract_y
 _atom_site_fract_z
 _atom_site_occupancy
  Nd  Nd0  1  0.985460  0.060626  0.249121  1
  Nd  Nd1  1  0.485472  0.439380  0.749108  1
  Nd  Nd2  1  0.014536  0.939376  0.750877  1
  Nd  Nd3  1  0.514524  0.560623  0.250889  1
  Mn  Mn4  1  0.000021  0.499996  0.500011  1
  Mn  Mn5  1  0.500015  0.999980  0.000008  1
  Zn  Zn6  1  0.499998  0.000001  0.499999  1
  Zn  Zn7  1  0.999998  0.500001  0.999999  1
  O  O8  1  0.091018  0.472984  0.259986  1
  O  O9  1  0.591019  0.027021  0.759988  1
  O  O10  1  0.908977  0.527017  0.740012  1
  O  O11  1  0.408977  0.972981  0.240010  1
  O  O12  1  0.287530  0.690733  0.545597  1
  O  O13  1  0.787525  0.809270  0.045602  1
  O  O14  1  0.712467  0.309270  0.454401  1
  O  O15  1  0.212470  0.190735  0.954396  1
  O  O16  1  0.189126  0.215317  0.550018  1
  O  O17  1  0.689116  0.284688  0.050017  1
  O  O18  1  0.810871  0.784684  0.449979  1
  O  O19  1  0.310879  0.715317  0.949980  1
