# generated using pymatgen
data_Sr6Ca2Ta(SbO6)3
_symmetry_space_group_name_H-M   'P 1'
_cell_length_a   5.93575035
_cell_length_b   5.93461032
_cell_length_c   14.74312518
_cell_angle_alpha   92.32219521
_cell_angle_beta   91.45662807
_cell_angle_gamma   119.12577261
_symmetry_Int_Tables_number   1
_chemical_formula_structural   Sr6Ca2Ta(SbO6)3
_chemical_formula_sum   'Sr6 Ca2 Ta1 Sb3 O18'
_cell_volume   452.69784177
_cell_formula_units_Z   1
loop_
 _symmetry_equiv_pos_site_id
 _symmetry_equiv_pos_as_xyz
  1  'x, y, z'
loop_
 _atom_site_type_symbol
 _atom_site_label
 _atom_site_symmetry_multiplicity
 _atom_site_fract_x
 _atom_site_fract_y
 _atom_site_fract_z
 _atom_site_occupancy
  Sr  Sr0  1  0.668933  0.339701  0.108305  1
  Sr  Sr1  1  0.994492  0.955265  0.253018  1
  Sr  Sr2  1  0.627661  0.317127  0.402800  1
  Sr  Sr3  1  0.369686  0.687661  0.590895  1
  Sr  Sr4  1  0.002533  0.038005  0.749236  1
  Sr  Sr5  1  0.337320  0.655533  0.892798  1
  Ca  Ca6  1  0.999583  0.995521  0.999188  1
  Ca  Ca7  1  0.999746  0.001114  0.499107  1
  Ta  Ta8  1  0.364911  0.707519  0.146491  1
  Sb  Sb9  1  0.297882  0.634593  0.343327  1
  Sb  Sb10  1  0.703807  0.369354  0.654895  1
  Sb  Sb11  1  0.634018  0.288927  0.849416  1
  O  O12  1  0.247116  0.449610  0.051090  1
  O  O13  1  0.238209  0.929558  0.106422  1
  O  O14  1  0.714060  0.931619  0.113992  1
  O  O15  1  0.045252  0.514721  0.225832  1
  O  O16  1  0.512494  0.554134  0.243830  1
  O  O17  1  0.453354  0.965940  0.278089  1
  O  O18  1  0.153380  0.278837  0.381294  1
  O  O19  1  0.056329  0.714460  0.406865  1
  O  O20  1  0.574706  0.776745  0.439970  1
  O  O21  1  0.426885  0.221910  0.559502  1
  O  O22  1  0.947180  0.285987  0.595691  1
  O  O23  1  0.847325  0.724374  0.618364  1
  O  O24  1  0.542937  0.039883  0.723850  1
  O  O25  1  0.491356  0.454318  0.757620  1
  O  O26  1  0.954162  0.486228  0.775038  1
  O  O27  1  0.283299  0.061693  0.887049  1
  O  O28  1  0.766112  0.069736  0.895744  1
  O  O29  1  0.745272  0.549920  0.950279  1
