# generated using pymatgen
data_Ho3Er2(Hg2Pt)2
_symmetry_space_group_name_H-M   'P 1'
_cell_length_a   3.64074400
_cell_length_b   7.96907600
_cell_length_c   18.03340300
_cell_angle_alpha   90.00000000
_cell_angle_beta   90.00000000
_cell_angle_gamma   90.00000000
_symmetry_Int_Tables_number   1
_chemical_formula_structural   Ho3Er2(Hg2Pt)2
_chemical_formula_sum   'Ho6 Er4 Hg8 Pt4'
_cell_volume   523.20971484
_cell_formula_units_Z   2
loop_
 _symmetry_equiv_pos_site_id
 _symmetry_equiv_pos_as_xyz
  1  'x, y, z'
loop_
 _atom_site_type_symbol
 _atom_site_label
 _atom_site_symmetry_multiplicity
 _atom_site_fract_x
 _atom_site_fract_y
 _atom_site_fract_z
 _atom_site_occupancy
  Ho  Ho0  1  0.000000  0.233593  0.215877  1
  Ho  Ho1  1  0.000000  0.766407  0.784123  1
  Ho  Ho2  1  0.000000  0.266407  0.715877  1
  Ho  Ho3  1  0.000000  0.733593  0.284123  1
  Ho  Ho4  1  0.000000  0.000000  0.000000  1
  Ho  Ho5  1  0.000000  0.500000  0.500000  1
  Er  Er6  1  0.000000  0.110729  0.413313  1
  Er  Er7  1  0.000000  0.889271  0.586687  1
  Er  Er8  1  0.000000  0.389271  0.913313  1
  Er  Er9  1  0.000000  0.610729  0.086687  1
  Hg  Hg10  1  0.500000  0.420004  0.356065  1
  Hg  Hg11  1  0.500000  0.579996  0.643935  1
  Hg  Hg12  1  0.500000  0.079996  0.856065  1
  Hg  Hg13  1  0.500000  0.920004  0.143935  1
  Hg  Hg14  1  0.500000  0.289157  0.061130  1
  Hg  Hg15  1  0.500000  0.710843  0.938870  1
  Hg  Hg16  1  0.500000  0.210843  0.561130  1
  Hg  Hg17  1  0.500000  0.789157  0.438870  1
  Pt  Pt18  1  0.500000  0.021192  0.302847  1
  Pt  Pt19  1  0.500000  0.978808  0.697153  1
  Pt  Pt20  1  0.500000  0.478808  0.802847  1
  Pt  Pt21  1  0.500000  0.521192  0.197153  1
