# generated using pymatgen
data_Ta6Co4ReWC2
_symmetry_space_group_name_H-M   'P 1'
_cell_length_a   8.17871202
_cell_length_b   8.15829424
_cell_length_c   8.15829356
_cell_angle_alpha   59.83329270
_cell_angle_beta   59.91717931
_cell_angle_gamma   59.91718355
_symmetry_Int_Tables_number   1
_chemical_formula_structural   Ta6Co4ReWC2
_chemical_formula_sum   'Ta12 Co8 Re2 W2 C4'
_cell_volume   383.95032812
_cell_formula_units_Z   2
loop_
 _symmetry_equiv_pos_site_id
 _symmetry_equiv_pos_as_xyz
  1  'x, y, z'
loop_
 _atom_site_type_symbol
 _atom_site_label
 _atom_site_symmetry_multiplicity
 _atom_site_fract_x
 _atom_site_fract_y
 _atom_site_fract_z
 _atom_site_occupancy
  Ta  Ta0  1  0.559941  0.941892  0.556575  1
  Ta  Ta1  1  0.690059  0.308108  0.693425  1
  Ta  Ta2  1  0.690059  0.693425  0.308108  1
  Ta  Ta3  1  0.308407  0.308108  0.693425  1
  Ta  Ta4  1  0.693579  0.306421  0.306421  1
  Ta  Ta5  1  0.310074  0.689926  0.689926  1
  Ta  Ta6  1  0.939926  0.560074  0.560074  1
  Ta  Ta7  1  0.941593  0.941892  0.556575  1
  Ta  Ta8  1  0.308407  0.693425  0.308108  1
  Ta  Ta9  1  0.559941  0.556575  0.941892  1
  Ta  Ta10  1  0.941593  0.556575  0.941892  1
  Ta  Ta11  1  0.556421  0.943579  0.943579  1
  Co  Co12  1  0.923389  0.229459  0.923763  1
  Co  Co13  1  0.233286  0.922428  0.922428  1
  Co  Co14  1  0.923389  0.923763  0.229459  1
  Co  Co15  1  0.016714  0.327572  0.327572  1
  Co  Co16  1  0.326611  0.020541  0.326237  1
  Co  Co17  1  0.921858  0.922428  0.922428  1
  Co  Co18  1  0.328142  0.327572  0.327572  1
  Co  Co19  1  0.326611  0.326237  0.020541  1
  Re  Re20  1  0.625000  0.125000  0.125000  1
  Re  Re21  1  0.125000  0.125000  0.125000  1
  W  W22  1  0.125000  0.125000  0.625000  1
  W  W23  1  0.125000  0.625000  0.125000  1
  C  C24  1  0.625000  0.625000  0.625000  1
  C  C25  1  0.125000  0.625000  0.625000  1
  C  C26  1  0.625000  0.125000  0.625000  1
  C  C27  1  0.625000  0.625000  0.125000  1
