# generated using pymatgen
data_LuTh3Al3(Ga5Ir2)3
_symmetry_space_group_name_H-M   'P 1'
_cell_length_a   7.67064551
_cell_length_b   7.68911381
_cell_length_c   9.47346105
_cell_angle_alpha   89.99151276
_cell_angle_beta   89.99710348
_cell_angle_gamma   119.74499235
_symmetry_Int_Tables_number   1
_chemical_formula_structural   LuTh3Al3(Ga5Ir2)3
_chemical_formula_sum   'Lu1 Th3 Al3 Ga15 Ir6'
_cell_volume   485.12957038
_cell_formula_units_Z   1
loop_
 _symmetry_equiv_pos_site_id
 _symmetry_equiv_pos_as_xyz
  1  'x, y, z'
loop_
 _atom_site_type_symbol
 _atom_site_label
 _atom_site_symmetry_multiplicity
 _atom_site_fract_x
 _atom_site_fract_y
 _atom_site_fract_z
 _atom_site_occupancy
  Lu  Lu0  1  0.327979  0.002955  0.749329  1
  Th  Th1  1  0.998396  0.670690  0.249989  1
  Th  Th2  1  0.000636  0.329898  0.748865  1
  Th  Th3  1  0.670133  0.997332  0.250030  1
  Al  Al4  1  0.661561  0.661418  0.451994  1
  Al  Al5  1  0.664903  0.664690  0.048324  1
  Al  Al6  1  0.334989  0.330733  0.945121  1
  Ga  Ga7  1  0.136601  0.132880  0.249525  1
  Ga  Ga8  1  0.871511  0.869542  0.749543  1
  Ga  Ga9  1  0.004740  0.335266  0.078613  1
  Ga  Ga10  1  0.003083  0.671502  0.917226  1
  Ga  Ga11  1  0.002548  0.671813  0.582792  1
  Ga  Ga12  1  0.335410  0.004330  0.426881  1
  Ga  Ga13  1  0.006097  0.335571  0.419338  1
  Ga  Ga14  1  0.657227  0.995861  0.582854  1
  Ga  Ga15  1  0.657613  0.996601  0.917253  1
  Ga  Ga16  1  0.335269  0.002882  0.071205  1
  Ga  Ga17  1  0.333249  0.327774  0.566435  1
  Ga  Ga18  1  0.349871  0.546420  0.249959  1
  Ga  Ga19  1  0.651186  0.447845  0.750096  1
  Ga  Ga20  1  0.546230  0.345729  0.249955  1
  Ga  Ga21  1  0.453225  0.659189  0.749958  1
  Ir  Ir22  1  0.672266  0.331512  0.999440  1
  Ir  Ir23  1  0.328819  0.667526  0.999599  1
  Ir  Ir24  1  0.328461  0.670817  0.499245  1
  Ir  Ir25  1  0.675961  0.331622  0.499344  1
  Ir  Ir26  1  0.998567  0.001011  0.999390  1
  Ir  Ir27  1  0.993469  0.996590  0.497697  1
