# generated using pymatgen
data_Yb12Ag11HgGe12
_symmetry_space_group_name_H-M   'P 1'
_cell_length_a   4.58588700
_cell_length_b   7.86569572
_cell_length_c   21.33646976
_cell_angle_alpha   90.10737197
_cell_angle_beta   90.00000000
_cell_angle_gamma   90.00000000
_symmetry_Int_Tables_number   1
_chemical_formula_structural   Yb12Ag11HgGe12
_chemical_formula_sum   'Yb12 Ag11 Hg1 Ge12'
_cell_volume   769.63054060
_cell_formula_units_Z   1
loop_
 _symmetry_equiv_pos_site_id
 _symmetry_equiv_pos_as_xyz
  1  'x, y, z'
loop_
 _atom_site_type_symbol
 _atom_site_label
 _atom_site_symmetry_multiplicity
 _atom_site_fract_x
 _atom_site_fract_y
 _atom_site_fract_z
 _atom_site_occupancy
  Yb  Yb0  1  0.250000  0.787691  0.166280  1
  Yb  Yb1  1  0.250000  0.775638  0.499290  1
  Yb  Yb2  1  0.250000  0.712327  0.333047  1
  Yb  Yb3  1  0.750000  0.225314  0.499108  1
  Yb  Yb4  1  0.750000  0.285002  0.664216  1
  Yb  Yb5  1  0.750000  0.276477  0.000437  1
  Yb  Yb6  1  0.250000  0.788387  0.835866  1
  Yb  Yb7  1  0.250000  0.725610  0.001278  1
  Yb  Yb8  1  0.750000  0.212260  0.166900  1
  Yb  Yb9  1  0.750000  0.288376  0.333777  1
  Yb  Yb10  1  0.250000  0.715173  0.663979  1
  Yb  Yb11  1  0.750000  0.209480  0.835935  1
  Ag  Ag12  1  0.750000  0.581738  0.906576  1
  Ag  Ag13  1  0.250000  0.416257  0.433361  1
  Ag  Ag14  1  0.750000  0.583886  0.565988  1
  Ag  Ag15  1  0.750000  0.917860  0.406240  1
  Ag  Ag16  1  0.250000  0.418150  0.093924  1
  Ag  Ag17  1  0.250000  0.412196  0.238360  1
  Ag  Ag18  1  0.750000  0.912360  0.261933  1
  Ag  Ag19  1  0.250000  0.084542  0.738273  1
  Ag  Ag20  1  0.250000  0.083205  0.934983  1
  Ag  Ag21  1  0.750000  0.916363  0.066889  1
  Ag  Ag22  1  0.250000  0.082554  0.592824  1
  Hg  Hg23  1  0.750000  0.592525  0.761484  1
  Ge  Ge24  1  0.250000  0.411885  0.898953  1
  Ge  Ge25  1  0.750000  0.927276  0.726444  1
  Ge  Ge26  1  0.750000  0.581279  0.228535  1
  Ge  Ge27  1  0.250000  0.089333  0.071792  1
  Ge  Ge28  1  0.750000  0.908389  0.926490  1
  Ge  Ge29  1  0.750000  0.913617  0.601104  1
  Ge  Ge30  1  0.250000  0.411147  0.573315  1
  Ge  Ge31  1  0.250000  0.085851  0.397325  1
  Ge  Ge32  1  0.250000  0.081770  0.271488  1
  Ge  Ge33  1  0.750000  0.588920  0.428538  1
  Ge  Ge34  1  0.250000  0.410222  0.772031  1
  Ge  Ge35  1  0.750000  0.586937  0.103037  1
