# generated using pymatgen
data_Tb4Fe3Co5(NiP)12
_symmetry_space_group_name_H-M   'P 1'
_cell_length_a   3.70110300
_cell_length_b   10.29184873
_cell_length_c   11.85951810
_cell_angle_alpha   90.15716014
_cell_angle_beta   90.00000000
_cell_angle_gamma   90.00000000
_symmetry_Int_Tables_number   1
_chemical_formula_structural   Tb4Fe3Co5(NiP)12
_chemical_formula_sum   'Tb4 Fe3 Co5 Ni12 P12'
_cell_volume   451.74148387
_cell_formula_units_Z   1
loop_
 _symmetry_equiv_pos_site_id
 _symmetry_equiv_pos_as_xyz
  1  'x, y, z'
loop_
 _atom_site_type_symbol
 _atom_site_label
 _atom_site_symmetry_multiplicity
 _atom_site_fract_x
 _atom_site_fract_y
 _atom_site_fract_z
 _atom_site_occupancy
  Tb  Tb0  1  0.250000  0.579301  0.703901  1
  Tb  Tb1  1  0.250000  0.920854  0.204754  1
  Tb  Tb2  1  0.750000  0.420998  0.295819  1
  Tb  Tb3  1  0.750000  0.078769  0.795481  1
  Fe  Fe4  1  0.250000  0.036916  0.431812  1
  Fe  Fe5  1  0.750000  0.535801  0.066653  1
  Fe  Fe6  1  0.750000  0.963553  0.568242  1
  Co  Co7  1  0.250000  0.874697  0.702017  1
  Co  Co8  1  0.250000  0.624945  0.200476  1
  Co  Co9  1  0.750000  0.125688  0.298177  1
  Co  Co10  1  0.750000  0.376532  0.800135  1
  Co  Co11  1  0.250000  0.464115  0.931747  1
  Ni  Ni12  1  0.250000  0.711798  0.991555  1
  Ni  Ni13  1  0.250000  0.786191  0.495124  1
  Ni  Ni14  1  0.750000  0.284798  0.005489  1
  Ni  Ni15  1  0.750000  0.214443  0.504985  1
  Ni  Ni16  1  0.250000  0.409036  0.487121  1
  Ni  Ni17  1  0.250000  0.091236  0.986509  1
  Ni  Ni18  1  0.750000  0.590840  0.513329  1
  Ni  Ni19  1  0.750000  0.908129  0.013836  1
  Ni  Ni20  1  0.250000  0.226779  0.173680  1
  Ni  Ni21  1  0.250000  0.273483  0.674886  1
  Ni  Ni22  1  0.750000  0.773235  0.826240  1
  Ni  Ni23  1  0.750000  0.726632  0.326196  1
  P  P24  1  0.250000  0.430005  0.113325  1
  P  P25  1  0.250000  0.069309  0.612559  1
  P  P26  1  0.750000  0.571354  0.887496  1
  P  P27  1  0.750000  0.931162  0.387473  1
  P  P28  1  0.250000  0.269700  0.866146  1
  P  P29  1  0.250000  0.229972  0.365963  1
  P  P30  1  0.750000  0.729238  0.134191  1
  P  P31  1  0.750000  0.770262  0.633819  1
  P  P32  1  0.250000  0.606397  0.390587  1
  P  P33  1  0.250000  0.894286  0.890770  1
  P  P34  1  0.750000  0.393951  0.609841  1
  P  P35  1  0.750000  0.105596  0.109666  1
