# generated using pymatgen
data_HoTm9Cd3Ru
_symmetry_space_group_name_H-M   'P 1'
_cell_length_a   9.45097700
_cell_length_b   9.45145910
_cell_length_c   9.73177600
_cell_angle_alpha   90.00000000
_cell_angle_beta   90.00000000
_cell_angle_gamma   120.00168151
_symmetry_Int_Tables_number   1
_chemical_formula_structural   HoTm9Cd3Ru
_chemical_formula_sum   'Ho2 Tm18 Cd6 Ru2'
_cell_volume   752.81964323
_cell_formula_units_Z   2
loop_
 _symmetry_equiv_pos_site_id
 _symmetry_equiv_pos_as_xyz
  1  'x, y, z'
loop_
 _atom_site_type_symbol
 _atom_site_label
 _atom_site_symmetry_multiplicity
 _atom_site_fract_x
 _atom_site_fract_y
 _atom_site_fract_z
 _atom_site_occupancy
  Ho  Ho0  1  0.540970  0.459347  0.250000  1
  Ho  Ho1  1  0.540970  0.081622  0.250000  1
  Tm  Tm2  1  0.000010  0.000005  0.499980  1
  Tm  Tm3  1  0.000010  0.000005  0.000020  1
  Tm  Tm4  1  0.209763  0.789685  0.441020  1
  Tm  Tm5  1  0.209763  0.420078  0.441020  1
  Tm  Tm6  1  0.579888  0.789945  0.441132  1
  Tm  Tm7  1  0.790176  0.210151  0.559300  1
  Tm  Tm8  1  0.790176  0.580025  0.559300  1
  Tm  Tm9  1  0.420001  0.210000  0.559440  1
  Tm  Tm10  1  0.790176  0.210151  0.940700  1
  Tm  Tm11  1  0.790176  0.580025  0.940700  1
  Tm  Tm12  1  0.420001  0.210000  0.940560  1
  Tm  Tm13  1  0.209763  0.789685  0.058980  1
  Tm  Tm14  1  0.209763  0.420078  0.058980  1
  Tm  Tm15  1  0.579888  0.789945  0.058868  1
  Tm  Tm16  1  0.918673  0.459336  0.250000  1
  Tm  Tm17  1  0.459090  0.540906  0.750000  1
  Tm  Tm18  1  0.459090  0.918185  0.750000  1
  Tm  Tm19  1  0.081890  0.540946  0.750000  1
  Cd  Cd20  1  0.885966  0.114545  0.250000  1
  Cd  Cd21  1  0.885966  0.771422  0.250000  1
  Cd  Cd22  1  0.228202  0.114102  0.250000  1
  Cd  Cd23  1  0.114392  0.885469  0.750000  1
  Cd  Cd24  1  0.114392  0.228923  0.750000  1
  Cd  Cd25  1  0.771160  0.885580  0.750000  1
  Ru  Ru26  1  0.333179  0.666590  0.250000  1
  Ru  Ru27  1  0.666502  0.333250  0.750000  1
