# generated using pymatgen
data_Tb8Sb(Pd3Pt)6
_symmetry_space_group_name_H-M   'P 1'
_cell_length_a   8.40411554
_cell_length_b   8.41286500
_cell_length_c   8.43190954
_cell_angle_alpha   90.00000000
_cell_angle_beta   89.95898494
_cell_angle_gamma   90.00000000
_symmetry_Int_Tables_number   1
_chemical_formula_structural   Tb8Sb(Pd3Pt)6
_chemical_formula_sum   'Tb8 Sb1 Pd18 Pt6'
_cell_volume   596.15852909
_cell_formula_units_Z   1
loop_
 _symmetry_equiv_pos_site_id
 _symmetry_equiv_pos_as_xyz
  1  'x, y, z'
loop_
 _atom_site_type_symbol
 _atom_site_label
 _atom_site_symmetry_multiplicity
 _atom_site_fract_x
 _atom_site_fract_y
 _atom_site_fract_z
 _atom_site_occupancy
  Tb  Tb0  1  0.746524  0.746260  0.253325  1
  Tb  Tb1  1  0.746014  0.253138  0.746828  1
  Tb  Tb2  1  0.254086  0.746238  0.745990  1
  Tb  Tb3  1  0.746014  0.746862  0.746828  1
  Tb  Tb4  1  0.746524  0.253740  0.253325  1
  Tb  Tb5  1  0.254086  0.253762  0.745990  1
  Tb  Tb6  1  0.253536  0.745321  0.254033  1
  Tb  Tb7  1  0.253536  0.254679  0.254033  1
  Sb  Sb8  1  0.999947  0.000000  0.999696  1
  Pd  Pd9  1  0.000218  0.000000  0.305695  1
  Pd  Pd10  1  0.999970  0.735795  0.499931  1
  Pd  Pd11  1  0.499821  0.000000  0.264651  1
  Pd  Pd12  1  0.999970  0.264205  0.499931  1
  Pd  Pd13  1  0.499698  0.735578  0.999935  1
  Pd  Pd14  1  0.500131  0.254057  0.499967  1
  Pd  Pd15  1  0.500131  0.745943  0.499967  1
  Pd  Pd16  1  0.745865  0.500000  0.499904  1
  Pd  Pd17  1  0.306829  0.000000  0.000508  1
  Pd  Pd18  1  0.000129  0.000000  0.694103  1
  Pd  Pd19  1  0.000049  0.500000  0.264649  1
  Pd  Pd20  1  0.000167  0.306147  0.999779  1
  Pd  Pd21  1  0.000167  0.693853  0.999779  1
  Pd  Pd22  1  0.693171  0.000000  0.000463  1
  Pd  Pd23  1  0.263982  0.500000  0.000220  1
  Pd  Pd24  1  0.263537  0.000000  0.499797  1
  Pd  Pd25  1  0.000032  0.500000  0.735133  1
  Pd  Pd26  1  0.499698  0.264422  0.999935  1
  Pt  Pt27  1  0.736335  0.000000  0.499938  1
  Pt  Pt28  1  0.735731  0.500000  0.000154  1
  Pt  Pt29  1  0.499921  0.000000  0.735347  1
  Pt  Pt30  1  0.254169  0.500000  0.499978  1
  Pt  Pt31  1  0.499986  0.500000  0.746419  1
  Pt  Pt32  1  0.500027  0.500000  0.253767  1
