# generated using pymatgen
data_Zr10InCuSn5Bi
_symmetry_space_group_name_H-M   'P 1'
_cell_length_a   8.78099832
_cell_length_b   8.78099845
_cell_length_c   5.93555700
_cell_angle_alpha   90.00071097
_cell_angle_beta   90.00070333
_cell_angle_gamma   119.93725046
_symmetry_Int_Tables_number   1
_chemical_formula_structural   Zr10InCuSn5Bi
_chemical_formula_sum   'Zr10 In1 Cu1 Sn5 Bi1'
_cell_volume   396.60132951
_cell_formula_units_Z   1
loop_
 _symmetry_equiv_pos_site_id
 _symmetry_equiv_pos_as_xyz
  1  'x, y, z'
loop_
 _atom_site_type_symbol
 _atom_site_label
 _atom_site_symmetry_multiplicity
 _atom_site_fract_x
 _atom_site_fract_y
 _atom_site_fract_z
 _atom_site_occupancy
  Zr  Zr0  1  0.726517  0.000504  0.235802  1
  Zr  Zr1  1  0.000504  0.726517  0.235802  1
  Zr  Zr2  1  0.272301  0.272301  0.237620  1
  Zr  Zr3  1  0.270946  0.995108  0.763713  1
  Zr  Zr4  1  0.995108  0.270946  0.763713  1
  Zr  Zr5  1  0.729880  0.729880  0.764440  1
  Zr  Zr6  1  0.333039  0.669027  0.498478  1
  Zr  Zr7  1  0.669027  0.333039  0.498478  1
  Zr  Zr8  1  0.669259  0.332865  0.001686  1
  Zr  Zr9  1  0.332865  0.669259  0.001686  1
  In  In10  1  0.999193  0.999193  0.498667  1
  Cu  Cu11  1  0.999738  0.999738  0.001633  1
  Sn  Sn12  1  0.383705  0.000811  0.255786  1
  Sn  Sn13  1  0.000811  0.383705  0.255786  1
  Sn  Sn14  1  0.617890  0.617890  0.255103  1
  Sn  Sn15  1  0.615723  0.999498  0.743743  1
  Sn  Sn16  1  0.999498  0.615723  0.743743  1
  Bi  Bi17  1  0.383999  0.383999  0.744123  1
