# generated using pymatgen
data_Th2InRh2
_symmetry_space_group_name_H-M   'P 1'
_cell_length_a   7.82154200
_cell_length_b   7.82154200
_cell_length_c   3.78787300
_cell_angle_alpha   90.00000000
_cell_angle_beta   90.00000000
_cell_angle_gamma   90.00000000
_symmetry_Int_Tables_number   1
_chemical_formula_structural   Th2InRh2
_chemical_formula_sum   'Th4 In2 Rh4'
_cell_volume   231.72888553
_cell_formula_units_Z   2
loop_
 _symmetry_equiv_pos_site_id
 _symmetry_equiv_pos_as_xyz
  1  'x, y, z'
loop_
 _atom_site_type_symbol
 _atom_site_label
 _atom_site_symmetry_multiplicity
 _atom_site_fract_x
 _atom_site_fract_y
 _atom_site_fract_z
 _atom_site_occupancy
  Th  Th0  1  0.670206  0.170206  0.500000  1
  Th  Th1  1  0.329794  0.829794  0.500000  1
  Th  Th2  1  0.170206  0.329794  0.500000  1
  Th  Th3  1  0.829794  0.670206  0.500000  1
  In  In4  1  0.000000  0.000000  0.000000  1
  In  In5  1  0.500000  0.500000  0.000000  1
  Rh  Rh6  1  0.133526  0.633526  0.000000  1
  Rh  Rh7  1  0.866474  0.366474  0.000000  1
  Rh  Rh8  1  0.633526  0.866474  0.000000  1
  Rh  Rh9  1  0.366474  0.133526  0.000000  1
