# generated using pymatgen
data_Sc4CrCu3Os4
_symmetry_space_group_name_H-M   'P 1'
_cell_length_a   5.18486600
_cell_length_b   5.03287436
_cell_length_c   8.52576100
_cell_angle_alpha   90.00000000
_cell_angle_beta   90.00000000
_cell_angle_gamma   121.00411834
_symmetry_Int_Tables_number   1
_chemical_formula_structural   Sc4CrCu3Os4
_chemical_formula_sum   'Sc4 Cr1 Cu3 Os4'
_cell_volume   190.69250179
_cell_formula_units_Z   1
loop_
 _symmetry_equiv_pos_site_id
 _symmetry_equiv_pos_as_xyz
  1  'x, y, z'
loop_
 _atom_site_type_symbol
 _atom_site_label
 _atom_site_symmetry_multiplicity
 _atom_site_fract_x
 _atom_site_fract_y
 _atom_site_fract_z
 _atom_site_occupancy
  Sc  Sc0  1  0.330544  0.661089  0.444691  1
  Sc  Sc1  1  0.668433  0.336865  0.566861  1
  Sc  Sc2  1  0.668433  0.336865  0.933139  1
  Sc  Sc3  1  0.330544  0.661089  0.055309  1
  Cr  Cr4  1  0.167751  0.335501  0.750000  1
  Cu  Cu5  1  0.340070  0.169809  0.250000  1
  Cu  Cu6  1  0.831020  0.662041  0.250000  1
  Cu  Cu7  1  0.829737  0.169809  0.250000  1
  Os  Os8  1  0.170806  0.824143  0.750000  1
  Os  Os9  1  0.653338  0.824143  0.750000  1
  Os  Os10  1  0.004662  0.009324  0.003335  1
  Os  Os11  1  0.004662  0.009324  0.496665  1
