# generated using pymatgen
data_TbDy5PuO12
_symmetry_space_group_name_H-M   'P 1'
_cell_length_a   6.49630558
_cell_length_b   6.49425575
_cell_length_c   6.49350700
_cell_angle_alpha   98.69016050
_cell_angle_beta   98.61547404
_cell_angle_gamma   98.68950054
_symmetry_Int_Tables_number   1
_chemical_formula_structural   TbDy5PuO12
_chemical_formula_sum   'Tb1 Dy5 Pu1 O12'
_cell_volume   263.48849665
_cell_formula_units_Z   1
loop_
 _symmetry_equiv_pos_site_id
 _symmetry_equiv_pos_as_xyz
  1  'x, y, z'
loop_
 _atom_site_type_symbol
 _atom_site_label
 _atom_site_symmetry_multiplicity
 _atom_site_fract_x
 _atom_site_fract_y
 _atom_site_fract_z
 _atom_site_occupancy
  Tb  Tb0  1  0.145550  0.319384  0.612571  1
  Dy  Dy1  1  0.389537  0.854966  0.681682  1
  Dy  Dy2  1  0.681557  0.388031  0.854942  1
  Dy  Dy3  1  0.319089  0.612198  0.145410  1
  Dy  Dy4  1  0.610584  0.144787  0.318027  1
  Dy  Dy5  1  0.854013  0.679971  0.387306  1
  Pu  Pu6  1  0.999811  0.999737  0.999956  1
  O  O7  1  0.073789  0.310012  0.957443  1
  O  O8  1  0.043027  0.927776  0.692863  1
  O  O9  1  0.412699  0.569168  0.822510  1
  O  O10  1  0.177892  0.590692  0.431660  1
  O  O11  1  0.690402  0.043908  0.926725  1
  O  O12  1  0.431798  0.176965  0.588488  1
  O  O13  1  0.569638  0.822306  0.411578  1
  O  O14  1  0.309587  0.955872  0.073149  1
  O  O15  1  0.820991  0.411282  0.567849  1
  O  O16  1  0.588194  0.431187  0.177869  1
  O  O17  1  0.956136  0.071799  0.306428  1
  O  O18  1  0.925707  0.689960  0.043547  1
