# generated using pymatgen
data_Tb2Pa(AlPd)3
_symmetry_space_group_name_H-M   'P 1'
_cell_length_a   7.19625957
_cell_length_b   7.29384793
_cell_length_c   4.02581300
_cell_angle_alpha   90.00000000
_cell_angle_beta   90.00000000
_cell_angle_gamma   120.44962156
_symmetry_Int_Tables_number   1
_chemical_formula_structural   Tb2Pa(AlPd)3
_chemical_formula_sum   'Tb2 Pa1 Al3 Pd3'
_cell_volume   182.16385926
_cell_formula_units_Z   1
loop_
 _symmetry_equiv_pos_site_id
 _symmetry_equiv_pos_as_xyz
  1  'x, y, z'
loop_
 _atom_site_type_symbol
 _atom_site_label
 _atom_site_symmetry_multiplicity
 _atom_site_fract_x
 _atom_site_fract_y
 _atom_site_fract_z
 _atom_site_occupancy
  Tb  Tb0  1  0.417050  0.418625  0.500000  1
  Tb  Tb1  1  0.582950  0.001574  0.500000  1
  Pa  Pa2  1  0.000000  0.577977  0.500000  1
  Al  Al3  1  0.757250  0.761375  0.000000  1
  Al  Al4  1  0.242750  0.004125  0.000000  1
  Al  Al5  1  0.000000  0.231897  0.000000  1
  Pd  Pd6  1  0.316378  0.665261  0.000000  1
  Pd  Pd7  1  0.683622  0.348882  0.000000  1
  Pd  Pd8  1  0.000000  0.990283  0.500000  1
