# generated using pymatgen
data_Tb9CeSm6(CdRu)4
_symmetry_space_group_name_H-M   'P 1'
_cell_length_a   9.77064115
_cell_length_b   9.77064189
_cell_length_c   9.77064227
_cell_angle_alpha   59.31931558
_cell_angle_beta   59.31931646
_cell_angle_gamma   59.31931557
_symmetry_Int_Tables_number   1
_chemical_formula_structural   Tb9CeSm6(CdRu)4
_chemical_formula_sum   'Tb9 Ce1 Sm6 Cd4 Ru4'
_cell_volume   649.33845226
_cell_formula_units_Z   1
loop_
 _symmetry_equiv_pos_site_id
 _symmetry_equiv_pos_as_xyz
  1  'x, y, z'
loop_
 _atom_site_type_symbol
 _atom_site_label
 _atom_site_symmetry_multiplicity
 _atom_site_fract_x
 _atom_site_fract_y
 _atom_site_fract_z
 _atom_site_occupancy
  Tb  Tb0  1  0.188794  0.188794  0.812361  1
  Tb  Tb1  1  0.811662  0.188434  0.811662  1
  Tb  Tb2  1  0.188433  0.811663  0.811662  1
  Tb  Tb3  1  0.811662  0.811663  0.188434  1
  Tb  Tb4  1  0.188793  0.812361  0.188793  1
  Tb  Tb5  1  0.812361  0.188794  0.188794  1
  Tb  Tb6  1  0.345843  0.345843  0.958871  1
  Tb  Tb7  1  0.345843  0.958871  0.345843  1
  Tb  Tb8  1  0.958871  0.345843  0.345843  1
  Ce  Ce9  1  0.341297  0.341297  0.341297  1
  Sm  Sm10  1  0.561290  0.561290  0.939121  1
  Sm  Sm11  1  0.939680  0.559881  0.939680  1
  Sm  Sm12  1  0.559881  0.939680  0.939680  1
  Sm  Sm13  1  0.939680  0.939680  0.559881  1
  Sm  Sm14  1  0.561290  0.939121  0.561290  1
  Sm  Sm15  1  0.939121  0.561290  0.561290  1
  Cd  Cd16  1  0.579301  0.579301  0.259857  1
  Cd  Cd17  1  0.579301  0.259857  0.579301  1
  Cd  Cd18  1  0.259857  0.579301  0.579301  1
  Cd  Cd19  1  0.579448  0.579448  0.579448  1
  Ru  Ru20  1  0.146568  0.146568  0.575472  1
  Ru  Ru21  1  0.146568  0.575472  0.146568  1
  Ru  Ru22  1  0.575472  0.146568  0.146568  1
  Ru  Ru23  1  0.138982  0.138982  0.138982  1
