# generated using pymatgen
data_Sm8Lu12Si15Ge
_symmetry_space_group_name_H-M   'P 1'
_cell_length_a   7.36075572
_cell_length_b   7.65620254
_cell_length_c   14.52064212
_cell_angle_alpha   90.01094522
_cell_angle_beta   89.81464182
_cell_angle_gamma   90.04912528
_symmetry_Int_Tables_number   1
_chemical_formula_structural   Sm8Lu12Si15Ge
_chemical_formula_sum   'Sm8 Lu12 Si15 Ge1'
_cell_volume   818.31252931
_cell_formula_units_Z   1
loop_
 _symmetry_equiv_pos_site_id
 _symmetry_equiv_pos_as_xyz
  1  'x, y, z'
loop_
 _atom_site_type_symbol
 _atom_site_label
 _atom_site_symmetry_multiplicity
 _atom_site_fract_x
 _atom_site_fract_y
 _atom_site_fract_z
 _atom_site_occupancy
  Sm  Sm0  1  0.013922  0.175168  0.097839  1
  Sm  Sm1  1  0.986345  0.825117  0.902093  1
  Sm  Sm2  1  0.486653  0.675219  0.902060  1
  Sm  Sm3  1  0.986063  0.825595  0.598080  1
  Sm  Sm4  1  0.513647  0.325065  0.097929  1
  Sm  Sm5  1  0.012492  0.174543  0.401564  1
  Sm  Sm6  1  0.513795  0.324158  0.401399  1
  Sm  Sm7  1  0.489111  0.676229  0.598272  1
  Lu  Lu8  1  0.161997  0.506772  0.751275  1
  Lu  Lu9  1  0.837914  0.493297  0.250087  1
  Lu  Lu10  1  0.338136  0.006714  0.249946  1
  Lu  Lu11  1  0.662159  0.993211  0.750069  1
  Lu  Lu12  1  0.331386  0.174278  0.624638  1
  Lu  Lu13  1  0.669533  0.823903  0.375902  1
  Lu  Lu14  1  0.169159  0.677040  0.376155  1
  Lu  Lu15  1  0.670626  0.823075  0.123577  1
  Lu  Lu16  1  0.828671  0.323971  0.623587  1
  Lu  Lu17  1  0.329287  0.176424  0.876235  1
  Lu  Lu18  1  0.829114  0.323290  0.876295  1
  Lu  Lu19  1  0.170681  0.676819  0.123655  1
  Si  Si20  1  0.034540  0.116654  0.750024  1
  Si  Si21  1  0.965263  0.884179  0.249654  1
  Si  Si22  1  0.464803  0.616219  0.249784  1
  Si  Si23  1  0.534627  0.384132  0.750223  1
  Si  Si24  1  0.283680  0.874192  0.750299  1
  Si  Si25  1  0.716507  0.125201  0.249627  1
  Si  Si26  1  0.216257  0.374909  0.249900  1
  Si  Si27  1  0.784152  0.625430  0.750047  1
  Si  Si28  1  0.837953  0.535269  0.459852  1
  Si  Si29  1  0.343150  0.965851  0.460822  1
  Si  Si30  1  0.844371  0.533822  0.039217  1
  Si  Si31  1  0.656972  0.034437  0.539102  1
  Si  Si32  1  0.155742  0.466155  0.960857  1
  Si  Si33  1  0.655556  0.034035  0.960899  1
  Si  Si34  1  0.344356  0.966146  0.039162  1
  Ge  Ge35  1  0.161380  0.463482  0.539872  1
