# generated using pymatgen
data_Y2LuNb3(B2Ru5)2
_symmetry_space_group_name_H-M   'P 1'
_cell_length_a   9.59325778
_cell_length_b   9.59325785
_cell_length_c   3.12647300
_cell_angle_alpha   90.00000000
_cell_angle_beta   90.00000000
_cell_angle_gamma   89.41977944
_symmetry_Int_Tables_number   1
_chemical_formula_structural   Y2LuNb3(B2Ru5)2
_chemical_formula_sum   'Y2 Lu1 Nb3 B4 Ru10'
_cell_volume   287.71641854
_cell_formula_units_Z   1
loop_
 _symmetry_equiv_pos_site_id
 _symmetry_equiv_pos_as_xyz
  1  'x, y, z'
loop_
 _atom_site_type_symbol
 _atom_site_label
 _atom_site_symmetry_multiplicity
 _atom_site_fract_x
 _atom_site_fract_y
 _atom_site_fract_z
 _atom_site_occupancy
  Y  Y0  1  0.324772  0.323891  0.000000  1
  Y  Y1  1  0.676109  0.675228  0.000000  1
  Lu  Lu2  1  0.174341  0.825659  0.000000  1
  Nb  Nb3  1  0.496262  0.997547  0.000000  1
  Nb  Nb4  1  0.002453  0.503738  0.000000  1
  Nb  Nb5  1  0.824880  0.175120  0.000000  1
  B  B6  1  0.624117  0.375883  0.000000  1
  B  B7  1  0.379863  0.620137  0.000000  1
  B  B8  1  0.118750  0.122702  0.000000  1
  B  B9  1  0.877298  0.881250  0.000000  1
  Ru  Ru10  1  0.503613  0.496387  0.500000  1
  Ru  Ru11  1  0.991886  0.008114  0.500000  1
  Ru  Ru12  1  0.584820  0.213557  0.500000  1
  Ru  Ru13  1  0.427753  0.780817  0.500000  1
  Ru  Ru14  1  0.059117  0.279575  0.500000  1
  Ru  Ru15  1  0.931155  0.723238  0.500000  1
  Ru  Ru16  1  0.276762  0.068845  0.500000  1
  Ru  Ru17  1  0.720425  0.940883  0.500000  1
  Ru  Ru18  1  0.219183  0.572247  0.500000  1
  Ru  Ru19  1  0.786443  0.415180  0.500000  1
