# generated using pymatgen
data_Dy5Y3CdHgPt2
_symmetry_space_group_name_H-M   'P 1'
_cell_length_a   9.67734490
_cell_length_b   9.67734425
_cell_length_c   9.67127900
_cell_angle_alpha   60.02073388
_cell_angle_beta   60.02073612
_cell_angle_gamma   60.07195588
_symmetry_Int_Tables_number   1
_chemical_formula_structural   Dy5Y3CdHgPt2
_chemical_formula_sum   'Dy10 Y6 Cd2 Hg2 Pt4'
_cell_volume   640.99276684
_cell_formula_units_Z   2
loop_
 _symmetry_equiv_pos_site_id
 _symmetry_equiv_pos_as_xyz
  1  'x, y, z'
loop_
 _atom_site_type_symbol
 _atom_site_label
 _atom_site_symmetry_multiplicity
 _atom_site_fract_x
 _atom_site_fract_y
 _atom_site_fract_z
 _atom_site_occupancy
  Dy  Dy0  1  0.352990  0.352990  0.350518  1
  Dy  Dy1  1  0.352990  0.352990  0.943502  1
  Dy  Dy2  1  0.356470  0.936020  0.353755  1
  Dy  Dy3  1  0.936020  0.356470  0.353755  1
  Dy  Dy4  1  0.810745  0.189444  0.190476  1
  Dy  Dy5  1  0.189444  0.810745  0.809336  1
  Dy  Dy6  1  0.189444  0.810745  0.190476  1
  Dy  Dy7  1  0.810745  0.189444  0.809336  1
  Dy  Dy8  1  0.190258  0.190258  0.809742  1
  Dy  Dy9  1  0.810008  0.810008  0.189992  1
  Y  Y10  1  0.935282  0.563537  0.564326  1
  Y  Y11  1  0.563537  0.935282  0.936854  1
  Y  Y12  1  0.563537  0.935282  0.564326  1
  Y  Y13  1  0.935282  0.563537  0.936854  1
  Y  Y14  1  0.564219  0.564219  0.935781  1
  Y  Y15  1  0.936572  0.936572  0.563428  1
  Cd  Cd16  1  0.580157  0.254538  0.582652  1
  Cd  Cd17  1  0.254538  0.580157  0.582652  1
  Hg  Hg18  1  0.584621  0.584621  0.587989  1
  Hg  Hg19  1  0.584621  0.584621  0.242770  1
  Pt  Pt20  1  0.143319  0.143319  0.146073  1
  Pt  Pt21  1  0.143319  0.143319  0.567290  1
  Pt  Pt22  1  0.141665  0.570218  0.144059  1
  Pt  Pt23  1  0.570218  0.141665  0.144059  1
