# generated using pymatgen
data_Ac2NdMg3Tl2Zn
_symmetry_space_group_name_H-M   'P 1'
_cell_length_a   7.87051270
_cell_length_b   7.87051258
_cell_length_c   4.88343200
_cell_angle_alpha   90.00000000
_cell_angle_beta   90.00000000
_cell_angle_gamma   119.83933993
_symmetry_Int_Tables_number   1
_chemical_formula_structural   Ac2NdMg3Tl2Zn
_chemical_formula_sum   'Ac2 Nd1 Mg3 Tl2 Zn1'
_cell_volume   262.39927495
_cell_formula_units_Z   1
loop_
 _symmetry_equiv_pos_site_id
 _symmetry_equiv_pos_as_xyz
  1  'x, y, z'
loop_
 _atom_site_type_symbol
 _atom_site_label
 _atom_site_symmetry_multiplicity
 _atom_site_fract_x
 _atom_site_fract_y
 _atom_site_fract_z
 _atom_site_occupancy
  Ac  Ac0  1  0.586828  0.999148  0.000000  1
  Ac  Ac1  1  0.999148  0.586828  0.000000  1
  Nd  Nd2  1  0.409461  0.409461  0.000000  1
  Mg  Mg3  1  0.231482  0.004686  0.500000  1
  Mg  Mg4  1  0.004686  0.231482  0.500000  1
  Mg  Mg5  1  0.768089  0.768089  0.500000  1
  Tl  Tl6  1  0.336954  0.655292  0.500000  1
  Tl  Tl7  1  0.655292  0.336954  0.500000  1
  Zn  Zn8  1  0.008060  0.008060  0.000000  1
