# generated using pymatgen
data_Dy2HoAgPtRh3O14
_symmetry_space_group_name_H-M   'P 1'
_cell_length_a   7.32566883
_cell_length_b   7.32192278
_cell_length_c   7.13413853
_cell_angle_alpha   59.11416038
_cell_angle_beta   59.10785090
_cell_angle_gamma   59.98307230
_symmetry_Int_Tables_number   1
_chemical_formula_structural   Dy2HoAgPtRh3O14
_chemical_formula_sum   'Dy2 Ho1 Ag1 Pt1 Rh3 O14'
_cell_volume   266.85579270
_cell_formula_units_Z   1
loop_
 _symmetry_equiv_pos_site_id
 _symmetry_equiv_pos_as_xyz
  1  'x, y, z'
loop_
 _atom_site_type_symbol
 _atom_site_label
 _atom_site_symmetry_multiplicity
 _atom_site_fract_x
 _atom_site_fract_y
 _atom_site_fract_z
 _atom_site_occupancy
  Dy  Dy0  1  0.625000  0.125000  0.125000  1
  Dy  Dy1  1  0.125000  0.125000  0.125000  1
  Ho  Ho2  1  0.125000  0.625000  0.125000  1
  Ag  Ag3  1  0.125000  0.125000  0.625000  1
  Pt  Pt4  1  0.625000  0.625000  0.125000  1
  Rh  Rh5  1  0.625000  0.625000  0.625000  1
  Rh  Rh6  1  0.125000  0.625000  0.625000  1
  Rh  Rh7  1  0.625000  0.125000  0.625000  1
  O  O8  1  0.298679  0.692899  0.709744  1
  O  O9  1  0.532925  0.963927  0.970224  1
  O  O10  1  0.693763  0.298880  0.708450  1
  O  O11  1  0.298909  0.298880  0.708450  1
  O  O12  1  0.717793  0.716346  0.279753  1
  O  O13  1  0.003817  0.001723  0.990644  1
  O  O14  1  0.286107  0.716346  0.279753  1
  O  O15  1  0.963893  0.533654  0.970247  1
  O  O16  1  0.951091  0.951120  0.541550  1
  O  O17  1  0.532207  0.533654  0.970247  1
  O  O18  1  0.246183  0.248277  0.259356  1
  O  O19  1  0.556237  0.951120  0.541550  1
  O  O20  1  0.717075  0.286073  0.279776  1
  O  O21  1  0.951321  0.557101  0.540256  1
