# generated using pymatgen
data_Si2TcNi6Mo2W
_symmetry_space_group_name_H-M   'P 1'
_cell_length_a   4.73939800
_cell_length_b   4.73939658
_cell_length_c   7.48662200
_cell_angle_alpha   90.00000000
_cell_angle_beta   90.00000000
_cell_angle_gamma   119.99999598
_symmetry_Int_Tables_number   1
_chemical_formula_structural   Si2TcNi6Mo2W
_chemical_formula_sum   'Si2 Tc1 Ni6 Mo2 W1'
_cell_volume   145.63400294
_cell_formula_units_Z   1
loop_
 _symmetry_equiv_pos_site_id
 _symmetry_equiv_pos_as_xyz
  1  'x, y, z'
loop_
 _atom_site_type_symbol
 _atom_site_label
 _atom_site_symmetry_multiplicity
 _atom_site_fract_x
 _atom_site_fract_y
 _atom_site_fract_z
 _atom_site_occupancy
  Si  Si0  1  0.000000  0.000000  0.498544  1
  Si  Si1  1  0.000000  0.000000  0.998404  1
  Tc  Tc2  1  0.333333  0.666667  0.437636  1
  Ni  Ni3  1  0.830676  0.169324  0.250289  1
  Ni  Ni4  1  0.830676  0.661354  0.250289  1
  Ni  Ni5  1  0.338646  0.169324  0.250289  1
  Ni  Ni6  1  0.169513  0.830487  0.748665  1
  Ni  Ni7  1  0.169513  0.339024  0.748665  1
  Ni  Ni8  1  0.660976  0.830487  0.748665  1
  Mo  Mo9  1  0.666667  0.333333  0.935402  1
  Mo  Mo10  1  0.333333  0.666667  0.069480  1
  W  W11  1  0.666667  0.333333  0.563673  1
