# generated using pymatgen
data_Lu12Ni2IrI16
_symmetry_space_group_name_H-M   'P 1'
_cell_length_a   9.58890311
_cell_length_b   12.25541547
_cell_length_c   12.95025400
_cell_angle_alpha   117.42144184
_cell_angle_beta   101.36679937
_cell_angle_gamma   100.90480671
_symmetry_Int_Tables_number   1
_chemical_formula_structural   Lu12Ni2IrI16
_chemical_formula_sum   'Lu12 Ni2 Ir1 I16'
_cell_volume   1253.97734202
_cell_formula_units_Z   1
loop_
 _symmetry_equiv_pos_site_id
 _symmetry_equiv_pos_as_xyz
  1  'x, y, z'
loop_
 _atom_site_type_symbol
 _atom_site_label
 _atom_site_symmetry_multiplicity
 _atom_site_fract_x
 _atom_site_fract_y
 _atom_site_fract_z
 _atom_site_occupancy
  Lu  Lu0  1  0.085869  0.274430  0.361164  1
  Lu  Lu1  1  0.914131  0.725570  0.638836  1
  Lu  Lu2  1  0.785866  0.534270  0.333028  1
  Lu  Lu3  1  0.214134  0.465730  0.666972  1
  Lu  Lu4  1  0.269962  0.726350  0.638617  1
  Lu  Lu5  1  0.730038  0.273650  0.361383  1
  Lu  Lu6  1  0.141418  0.534932  0.333109  1
  Lu  Lu7  1  0.858582  0.465068  0.666891  1
  Lu  Lu8  1  0.409194  0.363609  0.282255  1
  Lu  Lu9  1  0.590806  0.636391  0.717745  1
  Lu  Lu10  1  0.460114  0.315254  0.519851  1
  Lu  Lu11  1  0.539886  0.684746  0.480149  1
  Ni  Ni12  1  0.339633  0.500318  0.499643  1
  Ni  Ni13  1  0.660368  0.499682  0.500357  1
  Ir  Ir14  1  0.000000  0.500000  0.500000  1
  I  I15  1  0.396250  0.742808  0.886541  1
  I  I16  1  0.603750  0.257192  0.113459  1
  I  I17  1  0.188908  0.967487  0.785013  1
  I  I18  1  0.811092  0.032513  0.214987  1
  I  I19  1  0.336820  0.093707  0.250085  1
  I  I20  1  0.663180  0.906293  0.749915  1
  I  I21  1  0.560625  0.438270  0.800033  1
  I  I22  1  0.439375  0.561730  0.199967  1
  I  I23  1  0.308311  0.829615  0.463473  1
  I  I24  1  0.691689  0.170385  0.536527  1
  I  I25  1  0.166227  0.170508  0.534483  1
  I  I26  1  0.833773  0.829492  0.465517  1
  I  I27  1  0.925919  0.575359  0.158398  1
  I  I28  1  0.074081  0.424641  0.841602  1
  I  I29  1  0.925461  0.741550  0.886709  1
  I  I30  1  0.074539  0.258450  0.113291  1
