# generated using pymatgen
data_Dy12In2Fe2Ru
_symmetry_space_group_name_H-M   'P 1'
_cell_length_a   8.38956733
_cell_length_b   8.38956923
_cell_length_c   8.38956708
_cell_angle_alpha   108.69758468
_cell_angle_beta   108.69784505
_cell_angle_gamma   111.02956368
_symmetry_Int_Tables_number   1
_chemical_formula_structural   Dy12In2Fe2Ru
_chemical_formula_sum   'Dy12 In2 Fe2 Ru1'
_cell_volume   454.31294922
_cell_formula_units_Z   1
loop_
 _symmetry_equiv_pos_site_id
 _symmetry_equiv_pos_as_xyz
  1  'x, y, z'
loop_
 _atom_site_type_symbol
 _atom_site_label
 _atom_site_symmetry_multiplicity
 _atom_site_fract_x
 _atom_site_fract_y
 _atom_site_fract_z
 _atom_site_occupancy
  Dy  Dy0  1  0.431836  0.193133  0.238704  1
  Dy  Dy1  1  0.568164  0.806867  0.761296  1
  Dy  Dy2  1  0.954430  0.193133  0.761297  1
  Dy  Dy3  1  0.193133  0.954430  0.761296  1
  Dy  Dy4  1  0.045570  0.806867  0.238703  1
  Dy  Dy5  1  0.806867  0.045570  0.238704  1
  Dy  Dy6  1  0.193133  0.431836  0.238703  1
  Dy  Dy7  1  0.806867  0.568164  0.761297  1
  Dy  Dy8  1  0.306791  0.306791  0.613581  1
  Dy  Dy9  1  0.693209  0.693209  0.386419  1
  Dy  Dy10  1  0.306790  0.693209  0.000000  1
  Dy  Dy11  1  0.693210  0.306791  0.000000  1
  In  In12  1  0.500000  0.000000  0.500000  1
  In  In13  1  0.000000  0.500000  0.500000  1
  Fe  Fe14  1  0.386413  0.386414  0.000001  1
  Fe  Fe15  1  0.613587  0.613586  0.999999  1
  Ru  Ru16  1  0.000000  0.000000  0.000000  1
