# generated using pymatgen
data_SmY7(Sc3Sn4)4
_symmetry_space_group_name_H-M   'P 1'
_cell_length_a   7.70230539
_cell_length_b   7.96940355
_cell_length_c   14.85317800
_cell_angle_alpha   90.01307045
_cell_angle_beta   89.98186425
_cell_angle_gamma   90.01676998
_symmetry_Int_Tables_number   1
_chemical_formula_structural   SmY7(Sc3Sn4)4
_chemical_formula_sum   'Sm1 Y7 Sc12 Sn16'
_cell_volume   911.72924717
_cell_formula_units_Z   1
loop_
 _symmetry_equiv_pos_site_id
 _symmetry_equiv_pos_as_xyz
  1  'x, y, z'
loop_
 _atom_site_type_symbol
 _atom_site_label
 _atom_site_symmetry_multiplicity
 _atom_site_fract_x
 _atom_site_fract_y
 _atom_site_fract_z
 _atom_site_occupancy
  Sm  Sm0  1  0.994665  0.175906  0.093930  1
  Y  Y1  1  0.006734  0.822951  0.905315  1
  Y  Y2  1  0.507883  0.676519  0.905023  1
  Y  Y3  1  0.007402  0.823145  0.594117  1
  Y  Y4  1  0.492845  0.323745  0.094030  1
  Y  Y5  1  0.992022  0.176913  0.405486  1
  Y  Y6  1  0.492823  0.323343  0.407005  1
  Y  Y7  1  0.507056  0.677167  0.594108  1
  Sc  Sc8  1  0.166940  0.495669  0.749818  1
  Sc  Sc9  1  0.832807  0.504187  0.250265  1
  Sc  Sc10  1  0.332766  0.995050  0.250393  1
  Sc  Sc11  1  0.666771  0.004428  0.749722  1
  Sc  Sc12  1  0.338027  0.160774  0.627607  1
  Sc  Sc13  1  0.661556  0.839097  0.372781  1
  Sc  Sc14  1  0.161916  0.661244  0.373102  1
  Sc  Sc15  1  0.662156  0.838586  0.127795  1
  Sc  Sc16  1  0.838100  0.338864  0.627474  1
  Sc  Sc17  1  0.337840  0.161240  0.871992  1
  Sc  Sc18  1  0.837330  0.339649  0.872431  1
  Sc  Sc19  1  0.162198  0.660833  0.127396  1
  Sn  Sn20  1  0.028463  0.124899  0.750074  1
  Sn  Sn21  1  0.971126  0.874255  0.250216  1
  Sn  Sn22  1  0.471096  0.624760  0.250155  1
  Sn  Sn23  1  0.528698  0.375253  0.749708  1
  Sn  Sn24  1  0.308473  0.850081  0.749859  1
  Sn  Sn25  1  0.690039  0.149976  0.250687  1
  Sn  Sn26  1  0.192897  0.351235  0.251103  1
  Sn  Sn27  1  0.808699  0.650060  0.749796  1
  Sn  Sn28  1  0.180904  0.457127  0.542755  1
  Sn  Sn29  1  0.819167  0.542739  0.457513  1
  Sn  Sn30  1  0.318489  0.957673  0.457511  1
  Sn  Sn31  1  0.818677  0.543812  0.042266  1
  Sn  Sn32  1  0.681037  0.042551  0.542681  1
  Sn  Sn33  1  0.181509  0.458235  0.957049  1
  Sn  Sn34  1  0.678927  0.042128  0.956779  1
  Sn  Sn35  1  0.321963  0.955902  0.042056  1
