# generated using pymatgen
data_Lu2VCoB8
_symmetry_space_group_name_H-M   'P 1'
_cell_length_a   3.35984400
_cell_length_b   5.89929144
_cell_length_c   11.39545973
_cell_angle_alpha   90.10429269
_cell_angle_beta   90.00000000
_cell_angle_gamma   90.00000000
_symmetry_Int_Tables_number   1
_chemical_formula_structural   Lu2VCoB8
_chemical_formula_sum   'Lu4 V2 Co2 B16'
_cell_volume   225.86560243
_cell_formula_units_Z   2
loop_
 _symmetry_equiv_pos_site_id
 _symmetry_equiv_pos_as_xyz
  1  'x, y, z'
loop_
 _atom_site_type_symbol
 _atom_site_label
 _atom_site_symmetry_multiplicity
 _atom_site_fract_x
 _atom_site_fract_y
 _atom_site_fract_z
 _atom_site_occupancy
  Lu  Lu0  1  0.500000  0.371210  0.147978  1
  Lu  Lu1  1  0.500000  0.628790  0.852022  1
  Lu  Lu2  1  0.500000  0.125192  0.652667  1
  Lu  Lu3  1  0.500000  0.874808  0.347333  1
  V  V4  1  0.500000  0.371927  0.413445  1
  V  V5  1  0.500000  0.628073  0.586555  1
  Co  Co6  1  0.500000  0.136472  0.912340  1
  Co  Co7  1  0.500000  0.863528  0.087660  1
  B  B8  1  0.000000  0.112200  0.046564  1
  B  B9  1  0.000000  0.887800  0.953436  1
  B  B10  1  0.000000  0.383977  0.547824  1
  B  B11  1  0.000000  0.616023  0.452176  1
  B  B12  1  0.000000  0.132983  0.466872  1
  B  B13  1  0.000000  0.867017  0.533128  1
  B  B14  1  0.000000  0.362405  0.969403  1
  B  B15  1  0.000000  0.637595  0.030597  1
  B  B16  1  0.000000  0.020037  0.190233  1
  B  B17  1  0.000000  0.979963  0.809767  1
  B  B18  1  0.000000  0.474085  0.695840  1
  B  B19  1  0.000000  0.525915  0.304160  1
  B  B20  1  0.000000  0.210136  0.310960  1
  B  B21  1  0.000000  0.789864  0.689040  1
  B  B22  1  0.000000  0.282958  0.816951  1
  B  B23  1  0.000000  0.717042  0.183049  1
