# generated using pymatgen
data_Dy4Al18(CoPt)3
_symmetry_space_group_name_H-M   'P 1'
_cell_length_a   7.51174791
_cell_length_b   7.51174954
_cell_length_c   9.35893334
_cell_angle_alpha   90.14186635
_cell_angle_beta   90.14186259
_cell_angle_gamma   119.49583022
_symmetry_Int_Tables_number   1
_chemical_formula_structural   Dy4Al18(CoPt)3
_chemical_formula_sum   'Dy4 Al18 Co3 Pt3'
_cell_volume   459.64005635
_cell_formula_units_Z   1
loop_
 _symmetry_equiv_pos_site_id
 _symmetry_equiv_pos_as_xyz
  1  'x, y, z'
loop_
 _atom_site_type_symbol
 _atom_site_label
 _atom_site_symmetry_multiplicity
 _atom_site_fract_x
 _atom_site_fract_y
 _atom_site_fract_z
 _atom_site_occupancy
  Dy  Dy0  1  0.505920  0.828218  0.751244  1
  Dy  Dy1  1  0.494953  0.172237  0.249517  1
  Dy  Dy2  1  0.171782  0.494080  0.248756  1
  Dy  Dy3  1  0.827763  0.505047  0.750483  1
  Al  Al4  1  0.158707  0.948261  0.743834  1
  Al  Al5  1  0.841667  0.051632  0.241118  1
  Al  Al6  1  0.051739  0.841293  0.256166  1
  Al  Al7  1  0.948368  0.158333  0.758882  1
  Al  Al8  1  0.628157  0.627627  0.241652  1
  Al  Al9  1  0.372373  0.371843  0.758348  1
  Al  Al10  1  0.169579  0.175125  0.045519  1
  Al  Al11  1  0.840138  0.833545  0.551314  1
  Al  Al12  1  0.824875  0.830421  0.954481  1
  Al  Al13  1  0.166455  0.159862  0.448686  1
  Al  Al14  1  0.505334  0.835229  0.072618  1
  Al  Al15  1  0.490793  0.156081  0.575956  1
  Al  Al16  1  0.164771  0.494666  0.927382  1
  Al  Al17  1  0.843919  0.509207  0.424044  1
  Al  Al18  1  0.510770  0.171986  0.927594  1
  Al  Al19  1  0.489725  0.834957  0.423782  1
  Al  Al20  1  0.828014  0.489230  0.072406  1
  Al  Al21  1  0.165043  0.510275  0.576218  1
  Co  Co22  1  0.500336  0.499664  0.000000  1
  Co  Co23  1  0.829345  0.170655  0.000000  1
  Co  Co24  1  0.170344  0.829656  0.500000  1
  Pt  Pt25  1  0.172406  0.827594  0.000000  1
  Pt  Pt26  1  0.499428  0.500572  0.500000  1
  Pt  Pt27  1  0.827297  0.172703  0.500000  1
