# generated using pymatgen
data_Dy4HoCo16(P4Os)3
_symmetry_space_group_name_H-M   'P 1'
_cell_length_a   12.03153468
_cell_length_b   12.02453991
_cell_length_c   3.72352000
_cell_angle_alpha   90.00000000
_cell_angle_beta   90.00000000
_cell_angle_gamma   119.98077076
_symmetry_Int_Tables_number   1
_chemical_formula_structural   Dy4HoCo16(P4Os)3
_chemical_formula_sum   'Dy4 Ho1 Co16 P12 Os3'
_cell_volume   466.61418467
_cell_formula_units_Z   1
loop_
 _symmetry_equiv_pos_site_id
 _symmetry_equiv_pos_as_xyz
  1  'x, y, z'
loop_
 _atom_site_type_symbol
 _atom_site_label
 _atom_site_symmetry_multiplicity
 _atom_site_fract_x
 _atom_site_fract_y
 _atom_site_fract_z
 _atom_site_occupancy
  Dy  Dy0  1  0.666593  0.333317  0.000000  1
  Dy  Dy1  1  0.333407  0.666725  0.000000  1
  Dy  Dy2  1  0.815226  0.815251  0.500000  1
  Dy  Dy3  1  0.184774  0.000025  0.500000  1
  Ho  Ho4  1  0.000000  0.184813  0.500000  1
  Co  Co5  1  0.874526  0.359310  0.500000  1
  Co  Co6  1  0.640443  0.514980  0.500000  1
  Co  Co7  1  0.484937  0.125544  0.500000  1
  Co  Co8  1  0.359557  0.874537  0.500000  1
  Co  Co9  1  0.515063  0.640607  0.500000  1
  Co  Co10  1  0.125474  0.484784  0.500000  1
  Co  Co11  1  0.803793  0.180081  0.000000  1
  Co  Co12  1  0.819986  0.623335  0.000000  1
  Co  Co13  1  0.376379  0.196566  0.000000  1
  Co  Co14  1  0.180014  0.803349  0.000000  1
  Co  Co15  1  0.623621  0.820188  0.000000  1
  Co  Co16  1  0.196207  0.376290  0.000000  1
  Co  Co17  1  0.283244  0.283500  0.500000  1
  Co  Co18  1  0.716756  0.000256  0.500000  1
  Co  Co19  1  0.000000  0.716354  0.500000  1
  Co  Co20  1  0.000000  0.000183  0.000000  1
  P  P21  1  0.687860  0.166297  0.500000  1
  P  P22  1  0.833713  0.521498  0.500000  1
  P  P23  1  0.478197  0.312095  0.500000  1
  P  P24  1  0.166287  0.687785  0.500000  1
  P  P25  1  0.521803  0.833897  0.500000  1
  P  P26  1  0.312140  0.478437  0.500000  1
  P  P27  1  0.179129  0.179509  0.000000  1
  P  P28  1  0.820871  0.000381  0.000000  1
  P  P29  1  0.000000  0.820510  0.000000  1
  P  P30  1  0.637184  0.637172  0.000000  1
  P  P31  1  0.362816  0.999988  0.000000  1
  P  P32  1  0.000000  0.362454  0.000000  1
  Os  Os33  1  0.445852  0.446071  0.000000  1
  Os  Os34  1  0.554148  0.000219  0.000000  1
  Os  Os35  1  0.000000  0.553693  0.000000  1
