# generated using pymatgen
data_Na12V3CrS8(O4F)8
_symmetry_space_group_name_H-M   'P 1'
_cell_length_a   6.75612100
_cell_length_b   9.01049200
_cell_length_c   14.19045000
_cell_angle_alpha   90.00000000
_cell_angle_beta   90.00000000
_cell_angle_gamma   90.00000000
_symmetry_Int_Tables_number   1
_chemical_formula_structural   Na12V3CrS8(O4F)8
_chemical_formula_sum   'Na12 V3 Cr1 S8 O32 F8'
_cell_volume   863.85746839
_cell_formula_units_Z   1
loop_
 _symmetry_equiv_pos_site_id
 _symmetry_equiv_pos_as_xyz
  1  'x, y, z'
loop_
 _atom_site_type_symbol
 _atom_site_label
 _atom_site_symmetry_multiplicity
 _atom_site_fract_x
 _atom_site_fract_y
 _atom_site_fract_z
 _atom_site_occupancy
  Na  Na0  1  0.518411  0.668353  0.903657  1
  Na  Na1  1  0.018366  0.833564  0.596143  1
  Na  Na2  1  0.481634  0.166436  0.596143  1
  Na  Na3  1  0.981589  0.331647  0.903657  1
  Na  Na4  1  0.481393  0.332608  0.096453  1
  Na  Na5  1  0.981398  0.167119  0.404187  1
  Na  Na6  1  0.518602  0.832881  0.404187  1
  Na  Na7  1  0.018607  0.667392  0.096453  1
  Na  Na8  1  0.750000  0.000000  0.048215  1
  Na  Na9  1  0.250000  0.500000  0.450917  1
  Na  Na10  1  0.250000  0.000000  0.950833  1
  Na  Na11  1  0.750000  0.500000  0.548988  1
  V  V12  1  0.250000  0.500000  0.696962  1
  V  V13  1  0.250000  0.000000  0.197450  1
  V  V14  1  0.750000  0.500000  0.302463  1
  Cr  Cr15  1  0.750000  0.000000  0.803207  1
  S  S16  1  0.000788  0.695468  0.857458  1
  S  S17  1  0.503062  0.807391  0.643210  1
  S  S18  1  0.996938  0.192609  0.643210  1
  S  S19  1  0.499212  0.304532  0.857458  1
  S  S20  1  0.997839  0.306755  0.142501  1
  S  S21  1  0.497887  0.193195  0.357388  1
  S  S22  1  0.002113  0.806805  0.357388  1
  S  S23  1  0.502161  0.693245  0.142501  1
  O  O24  1  0.448879  0.441826  0.799457  1
  O  O25  1  0.946389  0.054335  0.699711  1
  O  O26  1  0.553611  0.945665  0.699711  1
  O  O27  1  0.051121  0.558174  0.799457  1
  O  O28  1  0.553229  0.554670  0.199436  1
  O  O29  1  0.053245  0.945306  0.300389  1
  O  O30  1  0.446755  0.054694  0.300389  1
  O  O31  1  0.946771  0.445330  0.199436  1
  O  O32  1  0.182962  0.767502  0.889577  1
  O  O33  1  0.684439  0.733829  0.610753  1
  O  O34  1  0.815561  0.266171  0.610753  1
  O  O35  1  0.317038  0.232498  0.889577  1
  O  O36  1  0.815919  0.234057  0.110238  1
  O  O37  1  0.315905  0.265884  0.389661  1
  O  O38  1  0.184095  0.734116  0.389661  1
  O  O39  1  0.684081  0.765943  0.110238  1
  O  O40  1  0.876274  0.644435  0.936393  1
  O  O41  1  0.378051  0.857363  0.563911  1
  O  O42  1  0.121949  0.142637  0.563911  1
  O  O43  1  0.623726  0.355565  0.936393  1
  O  O44  1  0.122360  0.357001  0.063144  1
  O  O45  1  0.622422  0.142924  0.436631  1
  O  O46  1  0.877578  0.857076  0.436631  1
  O  O47  1  0.377640  0.642999  0.063144  1
  O  O48  1  0.385910  0.708137  0.707687  1
  O  O49  1  0.882520  0.795471  0.793178  1
  O  O50  1  0.617480  0.204529  0.793178  1
  O  O51  1  0.114090  0.291863  0.707687  1
  O  O52  1  0.614704  0.291328  0.292554  1
  O  O53  1  0.114832  0.208769  0.207297  1
  O  O54  1  0.385168  0.791231  0.207297  1
  O  O55  1  0.885296  0.708672  0.292554  1
  F  F56  1  0.577037  0.929839  0.902460  1
  F  F57  1  0.076226  0.571092  0.597180  1
  F  F58  1  0.423774  0.428908  0.597180  1
  F  F59  1  0.922963  0.070161  0.902460  1
  F  F60  1  0.423760  0.070763  0.097254  1
  F  F61  1  0.923962  0.429230  0.402576  1
  F  F62  1  0.576038  0.570770  0.402576  1
  F  F63  1  0.076240  0.929237  0.097254  1
