# generated using pymatgen
data_Dy3Er5In3Pt
_symmetry_space_group_name_H-M   'P 1'
_cell_length_a   10.44795700
_cell_length_b   10.44795659
_cell_length_c   7.01529100
_cell_angle_alpha   90.00000000
_cell_angle_beta   90.00000000
_cell_angle_gamma   119.99999812
_symmetry_Int_Tables_number   1
_chemical_formula_structural   Dy3Er5In3Pt
_chemical_formula_sum   'Dy6 Er10 In6 Pt2'
_cell_volume   663.19167632
_cell_formula_units_Z   2
loop_
 _symmetry_equiv_pos_site_id
 _symmetry_equiv_pos_as_xyz
  1  'x, y, z'
loop_
 _atom_site_type_symbol
 _atom_site_label
 _atom_site_symmetry_multiplicity
 _atom_site_fract_x
 _atom_site_fract_y
 _atom_site_fract_z
 _atom_site_occupancy
  Dy  Dy0  1  0.531933  0.063865  0.795376  1
  Dy  Dy1  1  0.936135  0.468067  0.795376  1
  Dy  Dy2  1  0.531933  0.468067  0.795376  1
  Dy  Dy3  1  0.468067  0.936135  0.295376  1
  Dy  Dy4  1  0.063865  0.531933  0.295376  1
  Dy  Dy5  1  0.468067  0.531933  0.295376  1
  Er  Er6  1  0.824715  0.649432  0.499206  1
  Er  Er7  1  0.350568  0.175285  0.499206  1
  Er  Er8  1  0.824715  0.175285  0.499206  1
  Er  Er9  1  0.175285  0.350568  0.999206  1
  Er  Er10  1  0.649432  0.824715  0.999206  1
  Er  Er11  1  0.175285  0.824715  0.999206  1
  Er  Er12  1  0.666667  0.333333  0.172819  1
  Er  Er13  1  0.333333  0.666667  0.672819  1
  Er  Er14  1  0.000000  0.000000  0.776788  1
  Er  Er15  1  0.000000  0.000000  0.276788  1
  In  In16  1  0.837437  0.674874  0.039395  1
  In  In17  1  0.325126  0.162563  0.039395  1
  In  In18  1  0.837437  0.162563  0.039395  1
  In  In19  1  0.162563  0.325126  0.539395  1
  In  In20  1  0.674874  0.837437  0.539395  1
  In  In21  1  0.162563  0.837437  0.539395  1
  Pt  Pt22  1  0.666667  0.333333  0.566412  1
  Pt  Pt23  1  0.333333  0.666667  0.066412  1
