# generated using pymatgen
data_Tb3S4
_symmetry_space_group_name_H-M   'P 1'
_cell_length_a   3.95338101
_cell_length_b   8.66315241
_cell_length_c   6.80015945
_cell_angle_alpha   128.34091830
_cell_angle_beta   73.16086509
_cell_angle_gamma   103.07446395
_symmetry_Int_Tables_number   1
_chemical_formula_structural   Tb3S4
_chemical_formula_sum   'Tb3 S4'
_cell_volume   174.50042812
_cell_formula_units_Z   1
loop_
 _symmetry_equiv_pos_site_id
 _symmetry_equiv_pos_as_xyz
  1  'x, y, z'
loop_
 _atom_site_type_symbol
 _atom_site_label
 _atom_site_symmetry_multiplicity
 _atom_site_fract_x
 _atom_site_fract_y
 _atom_site_fract_z
 _atom_site_occupancy
  Tb  Tb0  1  0.165716  0.317884  0.925092  1
  Tb  Tb1  1  0.404399  0.057869  0.188165  1
  Tb  Tb2  1  0.925276  0.577469  0.662262  1
  S  S3  1  0.297945  0.676738  0.016452  1
  S  S4  1  0.031185  0.958663  0.834496  1
  S  S5  1  0.790316  0.201006  0.559012  1
  S  S6  1  0.540403  0.433657  0.290641  1
