# generated using pymatgen
data_DyTm11Si11Ni
_symmetry_space_group_name_H-M   'P 1'
_cell_length_a   3.81509200
_cell_length_b   5.62781670
_cell_length_c   23.39438800
_cell_angle_alpha   82.68222572
_cell_angle_beta   90.00000000
_cell_angle_gamma   90.00000000
_symmetry_Int_Tables_number   1
_chemical_formula_structural   DyTm11Si11Ni
_chemical_formula_sum   'Dy1 Tm11 Si11 Ni1'
_cell_volume   498.20126312
_cell_formula_units_Z   1
loop_
 _symmetry_equiv_pos_site_id
 _symmetry_equiv_pos_as_xyz
  1  'x, y, z'
loop_
 _atom_site_type_symbol
 _atom_site_label
 _atom_site_symmetry_multiplicity
 _atom_site_fract_x
 _atom_site_fract_y
 _atom_site_fract_z
 _atom_site_occupancy
  Dy  Dy0  1  0.750000  0.171003  0.893560  1
  Tm  Tm1  1  0.750000  0.357137  0.066550  1
  Tm  Tm2  1  0.250000  0.662140  0.940549  1
  Tm  Tm3  1  0.750000  0.521522  0.221302  1
  Tm  Tm4  1  0.250000  0.468690  0.772968  1
  Tm  Tm5  1  0.750000  0.168349  0.392583  1
  Tm  Tm6  1  0.250000  0.826023  0.606167  1
  Tm  Tm7  1  0.750000  0.351395  0.558907  1
  Tm  Tm8  1  0.250000  0.643513  0.439315  1
  Tm  Tm9  1  0.750000  0.994195  0.725916  1
  Tm  Tm10  1  0.250000  0.995701  0.272843  1
  Tm  Tm11  1  0.250000  0.835029  0.109317  1
  Si  Si12  1  0.750000  0.873217  0.014537  1
  Si  Si13  1  0.250000  0.150658  0.989916  1
  Si  Si14  1  0.750000  0.052512  0.179690  1
  Si  Si15  1  0.250000  0.958339  0.820237  1
  Si  Si16  1  0.750000  0.706171  0.345337  1
  Si  Si17  1  0.250000  0.285955  0.652947  1
  Si  Si18  1  0.750000  0.859541  0.511862  1
  Si  Si19  1  0.250000  0.135589  0.486363  1
  Si  Si20  1  0.750000  0.534508  0.678926  1
  Si  Si21  1  0.250000  0.459890  0.318491  1
  Si  Si22  1  0.750000  0.681264  0.845609  1
  Ni  Ni23  1  0.250000  0.307661  0.156105  1
