# generated using pymatgen
data_SrLi2Ca(NiGe)4
_symmetry_space_group_name_H-M   'P 1'
_cell_length_a   4.10469400
_cell_length_b   4.10469426
_cell_length_c   14.08119300
_cell_angle_alpha   90.00000000
_cell_angle_beta   90.00000000
_cell_angle_gamma   120.00001403
_symmetry_Int_Tables_number   1
_chemical_formula_structural   SrLi2Ca(NiGe)4
_chemical_formula_sum   'Sr1 Li2 Ca1 Ni4 Ge4'
_cell_volume   205.46205227
_cell_formula_units_Z   1
loop_
 _symmetry_equiv_pos_site_id
 _symmetry_equiv_pos_as_xyz
  1  'x, y, z'
loop_
 _atom_site_type_symbol
 _atom_site_label
 _atom_site_symmetry_multiplicity
 _atom_site_fract_x
 _atom_site_fract_y
 _atom_site_fract_z
 _atom_site_occupancy
  Sr  Sr0  1  0.000000  0.000000  0.250000  1
  Li  Li1  1  0.000000  0.000000  0.504060  1
  Li  Li2  1  0.000000  0.000000  0.995940  1
  Ca  Ca3  1  0.000000  0.000000  0.750000  1
  Ni  Ni4  1  0.333333  0.666667  0.438912  1
  Ni  Ni5  1  0.666667  0.333333  0.928117  1
  Ni  Ni6  1  0.333333  0.666667  0.061088  1
  Ni  Ni7  1  0.666667  0.333333  0.571883  1
  Ge  Ge8  1  0.333333  0.666667  0.606981  1
  Ge  Ge9  1  0.666667  0.333333  0.403885  1
  Ge  Ge10  1  0.666667  0.333333  0.096115  1
  Ge  Ge11  1  0.333333  0.666667  0.893019  1
