# generated using pymatgen
data_Zr10ZnPb7
_symmetry_space_group_name_H-M   'P 1'
_cell_length_a   8.89647300
_cell_length_b   8.89647171
_cell_length_c   6.05446600
_cell_angle_alpha   90.00000000
_cell_angle_beta   90.00000000
_cell_angle_gamma   119.99999364
_symmetry_Int_Tables_number   1
_chemical_formula_structural   Zr10ZnPb7
_chemical_formula_sum   'Zr10 Zn1 Pb7'
_cell_volume   414.99433797
_cell_formula_units_Z   1
loop_
 _symmetry_equiv_pos_site_id
 _symmetry_equiv_pos_as_xyz
  1  'x, y, z'
loop_
 _atom_site_type_symbol
 _atom_site_label
 _atom_site_symmetry_multiplicity
 _atom_site_fract_x
 _atom_site_fract_y
 _atom_site_fract_z
 _atom_site_occupancy
  Zr  Zr0  1  0.666666  0.333333  0.000000  1
  Zr  Zr1  1  0.333333  0.666666  0.000000  1
  Zr  Zr2  1  0.272939  0.000000  0.235232  1
  Zr  Zr3  1  0.000000  0.272939  0.235232  1
  Zr  Zr4  1  0.727061  0.727061  0.235232  1
  Zr  Zr5  1  0.666666  0.333333  0.500000  1
  Zr  Zr6  1  0.333333  0.666666  0.500000  1
  Zr  Zr7  1  0.727062  0.000000  0.764769  1
  Zr  Zr8  1  0.272938  0.272939  0.764769  1
  Zr  Zr9  1  0.000000  0.727061  0.764769  1
  Zn  Zn10  1  0.000000  0.000000  0.000000  1
  Pb  Pb11  1  0.614920  0.000000  0.253991  1
  Pb  Pb12  1  0.385080  0.385081  0.253991  1
  Pb  Pb13  1  0.000000  0.614920  0.253991  1
  Pb  Pb14  1  0.000000  0.000000  0.500000  1
  Pb  Pb15  1  0.385081  0.000000  0.746010  1
  Pb  Pb16  1  0.000000  0.385081  0.746010  1
  Pb  Pb17  1  0.614920  0.614920  0.746010  1
