# generated using pymatgen
data_Eu5Sb3H
_symmetry_space_group_name_H-M   'P 1'
_cell_length_a   9.31780200
_cell_length_b   9.31780129
_cell_length_c   6.88630800
_cell_angle_alpha   90.00000000
_cell_angle_beta   90.00000000
_cell_angle_gamma   119.99999541
_symmetry_Int_Tables_number   1
_chemical_formula_structural   Eu5Sb3H
_chemical_formula_sum   'Eu10 Sb6 H2'
_cell_volume   517.77850506
_cell_formula_units_Z   2
loop_
 _symmetry_equiv_pos_site_id
 _symmetry_equiv_pos_as_xyz
  1  'x, y, z'
loop_
 _atom_site_type_symbol
 _atom_site_label
 _atom_site_symmetry_multiplicity
 _atom_site_fract_x
 _atom_site_fract_y
 _atom_site_fract_z
 _atom_site_occupancy
  Eu  Eu0  1  0.754995  0.754995  0.250000  1
  Eu  Eu1  1  0.754995  0.000000  0.750000  1
  Eu  Eu2  1  0.000000  0.245005  0.250000  1
  Eu  Eu3  1  0.000000  0.754995  0.750000  1
  Eu  Eu4  1  0.245005  0.245005  0.750000  1
  Eu  Eu5  1  0.245005  0.000000  0.250000  1
  Eu  Eu6  1  0.333333  0.666667  0.500000  1
  Eu  Eu7  1  0.666667  0.333333  0.000000  1
  Eu  Eu8  1  0.666667  0.333333  0.500000  1
  Eu  Eu9  1  0.333333  0.666667  0.000000  1
  Sb  Sb10  1  0.391078  0.000000  0.750000  1
  Sb  Sb11  1  0.391078  0.391078  0.250000  1
  Sb  Sb12  1  0.000000  0.608922  0.250000  1
  Sb  Sb13  1  0.000000  0.391078  0.750000  1
  Sb  Sb14  1  0.608922  0.608922  0.750000  1
  Sb  Sb15  1  0.608922  0.000000  0.250000  1
  H  H16  1  0.000000  0.000000  0.500000  1
  H  H17  1  0.000000  0.000000  0.000000  1
