# generated using pymatgen
data_K2AlCrF7
_symmetry_space_group_name_H-M   'P 1'
_cell_length_a   7.72377101
_cell_length_b   7.72377199
_cell_length_c   7.72377192
_cell_angle_alpha   122.18101573
_cell_angle_beta   116.80051907
_cell_angle_gamma   90.94649333
_symmetry_Int_Tables_number   1
_chemical_formula_structural   K2AlCrF7
_chemical_formula_sum   'K4 Al2 Cr2 F14'
_cell_volume   327.38894486
_cell_formula_units_Z   2
loop_
 _symmetry_equiv_pos_site_id
 _symmetry_equiv_pos_as_xyz
  1  'x, y, z'
loop_
 _atom_site_type_symbol
 _atom_site_label
 _atom_site_symmetry_multiplicity
 _atom_site_fract_x
 _atom_site_fract_y
 _atom_site_fract_z
 _atom_site_occupancy
  K  K0  1  0.000000  0.000000  0.000000  1
  K  K1  1  0.500000  0.500000  0.000000  1
  K  K2  1  0.500000  0.000000  0.000000  1
  K  K3  1  0.500000  0.500000  0.500000  1
  Al  Al4  1  0.500000  0.000000  0.500000  1
  Al  Al5  1  0.000000  0.500000  0.500000  1
  Cr  Cr6  1  0.000000  0.000000  0.500000  1
  Cr  Cr7  1  0.000000  0.500000  0.000000  1
  F  F8  1  0.378586  0.078697  0.299890  1
  F  F9  1  0.721193  0.421303  0.299890  1
  F  F10  1  0.676520  0.284982  0.745941  1
  F  F11  1  0.960958  0.215018  0.391539  1
  F  F12  1  0.960958  0.569420  0.745941  1
  F  F13  1  0.676520  0.930580  0.391539  1
  F  F14  1  0.323480  0.069420  0.608461  1
  F  F15  1  0.039042  0.430580  0.254059  1
  F  F16  1  0.039042  0.784982  0.608461  1
  F  F17  1  0.323480  0.715018  0.254059  1
  F  F18  1  0.896462  0.750000  0.146462  1
  F  F19  1  0.621414  0.921303  0.700110  1
  F  F20  1  0.278807  0.578697  0.700110  1
  F  F21  1  0.103538  0.250000  0.853538  1
