# generated using pymatgen
data_Th2Ni2Bi
_symmetry_space_group_name_H-M   'P 1'
_cell_length_a   7.49568358
_cell_length_b   7.49568364
_cell_length_c   3.66252700
_cell_angle_alpha   90.00000000
_cell_angle_beta   90.00000000
_cell_angle_gamma   146.20018021
_symmetry_Int_Tables_number   1
_chemical_formula_structural   Th2Ni2Bi
_chemical_formula_sum   'Th2 Ni2 Bi1'
_cell_volume   114.47401763
_cell_formula_units_Z   1
loop_
 _symmetry_equiv_pos_site_id
 _symmetry_equiv_pos_as_xyz
  1  'x, y, z'
loop_
 _atom_site_type_symbol
 _atom_site_label
 _atom_site_symmetry_multiplicity
 _atom_site_fract_x
 _atom_site_fract_y
 _atom_site_fract_z
 _atom_site_occupancy
  Th  Th0  1  0.357290  0.642710  0.500000  1
  Th  Th1  1  0.642710  0.357290  0.500000  1
  Ni  Ni2  1  0.798271  0.201729  0.000000  1
  Ni  Ni3  1  0.201729  0.798271  0.000000  1
  Bi  Bi4  1  0.000000  0.000000  0.000000  1
