# generated using pymatgen
data_Sm2Al16RePt8
_symmetry_space_group_name_H-M   'P 1'
_cell_length_a   11.15456873
_cell_length_b   11.15456873
_cell_length_c   11.15456900
_cell_angle_alpha   158.48023746
_cell_angle_beta   116.95067955
_cell_angle_gamma   67.44845544
_symmetry_Int_Tables_number   1
_chemical_formula_structural   Sm2Al16RePt8
_chemical_formula_sum   'Sm2 Al16 Re1 Pt8'
_cell_volume   450.72775741
_cell_formula_units_Z   1
loop_
 _symmetry_equiv_pos_site_id
 _symmetry_equiv_pos_as_xyz
  1  'x, y, z'
loop_
 _atom_site_type_symbol
 _atom_site_label
 _atom_site_symmetry_multiplicity
 _atom_site_fract_x
 _atom_site_fract_y
 _atom_site_fract_z
 _atom_site_occupancy
  Sm  Sm0  1  0.231064  0.231140  0.999924  1
  Sm  Sm1  1  0.768785  0.768860  0.999924  1
  Al  Al2  1  0.274639  0.391690  0.882949  1
  Al  Al3  1  0.088902  0.923841  0.165061  1
  Al  Al4  1  0.505391  0.200428  0.304964  1
  Al  Al5  1  0.241220  0.076159  0.165061  1
  Al  Al6  1  0.907441  0.415716  0.491724  1
  Al  Al7  1  0.724829  0.599517  0.125312  1
  Al  Al8  1  0.901221  0.209308  0.691913  1
  Al  Al9  1  0.482606  0.790692  0.691913  1
  Al  Al10  1  0.388689  0.000000  0.388689  1
  Al  Al11  1  0.628731  0.000000  0.628731  1
  Al  Al12  1  0.491258  0.608310  0.882949  1
  Al  Al13  1  0.104535  0.799572  0.304964  1
  Al  Al14  1  0.908579  0.087320  0.821260  1
  Al  Al15  1  0.733940  0.912680  0.821260  1
  Al  Al16  1  0.525795  0.400483  0.125312  1
  Al  Al17  1  0.076008  0.584284  0.491724  1
  Re  Re18  1  0.785245  0.500000  0.285245  1
  Pt  Pt19  1  0.024982  0.343675  0.681306  1
  Pt  Pt20  1  0.628276  0.125013  0.503263  1
  Pt  Pt21  1  0.252702  0.500000  0.752702  1
  Pt  Pt22  1  0.378250  0.874987  0.503263  1
  Pt  Pt23  1  0.983925  0.000000  0.983925  1
  Pt  Pt24  1  0.646904  0.334224  0.312679  1
  Pt  Pt25  1  0.337630  0.656325  0.681306  1
  Pt  Pt26  1  0.978455  0.665776  0.312679  1
