# generated using pymatgen
data_Tb2ErCo8P6Os
_symmetry_space_group_name_H-M   'P 1'
_cell_length_a   3.72511200
_cell_length_b   10.51068400
_cell_length_c   12.27207200
_cell_angle_alpha   90.00000000
_cell_angle_beta   90.00000000
_cell_angle_gamma   90.00000000
_symmetry_Int_Tables_number   1
_chemical_formula_structural   Tb2ErCo8P6Os
_chemical_formula_sum   'Tb4 Er2 Co16 P12 Os2'
_cell_volume   480.49426544
_cell_formula_units_Z   2
loop_
 _symmetry_equiv_pos_site_id
 _symmetry_equiv_pos_as_xyz
  1  'x, y, z'
loop_
 _atom_site_type_symbol
 _atom_site_label
 _atom_site_symmetry_multiplicity
 _atom_site_fract_x
 _atom_site_fract_y
 _atom_site_fract_z
 _atom_site_occupancy
  Tb  Tb0  1  0.000000  0.500000  0.524005  1
  Tb  Tb1  1  0.500000  0.000000  0.474941  1
  Tb  Tb2  1  0.000000  0.683178  0.793254  1
  Tb  Tb3  1  0.000000  0.316822  0.793254  1
  Er  Er4  1  0.500000  0.817249  0.206937  1
  Er  Er5  1  0.500000  0.182751  0.206937  1
  Co  Co6  1  0.500000  0.500000  0.703957  1
  Co  Co7  1  0.000000  0.000000  0.295630  1
  Co  Co8  1  0.000000  0.500000  0.988014  1
  Co  Co9  1  0.500000  0.000000  0.014212  1
  Co  Co10  1  0.500000  0.332246  0.990894  1
  Co  Co11  1  0.500000  0.667754  0.990894  1
  Co  Co12  1  0.000000  0.166908  0.011236  1
  Co  Co13  1  0.000000  0.833092  0.011236  1
  Co  Co14  1  0.500000  0.297130  0.429883  1
  Co  Co15  1  0.500000  0.702870  0.429883  1
  Co  Co16  1  0.000000  0.202666  0.568226  1
  Co  Co17  1  0.000000  0.797334  0.568226  1
  Co  Co18  1  0.500000  0.879889  0.708512  1
  Co  Co19  1  0.500000  0.120111  0.708512  1
  Co  Co20  1  0.000000  0.620880  0.290567  1
  Co  Co21  1  0.000000  0.379120  0.290567  1
  P  P22  1  0.500000  0.500000  0.882110  1
  P  P23  1  0.000000  0.000000  0.119820  1
  P  P24  1  0.500000  0.500000  0.349556  1
  P  P25  1  0.000000  0.000000  0.650074  1
  P  P26  1  0.500000  0.310900  0.615279  1
  P  P27  1  0.500000  0.689100  0.615279  1
  P  P28  1  0.000000  0.188643  0.382664  1
  P  P29  1  0.000000  0.811357  0.382664  1
  P  P30  1  0.500000  0.847382  0.893788  1
  P  P31  1  0.500000  0.152618  0.893788  1
  P  P32  1  0.000000  0.654032  0.107490  1
  P  P33  1  0.000000  0.345968  0.107490  1
  Os  Os34  1  0.500000  0.500000  0.158811  1
  Os  Os35  1  0.000000  0.000000  0.841411  1
