# generated using pymatgen
data_PaGaI6
_symmetry_space_group_name_H-M   'P 1'
_cell_length_a   8.65122888
_cell_length_b   8.65122876
_cell_length_c   8.65123044
_cell_angle_alpha   55.50086551
_cell_angle_beta   55.50086423
_cell_angle_gamma   55.50086039
_symmetry_Int_Tables_number   1
_chemical_formula_structural   PaGaI6
_chemical_formula_sum   'Pa1 Ga1 I6'
_cell_volume   410.01783749
_cell_formula_units_Z   1
loop_
 _symmetry_equiv_pos_site_id
 _symmetry_equiv_pos_as_xyz
  1  'x, y, z'
loop_
 _atom_site_type_symbol
 _atom_site_label
 _atom_site_symmetry_multiplicity
 _atom_site_fract_x
 _atom_site_fract_y
 _atom_site_fract_z
 _atom_site_occupancy
  Pa  Pa0  1  0.333534  0.333534  0.333534  1
  Ga  Ga1  1  0.666176  0.666176  0.666176  1
  I  I2  1  0.706088  0.421737  0.105349  1
  I  I3  1  0.551616  0.951099  0.264403  1
  I  I4  1  0.105348  0.706088  0.421736  1
  I  I5  1  0.951099  0.264402  0.551616  1
  I  I6  1  0.421737  0.105348  0.706088  1
  I  I7  1  0.264403  0.551616  0.951098  1
