# generated using pymatgen
data_BaCo12AgO24
_symmetry_space_group_name_H-M   'P 1'
_cell_length_a   7.92804153
_cell_length_b   7.92804202
_cell_length_c   8.03988075
_cell_angle_alpha   108.44024379
_cell_angle_beta   105.38863333
_cell_angle_gamma   114.21199379
_symmetry_Int_Tables_number   1
_chemical_formula_structural   BaCo12AgO24
_chemical_formula_sum   'Ba1 Co12 Ag1 O24'
_cell_volume   388.97311670
_cell_formula_units_Z   1
loop_
 _symmetry_equiv_pos_site_id
 _symmetry_equiv_pos_as_xyz
  1  'x, y, z'
loop_
 _atom_site_type_symbol
 _atom_site_label
 _atom_site_symmetry_multiplicity
 _atom_site_fract_x
 _atom_site_fract_y
 _atom_site_fract_z
 _atom_site_occupancy
  Ba  Ba0  1  0.663109  0.663109  0.000000  1
  Co  Co1  1  0.813412  0.997108  0.486281  1
  Co  Co2  1  0.473018  0.658496  0.474355  1
  Co  Co3  1  0.140171  0.325493  0.474387  1
  Co  Co4  1  0.851105  0.665784  0.525613  1
  Co  Co5  1  0.510827  0.327131  0.513719  1
  Co  Co6  1  0.184141  0.998662  0.525645  1
  Co  Co7  1  0.993502  0.480070  0.816191  1
  Co  Co8  1  0.660552  0.147538  0.816047  1
  Co  Co9  1  0.323647  0.819576  0.818627  1
  Co  Co10  1  0.663880  0.177313  0.183809  1
  Co  Co11  1  0.331491  0.844505  0.183953  1
  Co  Co12  1  0.000949  0.505020  0.181373  1
  Ag  Ag13  1  0.163140  0.163140  0.000000  1
  O  O14  1  0.679301  0.369958  0.389523  1
  O  O15  1  0.344505  0.034445  0.389971  1
  O  O16  1  0.010005  0.707158  0.392816  1
  O  O17  1  0.980434  0.289778  0.610477  1
  O  O18  1  0.644473  0.954534  0.610029  1
  O  O19  1  0.314343  0.617189  0.607184  1
  O  O20  1  0.952644  0.316481  0.281519  1
  O  O21  1  0.618656  0.978420  0.272122  1
  O  O22  1  0.289552  0.652904  0.281238  1
  O  O23  1  0.706296  0.346533  0.727878  1
  O  O24  1  0.371666  0.008314  0.718762  1
  O  O25  1  0.034961  0.671124  0.718481  1
  O  O26  1  0.704069  0.346251  0.055680  1
  O  O27  1  0.363747  0.017747  0.056914  1
  O  O28  1  0.034641  0.676308  0.055829  1
  O  O29  1  0.960833  0.306832  0.943086  1
  O  O30  1  0.620479  0.978812  0.944171  1
  O  O31  1  0.290571  0.648389  0.944320  1
  O  O32  1  0.010125  0.971825  0.657835  1
  O  O33  1  0.335754  0.299843  0.641329  1
  O  O34  1  0.665627  0.629827  0.641291  1
  O  O35  1  0.313990  0.352289  0.342165  1
  O  O36  1  0.658515  0.694425  0.358671  1
  O  O37  1  0.988536  0.024336  0.358709  1
