# generated using pymatgen
data_YbGdB12
_symmetry_space_group_name_H-M   'P 1'
_cell_length_a   5.81356527
_cell_length_b   5.81356539
_cell_length_c   5.81356500
_cell_angle_alpha   59.99999655
_cell_angle_beta   59.99999585
_cell_angle_gamma   59.99999464
_symmetry_Int_Tables_number   1
_chemical_formula_structural   YbGdB12
_chemical_formula_sum   'Yb1 Gd1 B12'
_cell_volume   138.93530118
_cell_formula_units_Z   1
loop_
 _symmetry_equiv_pos_site_id
 _symmetry_equiv_pos_as_xyz
  1  'x, y, z'
loop_
 _atom_site_type_symbol
 _atom_site_label
 _atom_site_symmetry_multiplicity
 _atom_site_fract_x
 _atom_site_fract_y
 _atom_site_fract_z
 _atom_site_occupancy
  Yb  Yb0  1  0.500000  0.500000  0.500000  1
  Gd  Gd1  1  0.000000  0.000000  0.000000  1
  B  B2  1  0.400121  0.099879  0.099879  1
  B  B3  1  0.900121  0.599879  0.599879  1
  B  B4  1  0.400121  0.400121  0.099879  1
  B  B5  1  0.900121  0.900121  0.599879  1
  B  B6  1  0.099879  0.400121  0.099879  1
  B  B7  1  0.599879  0.900121  0.599879  1
  B  B8  1  0.099879  0.099879  0.400121  1
  B  B9  1  0.599879  0.599879  0.900121  1
  B  B10  1  0.400121  0.099879  0.400121  1
  B  B11  1  0.900121  0.599879  0.900121  1
  B  B12  1  0.099879  0.400121  0.400121  1
  B  B13  1  0.599879  0.900121  0.900121  1
