# generated using pymatgen
data_Tb4TaNb(B2Ru5)2
_symmetry_space_group_name_H-M   'P 1'
_cell_length_a   9.69018500
_cell_length_b   9.69018500
_cell_length_c   3.13961100
_cell_angle_alpha   90.00000000
_cell_angle_beta   90.00000000
_cell_angle_gamma   90.00000000
_symmetry_Int_Tables_number   1
_chemical_formula_structural   Tb4TaNb(B2Ru5)2
_chemical_formula_sum   'Tb4 Ta1 Nb1 B4 Ru10'
_cell_volume   294.80848497
_cell_formula_units_Z   1
loop_
 _symmetry_equiv_pos_site_id
 _symmetry_equiv_pos_as_xyz
  1  'x, y, z'
loop_
 _atom_site_type_symbol
 _atom_site_label
 _atom_site_symmetry_multiplicity
 _atom_site_fract_x
 _atom_site_fract_y
 _atom_site_fract_z
 _atom_site_occupancy
  Tb  Tb0  1  0.825484  0.675286  0.000000  1
  Tb  Tb1  1  0.174516  0.324714  0.000000  1
  Tb  Tb2  1  0.324714  0.825484  0.000000  1
  Tb  Tb3  1  0.675286  0.174516  0.000000  1
  Ta  Ta4  1  0.000000  0.000000  0.000000  1
  Nb  Nb5  1  0.500000  0.500000  0.000000  1
  B  B6  1  0.620516  0.880083  0.000000  1
  B  B7  1  0.379484  0.119917  0.000000  1
  B  B8  1  0.119917  0.620516  0.000000  1
  B  B9  1  0.880083  0.379484  0.000000  1
  Ru  Ru10  1  0.571018  0.718488  0.500000  1
  Ru  Ru11  1  0.428982  0.281512  0.500000  1
  Ru  Ru12  1  0.071050  0.781481  0.500000  1
  Ru  Ru13  1  0.928950  0.218519  0.500000  1
  Ru  Ru14  1  0.281512  0.571018  0.500000  1
  Ru  Ru15  1  0.718488  0.428982  0.500000  1
  Ru  Ru16  1  0.218519  0.071050  0.500000  1
  Ru  Ru17  1  0.781481  0.928950  0.500000  1
  Ru  Ru18  1  0.500000  0.000000  0.500000  1
  Ru  Ru19  1  0.000000  0.500000  0.500000  1
