# generated using pymatgen
data_Pm2Ti2O7
_symmetry_space_group_name_H-M   'P 1'
_cell_length_a   5.24911691
_cell_length_b   5.97545113
_cell_length_c   5.97545080
_cell_angle_alpha   105.88585877
_cell_angle_beta   96.98735908
_cell_angle_gamma   96.98736578
_symmetry_Int_Tables_number   1
_chemical_formula_structural   Pm2Ti2O7
_chemical_formula_sum   'Pm2 Ti2 O7'
_cell_volume   176.55570213
_cell_formula_units_Z   1
loop_
 _symmetry_equiv_pos_site_id
 _symmetry_equiv_pos_as_xyz
  1  'x, y, z'
loop_
 _atom_site_type_symbol
 _atom_site_label
 _atom_site_symmetry_multiplicity
 _atom_site_fract_x
 _atom_site_fract_y
 _atom_site_fract_z
 _atom_site_occupancy
  Pm  Pm0  1  0.000000  0.694383  0.305616  1
  Pm  Pm1  1  0.000000  0.305616  0.694383  1
  Ti  Ti2  1  0.410445  0.234673  0.234673  1
  Ti  Ti3  1  0.589554  0.765329  0.765329  1
  O  O4  1  0.499999  0.000000  0.000000  1
  O  O5  1  0.214378  0.398472  0.081043  1
  O  O6  1  0.723401  0.405562  0.405562  1
  O  O7  1  0.214378  0.081043  0.398472  1
  O  O8  1  0.785625  0.918960  0.601530  1
  O  O9  1  0.276598  0.594437  0.594437  1
  O  O10  1  0.785625  0.601530  0.918960  1
