# generated using pymatgen
data_Nd16In4Ru3Au
_symmetry_space_group_name_H-M   'P 1'
_cell_length_a   9.99254465
_cell_length_b   9.98976485
_cell_length_c   9.98976400
_cell_angle_alpha   60.00000281
_cell_angle_beta   60.00920476
_cell_angle_gamma   60.00920388
_symmetry_Int_Tables_number   1
_chemical_formula_structural   Nd16In4Ru3Au
_chemical_formula_sum   'Nd16 In4 Ru3 Au1'
_cell_volume   705.23199847
_cell_formula_units_Z   1
loop_
 _symmetry_equiv_pos_site_id
 _symmetry_equiv_pos_as_xyz
  1  'x, y, z'
loop_
 _atom_site_type_symbol
 _atom_site_label
 _atom_site_symmetry_multiplicity
 _atom_site_fract_x
 _atom_site_fract_y
 _atom_site_fract_z
 _atom_site_occupancy
  Nd  Nd0  1  0.443531  0.433638  0.061416  1
  Nd  Nd1  1  0.659534  0.645327  0.049814  1
  Nd  Nd2  1  0.179393  0.808017  0.204574  1
  Nd  Nd3  1  0.062989  0.439034  0.058942  1
  Nd  Nd4  1  0.179393  0.808017  0.808017  1
  Nd  Nd5  1  0.062989  0.439034  0.439034  1
  Nd  Nd6  1  0.810101  0.190070  0.190070  1
  Nd  Nd7  1  0.659534  0.645327  0.645327  1
  Nd  Nd8  1  0.810101  0.190070  0.809758  1
  Nd  Nd9  1  0.179393  0.204574  0.808017  1
  Nd  Nd10  1  0.040067  0.653312  0.653312  1
  Nd  Nd11  1  0.443531  0.061416  0.061416  1
  Nd  Nd12  1  0.062989  0.058942  0.439034  1
  Nd  Nd13  1  0.659534  0.049814  0.645327  1
  Nd  Nd14  1  0.810101  0.809758  0.190070  1
  Nd  Nd15  1  0.443531  0.061416  0.433638  1
  In  In16  1  0.418987  0.419610  0.419610  1
  In  In17  1  0.418987  0.419610  0.741793  1
  In  In18  1  0.418987  0.741793  0.419610  1
  In  In19  1  0.743480  0.418840  0.418840  1
  Ru  Ru20  1  0.856000  0.861014  0.861014  1
  Ru  Ru21  1  0.856000  0.421970  0.861014  1
  Ru  Ru22  1  0.856000  0.861014  0.421970  1
  Au  Au23  1  0.424850  0.858383  0.858383  1
