# generated using pymatgen
data_Ca2NdGa8Ag3
_symmetry_space_group_name_H-M   'P 1'
_cell_length_a   4.39282515
_cell_length_b   8.43580773
_cell_length_c   8.43580849
_cell_angle_alpha   71.49611758
_cell_angle_beta   74.90810385
_cell_angle_gamma   74.90811227
_symmetry_Int_Tables_number   1
_chemical_formula_structural   Ca2NdGa8Ag3
_chemical_formula_sum   'Ca2 Nd1 Ga8 Ag3'
_cell_volume   280.77585668
_cell_formula_units_Z   1
loop_
 _symmetry_equiv_pos_site_id
 _symmetry_equiv_pos_as_xyz
  1  'x, y, z'
loop_
 _atom_site_type_symbol
 _atom_site_label
 _atom_site_symmetry_multiplicity
 _atom_site_fract_x
 _atom_site_fract_y
 _atom_site_fract_z
 _atom_site_occupancy
  Ca  Ca0  1  0.303437  0.696563  0.696563  1
  Ca  Ca1  1  0.696563  0.303437  0.303437  1
  Nd  Nd2  1  0.000000  0.000000  0.000000  1
  Ga  Ga3  1  0.338544  0.291389  0.031523  1
  Ga  Ga4  1  0.661456  0.708611  0.968477  1
  Ga  Ga5  1  0.338544  0.031523  0.291389  1
  Ga  Ga6  1  0.661456  0.968477  0.708611  1
  Ga  Ga7  1  0.141998  0.577948  0.138056  1
  Ga  Ga8  1  0.858002  0.422052  0.861944  1
  Ga  Ga9  1  0.141998  0.138056  0.577948  1
  Ga  Ga10  1  0.858002  0.861944  0.422052  1
  Ag  Ag11  1  0.500000  0.299739  0.700261  1
  Ag  Ag12  1  0.500000  0.700261  0.299739  1
  Ag  Ag13  1  0.000000  0.500000  0.500000  1
