# generated using pymatgen
data_DyYUP3
_symmetry_space_group_name_H-M   'P 1'
_cell_length_a   6.92078098
_cell_length_b   6.92078027
_cell_length_c   6.92078133
_cell_angle_alpha   146.72974099
_cell_angle_beta   132.02295225
_cell_angle_gamma   59.63409179
_symmetry_Int_Tables_number   1
_chemical_formula_structural   DyYUP3
_chemical_formula_sum   'Dy1 Y1 U1 P3'
_cell_volume   133.89250158
_cell_formula_units_Z   1
loop_
 _symmetry_equiv_pos_site_id
 _symmetry_equiv_pos_as_xyz
  1  'x, y, z'
loop_
 _atom_site_type_symbol
 _atom_site_label
 _atom_site_symmetry_multiplicity
 _atom_site_fract_x
 _atom_site_fract_y
 _atom_site_fract_z
 _atom_site_occupancy
  Dy  Dy0  1  0.332853  0.332853  0.000000  1
  Y  Y1  1  0.667120  0.667120  0.000000  1
  U  U2  1  0.000036  0.000036  0.000000  1
  P  P3  1  0.499685  0.999685  0.500000  1
  P  P4  1  0.162335  0.662335  0.500000  1
  P  P5  1  0.837971  0.337971  0.500000  1
