# generated using pymatgen
data_Dy10Y2Tc3Pt
_symmetry_space_group_name_H-M   'P 1'
_cell_length_a   6.31102634
_cell_length_b   7.42838861
_cell_length_c   9.21156700
_cell_angle_alpha   90.00000000
_cell_angle_beta   90.00000000
_cell_angle_gamma   90.03758111
_symmetry_Int_Tables_number   1
_chemical_formula_structural   Dy10Y2Tc3Pt
_chemical_formula_sum   'Dy10 Y2 Tc3 Pt1'
_cell_volume   431.84513389
_cell_formula_units_Z   1
loop_
 _symmetry_equiv_pos_site_id
 _symmetry_equiv_pos_as_xyz
  1  'x, y, z'
loop_
 _atom_site_type_symbol
 _atom_site_label
 _atom_site_symmetry_multiplicity
 _atom_site_fract_x
 _atom_site_fract_y
 _atom_site_fract_z
 _atom_site_occupancy
  Dy  Dy0  1  0.329114  0.675859  0.067616  1
  Dy  Dy1  1  0.165254  0.177410  0.435607  1
  Dy  Dy2  1  0.668417  0.318705  0.558978  1
  Dy  Dy3  1  0.837019  0.827276  0.939782  1
  Dy  Dy4  1  0.668417  0.318705  0.941022  1
  Dy  Dy5  1  0.837019  0.827276  0.560218  1
  Dy  Dy6  1  0.329114  0.675859  0.432384  1
  Dy  Dy7  1  0.165254  0.177410  0.064393  1
  Dy  Dy8  1  0.871637  0.543325  0.250000  1
  Dy  Dy9  1  0.624011  0.038759  0.250000  1
  Y  Y10  1  0.128847  0.456227  0.750000  1
  Y  Y11  1  0.370699  0.965141  0.750000  1
  Tc  Tc12  1  0.038568  0.885850  0.250000  1
  Tc  Tc13  1  0.463529  0.386891  0.250000  1
  Tc  Tc14  1  0.954073  0.112822  0.750000  1
  Pt  Pt15  1  0.549025  0.612482  0.750000  1
