# generated using pymatgen
data_Lu3(PaMn)2
_symmetry_space_group_name_H-M   'P 1'
_cell_length_a   6.16601740
_cell_length_b   6.70170855
_cell_length_c   8.51092007
_cell_angle_alpha   95.05911731
_cell_angle_beta   111.23791543
_cell_angle_gamma   89.99999281
_symmetry_Int_Tables_number   1
_chemical_formula_structural   Lu3(PaMn)2
_chemical_formula_sum   'Lu6 Pa4 Mn4'
_cell_volume   326.33945205
_cell_formula_units_Z   2
loop_
 _symmetry_equiv_pos_site_id
 _symmetry_equiv_pos_as_xyz
  1  'x, y, z'
loop_
 _atom_site_type_symbol
 _atom_site_label
 _atom_site_symmetry_multiplicity
 _atom_site_fract_x
 _atom_site_fract_y
 _atom_site_fract_z
 _atom_site_occupancy
  Lu  Lu0  1  0.289123  0.312833  0.429761  1
  Lu  Lu1  1  0.710877  0.687167  0.570239  1
  Lu  Lu2  1  0.859363  0.187167  0.570239  1
  Lu  Lu3  1  0.140637  0.812833  0.429761  1
  Lu  Lu4  1  0.081559  0.250000  0.000000  1
  Lu  Lu5  1  0.918441  0.750000  0.000000  1
  Pa  Pa6  1  0.517536  0.100062  0.810715  1
  Pa  Pa7  1  0.482464  0.899938  0.189285  1
  Pa  Pa8  1  0.706821  0.399938  0.189285  1
  Pa  Pa9  1  0.293179  0.600062  0.810715  1
  Mn  Mn10  1  0.366314  0.597728  0.214996  1
  Mn  Mn11  1  0.633686  0.402272  0.785004  1
  Mn  Mn12  1  0.151320  0.902272  0.785004  1
  Mn  Mn13  1  0.848680  0.097728  0.214996  1
