# generated using pymatgen
data_PrHoErRuO7
_symmetry_space_group_name_H-M   'P 1'
_cell_length_a   6.43096678
_cell_length_b   6.42876963
_cell_length_c   7.50254700
_cell_angle_alpha   90.00000000
_cell_angle_beta   90.00000000
_cell_angle_gamma   109.96060396
_symmetry_Int_Tables_number   1
_chemical_formula_structural   PrHoErRuO7
_chemical_formula_sum   'Pr2 Ho2 Er2 Ru2 O14'
_cell_volume   291.54610416
_cell_formula_units_Z   2
loop_
 _symmetry_equiv_pos_site_id
 _symmetry_equiv_pos_as_xyz
  1  'x, y, z'
loop_
 _atom_site_type_symbol
 _atom_site_label
 _atom_site_symmetry_multiplicity
 _atom_site_fract_x
 _atom_site_fract_y
 _atom_site_fract_z
 _atom_site_occupancy
  Pr  Pr0  1  0.000000  0.000000  0.500000  1
  Pr  Pr1  1  0.000000  0.000000  0.000000  1
  Ho  Ho2  1  0.482998  0.931941  0.750000  1
  Ho  Ho3  1  0.517002  0.068059  0.250000  1
  Er  Er4  1  0.932686  0.483321  0.750000  1
  Er  Er5  1  0.067314  0.516679  0.250000  1
  Ru  Ru6  1  0.500000  0.500000  0.500000  1
  Ru  Ru7  1  0.500000  0.500000  0.000000  1
  O  O8  1  0.590973  0.590460  0.750000  1
  O  O9  1  0.409027  0.409540  0.250000  1
  O  O10  1  0.836695  0.121121  0.750000  1
  O  O11  1  0.163305  0.878879  0.250000  1
  O  O12  1  0.119480  0.835604  0.750000  1
  O  O13  1  0.880520  0.164396  0.250000  1
  O  O14  1  0.440435  0.181012  0.963357  1
  O  O15  1  0.559565  0.818988  0.463357  1
  O  O16  1  0.180808  0.440875  0.963529  1
  O  O17  1  0.819192  0.559125  0.463529  1
  O  O18  1  0.440435  0.181012  0.536643  1
  O  O19  1  0.559565  0.818988  0.036643  1
  O  O20  1  0.819192  0.559125  0.036471  1
  O  O21  1  0.180808  0.440875  0.536471  1
