# generated using pymatgen
data_Er4Lu4V(B8Rh)3
_symmetry_space_group_name_H-M   'P 1'
_cell_length_a   3.59289800
_cell_length_b   9.08845268
_cell_length_c   11.46082787
_cell_angle_alpha   90.21909598
_cell_angle_beta   90.00000000
_cell_angle_gamma   90.00000000
_symmetry_Int_Tables_number   1
_chemical_formula_structural   Er4Lu4V(B8Rh)3
_chemical_formula_sum   'Er4 Lu4 V1 B24 Rh3'
_cell_volume   374.23780118
_cell_formula_units_Z   1
loop_
 _symmetry_equiv_pos_site_id
 _symmetry_equiv_pos_as_xyz
  1  'x, y, z'
loop_
 _atom_site_type_symbol
 _atom_site_label
 _atom_site_symmetry_multiplicity
 _atom_site_fract_x
 _atom_site_fract_y
 _atom_site_fract_z
 _atom_site_occupancy
  Er  Er0  1  0.500000  0.318636  0.410889  1
  Er  Er1  1  0.500000  0.677440  0.584760  1
  Er  Er2  1  0.500000  0.178230  0.917485  1
  Er  Er3  1  0.500000  0.824579  0.087300  1
  Lu  Lu4  1  0.500000  0.443425  0.126093  1
  Lu  Lu5  1  0.500000  0.556693  0.872439  1
  Lu  Lu6  1  0.500000  0.055490  0.628384  1
  Lu  Lu7  1  0.500000  0.946710  0.372595  1
  V  V8  1  0.500000  0.139497  0.179501  1
  B  B9  1  0.000000  0.105473  0.472630  1
  B  B10  1  0.000000  0.894151  0.529396  1
  B  B11  1  0.000000  0.396948  0.970255  1
  B  B12  1  0.000000  0.605641  0.028199  1
  B  B13  1  0.000000  0.131901  0.316437  1
  B  B14  1  0.000000  0.867266  0.683274  1
  B  B15  1  0.000000  0.367965  0.817092  1
  B  B16  1  0.000000  0.632442  0.183547  1
  B  B17  1  0.000000  0.052101  0.065737  1
  B  B18  1  0.000000  0.946912  0.933776  1
  B  B19  1  0.000000  0.445616  0.565421  1
  B  B20  1  0.000000  0.553218  0.433646  1
  B  B21  1  0.000000  0.482165  0.287026  1
  B  B22  1  0.000000  0.517694  0.712200  1
  B  B23  1  0.000000  0.017601  0.787248  1
  B  B24  1  0.000000  0.981234  0.213547  1
  B  B25  1  0.000000  0.250858  0.079822  1
  B  B26  1  0.000000  0.750063  0.919822  1
  B  B27  1  0.000000  0.249135  0.579305  1
  B  B28  1  0.000000  0.750706  0.420251  1
  B  B29  1  0.000000  0.295168  0.235769  1
  B  B30  1  0.000000  0.705134  0.763916  1
  B  B31  1  0.000000  0.206506  0.736301  1
  B  B32  1  0.000000  0.793801  0.265432  1
  Rh  Rh33  1  0.500000  0.859753  0.820122  1
  Rh  Rh34  1  0.500000  0.360202  0.679714  1
  Rh  Rh35  1  0.500000  0.639644  0.320668  1
