# generated using pymatgen
data_Ac3CuPbS6
_symmetry_space_group_name_H-M   'P 1'
_cell_length_a   4.25742900
_cell_length_b   11.58959400
_cell_length_c   11.48394500
_cell_angle_alpha   90.00000000
_cell_angle_beta   90.00000000
_cell_angle_gamma   90.00000000
_symmetry_Int_Tables_number   1
_chemical_formula_structural   Ac3CuPbS6
_chemical_formula_sum   'Ac6 Cu2 Pb2 S12'
_cell_volume   566.63936255
_cell_formula_units_Z   2
loop_
 _symmetry_equiv_pos_site_id
 _symmetry_equiv_pos_as_xyz
  1  'x, y, z'
loop_
 _atom_site_type_symbol
 _atom_site_label
 _atom_site_symmetry_multiplicity
 _atom_site_fract_x
 _atom_site_fract_y
 _atom_site_fract_z
 _atom_site_occupancy
  Ac  Ac0  1  0.000000  0.317065  0.758889  1
  Ac  Ac1  1  0.000000  0.181411  0.258485  1
  Ac  Ac2  1  0.500000  0.681411  0.741515  1
  Ac  Ac3  1  0.500000  0.817065  0.241111  1
  Ac  Ac4  1  0.000000  0.987859  0.937347  1
  Ac  Ac5  1  0.500000  0.487859  0.062653  1
  Cu  Cu6  1  0.000000  0.796117  0.506482  1
  Cu  Cu7  1  0.500000  0.296117  0.493518  1
  Pb  Pb8  1  0.000000  0.521142  0.419330  1
  Pb  Pb9  1  0.500000  0.021142  0.580670  1
  S  S10  1  0.000000  0.862415  0.699472  1
  S  S11  1  0.000000  0.627096  0.198143  1
  S  S12  1  0.500000  0.127096  0.801857  1
  S  S13  1  0.500000  0.362415  0.300528  1
  S  S14  1  0.000000  0.554360  0.873780  1
  S  S15  1  0.000000  0.939725  0.363464  1
  S  S16  1  0.500000  0.439725  0.636536  1
  S  S17  1  0.500000  0.054360  0.126220  1
  S  S18  1  0.000000  0.197623  0.522892  1
  S  S19  1  0.000000  0.303787  0.024786  1
  S  S20  1  0.500000  0.803787  0.975214  1
  S  S21  1  0.500000  0.697623  0.477108  1
