# generated using pymatgen
data_Ta12NbNi8W3N4
_symmetry_space_group_name_H-M   'P 1'
_cell_length_a   8.15612220
_cell_length_b   8.15612234
_cell_length_c   8.14893795
_cell_angle_alpha   60.27814079
_cell_angle_beta   60.27813950
_cell_angle_gamma   60.35769129
_symmetry_Int_Tables_number   1
_chemical_formula_structural   Ta12NbNi8W3N4
_chemical_formula_sum   'Ta12 Nb1 Ni8 W3 N4'
_cell_volume   385.95497672
_cell_formula_units_Z   1
loop_
 _symmetry_equiv_pos_site_id
 _symmetry_equiv_pos_as_xyz
  1  'x, y, z'
loop_
 _atom_site_type_symbol
 _atom_site_label
 _atom_site_symmetry_multiplicity
 _atom_site_fract_x
 _atom_site_fract_y
 _atom_site_fract_z
 _atom_site_occupancy
  Ta  Ta0  1  0.624982  0.624982  0.624899  1
  Ta  Ta1  1  0.187447  0.187447  0.812338  1
  Ta  Ta2  1  0.813271  0.184965  0.813946  1
  Ta  Ta3  1  0.187889  0.811618  0.187796  1
  Ta  Ta4  1  0.184965  0.813271  0.813946  1
  Ta  Ta5  1  0.811618  0.187889  0.187796  1
  Ta  Ta6  1  0.437387  0.437387  0.064100  1
  Ta  Ta7  1  0.062250  0.062250  0.437997  1
  Ta  Ta8  1  0.436318  0.065290  0.435659  1
  Ta  Ta9  1  0.062337  0.438083  0.062709  1
  Ta  Ta10  1  0.065290  0.436318  0.435659  1
  Ta  Ta11  1  0.438083  0.062337  0.062709  1
  Nb  Nb12  1  0.814187  0.814187  0.184464  1
  Ni  Ni13  1  0.741526  0.417443  0.418582  1
  Ni  Ni14  1  0.417443  0.741526  0.418582  1
  Ni  Ni15  1  0.418325  0.418325  0.741540  1
  Ni  Ni16  1  0.420699  0.420699  0.420942  1
  Ni  Ni17  1  0.508262  0.831698  0.831758  1
  Ni  Ni18  1  0.831698  0.508262  0.831758  1
  Ni  Ni19  1  0.831893  0.831893  0.509691  1
  Ni  Ni20  1  0.829194  0.829194  0.828149  1
  W  W21  1  0.124900  0.624522  0.625313  1
  W  W22  1  0.624522  0.124900  0.625313  1
  W  W23  1  0.624623  0.624623  0.125058  1
  N  N24  1  0.623355  0.127541  0.124641  1
  N  N25  1  0.127541  0.623355  0.124641  1
  N  N26  1  0.124983  0.124983  0.624919  1
  N  N27  1  0.125013  0.125013  0.125091  1
