# generated using pymatgen
data_LaYbB2Pt7Au
_symmetry_space_group_name_H-M   'P 1'
_cell_length_a   5.52158400
_cell_length_b   5.52158399
_cell_length_c   7.67259600
_cell_angle_alpha   90.00000000
_cell_angle_beta   90.00000000
_cell_angle_gamma   120.00000007
_symmetry_Int_Tables_number   1
_chemical_formula_structural   LaYbB2Pt7Au
_chemical_formula_sum   'La1 Yb1 B2 Pt7 Au1'
_cell_volume   202.58175470
_cell_formula_units_Z   1
loop_
 _symmetry_equiv_pos_site_id
 _symmetry_equiv_pos_as_xyz
  1  'x, y, z'
loop_
 _atom_site_type_symbol
 _atom_site_label
 _atom_site_symmetry_multiplicity
 _atom_site_fract_x
 _atom_site_fract_y
 _atom_site_fract_z
 _atom_site_occupancy
  La  La0  1  0.000000  0.000000  0.500000  1
  Yb  Yb1  1  0.000000  0.000000  0.000000  1
  B  B2  1  0.333333  0.666667  0.000000  1
  B  B3  1  0.666667  0.333333  0.000000  1
  Pt  Pt4  1  0.666667  0.333333  0.500000  1
  Pt  Pt5  1  0.500474  0.000946  0.194841  1
  Pt  Pt6  1  0.500474  0.000946  0.805159  1
  Pt  Pt7  1  0.999054  0.499526  0.194841  1
  Pt  Pt8  1  0.999054  0.499526  0.805159  1
  Pt  Pt9  1  0.500474  0.499526  0.194841  1
  Pt  Pt10  1  0.500474  0.499526  0.805159  1
  Au  Au11  1  0.333333  0.666667  0.500000  1
