# generated using pymatgen
data_Dy4Ho7(Tm3Bi4)3
_symmetry_space_group_name_H-M   'P 1'
_cell_length_a   8.20517022
_cell_length_b   9.45747502
_cell_length_c   11.96784729
_cell_angle_alpha   90.00144465
_cell_angle_beta   89.97477465
_cell_angle_gamma   90.00733142
_symmetry_Int_Tables_number   1
_chemical_formula_structural   Dy4Ho7(Tm3Bi4)3
_chemical_formula_sum   'Dy4 Ho7 Tm9 Bi12'
_cell_volume   928.70715388
_cell_formula_units_Z   1
loop_
 _symmetry_equiv_pos_site_id
 _symmetry_equiv_pos_as_xyz
  1  'x, y, z'
loop_
 _atom_site_type_symbol
 _atom_site_label
 _atom_site_symmetry_multiplicity
 _atom_site_fract_x
 _atom_site_fract_y
 _atom_site_fract_z
 _atom_site_occupancy
  Dy  Dy0  1  0.312425  0.250105  0.218411  1
  Dy  Dy1  1  0.812439  0.250023  0.281701  1
  Dy  Dy2  1  0.687559  0.750099  0.781614  1
  Dy  Dy3  1  0.187642  0.749894  0.718402  1
  Ho  Ho4  1  0.352524  0.750018  0.216713  1
  Ho  Ho5  1  0.852597  0.750079  0.283232  1
  Ho  Ho6  1  0.647678  0.250181  0.783202  1
  Ho  Ho7  1  0.147330  0.250136  0.716659  1
  Ho  Ho8  1  0.692659  0.564926  0.058957  1
  Ho  Ho9  1  0.192552  0.935011  0.441054  1
  Ho  Ho10  1  0.307366  0.064981  0.940980  1
  Tm  Tm11  1  0.807305  0.434422  0.559017  1
  Tm  Tm12  1  0.307475  0.434614  0.941022  1
  Tm  Tm13  1  0.807413  0.065601  0.558934  1
  Tm  Tm14  1  0.692502  0.934612  0.058975  1
  Tm  Tm15  1  0.192591  0.565374  0.441024  1
  Tm  Tm16  1  0.476334  0.250083  0.488789  1
  Tm  Tm17  1  0.976036  0.250064  0.011248  1
  Tm  Tm18  1  0.524062  0.749911  0.511267  1
  Tm  Tm19  1  0.023974  0.750113  0.988709  1
  Bi  Bi20  1  0.405300  0.749491  0.957889  1
  Bi  Bi21  1  0.905069  0.749736  0.542192  1
  Bi  Bi22  1  0.594717  0.249474  0.042097  1
  Bi  Bi23  1  0.094484  0.250776  0.458002  1
  Bi  Bi24  1  0.565370  0.995224  0.326200  1
  Bi  Bi25  1  0.065272  0.504839  0.173869  1
  Bi  Bi26  1  0.434811  0.495200  0.673756  1
  Bi  Bi27  1  0.934626  0.004862  0.826128  1
  Bi  Bi28  1  0.434841  0.004819  0.673786  1
  Bi  Bi29  1  0.934756  0.495263  0.826069  1
  Bi  Bi30  1  0.565145  0.504812  0.326264  1
  Bi  Bi31  1  0.065146  0.995259  0.173837  1
