# generated using pymatgen
data_LuSc11Tc4
_symmetry_space_group_name_H-M   'P 1'
_cell_length_a   5.87086234
_cell_length_b   6.98597529
_cell_length_c   8.56307981
_cell_angle_alpha   89.96053937
_cell_angle_beta   89.58364807
_cell_angle_gamma   89.73297932
_symmetry_Int_Tables_number   1
_chemical_formula_structural   LuSc11Tc4
_chemical_formula_sum   'Lu1 Sc11 Tc4'
_cell_volume   351.19041816
_cell_formula_units_Z   1
loop_
 _symmetry_equiv_pos_site_id
 _symmetry_equiv_pos_as_xyz
  1  'x, y, z'
loop_
 _atom_site_type_symbol
 _atom_site_label
 _atom_site_symmetry_multiplicity
 _atom_site_fract_x
 _atom_site_fract_y
 _atom_site_fract_z
 _atom_site_occupancy
  Lu  Lu0  1  0.155199  0.181386  0.059433  1
  Sc  Sc1  1  0.341902  0.678460  0.060322  1
  Sc  Sc2  1  0.157460  0.178433  0.440514  1
  Sc  Sc3  1  0.655007  0.319946  0.560209  1
  Sc  Sc4  1  0.841000  0.818871  0.938613  1
  Sc  Sc5  1  0.656901  0.324166  0.937844  1
  Sc  Sc6  1  0.844827  0.822337  0.560673  1
  Sc  Sc7  1  0.347407  0.678601  0.439046  1
  Sc  Sc8  1  0.876520  0.542667  0.251715  1
  Sc  Sc9  1  0.624355  0.039048  0.251232  1
  Sc  Sc10  1  0.119904  0.461295  0.747371  1
  Sc  Sc11  1  0.378315  0.958303  0.746405  1
  Tc  Tc12  1  0.042328  0.882091  0.255946  1
  Tc  Tc13  1  0.461637  0.387709  0.252904  1
  Tc  Tc14  1  0.954625  0.113439  0.747349  1
  Tc  Tc15  1  0.542615  0.613248  0.750427  1
