# generated using pymatgen
data_LaPr6IrI12
_symmetry_space_group_name_H-M   'P 1'
_cell_length_a   10.12125987
_cell_length_b   10.12125976
_cell_length_c   10.12126019
_cell_angle_alpha   106.49750206
_cell_angle_beta   106.49750184
_cell_angle_gamma   106.49750797
_symmetry_Int_Tables_number   1
_chemical_formula_structural   LaPr6IrI12
_chemical_formula_sum   'La1 Pr6 Ir1 I12'
_cell_volume   875.04071342
_cell_formula_units_Z   1
loop_
 _symmetry_equiv_pos_site_id
 _symmetry_equiv_pos_as_xyz
  1  'x, y, z'
loop_
 _atom_site_type_symbol
 _atom_site_label
 _atom_site_symmetry_multiplicity
 _atom_site_fract_x
 _atom_site_fract_y
 _atom_site_fract_z
 _atom_site_occupancy
  La  La0  1  0.996029  0.996029  0.996029  1
  Pr  Pr1  1  0.518366  0.594599  0.799083  1
  Pr  Pr2  1  0.799083  0.518366  0.594599  1
  Pr  Pr3  1  0.594599  0.799083  0.518366  1
  Pr  Pr4  1  0.479868  0.403531  0.199613  1
  Pr  Pr5  1  0.199613  0.479868  0.403531  1
  Pr  Pr6  1  0.403531  0.199613  0.479868  1
  Ir  Ir7  1  0.499461  0.499461  0.499461  1
  I  I8  1  0.273664  0.822458  0.427068  1
  I  I9  1  0.427068  0.273664  0.822458  1
  I  I10  1  0.822458  0.427068  0.273664  1
  I  I11  1  0.724863  0.176273  0.571571  1
  I  I12  1  0.571571  0.724863  0.176273  1
  I  I13  1  0.176273  0.571571  0.724863  1
  I  I14  1  0.040247  0.118911  0.340206  1
  I  I15  1  0.340206  0.040247  0.118911  1
  I  I16  1  0.118911  0.340206  0.040247  1
  I  I17  1  0.957693  0.878296  0.653571  1
  I  I18  1  0.653571  0.957693  0.878296  1
  I  I19  1  0.878296  0.653571  0.957693  1
