# generated using pymatgen
data_DyY8TmIr6
_symmetry_space_group_name_H-M   'P 1'
_cell_length_a   10.92894300
_cell_length_b   10.92894300
_cell_length_c   6.38253000
_cell_angle_alpha   90.00000000
_cell_angle_beta   90.00000000
_cell_angle_gamma   90.00000000
_symmetry_Int_Tables_number   1
_chemical_formula_structural   DyY8TmIr6
_chemical_formula_sum   'Dy2 Y16 Tm2 Ir12'
_cell_volume   762.34084046
_cell_formula_units_Z   2
loop_
 _symmetry_equiv_pos_site_id
 _symmetry_equiv_pos_as_xyz
  1  'x, y, z'
loop_
 _atom_site_type_symbol
 _atom_site_label
 _atom_site_symmetry_multiplicity
 _atom_site_fract_x
 _atom_site_fract_y
 _atom_site_fract_z
 _atom_site_occupancy
  Dy  Dy0  1  0.000000  0.000000  0.500000  1
  Dy  Dy1  1  0.000000  0.000000  0.000000  1
  Y  Y2  1  0.291862  0.088082  0.377715  1
  Y  Y3  1  0.291862  0.911918  0.877715  1
  Y  Y4  1  0.708138  0.088082  0.877715  1
  Y  Y5  1  0.708138  0.911918  0.377715  1
  Y  Y6  1  0.587637  0.790457  0.877925  1
  Y  Y7  1  0.587637  0.209543  0.377925  1
  Y  Y8  1  0.412363  0.790457  0.377925  1
  Y  Y9  1  0.412363  0.209543  0.877925  1
  Y  Y10  1  0.209543  0.412363  0.622075  1
  Y  Y11  1  0.209543  0.587637  0.122075  1
  Y  Y12  1  0.790457  0.412363  0.122075  1
  Y  Y13  1  0.790457  0.587637  0.622075  1
  Y  Y14  1  0.911918  0.708138  0.122285  1
  Y  Y15  1  0.911918  0.291862  0.622285  1
  Y  Y16  1  0.088082  0.708138  0.622285  1
  Y  Y17  1  0.088082  0.291862  0.122285  1
  Tm  Tm18  1  0.500000  0.500000  0.000000  1
  Tm  Tm19  1  0.500000  0.500000  0.500000  1
  Ir  Ir20  1  0.846632  0.153368  0.250000  1
  Ir  Ir21  1  0.846632  0.846632  0.750000  1
  Ir  Ir22  1  0.153368  0.153368  0.750000  1
  Ir  Ir23  1  0.153368  0.846632  0.250000  1
  Ir  Ir24  1  0.650601  0.349399  0.750000  1
  Ir  Ir25  1  0.650601  0.650601  0.250000  1
  Ir  Ir26  1  0.349399  0.349399  0.250000  1
  Ir  Ir27  1  0.349399  0.650601  0.750000  1
  Ir  Ir28  1  0.500000  0.000000  0.123998  1
  Ir  Ir29  1  0.500000  0.000000  0.623998  1
  Ir  Ir30  1  0.000000  0.500000  0.876002  1
  Ir  Ir31  1  0.000000  0.500000  0.376002  1
