# generated using pymatgen
data_Ho5Tl2BiP
_symmetry_space_group_name_H-M   'P 1'
_cell_length_a   9.12686900
_cell_length_b   9.14097305
_cell_length_c   6.74736900
_cell_angle_alpha   90.00000000
_cell_angle_beta   90.00000000
_cell_angle_gamma   120.05114360
_symmetry_Int_Tables_number   1
_chemical_formula_structural   Ho5Tl2BiP
_chemical_formula_sum   'Ho10 Tl4 Bi2 P2'
_cell_volume   487.25386371
_cell_formula_units_Z   2
loop_
 _symmetry_equiv_pos_site_id
 _symmetry_equiv_pos_as_xyz
  1  'x, y, z'
loop_
 _atom_site_type_symbol
 _atom_site_label
 _atom_site_symmetry_multiplicity
 _atom_site_fract_x
 _atom_site_fract_y
 _atom_site_fract_z
 _atom_site_occupancy
  Ho  Ho0  1  0.764785  0.761449  0.750000  1
  Ho  Ho1  1  0.235215  0.996662  0.750000  1
  Ho  Ho2  1  0.000000  0.234896  0.750000  1
  Ho  Ho3  1  0.239199  0.237331  0.250000  1
  Ho  Ho4  1  0.760801  0.998132  0.250000  1
  Ho  Ho5  1  0.000000  0.762849  0.250000  1
  Ho  Ho6  1  0.668342  0.335356  0.007147  1
  Ho  Ho7  1  0.331658  0.667015  0.007147  1
  Ho  Ho8  1  0.331658  0.667015  0.492853  1
  Ho  Ho9  1  0.668342  0.335356  0.492853  1
  Tl  Tl10  1  0.000000  0.597703  0.750000  1
  Tl  Tl11  1  0.598805  0.600403  0.250000  1
  Tl  Tl12  1  0.401195  0.001598  0.250000  1
  Tl  Tl13  1  0.000000  0.402059  0.250000  1
  Bi  Bi14  1  0.400473  0.400561  0.750000  1
  Bi  Bi15  1  0.599527  0.000088  0.750000  1
  P  P16  1  0.000000  0.000766  0.997909  1
  P  P17  1  0.000000  0.000766  0.502091  1
