# generated using pymatgen
data_Tb8ZnHgI12
_symmetry_space_group_name_H-M   'P 1'
_cell_length_a   4.22193300
_cell_length_b   14.26878922
_cell_length_c   15.01171446
_cell_angle_alpha   89.92257264
_cell_angle_beta   90.00000000
_cell_angle_gamma   90.00000000
_symmetry_Int_Tables_number   1
_chemical_formula_structural   Tb8ZnHgI12
_chemical_formula_sum   'Tb8 Zn1 Hg1 I12'
_cell_volume   904.33295680
_cell_formula_units_Z   1
loop_
 _symmetry_equiv_pos_site_id
 _symmetry_equiv_pos_as_xyz
  1  'x, y, z'
loop_
 _atom_site_type_symbol
 _atom_site_label
 _atom_site_symmetry_multiplicity
 _atom_site_fract_x
 _atom_site_fract_y
 _atom_site_fract_z
 _atom_site_occupancy
  Tb  Tb0  1  0.500000  0.117803  0.342461  1
  Tb  Tb1  1  0.500000  0.882197  0.657539  1
  Tb  Tb2  1  0.500000  0.613471  0.151794  1
  Tb  Tb3  1  0.500000  0.386529  0.848206  1
  Tb  Tb4  1  0.000000  0.118175  0.579850  1
  Tb  Tb5  1  0.000000  0.881825  0.420150  1
  Tb  Tb6  1  0.000000  0.613155  0.923546  1
  Tb  Tb7  1  0.000000  0.386845  0.076454  1
  Zn  Zn8  1  0.500000  0.500000  0.000000  1
  Hg  Hg9  1  0.500000  0.000000  0.500000  1
  I  I10  1  0.500000  0.246690  0.162998  1
  I  I11  1  0.500000  0.753310  0.837002  1
  I  I12  1  0.500000  0.744072  0.335250  1
  I  I13  1  0.500000  0.255928  0.664750  1
  I  I14  1  0.000000  0.259338  0.413821  1
  I  I15  1  0.000000  0.740662  0.586179  1
  I  I16  1  0.000000  0.758352  0.085587  1
  I  I17  1  0.000000  0.241648  0.914413  1
  I  I18  1  0.000000  0.999655  0.238929  1
  I  I19  1  0.000000  0.000345  0.761071  1
  I  I20  1  0.000000  0.499303  0.259979  1
  I  I21  1  0.000000  0.500697  0.740021  1
