# generated using pymatgen
data_NaMg2Si9B36C
_symmetry_space_group_name_H-M   'P 1'
_cell_length_a   8.01631850
_cell_length_b   8.00023126
_cell_length_c   8.01631819
_cell_angle_alpha   78.27338263
_cell_angle_beta   78.44643181
_cell_angle_gamma   78.27338378
_symmetry_Int_Tables_number   1
_chemical_formula_structural   NaMg2Si9B36C
_chemical_formula_sum   'Na1 Mg2 Si9 B36 C1'
_cell_volume   486.04557348
_cell_formula_units_Z   1
loop_
 _symmetry_equiv_pos_site_id
 _symmetry_equiv_pos_as_xyz
  1  'x, y, z'
loop_
 _atom_site_type_symbol
 _atom_site_label
 _atom_site_symmetry_multiplicity
 _atom_site_fract_x
 _atom_site_fract_y
 _atom_site_fract_z
 _atom_site_occupancy
  Na  Na0  1  0.500112  0.999802  0.500112  1
  Mg  Mg1  1  0.999588  0.498942  0.498887  1
  Mg  Mg2  1  0.498887  0.498942  0.999588  1
  Si  Si3  1  0.572930  0.573798  0.572930  1
  Si  Si4  1  0.430028  0.428948  0.430028  1
  Si  Si5  1  0.738570  0.738078  0.342862  1
  Si  Si6  1  0.738166  0.343238  0.738166  1
  Si  Si7  1  0.342862  0.738078  0.738570  1
  Si  Si8  1  0.262170  0.262941  0.655812  1
  Si  Si9  1  0.262861  0.655461  0.262861  1
  Si  Si10  1  0.655812  0.262941  0.262170  1
  Si  Si11  1  0.956348  0.956934  0.956348  1
  B  B12  1  0.700990  0.993430  0.993682  1
  B  B13  1  0.993682  0.993430  0.700990  1
  B  B14  1  0.993727  0.701367  0.993727  1
  B  B15  1  0.278325  0.017282  0.016917  1
  B  B16  1  0.016917  0.017282  0.278325  1
  B  B17  1  0.017003  0.277819  0.017003  1
  B  B18  1  0.625347  0.980677  0.799450  1
  B  B19  1  0.980485  0.800105  0.624576  1
  B  B20  1  0.799885  0.624893  0.980456  1
  B  B21  1  0.980456  0.624893  0.799885  1
  B  B22  1  0.624576  0.800105  0.980485  1
  B  B23  1  0.799450  0.980677  0.625347  1
  B  B24  1  0.372058  0.022562  0.203185  1
  B  B25  1  0.022666  0.202658  0.372644  1
  B  B26  1  0.202881  0.372297  0.022800  1
  B  B27  1  0.022800  0.372297  0.202881  1
  B  B28  1  0.372644  0.202658  0.022666  1
  B  B29  1  0.203185  0.022562  0.372058  1
  B  B30  1  0.580740  0.178736  0.892207  1
  B  B31  1  0.178433  0.891098  0.581341  1
  B  B32  1  0.891967  0.580889  0.179380  1
  B  B33  1  0.179380  0.580889  0.891967  1
  B  B34  1  0.581341  0.891098  0.178433  1
  B  B35  1  0.892207  0.178736  0.580740  1
  B  B36  1  0.411158  0.826012  0.108635  1
  B  B37  1  0.826081  0.109936  0.410561  1
  B  B38  1  0.109053  0.411166  0.825224  1
  B  B39  1  0.825224  0.411166  0.109053  1
  B  B40  1  0.410561  0.109936  0.826081  1
  B  B41  1  0.108635  0.826012  0.411158  1
  B  B42  1  0.556409  0.125188  0.126627  1
  B  B43  1  0.126627  0.125188  0.556409  1
  B  B44  1  0.125917  0.556142  0.125917  1
  B  B45  1  0.434915  0.878905  0.877553  1
  B  B46  1  0.877553  0.878905  0.434915  1
  B  B47  1  0.878399  0.435087  0.878399  1
  C  C48  1  0.067445  0.067271  0.067445  1
