# generated using pymatgen
data_Y2B10Rh
_symmetry_space_group_name_H-M   'P 1'
_cell_length_a   4.16711800
_cell_length_b   5.68502000
_cell_length_c   11.32406900
_cell_angle_alpha   90.00000000
_cell_angle_beta   90.00000000
_cell_angle_gamma   90.00000000
_symmetry_Int_Tables_number   1
_chemical_formula_structural   Y2B10Rh
_chemical_formula_sum   'Y4 B20 Rh2'
_cell_volume   268.26888385
_cell_formula_units_Z   2
loop_
 _symmetry_equiv_pos_site_id
 _symmetry_equiv_pos_as_xyz
  1  'x, y, z'
loop_
 _atom_site_type_symbol
 _atom_site_label
 _atom_site_symmetry_multiplicity
 _atom_site_fract_x
 _atom_site_fract_y
 _atom_site_fract_z
 _atom_site_occupancy
  Y  Y0  1  0.500000  0.200444  0.364189  1
  Y  Y1  1  0.500000  0.799556  0.635811  1
  Y  Y2  1  0.500000  0.299556  0.864189  1
  Y  Y3  1  0.500000  0.700444  0.135811  1
  B  B4  1  0.000000  0.381462  0.042499  1
  B  B5  1  0.000000  0.618538  0.957501  1
  B  B6  1  0.000000  0.118538  0.542499  1
  B  B7  1  0.000000  0.881462  0.457501  1
  B  B8  1  0.000000  0.363533  0.197325  1
  B  B9  1  0.000000  0.636467  0.802675  1
  B  B10  1  0.000000  0.136467  0.697325  1
  B  B11  1  0.000000  0.863533  0.302675  1
  B  B12  1  0.000000  0.055972  0.192873  1
  B  B13  1  0.000000  0.944028  0.807127  1
  B  B14  1  0.000000  0.444028  0.692873  1
  B  B15  1  0.000000  0.555972  0.307127  1
  B  B16  1  0.301329  0.220068  0.118749  1
  B  B17  1  0.698671  0.779932  0.881251  1
  B  B18  1  0.301329  0.779932  0.881251  1
  B  B19  1  0.698671  0.279932  0.618749  1
  B  B20  1  0.698671  0.220068  0.118749  1
  B  B21  1  0.301329  0.720068  0.381251  1
  B  B22  1  0.698671  0.720068  0.381251  1
  B  B23  1  0.301329  0.279932  0.618749  1
  Rh  Rh24  1  0.000000  0.000000  0.000000  1
  Rh  Rh25  1  0.000000  0.500000  0.500000  1
