# generated using pymatgen
data_Tb5Ho9Au20
_symmetry_space_group_name_H-M   'P 1'
_cell_length_a   8.73299006
_cell_length_b   8.73298584
_cell_length_c   10.39588801
_cell_angle_alpha   89.99780135
_cell_angle_beta   89.99776448
_cell_angle_gamma   107.18259914
_symmetry_Int_Tables_number   1
_chemical_formula_structural   Tb5Ho9Au20
_chemical_formula_sum   'Tb5 Ho9 Au20'
_cell_volume   757.45713424
_cell_formula_units_Z   1
loop_
 _symmetry_equiv_pos_site_id
 _symmetry_equiv_pos_as_xyz
  1  'x, y, z'
loop_
 _atom_site_type_symbol
 _atom_site_label
 _atom_site_symmetry_multiplicity
 _atom_site_fract_x
 _atom_site_fract_y
 _atom_site_fract_z
 _atom_site_occupancy
  Tb  Tb0  1  0.500000  0.500000  0.500000  1
  Tb  Tb1  1  0.312365  0.312365  0.188053  1
  Tb  Tb2  1  0.687635  0.687635  0.811947  1
  Tb  Tb3  1  0.187398  0.187398  0.688906  1
  Tb  Tb4  1  0.812602  0.812602  0.311094  1
  Ho  Ho5  1  0.693942  0.306058  0.000000  1
  Ho  Ho6  1  0.306058  0.693942  0.000000  1
  Ho  Ho7  1  0.806106  0.193892  0.500001  1
  Ho  Ho8  1  0.193894  0.806108  0.499999  1
  Ho  Ho9  1  0.000000  0.000000  0.000000  1
  Ho  Ho10  1  0.002547  0.502588  0.249777  1
  Ho  Ho11  1  0.997453  0.497412  0.750223  1
  Ho  Ho12  1  0.497414  0.997454  0.750222  1
  Ho  Ho13  1  0.502586  0.002546  0.249778  1
  Au  Au14  1  0.859914  0.149835  0.209258  1
  Au  Au15  1  0.140086  0.850165  0.790742  1
  Au  Au16  1  0.641113  0.349582  0.709963  1
  Au  Au17  1  0.650419  0.358889  0.290037  1
  Au  Au18  1  0.358887  0.650418  0.290037  1
  Au  Au19  1  0.349581  0.641111  0.709963  1
  Au  Au20  1  0.850166  0.140086  0.790743  1
  Au  Au21  1  0.149834  0.859914  0.209257  1
  Au  Au22  1  0.937801  0.644859  0.002953  1
  Au  Au23  1  0.062199  0.355141  0.997047  1
  Au  Au24  1  0.562594  0.856399  0.502737  1
  Au  Au25  1  0.143599  0.437405  0.497263  1
  Au  Au26  1  0.437406  0.143601  0.497263  1
  Au  Au27  1  0.856401  0.562595  0.502737  1
  Au  Au28  1  0.355141  0.062199  0.997047  1
  Au  Au29  1  0.644859  0.937801  0.002953  1
  Au  Au30  1  0.104786  0.104787  0.397532  1
  Au  Au31  1  0.895214  0.895213  0.602468  1
  Au  Au32  1  0.395659  0.395658  0.897566  1
  Au  Au33  1  0.604341  0.604342  0.102434  1
