# generated using pymatgen
data_Sc4Fe11(P4Ir3)3
_symmetry_space_group_name_H-M   'P 1'
_cell_length_a   3.75521300
_cell_length_b   10.22641688
_cell_length_c   12.16762960
_cell_angle_alpha   89.96400575
_cell_angle_beta   90.00000000
_cell_angle_gamma   90.00000000
_symmetry_Int_Tables_number   1
_chemical_formula_structural   Sc4Fe11(P4Ir3)3
_chemical_formula_sum   'Sc4 Fe11 P12 Ir9'
_cell_volume   467.26576543
_cell_formula_units_Z   1
loop_
 _symmetry_equiv_pos_site_id
 _symmetry_equiv_pos_as_xyz
  1  'x, y, z'
loop_
 _atom_site_type_symbol
 _atom_site_label
 _atom_site_symmetry_multiplicity
 _atom_site_fract_x
 _atom_site_fract_y
 _atom_site_fract_z
 _atom_site_occupancy
  Sc  Sc0  1  0.250000  0.580648  0.713549  1
  Sc  Sc1  1  0.250000  0.916393  0.215584  1
  Sc  Sc2  1  0.750000  0.424788  0.289462  1
  Sc  Sc3  1  0.750000  0.079783  0.784771  1
  Fe  Fe4  1  0.250000  0.275487  0.670697  1
  Fe  Fe5  1  0.750000  0.774835  0.828370  1
  Fe  Fe6  1  0.750000  0.724222  0.329433  1
  Fe  Fe7  1  0.250000  0.876647  0.695924  1
  Fe  Fe8  1  0.250000  0.626781  0.196753  1
  Fe  Fe9  1  0.750000  0.119037  0.303323  1
  Fe  Fe10  1  0.750000  0.377745  0.802531  1
  Fe  Fe11  1  0.250000  0.457018  0.935445  1
  Fe  Fe12  1  0.250000  0.041005  0.437941  1
  Fe  Fe13  1  0.750000  0.542206  0.062998  1
  Fe  Fe14  1  0.750000  0.958062  0.564092  1
  P  P15  1  0.250000  0.439734  0.113766  1
  P  P16  1  0.250000  0.071099  0.616524  1
  P  P17  1  0.750000  0.570946  0.883399  1
  P  P18  1  0.750000  0.927359  0.385357  1
  P  P19  1  0.250000  0.269523  0.850078  1
  P  P20  1  0.250000  0.230222  0.362262  1
  P  P21  1  0.750000  0.730445  0.149089  1
  P  P22  1  0.750000  0.770051  0.648810  1
  P  P23  1  0.250000  0.604053  0.374598  1
  P  P24  1  0.250000  0.895633  0.872300  1
  P  P25  1  0.750000  0.398677  0.626074  1
  P  P26  1  0.750000  0.094007  0.122804  1
  Ir  Ir27  1  0.250000  0.709247  0.983203  1
  Ir  Ir28  1  0.250000  0.790238  0.485058  1
  Ir  Ir29  1  0.750000  0.285966  0.009948  1
  Ir  Ir30  1  0.750000  0.211209  0.514685  1
  Ir  Ir31  1  0.250000  0.409071  0.475167  1
  Ir  Ir32  1  0.250000  0.090489  0.968455  1
  Ir  Ir33  1  0.750000  0.595247  0.527987  1
  Ir  Ir34  1  0.750000  0.902881  0.025226  1
  Ir  Ir35  1  0.250000  0.229248  0.174332  1
