# generated using pymatgen
data_SmZr2Fe8Os
_symmetry_space_group_name_H-M   'P 1'
_cell_length_a   5.04459901
_cell_length_b   5.04459808
_cell_length_c   8.66739012
_cell_angle_alpha   73.08154369
_cell_angle_beta   73.08154430
_cell_angle_gamma   60.00000277
_symmetry_Int_Tables_number   1
_chemical_formula_structural   SmZr2Fe8Os
_chemical_formula_sum   'Sm1 Zr2 Fe8 Os1'
_cell_volume   179.90969480
_cell_formula_units_Z   1
loop_
 _symmetry_equiv_pos_site_id
 _symmetry_equiv_pos_as_xyz
  1  'x, y, z'
loop_
 _atom_site_type_symbol
 _atom_site_label
 _atom_site_symmetry_multiplicity
 _atom_site_fract_x
 _atom_site_fract_y
 _atom_site_fract_z
 _atom_site_occupancy
  Sm  Sm0  1  0.000000  0.000000  0.000000  1
  Zr  Zr1  1  0.143193  0.143193  0.570420  1
  Zr  Zr2  1  0.856807  0.856807  0.429580  1
  Fe  Fe3  1  0.078140  0.585281  0.751300  1
  Fe  Fe4  1  0.585281  0.585281  0.751300  1
  Fe  Fe5  1  0.585281  0.078140  0.751300  1
  Fe  Fe6  1  0.921860  0.414719  0.248700  1
  Fe  Fe7  1  0.414719  0.414719  0.248700  1
  Fe  Fe8  1  0.414719  0.921860  0.248700  1
  Fe  Fe9  1  0.333049  0.333049  0.000854  1
  Fe  Fe10  1  0.666951  0.666951  0.999146  1
  Os  Os11  1  0.500000  0.500000  0.500000  1
