# generated using pymatgen
data_Th2Mn3Co9P7
_symmetry_space_group_name_H-M   'P 1'
_cell_length_a   9.12627820
_cell_length_b   9.10694585
_cell_length_c   3.70303900
_cell_angle_alpha   90.00000000
_cell_angle_beta   90.00000000
_cell_angle_gamma   120.18031034
_symmetry_Int_Tables_number   1
_chemical_formula_structural   Th2Mn3Co9P7
_chemical_formula_sum   'Th2 Mn3 Co9 P7'
_cell_volume   266.05009808
_cell_formula_units_Z   1
loop_
 _symmetry_equiv_pos_site_id
 _symmetry_equiv_pos_as_xyz
  1  'x, y, z'
loop_
 _atom_site_type_symbol
 _atom_site_label
 _atom_site_symmetry_multiplicity
 _atom_site_fract_x
 _atom_site_fract_y
 _atom_site_fract_z
 _atom_site_occupancy
  Th  Th0  1  0.333915  0.666779  0.000000  1
  Th  Th1  1  0.999466  0.999662  0.500000  1
  Mn  Mn2  1  0.786013  0.235269  0.500000  1
  Mn  Mn3  1  0.764687  0.548913  0.500000  1
  Mn  Mn4  1  0.450374  0.217792  0.500000  1
  Co  Co5  1  0.038584  0.270903  0.000000  1
  Co  Co6  1  0.729133  0.767947  0.000000  1
  Co  Co7  1  0.231354  0.962407  0.000000  1
  Co  Co8  1  0.544056  0.057740  0.000000  1
  Co  Co9  1  0.939941  0.485054  0.000000  1
  Co  Co10  1  0.515845  0.455036  0.000000  1
  Co  Co11  1  0.613812  0.900252  0.500000  1
  Co  Co12  1  0.100059  0.713066  0.500000  1
  Co  Co13  1  0.287142  0.386908  0.500000  1
  P  P14  1  0.771173  0.036967  0.000000  1
  P  P15  1  0.963340  0.734118  0.000000  1
  P  P16  1  0.263865  0.229578  0.000000  1
  P  P17  1  0.373448  0.936937  0.500000  1
  P  P18  1  0.062996  0.436835  0.500000  1
  P  P19  1  0.564140  0.625854  0.500000  1
  P  P20  1  0.666656  0.331983  0.000000  1
