# generated using pymatgen
data_Ho8V11Si16Tc
_symmetry_space_group_name_H-M   'P 1'
_cell_length_a   6.80951971
_cell_length_b   6.80952057
_cell_length_c   12.61561000
_cell_angle_alpha   89.97965540
_cell_angle_beta   90.02034300
_cell_angle_gamma   89.75573809
_symmetry_Int_Tables_number   1
_chemical_formula_structural   Ho8V11Si16Tc
_chemical_formula_sum   'Ho8 V11 Si16 Tc1'
_cell_volume   584.97495211
_cell_formula_units_Z   1
loop_
 _symmetry_equiv_pos_site_id
 _symmetry_equiv_pos_as_xyz
  1  'x, y, z'
loop_
 _atom_site_type_symbol
 _atom_site_label
 _atom_site_symmetry_multiplicity
 _atom_site_fract_x
 _atom_site_fract_y
 _atom_site_fract_z
 _atom_site_occupancy
  Ho  Ho0  1  0.999359  0.662162  0.029496  1
  Ho  Ho1  1  0.837498  0.498164  0.280284  1
  Ho  Ho2  1  0.162735  0.500061  0.780668  1
  Ho  Ho3  1  0.498164  0.837498  0.719716  1
  Ho  Ho4  1  0.500061  0.162735  0.219332  1
  Ho  Ho5  1  0.001755  0.337673  0.529928  1
  Ho  Ho6  1  0.662162  0.999359  0.970504  1
  Ho  Ho7  1  0.337673  0.001755  0.470072  1
  V  V8  1  0.171408  0.831949  0.248217  1
  V  V9  1  0.831949  0.171408  0.751783  1
  V  V10  1  0.670986  0.670986  0.500000  1
  V  V11  1  0.004088  0.155379  0.126532  1
  V  V12  1  0.340064  0.507785  0.374583  1
  V  V13  1  0.665745  0.491896  0.873330  1
  V  V14  1  0.507785  0.340064  0.625417  1
  V  V15  1  0.491896  0.665745  0.126670  1
  V  V16  1  0.990301  0.839626  0.624069  1
  V  V17  1  0.155379  0.004088  0.873468  1
  V  V18  1  0.839626  0.990301  0.375931  1
  Si  Si19  1  0.286195  0.961098  0.063438  1
  Si  Si20  1  0.540418  0.788702  0.315345  1
  Si  Si21  1  0.458867  0.211839  0.815288  1
  Si  Si22  1  0.788702  0.540418  0.684655  1
  Si  Si23  1  0.211839  0.458867  0.184712  1
  Si  Si24  1  0.711697  0.041703  0.565411  1
  Si  Si25  1  0.961098  0.286195  0.936562  1
  Si  Si26  1  0.041703  0.711697  0.434589  1
  Si  Si27  1  0.697217  0.378965  0.065185  1
  Si  Si28  1  0.124044  0.198268  0.314894  1
  Si  Si29  1  0.875839  0.799412  0.814508  1
  Si  Si30  1  0.198268  0.124044  0.685106  1
  Si  Si31  1  0.799412  0.875839  0.185492  1
  Si  Si32  1  0.301406  0.624155  0.564524  1
  Si  Si33  1  0.378965  0.697217  0.934815  1
  Si  Si34  1  0.624155  0.301406  0.435476  1
  Tc  Tc35  1  0.331544  0.331544  0.000000  1
