# generated using pymatgen
data_Ca20InNi8Hg3
_symmetry_space_group_name_H-M   'P 1'
_cell_length_a   7.70484900
_cell_length_b   7.70484900
_cell_length_c   14.89841100
_cell_angle_alpha   90.00000000
_cell_angle_beta   90.00000000
_cell_angle_gamma   90.00000000
_symmetry_Int_Tables_number   1
_chemical_formula_structural   Ca20InNi8Hg3
_chemical_formula_sum   'Ca20 In1 Ni8 Hg3'
_cell_volume   884.43967138
_cell_formula_units_Z   1
loop_
 _symmetry_equiv_pos_site_id
 _symmetry_equiv_pos_as_xyz
  1  'x, y, z'
loop_
 _atom_site_type_symbol
 _atom_site_label
 _atom_site_symmetry_multiplicity
 _atom_site_fract_x
 _atom_site_fract_y
 _atom_site_fract_z
 _atom_site_occupancy
  Ca  Ca0  1  0.669432  0.171981  0.115594  1
  Ca  Ca1  1  0.170843  0.671825  0.617908  1
  Ca  Ca2  1  0.330568  0.828019  0.115594  1
  Ca  Ca3  1  0.829157  0.328175  0.617908  1
  Ca  Ca4  1  0.828019  0.669432  0.115594  1
  Ca  Ca5  1  0.328175  0.170843  0.617908  1
  Ca  Ca6  1  0.171981  0.330568  0.115594  1
  Ca  Ca7  1  0.671825  0.829157  0.617908  1
  Ca  Ca8  1  0.828019  0.330568  0.884406  1
  Ca  Ca9  1  0.328175  0.829157  0.382092  1
  Ca  Ca10  1  0.171981  0.669432  0.884406  1
  Ca  Ca11  1  0.671825  0.170843  0.382092  1
  Ca  Ca12  1  0.669432  0.828019  0.884406  1
  Ca  Ca13  1  0.170843  0.328175  0.382092  1
  Ca  Ca14  1  0.330568  0.171981  0.884406  1
  Ca  Ca15  1  0.829157  0.671825  0.382092  1
  Ca  Ca16  1  0.500000  0.500000  0.751700  1
  Ca  Ca17  1  0.000000  0.000000  0.246747  1
  Ca  Ca18  1  0.000000  0.000000  0.753253  1
  Ca  Ca19  1  0.500000  0.500000  0.248300  1
  In  In20  1  0.000000  0.000000  0.000000  1
  Ni  Ni21  1  0.609180  0.109890  0.750630  1
  Ni  Ni22  1  0.109890  0.609180  0.249370  1
  Ni  Ni23  1  0.890110  0.390820  0.249370  1
  Ni  Ni24  1  0.390820  0.890110  0.750630  1
  Ni  Ni25  1  0.890110  0.609180  0.750630  1
  Ni  Ni26  1  0.390820  0.109890  0.249370  1
  Ni  Ni27  1  0.109890  0.390820  0.750630  1
  Ni  Ni28  1  0.609180  0.890110  0.249370  1
  Hg  Hg29  1  0.500000  0.500000  0.500000  1
  Hg  Hg30  1  0.500000  0.500000  0.000000  1
  Hg  Hg31  1  0.000000  0.000000  0.500000  1
