# generated using pymatgen
data_Dy3Y3(ScAu5)2
_symmetry_space_group_name_H-M   'P 1'
_cell_length_a   7.92193281
_cell_length_b   7.92193212
_cell_length_c   7.92193145
_cell_angle_alpha   66.27150439
_cell_angle_beta   66.27151139
_cell_angle_gamma   66.27149375
_symmetry_Int_Tables_number   1
_chemical_formula_structural   Dy3Y3(ScAu5)2
_chemical_formula_sum   'Dy3 Y3 Sc2 Au10'
_cell_volume   399.13237189
_cell_formula_units_Z   1
loop_
 _symmetry_equiv_pos_site_id
 _symmetry_equiv_pos_as_xyz
  1  'x, y, z'
loop_
 _atom_site_type_symbol
 _atom_site_label
 _atom_site_symmetry_multiplicity
 _atom_site_fract_x
 _atom_site_fract_y
 _atom_site_fract_z
 _atom_site_occupancy
  Dy  Dy0  1  0.891361  0.189009  0.619171  1
  Dy  Dy1  1  0.619171  0.891361  0.189009  1
  Dy  Dy2  1  0.189009  0.619171  0.891361  1
  Y  Y3  1  0.108736  0.811130  0.380981  1
  Y  Y4  1  0.380981  0.108736  0.811130  1
  Y  Y5  1  0.811130  0.380981  0.108736  1
  Sc  Sc6  1  0.659096  0.659096  0.659096  1
  Sc  Sc7  1  0.340719  0.340719  0.340719  1
  Au  Au8  1  0.999826  0.999826  0.999826  1
  Au  Au9  1  0.500121  0.500121  0.500121  1
  Au  Au10  1  0.807006  0.807006  0.807006  1
  Au  Au11  1  0.193233  0.193233  0.193233  1
  Au  Au12  1  0.937056  0.549997  0.320157  1
  Au  Au13  1  0.320157  0.937056  0.549997  1
  Au  Au14  1  0.549997  0.320157  0.937056  1
  Au  Au15  1  0.062760  0.449759  0.679884  1
  Au  Au16  1  0.679884  0.062760  0.449759  1
  Au  Au17  1  0.449759  0.679884  0.062760  1
