# generated using pymatgen
data_Al3V4
_symmetry_space_group_name_H-M   'P 1'
_cell_length_a   3.28760122
_cell_length_b   6.57781447
_cell_length_c   7.77393802
_cell_angle_alpha   38.96130515
_cell_angle_beta   77.79908997
_cell_angle_gamma   89.99663171
_symmetry_Int_Tables_number   1
_chemical_formula_structural   Al3V4
_chemical_formula_sum   'Al3 V4'
_cell_volume   99.56194835
_cell_formula_units_Z   1
loop_
 _symmetry_equiv_pos_site_id
 _symmetry_equiv_pos_as_xyz
  1  'x, y, z'
loop_
 _atom_site_type_symbol
 _atom_site_label
 _atom_site_symmetry_multiplicity
 _atom_site_fract_x
 _atom_site_fract_y
 _atom_site_fract_z
 _atom_site_occupancy
  Al  Al0  1  0.675319  0.197563  0.561972  1
  Al  Al1  1  0.532097  0.313687  0.848970  1
  Al  Al2  1  0.103634  0.755527  0.705504  1
  V  V3  1  0.262712  0.662320  0.386830  1
  V  V4  1  0.390500  0.465332  0.130941  1
  V  V5  1  0.816806  0.045574  0.280164  1
  V  V6  1  0.944637  0.848710  0.024465  1
