# generated using pymatgen
data_Dy5Ho(RuBr3)2
_symmetry_space_group_name_H-M   'P 1'
_cell_length_a   4.08802500
_cell_length_b   8.54347966
_cell_length_c   11.92588077
_cell_angle_alpha   87.33949493
_cell_angle_beta   90.00000000
_cell_angle_gamma   90.00000000
_symmetry_Int_Tables_number   1
_chemical_formula_structural   Dy5Ho(RuBr3)2
_chemical_formula_sum   'Dy5 Ho1 Ru2 Br6'
_cell_volume   416.07384991
_cell_formula_units_Z   1
loop_
 _symmetry_equiv_pos_site_id
 _symmetry_equiv_pos_as_xyz
  1  'x, y, z'
loop_
 _atom_site_type_symbol
 _atom_site_label
 _atom_site_symmetry_multiplicity
 _atom_site_fract_x
 _atom_site_fract_y
 _atom_site_fract_z
 _atom_site_occupancy
  Dy  Dy0  1  0.250000  0.273578  0.396623  1
  Dy  Dy1  1  0.750000  0.724954  0.603411  1
  Dy  Dy2  1  0.250000  0.862175  0.363429  1
  Dy  Dy3  1  0.750000  0.136969  0.635332  1
  Dy  Dy4  1  0.250000  0.889560  0.825323  1
  Ho  Ho5  1  0.750000  0.112049  0.174966  1
  Ru  Ru6  1  0.250000  0.940935  0.595083  1
  Ru  Ru7  1  0.750000  0.058030  0.403707  1
  Br  Br8  1  0.250000  0.428065  0.630669  1
  Br  Br9  1  0.750000  0.569116  0.372114  1
  Br  Br10  1  0.250000  0.881996  0.102923  1
  Br  Br11  1  0.750000  0.122170  0.896041  1
  Br  Br12  1  0.250000  0.349567  0.142231  1
  Br  Br13  1  0.750000  0.650834  0.858149  1
