# generated using pymatgen
data_Th5Zr3(Co4As3)4
_symmetry_space_group_name_H-M   'P 1'
_cell_length_a   12.80081900
_cell_length_b   12.80081800
_cell_length_c   3.97813700
_cell_angle_alpha   90.00000000
_cell_angle_beta   90.00000000
_cell_angle_gamma   120.00000517
_symmetry_Int_Tables_number   1
_chemical_formula_structural   Th5Zr3(Co4As3)4
_chemical_formula_sum   'Th5 Zr3 Co16 As12'
_cell_volume   564.52843783
_cell_formula_units_Z   1
loop_
 _symmetry_equiv_pos_site_id
 _symmetry_equiv_pos_as_xyz
  1  'x, y, z'
loop_
 _atom_site_type_symbol
 _atom_site_label
 _atom_site_symmetry_multiplicity
 _atom_site_fract_x
 _atom_site_fract_y
 _atom_site_fract_z
 _atom_site_occupancy
  Th  Th0  1  0.185926  0.185926  0.500000  1
  Th  Th1  1  0.814074  0.000000  0.500000  1
  Th  Th2  1  0.000000  0.814074  0.500000  1
  Th  Th3  1  0.333333  0.666667  0.000000  1
  Th  Th4  1  0.666667  0.333333  0.000000  1
  Zr  Zr5  1  0.569580  0.569580  0.000000  1
  Zr  Zr6  1  0.430420  0.000000  0.000000  1
  Zr  Zr7  1  0.000000  0.430420  0.000000  1
  Co  Co8  1  0.722444  0.722444  0.500000  1
  Co  Co9  1  0.277556  0.000000  0.500000  1
  Co  Co10  1  0.000000  0.277556  0.500000  1
  Co  Co11  1  0.183970  0.377494  0.000000  1
  Co  Co12  1  0.622506  0.806476  0.000000  1
  Co  Co13  1  0.193524  0.816030  0.000000  1
  Co  Co14  1  0.806476  0.622506  0.000000  1
  Co  Co15  1  0.816030  0.193524  0.000000  1
  Co  Co16  1  0.377494  0.183970  0.000000  1
  Co  Co17  1  0.360602  0.483751  0.500000  1
  Co  Co18  1  0.516249  0.876853  0.500000  1
  Co  Co19  1  0.123147  0.639398  0.500000  1
  Co  Co20  1  0.876853  0.516249  0.500000  1
  Co  Co21  1  0.639398  0.123147  0.500000  1
  Co  Co22  1  0.483751  0.360602  0.500000  1
  Co  Co23  1  0.000000  0.000000  0.000000  1
  As  As24  1  0.818543  0.818543  0.000000  1
  As  As25  1  0.181457  0.000000  0.000000  1
  As  As26  1  0.000000  0.181457  0.000000  1
  As  As27  1  0.170959  0.475650  0.500000  1
  As  As28  1  0.524350  0.695309  0.500000  1
  As  As29  1  0.304691  0.829041  0.500000  1
  As  As30  1  0.695309  0.524350  0.500000  1
  As  As31  1  0.829041  0.304691  0.500000  1
  As  As32  1  0.475650  0.170959  0.500000  1
  As  As33  1  0.361927  0.361927  0.000000  1
  As  As34  1  0.638073  0.000000  0.000000  1
  As  As35  1  0.000000  0.638073  0.000000  1
