# generated using pymatgen
data_PrNd9C4Cl17
_symmetry_space_group_name_H-M   'P 1'
_cell_length_a   8.87054252
_cell_length_b   9.51374907
_cell_length_c   11.96447533
_cell_angle_alpha   104.57937186
_cell_angle_beta   96.14998043
_cell_angle_gamma   110.92419009
_symmetry_Int_Tables_number   1
_chemical_formula_structural   PrNd9C4Cl17
_chemical_formula_sum   'Pr1 Nd9 C4 Cl17'
_cell_volume   890.80809833
_cell_formula_units_Z   1
loop_
 _symmetry_equiv_pos_site_id
 _symmetry_equiv_pos_as_xyz
  1  'x, y, z'
loop_
 _atom_site_type_symbol
 _atom_site_label
 _atom_site_symmetry_multiplicity
 _atom_site_fract_x
 _atom_site_fract_y
 _atom_site_fract_z
 _atom_site_occupancy
  Pr  Pr0  1  0.654080  0.486731  0.438096  1
  Nd  Nd1  1  0.346705  0.512833  0.561754  1
  Nd  Nd2  1  0.078582  0.424190  0.268950  1
  Nd  Nd3  1  0.921312  0.575815  0.731081  1
  Nd  Nd4  1  0.409569  0.367677  0.135442  1
  Nd  Nd5  1  0.590351  0.632345  0.864573  1
  Nd  Nd6  1  0.492410  0.782613  0.341029  1
  Nd  Nd7  1  0.507495  0.217419  0.658987  1
  Nd  Nd8  1  0.205687  0.096274  0.307721  1
  Nd  Nd9  1  0.794259  0.903778  0.692331  1
  C  C10  1  0.395681  0.526075  0.342152  1
  C  C11  1  0.603532  0.474029  0.658094  1
  C  C12  1  0.325800  0.364641  0.337082  1
  C  C13  1  0.673536  0.635531  0.663321  1
  Cl  Cl14  1  0.103988  0.349148  0.039489  1
  Cl  Cl15  1  0.896035  0.650848  0.960497  1
  Cl  Cl16  1  0.811530  0.821112  0.444984  1
  Cl  Cl17  1  0.188692  0.179567  0.555067  1
  Cl  Cl18  1  0.000721  0.500035  0.500132  1
  Cl  Cl19  1  0.297406  0.042888  0.094829  1
  Cl  Cl20  1  0.702608  0.957132  0.905184  1
  Cl  Cl21  1  0.903360  0.103929  0.248242  1
  Cl  Cl22  1  0.096625  0.896053  0.751748  1
  Cl  Cl23  1  0.542715  0.132791  0.412404  1
  Cl  Cl24  1  0.457099  0.866781  0.587596  1
  Cl  Cl25  1  0.739645  0.414301  0.211009  1
  Cl  Cl26  1  0.260599  0.585456  0.788189  1
  Cl  Cl27  1  0.165568  0.755674  0.286739  1
  Cl  Cl28  1  0.834419  0.244339  0.713254  1
  Cl  Cl29  1  0.535369  0.684276  0.111114  1
  Cl  Cl30  1  0.464626  0.315722  0.888908  1
