# generated using pymatgen
data_Rb12Na8Zr4AsP11
_symmetry_space_group_name_H-M   'P 1'
_cell_length_a   10.84719307
_cell_length_b   10.83969548
_cell_length_c   15.61476401
_cell_angle_alpha   90.02770222
_cell_angle_beta   89.94391409
_cell_angle_gamma   142.83714749
_symmetry_Int_Tables_number   1
_chemical_formula_structural   Rb12Na8Zr4AsP11
_chemical_formula_sum   'Rb12 Na8 Zr4 As1 P11'
_cell_volume   1109.08776722
_cell_formula_units_Z   1
loop_
 _symmetry_equiv_pos_site_id
 _symmetry_equiv_pos_as_xyz
  1  'x, y, z'
loop_
 _atom_site_type_symbol
 _atom_site_label
 _atom_site_symmetry_multiplicity
 _atom_site_fract_x
 _atom_site_fract_y
 _atom_site_fract_z
 _atom_site_occupancy
  Rb  Rb0  1  0.947840  0.607426  0.822952  1
  Rb  Rb1  1  0.552251  0.893010  0.323391  1
  Rb  Rb2  1  0.392410  0.051716  0.178265  1
  Rb  Rb3  1  0.053153  0.392035  0.177292  1
  Rb  Rb4  1  0.892946  0.552247  0.325682  1
  Rb  Rb5  1  0.447691  0.107576  0.676422  1
  Rb  Rb6  1  0.607743  0.947521  0.822170  1
  Rb  Rb7  1  0.280856  0.280119  0.315811  1
  Rb  Rb8  1  0.779131  0.781886  0.185150  1
  Rb  Rb9  1  0.218479  0.219297  0.814642  1
  Rb  Rb10  1  0.719210  0.719123  0.684000  1
  Rb  Rb11  1  0.107518  0.447880  0.676565  1
  Na  Na12  1  0.919733  0.080083  0.999862  1
  Na  Na13  1  0.580036  0.420032  0.500069  1
  Na  Na14  1  0.080150  0.921336  0.999167  1
  Na  Na15  1  0.419986  0.580052  0.499989  1
  Na  Na16  1  0.754086  0.242219  0.999141  1
  Na  Na17  1  0.745086  0.255000  0.500121  1
  Na  Na18  1  0.248212  0.757048  0.999288  1
  Na  Na19  1  0.255020  0.744944  0.500099  1
  Zr  Zr20  1  0.582128  0.412084  0.998642  1
  Zr  Zr21  1  0.914155  0.085989  0.500161  1
  Zr  Zr22  1  0.413635  0.586042  0.999232  1
  Zr  Zr23  1  0.085908  0.914173  0.500327  1
  As  As24  1  0.875092  0.560572  0.099119  1
  P  P25  1  0.440579  0.129708  0.903889  1
  P  P26  1  0.629171  0.940857  0.595181  1
  P  P27  1  0.940650  0.629046  0.595234  1
  P  P28  1  0.129137  0.440895  0.904107  1
  P  P29  1  0.559374  0.870474  0.094733  1
  P  P30  1  0.371121  0.059426  0.405660  1
  P  P31  1  0.198423  0.198670  0.586017  1
  P  P32  1  0.697467  0.697745  0.913243  1
  P  P33  1  0.300332  0.301141  0.085010  1
  P  P34  1  0.059596  0.370933  0.405047  1
  P  P35  1  0.801696  0.801698  0.414321  1
