# generated using pymatgen
data_Tb2Ho8In8Pd3Pt
_symmetry_space_group_name_H-M   'P 1'
_cell_length_a   3.61142000
_cell_length_b   8.15998011
_cell_length_c   18.26910548
_cell_angle_alpha   90.05974601
_cell_angle_beta   90.00000000
_cell_angle_gamma   90.00000000
_symmetry_Int_Tables_number   1
_chemical_formula_structural   Tb2Ho8In8Pd3Pt
_chemical_formula_sum   'Tb2 Ho8 In8 Pd3 Pt1'
_cell_volume   538.37408441
_cell_formula_units_Z   1
loop_
 _symmetry_equiv_pos_site_id
 _symmetry_equiv_pos_as_xyz
  1  'x, y, z'
loop_
 _atom_site_type_symbol
 _atom_site_label
 _atom_site_symmetry_multiplicity
 _atom_site_fract_x
 _atom_site_fract_y
 _atom_site_fract_z
 _atom_site_occupancy
  Tb  Tb0  1  0.000000  0.999928  0.000150  1
  Tb  Tb1  1  0.000000  0.500297  0.499967  1
  Ho  Ho2  1  0.000000  0.118260  0.415449  1
  Ho  Ho3  1  0.000000  0.881504  0.584408  1
  Ho  Ho4  1  0.000000  0.381878  0.915587  1
  Ho  Ho5  1  0.000000  0.617739  0.085190  1
  Ho  Ho6  1  0.000000  0.245751  0.219379  1
  Ho  Ho7  1  0.000000  0.757370  0.780603  1
  Ho  Ho8  1  0.000000  0.257470  0.719511  1
  Ho  Ho9  1  0.000000  0.739559  0.279660  1
  In  In10  1  0.500000  0.422030  0.350505  1
  In  In11  1  0.500000  0.577235  0.650100  1
  In  In12  1  0.500000  0.077175  0.849889  1
  In  In13  1  0.500000  0.924043  0.150087  1
  In  In14  1  0.500000  0.293592  0.066702  1
  In  In15  1  0.500000  0.705932  0.932712  1
  In  In16  1  0.500000  0.205873  0.567200  1
  In  In17  1  0.500000  0.794341  0.432794  1
  Pd  Pd18  1  0.500000  0.024338  0.303506  1
  Pd  Pd19  1  0.500000  0.975477  0.696618  1
  Pd  Pd20  1  0.500000  0.475530  0.803365  1
  Pt  Pt21  1  0.500000  0.524680  0.196618  1
