# generated using pymatgen
data_Dy15Tm5(Ir3Rh)3
_symmetry_space_group_name_H-M   'P 1'
_cell_length_a   10.83549109
_cell_length_b   10.83472710
_cell_length_c   6.35533811
_cell_angle_alpha   90.01585367
_cell_angle_beta   89.98512019
_cell_angle_gamma   90.00049809
_symmetry_Int_Tables_number   1
_chemical_formula_structural   Dy15Tm5(Ir3Rh)3
_chemical_formula_sum   'Dy15 Tm5 Ir9 Rh3'
_cell_volume   746.11402891
_cell_formula_units_Z   1
loop_
 _symmetry_equiv_pos_site_id
 _symmetry_equiv_pos_as_xyz
  1  'x, y, z'
loop_
 _atom_site_type_symbol
 _atom_site_label
 _atom_site_symmetry_multiplicity
 _atom_site_fract_x
 _atom_site_fract_y
 _atom_site_fract_z
 _atom_site_occupancy
  Dy  Dy0  1  0.289674  0.088331  0.377807  1
  Dy  Dy1  1  0.289817  0.911727  0.877888  1
  Dy  Dy2  1  0.710238  0.088342  0.877949  1
  Dy  Dy3  1  0.710111  0.911939  0.378083  1
  Dy  Dy4  1  0.588316  0.789810  0.877880  1
  Dy  Dy5  1  0.588053  0.210123  0.378093  1
  Dy  Dy6  1  0.411925  0.789890  0.378088  1
  Dy  Dy7  1  0.411592  0.210210  0.878028  1
  Dy  Dy8  1  0.209351  0.411715  0.620958  1
  Dy  Dy9  1  0.209638  0.587870  0.123025  1
  Dy  Dy10  1  0.790523  0.411637  0.123085  1
  Dy  Dy11  1  0.790528  0.588023  0.620968  1
  Dy  Dy12  1  0.911775  0.709762  0.123126  1
  Dy  Dy13  1  0.912199  0.290450  0.620951  1
  Dy  Dy14  1  0.088000  0.709529  0.620997  1
  Tm  Tm15  1  0.088114  0.290817  0.122727  1
  Tm  Tm16  1  0.000020  0.000054  0.500261  1
  Tm  Tm17  1  0.000153  0.000390  0.000357  1
  Tm  Tm18  1  0.499986  0.499928  0.000241  1
  Tm  Tm19  1  0.499999  0.499987  0.500314  1
  Ir  Ir20  1  0.846936  0.152676  0.249462  1
  Ir  Ir21  1  0.846633  0.847250  0.749907  1
  Ir  Ir22  1  0.153132  0.153084  0.751018  1
  Ir  Ir23  1  0.153516  0.847525  0.249753  1
  Ir  Ir24  1  0.652739  0.346640  0.749916  1
  Ir  Ir25  1  0.652448  0.653538  0.249748  1
  Ir  Ir26  1  0.346915  0.346334  0.249437  1
  Ir  Ir27  1  0.347239  0.653366  0.749927  1
  Ir  Ir28  1  0.000244  0.499507  0.376443  1
  Rh  Rh29  1  0.499975  0.000025  0.122723  1
  Rh  Rh30  1  0.500018  0.000010  0.622841  1
  Rh  Rh31  1  0.000190  0.499510  0.877996  1
