# generated using pymatgen
data_Yb9PrSi5Sn
_symmetry_space_group_name_H-M   'P 1'
_cell_length_a   7.67213592
_cell_length_b   7.67589660
_cell_length_c   9.16079801
_cell_angle_alpha   114.65443471
_cell_angle_beta   114.80104684
_cell_angle_gamma   90.04981055
_symmetry_Int_Tables_number   1
_chemical_formula_structural   Yb9PrSi5Sn
_chemical_formula_sum   'Yb9 Pr1 Si5 Sn1'
_cell_volume   434.85622650
_cell_formula_units_Z   1
loop_
 _symmetry_equiv_pos_site_id
 _symmetry_equiv_pos_as_xyz
  1  'x, y, z'
loop_
 _atom_site_type_symbol
 _atom_site_label
 _atom_site_symmetry_multiplicity
 _atom_site_fract_x
 _atom_site_fract_y
 _atom_site_fract_z
 _atom_site_occupancy
  Yb  Yb0  1  0.506587  0.513213  0.019638  1
  Yb  Yb1  1  0.997749  0.991644  0.989760  1
  Yb  Yb2  1  0.971739  0.824014  0.281428  1
  Yb  Yb3  1  0.308971  0.457076  0.281591  1
  Yb  Yb4  1  0.824630  0.309464  0.280871  1
  Yb  Yb5  1  0.454968  0.969183  0.278155  1
  Yb  Yb6  1  0.043455  0.189106  0.718377  1
  Yb  Yb7  1  0.674596  0.532029  0.718632  1
  Yb  Yb8  1  0.189651  0.673949  0.718502  1
  Pr  Pr9  1  0.532642  0.049750  0.722072  1
  Si  Si10  1  0.250881  0.246255  0.500152  1
  Si  Si11  1  0.612824  0.887898  0.998426  1
  Si  Si12  1  0.388595  0.114323  0.999705  1
  Si  Si13  1  0.882969  0.383029  0.994732  1
  Si  Si14  1  0.109890  0.610171  0.998889  1
  Sn  Sn15  1  0.749854  0.748897  0.499070  1
