# generated using pymatgen
data_Rb9HfTaAs6
_symmetry_space_group_name_H-M   'P 1'
_cell_length_a   9.68809800
_cell_length_b   9.87032545
_cell_length_c   13.54971970
_cell_angle_alpha   83.68463336
_cell_angle_beta   90.00000000
_cell_angle_gamma   90.00000000
_symmetry_Int_Tables_number   1
_chemical_formula_structural   Rb9HfTaAs6
_chemical_formula_sum   'Rb18 Hf2 Ta2 As12'
_cell_volume   1287.82471931
_cell_formula_units_Z   2
loop_
 _symmetry_equiv_pos_site_id
 _symmetry_equiv_pos_as_xyz
  1  'x, y, z'
loop_
 _atom_site_type_symbol
 _atom_site_label
 _atom_site_symmetry_multiplicity
 _atom_site_fract_x
 _atom_site_fract_y
 _atom_site_fract_z
 _atom_site_occupancy
  Rb  Rb0  1  0.350970  0.586123  0.171391  1
  Rb  Rb1  1  0.408975  0.939141  0.568848  1
  Rb  Rb2  1  0.435339  0.629865  0.900910  1
  Rb  Rb3  1  0.484863  0.170810  0.296410  1
  Rb  Rb4  1  0.515137  0.170810  0.796410  1
  Rb  Rb5  1  0.564661  0.629865  0.400910  1
  Rb  Rb6  1  0.591025  0.939141  0.068848  1
  Rb  Rb7  1  0.649030  0.586123  0.671391  1
  Rb  Rb8  1  0.803272  0.011046  0.600973  1
  Rb  Rb9  1  0.831820  0.397030  0.338451  1
  Rb  Rb10  1  0.934716  0.072857  0.901556  1
  Rb  Rb11  1  0.935116  0.398348  0.613250  1
  Rb  Rb12  1  0.927733  0.803376  0.222658  1
  Rb  Rb13  1  0.072267  0.803376  0.722658  1
  Rb  Rb14  1  0.064884  0.398348  0.113250  1
  Rb  Rb15  1  0.065284  0.072857  0.401556  1
  Rb  Rb16  1  0.168180  0.397030  0.838451  1
  Rb  Rb17  1  0.196728  0.011046  0.100973  1
  Hf  Hf18  1  0.320468  0.343051  0.550017  1
  Hf  Hf19  1  0.679532  0.343051  0.050017  1
  Ta  Ta20  1  0.833613  0.655336  0.947732  1
  Ta  Ta21  1  0.166387  0.655336  0.447732  1
  As  As22  1  0.298159  0.591884  0.609590  1
  As  As23  1  0.286667  0.834911  0.334122  1
  As  As24  1  0.419789  0.283493  0.032029  1
  As  As25  1  0.580211  0.283493  0.532029  1
  As  As26  1  0.713333  0.834911  0.834122  1
  As  As27  1  0.701841  0.591884  0.109590  1
  As  As28  1  0.813657  0.425104  0.881466  1
  As  As29  1  0.820897  0.155646  0.157805  1
  As  As30  1  0.923654  0.720177  0.479890  1
  As  As31  1  0.076346  0.720177  0.979890  1
  As  As32  1  0.179103  0.155646  0.657805  1
  As  As33  1  0.186343  0.425104  0.381466  1
