# generated using pymatgen
data_ErTa3(NbCl6)3
_symmetry_space_group_name_H-M   'P 1'
_cell_length_a   10.12260501
_cell_length_b   10.12303143
_cell_length_c   10.12552232
_cell_angle_alpha   56.00439817
_cell_angle_beta   56.00062646
_cell_angle_gamma   55.99611218
_symmetry_Int_Tables_number   1
_chemical_formula_structural   ErTa3(NbCl6)3
_chemical_formula_sum   'Er1 Ta3 Nb3 Cl18'
_cell_volume   665.69560657
_cell_formula_units_Z   1
loop_
 _symmetry_equiv_pos_site_id
 _symmetry_equiv_pos_as_xyz
  1  'x, y, z'
loop_
 _atom_site_type_symbol
 _atom_site_label
 _atom_site_symmetry_multiplicity
 _atom_site_fract_x
 _atom_site_fract_y
 _atom_site_fract_z
 _atom_site_occupancy
  Er  Er0  1  0.999677  0.999892  0.000818  1
  Ta  Ta1  1  0.408140  0.300397  0.649581  1
  Ta  Ta2  1  0.350068  0.592134  0.699369  1
  Ta  Ta3  1  0.699906  0.350200  0.591504  1
  Nb  Nb4  1  0.299600  0.650800  0.407255  1
  Nb  Nb5  1  0.650593  0.408087  0.298921  1
  Nb  Nb6  1  0.592256  0.700778  0.348951  1
  Cl  Cl7  1  0.566938  0.159113  0.444587  1
  Cl  Cl8  1  0.223357  0.370600  0.908937  1
  Cl  Cl9  1  0.910397  0.222147  0.372631  1
  Cl  Cl10  1  0.369744  0.911370  0.222065  1
  Cl  Cl11  1  0.778059  0.630163  0.088654  1
  Cl  Cl12  1  0.090393  0.776678  0.632111  1
  Cl  Cl13  1  0.706076  0.958734  0.158592  1
  Cl  Cl14  1  0.955497  0.160261  0.705159  1
  Cl  Cl15  1  0.160929  0.704319  0.955880  1
  Cl  Cl16  1  0.295432  0.044120  0.839720  1
  Cl  Cl17  1  0.040910  0.841384  0.294336  1
  Cl  Cl18  1  0.841945  0.293702  0.041272  1
  Cl  Cl19  1  0.558094  0.431329  0.839164  1
  Cl  Cl20  1  0.160812  0.439101  0.570741  1
  Cl  Cl21  1  0.441670  0.568966  0.158954  1
  Cl  Cl22  1  0.429319  0.839120  0.560956  1
  Cl  Cl23  1  0.840870  0.555474  0.433118  1
  Cl  Cl24  1  0.629319  0.091129  0.776726  1
