# generated using pymatgen
data_DyLu2Ta3(B2Ru5)2
_symmetry_space_group_name_H-M   'P 1'
_cell_length_a   9.57254555
_cell_length_b   9.57278147
_cell_length_c   3.10926100
_cell_angle_alpha   90.00000000
_cell_angle_beta   90.00000000
_cell_angle_gamma   90.36728976
_symmetry_Int_Tables_number   1
_chemical_formula_structural   DyLu2Ta3(B2Ru5)2
_chemical_formula_sum   'Dy1 Lu2 Ta3 B4 Ru10'
_cell_volume   284.91403431
_cell_formula_units_Z   1
loop_
 _symmetry_equiv_pos_site_id
 _symmetry_equiv_pos_as_xyz
  1  'x, y, z'
loop_
 _atom_site_type_symbol
 _atom_site_label
 _atom_site_symmetry_multiplicity
 _atom_site_fract_x
 _atom_site_fract_y
 _atom_site_fract_z
 _atom_site_occupancy
  Dy  Dy0  1  0.824346  0.674822  0.000000  1
  Lu  Lu1  1  0.175818  0.323610  0.000000  1
  Lu  Lu2  1  0.325540  0.825741  0.000000  1
  Ta  Ta3  1  0.675309  0.175249  0.000000  1
  Ta  Ta4  1  0.497333  0.503050  0.000000  1
  Ta  Ta5  1  0.003643  0.998975  0.000000  1
  B  B6  1  0.622275  0.881526  0.000000  1
  B  B7  1  0.380242  0.123409  0.000000  1
  B  B8  1  0.119978  0.618862  0.000000  1
  B  B9  1  0.876962  0.376039  0.000000  1
  Ru  Ru10  1  0.569260  0.722741  0.500000  1
  Ru  Ru11  1  0.439196  0.280421  0.500000  1
  Ru  Ru12  1  0.071613  0.780851  0.500000  1
  Ru  Ru13  1  0.916924  0.213579  0.500000  1
  Ru  Ru14  1  0.280756  0.569564  0.500000  1
  Ru  Ru15  1  0.713426  0.415465  0.500000  1
  Ru  Ru16  1  0.221740  0.071652  0.500000  1
  Ru  Ru17  1  0.779839  0.941148  0.500000  1
  Ru  Ru18  1  0.507722  0.008728  0.500000  1
  Ru  Ru19  1  0.998078  0.494564  0.500000  1
