# generated using pymatgen
data_Li11PtRh
_symmetry_space_group_name_H-M   'P 1'
_cell_length_a   8.14228392
_cell_length_b   8.14228455
_cell_length_c   8.16529351
_cell_angle_alpha   109.46810276
_cell_angle_beta   109.46810294
_cell_angle_gamma   109.36301787
_symmetry_Int_Tables_number   1
_chemical_formula_structural   Li11PtRh
_chemical_formula_sum   'Li22 Pt2 Rh2'
_cell_volume   417.30531274
_cell_formula_units_Z   2
loop_
 _symmetry_equiv_pos_site_id
 _symmetry_equiv_pos_as_xyz
  1  'x, y, z'
loop_
 _atom_site_type_symbol
 _atom_site_label
 _atom_site_symmetry_multiplicity
 _atom_site_fract_x
 _atom_site_fract_y
 _atom_site_fract_z
 _atom_site_occupancy
  Li  Li0  1  0.999383  0.800461  0.000000  1
  Li  Li1  1  0.800461  0.999383  0.000000  1
  Li  Li2  1  0.999362  0.999362  0.799327  1
  Li  Li3  1  0.200035  0.200035  0.200673  1
  Li  Li4  1  0.352607  0.604345  0.352656  1
  Li  Li5  1  0.251689  0.999951  0.647344  1
  Li  Li6  1  0.649428  0.999982  0.252891  1
  Li  Li7  1  0.252479  0.648259  0.000000  1
  Li  Li8  1  0.747793  0.747793  0.396330  1
  Li  Li9  1  0.396537  0.747091  0.747109  1
  Li  Li10  1  0.999982  0.649428  0.252891  1
  Li  Li11  1  0.999951  0.251689  0.647344  1
  Li  Li12  1  0.648259  0.252479  0.000000  1
  Li  Li13  1  0.351463  0.351463  0.603670  1
  Li  Li14  1  0.604345  0.352607  0.352656  1
  Li  Li15  1  0.747091  0.396537  0.747109  1
  Li  Li16  1  0.341108  0.341108  0.000000  1
  Li  Li17  1  0.999149  0.659435  0.658551  1
  Li  Li18  1  0.000885  0.340598  0.341449  1
  Li  Li19  1  0.340598  0.000885  0.341449  1
  Li  Li20  1  0.659435  0.999149  0.658551  1
  Li  Li21  1  0.660004  0.660004  0.000000  1
  Pt  Pt22  1  0.000194  0.340473  0.000000  1
  Pt  Pt23  1  0.340473  0.000194  0.000000  1
  Rh  Rh24  1  0.000107  0.000107  0.342923  1
  Rh  Rh25  1  0.657185  0.657185  0.657077  1
