# generated using pymatgen
data_Ti2AlVFe4
_symmetry_space_group_name_H-M   'P 1'
_cell_length_a   7.12510030
_cell_length_b   7.12509997
_cell_length_c   7.12509965
_cell_angle_alpha   33.53965344
_cell_angle_beta   33.53966067
_cell_angle_gamma   33.53964974
_symmetry_Int_Tables_number   1
_chemical_formula_structural   Ti2AlVFe4
_chemical_formula_sum   'Ti2 Al1 V1 Fe4'
_cell_volume   98.35348844
_cell_formula_units_Z   1
loop_
 _symmetry_equiv_pos_site_id
 _symmetry_equiv_pos_as_xyz
  1  'x, y, z'
loop_
 _atom_site_type_symbol
 _atom_site_label
 _atom_site_symmetry_multiplicity
 _atom_site_fract_x
 _atom_site_fract_y
 _atom_site_fract_z
 _atom_site_occupancy
  Ti  Ti0  1  0.253228  0.253228  0.253228  1
  Ti  Ti1  1  0.746772  0.746772  0.746772  1
  Al  Al2  1  0.000000  0.000000  0.000000  1
  V  V3  1  0.500000  0.500000  0.500000  1
  Fe  Fe4  1  0.620837  0.620837  0.620837  1
  Fe  Fe5  1  0.128152  0.128152  0.128152  1
  Fe  Fe6  1  0.871848  0.871848  0.871848  1
  Fe  Fe7  1  0.379163  0.379163  0.379163  1
