# generated using pymatgen
data_CaMn2CdCoO8
_symmetry_space_group_name_H-M   'P 1'
_cell_length_a   4.99149185
_cell_length_b   5.89343696
_cell_length_c   6.22624408
_cell_angle_alpha   118.24648569
_cell_angle_beta   106.34156889
_cell_angle_gamma   89.99999371
_symmetry_Int_Tables_number   1
_chemical_formula_structural   CaMn2CdCoO8
_chemical_formula_sum   'Ca1 Mn2 Cd1 Co1 O8'
_cell_volume   152.89603263
_cell_formula_units_Z   1
loop_
 _symmetry_equiv_pos_site_id
 _symmetry_equiv_pos_as_xyz
  1  'x, y, z'
loop_
 _atom_site_type_symbol
 _atom_site_label
 _atom_site_symmetry_multiplicity
 _atom_site_fract_x
 _atom_site_fract_y
 _atom_site_fract_z
 _atom_site_occupancy
  Ca  Ca0  1  0.662355  0.723127  0.446257  1
  Mn  Mn1  1  0.001510  0.744754  0.999928  1
  Mn  Mn2  1  0.001512  0.255175  0.999929  1
  Cd  Cd3  1  0.340550  0.280059  0.560121  1
  Co  Co4  1  0.498584  0.999270  0.998542  1
  O  O5  1  0.041083  0.393427  0.786849  1
  O  O6  1  0.959514  0.603886  0.207778  1
  O  O7  1  0.098615  0.902438  0.804871  1
  O  O8  1  0.899928  0.095891  0.191784  1
  O  O9  1  0.391040  0.318722  0.201009  1
  O  O10  1  0.391038  0.882284  0.201009  1
  O  O11  1  0.607140  0.120765  0.800963  1
  O  O12  1  0.607137  0.680198  0.800965  1
