# generated using pymatgen
data_Sr20P13
_symmetry_space_group_name_H-M   'P 1'
_cell_length_a   8.09351326
_cell_length_b   8.09351350
_cell_length_c   40.53688100
_cell_angle_alpha   109.35673282
_cell_angle_beta   109.35673344
_cell_angle_gamma   109.63134860
_symmetry_Int_Tables_number   1
_chemical_formula_structural   Sr20P13
_chemical_formula_sum   'Sr40 P26'
_cell_volume   2045.82545248
_cell_formula_units_Z   2
loop_
 _symmetry_equiv_pos_site_id
 _symmetry_equiv_pos_as_xyz
  1  'x, y, z'
loop_
 _atom_site_type_symbol
 _atom_site_label
 _atom_site_symmetry_multiplicity
 _atom_site_fract_x
 _atom_site_fract_y
 _atom_site_fract_z
 _atom_site_occupancy
  Sr  Sr0  1  0.003380  0.884115  0.899195  1
  Sr  Sr1  1  0.007409  0.388143  0.900805  1
  Sr  Sr2  1  0.483211  0.008173  0.970065  1
  Sr  Sr3  1  0.990319  0.869829  0.696564  1
  Sr  Sr4  1  0.132887  0.157849  0.829935  1
  Sr  Sr5  1  0.990606  0.334457  0.694125  1
  Sr  Sr6  1  0.373193  0.482706  0.799531  1
  Sr  Sr7  1  0.985493  0.844997  0.498769  1
  Sr  Sr8  1  0.630384  0.622698  0.921260  1
  Sr  Sr9  1  0.524081  0.016396  0.878740  1
  Sr  Sr10  1  0.131585  0.120533  0.623992  1
  Sr  Sr11  1  0.985050  0.375537  0.500469  1
  Sr  Sr12  1  0.363831  0.519981  0.605875  1
  Sr  Sr13  1  0.514771  0.001563  0.770802  1
  Sr  Sr14  1  0.982706  0.873193  0.299531  1
  Sr  Sr15  1  0.605002  0.615290  0.723138  1
  Sr  Sr16  1  0.851151  0.491648  0.801231  1
  Sr  Sr17  1  0.500570  0.011621  0.676008  1
  Sr  Sr18  1  0.991648  0.351151  0.301231  1
  Sr  Sr19  1  0.122698  0.130384  0.421260  1
  Sr  Sr20  1  0.384115  0.503380  0.399195  1
  Sr  Sr21  1  0.499598  0.989311  0.576862  1
  Sr  Sr22  1  0.647554  0.660761  0.529198  1
  Sr  Sr23  1  0.887012  0.507502  0.603436  1
  Sr  Sr24  1  0.508173  0.983211  0.470065  1
  Sr  Sr25  1  0.115290  0.105002  0.223138  1
  Sr  Sr26  1  0.007502  0.387012  0.103436  1
  Sr  Sr27  1  0.369829  0.490319  0.196564  1
  Sr  Sr28  1  0.516396  0.024081  0.378740  1
  Sr  Sr29  1  0.657849  0.632887  0.329935  1
  Sr  Sr30  1  0.888143  0.507409  0.400805  1
  Sr  Sr31  1  0.501563  0.014771  0.270802  1
  Sr  Sr32  1  0.160761  0.147554  0.029198  1
  Sr  Sr33  1  0.344997  0.485493  0.998769  1
  Sr  Sr34  1  0.511621  0.000570  0.176008  1
  Sr  Sr35  1  0.620533  0.631585  0.123992  1
  Sr  Sr36  1  0.834457  0.490606  0.194125  1
  Sr  Sr37  1  0.489311  0.999598  0.076862  1
  Sr  Sr38  1  0.019981  0.863831  0.105875  1
  Sr  Sr39  1  0.875537  0.485050  0.000469  1
  P  P40  1  0.134502  0.752623  0.977537  1
  P  P41  1  0.246904  0.633084  0.872851  1
  P  P42  1  0.382645  0.268825  0.927149  1
  P  P43  1  0.248859  0.634636  0.678233  1
  P  P44  1  0.124950  0.748734  0.575841  1
  P  P45  1  0.607500  0.344422  0.846767  1
  P  P46  1  0.369530  0.245747  0.724159  1
  P  P47  1  0.746817  0.864939  0.822463  1
  P  P48  1  0.873665  0.110586  0.953233  1
  P  P49  1  0.252623  0.634502  0.477537  1
  P  P50  1  0.133084  0.746904  0.372851  1
  P  P51  1  0.743469  0.857692  0.621767  1
  P  P52  1  0.630694  0.380694  0.650000  1
  P  P53  1  0.886373  0.137232  0.750893  1
  P  P54  1  0.134636  0.748859  0.178233  1
  P  P55  1  0.768825  0.882645  0.427149  1
  P  P56  1  0.364939  0.246817  0.322463  1
  P  P57  1  0.610586  0.373665  0.453233  1
  P  P58  1  0.882768  0.131909  0.549107  1
  P  P59  1  0.248734  0.624950  0.075841  1
  P  P60  1  0.745747  0.869530  0.224159  1
  P  P61  1  0.357692  0.243469  0.121767  1
  P  P62  1  0.637232  0.386373  0.250893  1
  P  P63  1  0.844422  0.107500  0.346767  1
  P  P64  1  0.631909  0.382768  0.049107  1
  P  P65  1  0.880694  0.130694  0.150000  1
