# generated using pymatgen
data_Nd9Lu3In20
_symmetry_space_group_name_H-M   'P 1'
_cell_length_a   6.65800690
_cell_length_b   10.51775900
_cell_length_c   12.41260219
_cell_angle_alpha   90.00000000
_cell_angle_beta   89.93660298
_cell_angle_gamma   90.00000000
_symmetry_Int_Tables_number   1
_chemical_formula_structural   Nd9Lu3In20
_chemical_formula_sum   'Nd9 Lu3 In20'
_cell_volume   869.22063343
_cell_formula_units_Z   1
loop_
 _symmetry_equiv_pos_site_id
 _symmetry_equiv_pos_as_xyz
  1  'x, y, z'
loop_
 _atom_site_type_symbol
 _atom_site_label
 _atom_site_symmetry_multiplicity
 _atom_site_fract_x
 _atom_site_fract_y
 _atom_site_fract_z
 _atom_site_occupancy
  Nd  Nd0  1  0.350041  0.750000  0.059765  1
  Nd  Nd1  1  0.887769  0.490254  0.143625  1
  Nd  Nd2  1  0.612372  0.011568  0.643041  1
  Nd  Nd3  1  0.109896  0.991261  0.855422  1
  Nd  Nd4  1  0.389524  0.509626  0.356377  1
  Nd  Nd5  1  0.109896  0.508739  0.855422  1
  Nd  Nd6  1  0.389524  0.990374  0.356377  1
  Nd  Nd7  1  0.887769  0.009746  0.143625  1
  Nd  Nd8  1  0.612372  0.488432  0.643041  1
  Lu  Lu9  1  0.151199  0.750000  0.558583  1
  Lu  Lu10  1  0.650206  0.250000  0.940169  1
  Lu  Lu11  1  0.849295  0.250000  0.440948  1
  In  In12  1  0.615806  0.750000  0.505861  1
  In  In13  1  0.876659  0.750000  0.002262  1
  In  In14  1  0.385848  0.250000  0.496318  1
  In  In15  1  0.112065  0.250000  0.996254  1
  In  In16  1  0.659830  0.750000  0.246417  1
  In  In17  1  0.847628  0.750000  0.742374  1
  In  In18  1  0.347687  0.250000  0.755979  1
  In  In19  1  0.152491  0.250000  0.256664  1
  In  In20  1  0.111938  0.750000  0.288045  1
  In  In21  1  0.388506  0.750000  0.781436  1
  In  In22  1  0.889402  0.250000  0.716278  1
  In  In23  1  0.613148  0.250000  0.217153  1
  In  In24  1  0.874718  0.543957  0.404906  1
  In  In25  1  0.624616  0.957282  0.902611  1
  In  In26  1  0.126431  0.044244  0.595676  1
  In  In27  1  0.373797  0.451226  0.096087  1
  In  In28  1  0.126431  0.455756  0.595676  1
  In  In29  1  0.373797  0.048774  0.096087  1
  In  In30  1  0.874718  0.956043  0.404906  1
  In  In31  1  0.624616  0.542718  0.902611  1
