# generated using pymatgen
data_Tm2Lu2Al24Pt8Rh
_symmetry_space_group_name_H-M   'P 1'
_cell_length_a   7.50373648
_cell_length_b   7.52840639
_cell_length_c   13.12539410
_cell_angle_alpha   84.65234945
_cell_angle_beta   79.13598943
_cell_angle_gamma   59.90555367
_symmetry_Int_Tables_number   1
_chemical_formula_structural   Tm2Lu2Al24Pt8Rh
_chemical_formula_sum   'Tm2 Lu2 Al24 Pt8 Rh1'
_cell_volume   630.02047063
_cell_formula_units_Z   1
loop_
 _symmetry_equiv_pos_site_id
 _symmetry_equiv_pos_as_xyz
  1  'x, y, z'
loop_
 _atom_site_type_symbol
 _atom_site_label
 _atom_site_symmetry_multiplicity
 _atom_site_fract_x
 _atom_site_fract_y
 _atom_site_fract_z
 _atom_site_occupancy
  Tm  Tm0  1  0.394179  0.168564  0.808211  1
  Tm  Tm1  1  0.605821  0.831436  0.191789  1
  Lu  Lu2  1  0.733975  0.498664  0.808057  1
  Lu  Lu3  1  0.266025  0.501336  0.191943  1
  Al  Al4  1  0.686991  0.830134  0.944767  1
  Al  Al5  1  0.313009  0.169866  0.055233  1
  Al  Al6  1  0.146535  0.832047  0.561891  1
  Al  Al7  1  0.853465  0.167953  0.438109  1
  Al  Al8  1  0.479926  0.166644  0.558951  1
  Al  Al9  1  0.520074  0.833356  0.441049  1
  Al  Al10  1  0.217699  0.165505  0.326906  1
  Al  Al11  1  0.782301  0.834495  0.673094  1
  Al  Al12  1  0.436152  0.507122  0.672990  1
  Al  Al13  1  0.563848  0.492878  0.327010  1
  Al  Al14  1  0.108752  0.160559  0.671104  1
  Al  Al15  1  0.891248  0.839441  0.328896  1
  Al  Al16  1  0.350174  0.498789  0.945020  1
  Al  Al17  1  0.649826  0.501211  0.054980  1
  Al  Al18  1  0.015536  0.172873  0.953081  1
  Al  Al19  1  0.984464  0.827127  0.046919  1
  Al  Al20  1  0.186540  0.499504  0.441068  1
  Al  Al21  1  0.813460  0.500496  0.558932  1
  Al  Al22  1  0.733787  0.164250  0.182685  1
  Al  Al23  1  0.266213  0.835750  0.817315  1
  Al  Al24  1  0.060688  0.627957  0.818249  1
  Al  Al25  1  0.939312  0.372043  0.181751  1
  Al  Al26  1  0.855091  0.042064  0.816815  1
  Al  Al27  1  0.144909  0.957936  0.183185  1
  Pt  Pt28  1  0.119638  0.491568  0.639233  1
  Pt  Pt29  1  0.880362  0.508432  0.360767  1
  Pt  Pt30  1  0.656697  0.171694  0.999812  1
  Pt  Pt31  1  0.343303  0.828306  0.000188  1
  Pt  Pt32  1  0.536979  0.166951  0.360947  1
  Pt  Pt33  1  0.463021  0.833049  0.639053  1
  Pt  Pt34  1  0.778018  0.175822  0.637697  1
  Pt  Pt35  1  0.221982  0.824178  0.362303  1
  Rh  Rh36  1  0.000000  0.500000  0.000000  1
