# generated using pymatgen
data_Nd2CdNi4Sb3
_symmetry_space_group_name_H-M   'P 1'
_cell_length_a   4.38157500
_cell_length_b   4.38157500
_cell_length_c   10.29153100
_cell_angle_alpha   90.00000000
_cell_angle_beta   90.00000000
_cell_angle_gamma   90.00000000
_symmetry_Int_Tables_number   1
_chemical_formula_structural   Nd2CdNi4Sb3
_chemical_formula_sum   'Nd2 Cd1 Ni4 Sb3'
_cell_volume   197.57886510
_cell_formula_units_Z   1
loop_
 _symmetry_equiv_pos_site_id
 _symmetry_equiv_pos_as_xyz
  1  'x, y, z'
loop_
 _atom_site_type_symbol
 _atom_site_label
 _atom_site_symmetry_multiplicity
 _atom_site_fract_x
 _atom_site_fract_y
 _atom_site_fract_z
 _atom_site_occupancy
  Nd  Nd0  1  0.000000  0.500000  0.762956  1
  Nd  Nd1  1  0.500000  0.000000  0.237044  1
  Cd  Cd2  1  0.500000  0.500000  0.500000  1
  Ni  Ni3  1  0.000000  0.500000  0.367657  1
  Ni  Ni4  1  0.500000  0.000000  0.632343  1
  Ni  Ni5  1  0.500000  0.500000  0.000000  1
  Ni  Ni6  1  0.000000  0.000000  0.000000  1
  Sb  Sb7  1  0.000000  0.500000  0.128966  1
  Sb  Sb8  1  0.500000  0.000000  0.871034  1
  Sb  Sb9  1  0.000000  0.000000  0.500000  1
