# generated using pymatgen
data_NdTm3Zr4F28
_symmetry_space_group_name_H-M   'P 1'
_cell_length_a   5.74592109
_cell_length_b   9.09780064
_cell_length_c   12.23229107
_cell_angle_alpha   62.44353497
_cell_angle_beta   89.94567158
_cell_angle_gamma   90.03295209
_symmetry_Int_Tables_number   1
_chemical_formula_structural   NdTm3Zr4F28
_chemical_formula_sum   'Nd1 Tm3 Zr4 F28'
_cell_volume   566.90365232
_cell_formula_units_Z   1
loop_
 _symmetry_equiv_pos_site_id
 _symmetry_equiv_pos_as_xyz
  1  'x, y, z'
loop_
 _atom_site_type_symbol
 _atom_site_label
 _atom_site_symmetry_multiplicity
 _atom_site_fract_x
 _atom_site_fract_y
 _atom_site_fract_z
 _atom_site_occupancy
  Nd  Nd0  1  0.757024  0.818174  0.766486  1
  Tm  Tm1  1  0.743959  0.819219  0.265828  1
  Tm  Tm2  1  0.243604  0.183407  0.234242  1
  Tm  Tm3  1  0.257643  0.189628  0.733262  1
  Zr  Zr4  1  0.743377  0.279092  0.451800  1
  Zr  Zr5  1  0.244769  0.724947  0.051127  1
  Zr  Zr6  1  0.255088  0.725355  0.539241  1
  Zr  Zr7  1  0.755457  0.268890  0.957559  1
  F  F8  1  0.460774  0.708045  0.925810  1
  F  F9  1  0.967428  0.288656  0.577486  1
  F  F10  1  0.529436  0.285579  0.079855  1
  F  F11  1  0.028329  0.711506  0.416933  1
  F  F12  1  0.453834  0.280890  0.550410  1
  F  F13  1  0.954654  0.714888  0.958182  1
  F  F14  1  0.549832  0.721032  0.445447  1
  F  F15  1  0.045665  0.276468  0.053932  1
  F  F16  1  0.769879  0.519112  0.860141  1
  F  F17  1  0.267781  0.472840  0.639652  1
  F  F18  1  0.235239  0.471765  0.144857  1
  F  F19  1  0.732676  0.530155  0.355547  1
  F  F20  1  0.759135  0.018143  0.061398  1
  F  F21  1  0.258538  0.977014  0.438319  1
  F  F22  1  0.239946  0.974952  0.942522  1
  F  F23  1  0.739703  0.027689  0.552743  1
  F  F24  1  0.984690  0.730937  0.644316  1
  F  F25  1  0.484095  0.265017  0.850738  1
  F  F26  1  0.012481  0.264466  0.347126  1
  F  F27  1  0.515803  0.736375  0.154712  1
  F  F28  1  0.029369  0.748140  0.176567  1
  F  F29  1  0.527448  0.253577  0.326419  1
  F  F30  1  0.970128  0.249725  0.828956  1
  F  F31  1  0.458623  0.743067  0.669825  1
  F  F32  1  0.435300  0.977307  0.236307  1
  F  F33  1  0.936240  0.024165  0.263832  1
  F  F34  1  0.565626  0.038696  0.765420  1
  F  F35  1  0.086428  0.981084  0.733006  1
