# generated using pymatgen
data_CsPaNbTe5
_symmetry_space_group_name_H-M   'P 1'
_cell_length_a   6.20083400
_cell_length_b   8.36244000
_cell_length_c   10.34637300
_cell_angle_alpha   90.00000000
_cell_angle_beta   90.00000000
_cell_angle_gamma   90.00000000
_symmetry_Int_Tables_number   1
_chemical_formula_structural   CsPaNbTe5
_chemical_formula_sum   'Cs2 Pa2 Nb2 Te10'
_cell_volume   536.50188372
_cell_formula_units_Z   2
loop_
 _symmetry_equiv_pos_site_id
 _symmetry_equiv_pos_as_xyz
  1  'x, y, z'
loop_
 _atom_site_type_symbol
 _atom_site_label
 _atom_site_symmetry_multiplicity
 _atom_site_fract_x
 _atom_site_fract_y
 _atom_site_fract_z
 _atom_site_occupancy
  Cs  Cs0  1  0.749999  0.500000  0.213865  1
  Cs  Cs1  1  0.249999  0.500000  0.786135  1
  Pa  Pa2  1  0.249999  0.000000  0.310655  1
  Pa  Pa3  1  0.749999  0.000000  0.689344  1
  Nb  Nb4  1  0.000000  0.000000  0.000000  1
  Nb  Nb5  1  0.500001  0.000000  0.000000  1
  Te  Te6  1  0.249999  0.258348  0.107672  1
  Te  Te7  1  0.249999  0.741651  0.107672  1
  Te  Te8  1  0.749999  0.000000  0.230075  1
  Te  Te9  1  0.000000  0.242038  0.500000  1
  Te  Te10  1  0.500001  0.242038  0.500000  1
  Te  Te11  1  0.000000  0.757962  0.500000  1
  Te  Te12  1  0.500001  0.757962  0.500000  1
  Te  Te13  1  0.249999  0.000000  0.769925  1
  Te  Te14  1  0.749999  0.258348  0.892329  1
  Te  Te15  1  0.749999  0.741651  0.892329  1
