# generated using pymatgen
data_ZrTi2Ge3MoRh2
_symmetry_space_group_name_H-M   'P 1'
_cell_length_a   7.66661406
_cell_length_b   7.66661423
_cell_length_c   7.66661428
_cell_angle_alpha   126.64631626
_cell_angle_beta   124.56487805
_cell_angle_gamma   80.54849621
_symmetry_Int_Tables_number   1
_chemical_formula_structural   ZrTi2Ge3MoRh2
_chemical_formula_sum   'Zr2 Ti4 Ge6 Mo2 Rh4'
_cell_volume   287.16825695
_cell_formula_units_Z   2
loop_
 _symmetry_equiv_pos_site_id
 _symmetry_equiv_pos_as_xyz
  1  'x, y, z'
loop_
 _atom_site_type_symbol
 _atom_site_label
 _atom_site_symmetry_multiplicity
 _atom_site_fract_x
 _atom_site_fract_y
 _atom_site_fract_z
 _atom_site_occupancy
  Zr  Zr0  1  0.963966  0.730959  0.266992  1
  Zr  Zr1  1  0.036034  0.303026  0.766992  1
  Ti  Ti2  1  0.243819  0.167396  0.423577  1
  Ti  Ti3  1  0.756181  0.179761  0.923577  1
  Ti  Ti4  1  0.563792  0.352338  0.288545  1
  Ti  Ti5  1  0.436208  0.724753  0.788545  1
  Ge  Ge6  1  0.782703  0.809689  0.526986  1
  Ge  Ge7  1  0.217297  0.744284  0.026986  1
  Ge  Ge8  1  0.352104  0.070571  0.753992  1
  Ge  Ge9  1  0.647896  0.401889  0.718468  1
  Ge  Ge10  1  0.183421  0.401889  0.253992  1
  Ge  Ge11  1  0.816579  0.070571  0.218468  1
  Mo  Mo12  1  0.500000  0.499944  0.999944  1
  Mo  Mo13  1  0.000000  0.499944  0.499944  1
  Rh  Rh14  1  0.173988  0.000503  0.915180  1
  Rh  Rh15  1  0.826012  0.741192  0.826515  1
  Rh  Rh16  1  0.414677  0.741192  0.415180  1
  Rh  Rh17  1  0.585323  0.000503  0.326515  1
