# generated using pymatgen
data_Ta2SiRu5
_symmetry_space_group_name_H-M   'P 1'
_cell_length_a   4.13904000
_cell_length_b   5.40585300
_cell_length_c   10.47144900
_cell_angle_alpha   90.00000000
_cell_angle_beta   90.00000000
_cell_angle_gamma   90.00000000
_symmetry_Int_Tables_number   1
_chemical_formula_structural   Ta2SiRu5
_chemical_formula_sum   'Ta4 Si2 Ru10'
_cell_volume   234.29910909
_cell_formula_units_Z   2
loop_
 _symmetry_equiv_pos_site_id
 _symmetry_equiv_pos_as_xyz
  1  'x, y, z'
loop_
 _atom_site_type_symbol
 _atom_site_label
 _atom_site_symmetry_multiplicity
 _atom_site_fract_x
 _atom_site_fract_y
 _atom_site_fract_z
 _atom_site_occupancy
  Ta  Ta0  1  0.500000  0.838186  0.360488  1
  Ta  Ta1  1  0.500000  0.161814  0.639512  1
  Ta  Ta2  1  0.500000  0.338186  0.139512  1
  Ta  Ta3  1  0.500000  0.661814  0.860488  1
  Si  Si4  1  0.000000  0.500000  0.500000  1
  Si  Si5  1  0.000000  0.000000  0.000000  1
  Ru  Ru6  1  0.000000  0.500000  0.000000  1
  Ru  Ru7  1  0.000000  0.000000  0.500000  1
  Ru  Ru8  1  0.000000  0.599295  0.260204  1
  Ru  Ru9  1  0.000000  0.400705  0.739796  1
  Ru  Ru10  1  0.000000  0.099295  0.239796  1
  Ru  Ru11  1  0.000000  0.900705  0.760204  1
  Ru  Ru12  1  0.500000  0.825156  0.106429  1
  Ru  Ru13  1  0.500000  0.174844  0.893571  1
  Ru  Ru14  1  0.500000  0.325156  0.393571  1
  Ru  Ru15  1  0.500000  0.674844  0.606429  1
