# generated using pymatgen
data_Zr2Sc2Co6Si6Ir
_symmetry_space_group_name_H-M   'P 1'
_cell_length_a   6.71174976
_cell_length_b   6.73649985
_cell_length_c   6.71175045
_cell_angle_alpha   109.45721100
_cell_angle_beta   109.34998761
_cell_angle_gamma   109.45720434
_symmetry_Int_Tables_number   1
_chemical_formula_structural   Zr2Sc2Co6Si6Ir
_chemical_formula_sum   'Zr2 Sc2 Co6 Si6 Ir1'
_cell_volume   234.03510916
_cell_formula_units_Z   1
loop_
 _symmetry_equiv_pos_site_id
 _symmetry_equiv_pos_as_xyz
  1  'x, y, z'
loop_
 _atom_site_type_symbol
 _atom_site_label
 _atom_site_symmetry_multiplicity
 _atom_site_fract_x
 _atom_site_fract_y
 _atom_site_fract_z
 _atom_site_occupancy
  Zr  Zr0  1  0.000000  0.000000  0.500000  1
  Zr  Zr1  1  0.500000  0.000000  0.000000  1
  Sc  Sc2  1  0.000000  0.500000  0.000000  1
  Sc  Sc3  1  0.500000  0.500000  0.500000  1
  Co  Co4  1  0.750003  0.249508  0.499505  1
  Co  Co5  1  0.750000  0.500000  0.250000  1
  Co  Co6  1  0.499505  0.249508  0.750003  1
  Co  Co7  1  0.250000  0.500000  0.750000  1
  Co  Co8  1  0.249997  0.750492  0.500495  1
  Co  Co9  1  0.500495  0.750492  0.249997  1
  Si  Si10  1  0.670620  0.666929  0.996309  1
  Si  Si11  1  0.329666  0.000000  0.329666  1
  Si  Si12  1  0.003691  0.333071  0.329380  1
  Si  Si13  1  0.329380  0.333071  0.003691  1
  Si  Si14  1  0.670334  0.000000  0.670334  1
  Si  Si15  1  0.996309  0.666929  0.670620  1
  Ir  Ir16  1  0.000000  0.000000  0.000000  1
