# generated using pymatgen
data_Pr3Te4Cl
_symmetry_space_group_name_H-M   'P 1'
_cell_length_a   4.34612700
_cell_length_b   14.21107700
_cell_length_c   16.21614800
_cell_angle_alpha   90.00000000
_cell_angle_beta   90.00000000
_cell_angle_gamma   90.00000000
_symmetry_Int_Tables_number   1
_chemical_formula_structural   Pr3Te4Cl
_chemical_formula_sum   'Pr12 Te16 Cl4'
_cell_volume   1001.56030754
_cell_formula_units_Z   4
loop_
 _symmetry_equiv_pos_site_id
 _symmetry_equiv_pos_as_xyz
  1  'x, y, z'
loop_
 _atom_site_type_symbol
 _atom_site_label
 _atom_site_symmetry_multiplicity
 _atom_site_fract_x
 _atom_site_fract_y
 _atom_site_fract_z
 _atom_site_occupancy
  Pr  Pr0  1  0.250000  0.905653  0.627161  1
  Pr  Pr1  1  0.250000  0.594347  0.127161  1
  Pr  Pr2  1  0.750000  0.094347  0.372839  1
  Pr  Pr3  1  0.750000  0.405653  0.872839  1
  Pr  Pr4  1  0.750000  0.252815  0.615050  1
  Pr  Pr5  1  0.750000  0.247185  0.115050  1
  Pr  Pr6  1  0.250000  0.747185  0.384950  1
  Pr  Pr7  1  0.250000  0.752815  0.884950  1
  Pr  Pr8  1  0.750000  0.578324  0.632233  1
  Pr  Pr9  1  0.750000  0.921676  0.132233  1
  Pr  Pr10  1  0.250000  0.421676  0.367767  1
  Pr  Pr11  1  0.250000  0.078324  0.867767  1
  Te  Te12  1  0.250000  0.420991  0.571229  1
  Te  Te13  1  0.250000  0.079009  0.071229  1
  Te  Te14  1  0.750000  0.579009  0.428771  1
  Te  Te15  1  0.750000  0.920991  0.928771  1
  Te  Te16  1  0.750000  0.049810  0.715072  1
  Te  Te17  1  0.750000  0.450190  0.215072  1
  Te  Te18  1  0.250000  0.950190  0.284928  1
  Te  Te19  1  0.250000  0.549810  0.784928  1
  Te  Te20  1  0.750000  0.776712  0.733547  1
  Te  Te21  1  0.750000  0.723288  0.233547  1
  Te  Te22  1  0.250000  0.223288  0.266453  1
  Te  Te23  1  0.250000  0.276712  0.766453  1
  Te  Te24  1  0.250000  0.111247  0.524985  1
  Te  Te25  1  0.250000  0.388753  0.024985  1
  Te  Te26  1  0.750000  0.888753  0.475015  1
  Te  Te27  1  0.750000  0.611247  0.975015  1
  Cl  Cl28  1  0.250000  0.701781  0.569192  1
  Cl  Cl29  1  0.250000  0.798219  0.069192  1
  Cl  Cl30  1  0.750000  0.298219  0.430808  1
  Cl  Cl31  1  0.750000  0.201781  0.930808  1
