# generated using pymatgen
data_Lu4Al15(SiRh2)3
_symmetry_space_group_name_H-M   'P 1'
_cell_length_a   7.50912790
_cell_length_b   7.46100664
_cell_length_c   9.31689917
_cell_angle_alpha   89.99045981
_cell_angle_beta   89.93750608
_cell_angle_gamma   119.82780390
_symmetry_Int_Tables_number   1
_chemical_formula_structural   Lu4Al15(SiRh2)3
_chemical_formula_sum   'Lu4 Al15 Si3 Rh6'
_cell_volume   452.83450429
_cell_formula_units_Z   1
loop_
 _symmetry_equiv_pos_site_id
 _symmetry_equiv_pos_as_xyz
  1  'x, y, z'
loop_
 _atom_site_type_symbol
 _atom_site_label
 _atom_site_symmetry_multiplicity
 _atom_site_fract_x
 _atom_site_fract_y
 _atom_site_fract_z
 _atom_site_occupancy
  Lu  Lu0  1  0.994432  0.664914  0.247414  1
  Lu  Lu1  1  0.006048  0.341681  0.754415  1
  Lu  Lu2  1  0.676022  0.001401  0.247680  1
  Lu  Lu3  1  0.318104  0.991255  0.749607  1
  Al  Al4  1  0.128143  0.125265  0.249914  1
  Al  Al5  1  0.871703  0.872278  0.749136  1
  Al  Al6  1  0.339062  0.002155  0.421806  1
  Al  Al7  1  0.000807  0.330526  0.428301  1
  Al  Al8  1  0.666040  0.002881  0.576628  1
  Al  Al9  1  0.661985  0.999069  0.921271  1
  Al  Al10  1  0.339141  0.002004  0.078253  1
  Al  Al11  1  0.332454  0.330452  0.557418  1
  Al  Al12  1  0.664330  0.668613  0.443832  1
  Al  Al13  1  0.664180  0.668424  0.057432  1
  Al  Al14  1  0.335134  0.331027  0.943152  1
  Al  Al15  1  0.338433  0.552117  0.250228  1
  Al  Al16  1  0.661154  0.448640  0.750331  1
  Al  Al17  1  0.549737  0.343356  0.249884  1
  Al  Al18  1  0.453806  0.657959  0.749619  1
  Si  Si19  1  0.001869  0.328853  0.077866  1
  Si  Si20  1  0.997844  0.671752  0.929103  1
  Si  Si21  1  0.998601  0.665385  0.566766  1
  Rh  Rh22  1  0.690901  0.337411  0.001117  1
  Rh  Rh23  1  0.309617  0.662989  0.997152  1
  Rh  Rh24  1  0.317799  0.670830  0.502734  1
  Rh  Rh25  1  0.681153  0.335849  0.499860  1
  Rh  Rh26  1  0.000523  0.999878  0.998838  1
  Rh  Rh27  1  0.000982  0.993034  0.500243  1
