# generated using pymatgen
data_La8Ir5Pd
_symmetry_space_group_name_H-M   'P 1'
_cell_length_a   7.85194397
_cell_length_b   7.85194463
_cell_length_c   7.85194360
_cell_angle_alpha   109.26795304
_cell_angle_beta   109.87852662
_cell_angle_gamma   109.26796076
_symmetry_Int_Tables_number   1
_chemical_formula_structural   La8Ir5Pd
_chemical_formula_sum   'La8 Ir5 Pd1'
_cell_volume   372.64318047
_cell_formula_units_Z   1
loop_
 _symmetry_equiv_pos_site_id
 _symmetry_equiv_pos_as_xyz
  1  'x, y, z'
loop_
 _atom_site_type_symbol
 _atom_site_label
 _atom_site_symmetry_multiplicity
 _atom_site_fract_x
 _atom_site_fract_y
 _atom_site_fract_z
 _atom_site_occupancy
  La  La0  1  0.117936  0.505292  0.996315  1
  La  La1  1  0.495871  0.996878  0.607358  1
  La  La2  1  0.392642  0.388513  0.389520  1
  La  La3  1  0.001007  0.111487  0.504129  1
  La  La4  1  0.887356  0.878378  0.882064  1
  La  La5  1  0.003685  0.621622  0.508977  1
  La  La6  1  0.610480  0.503122  0.998993  1
  La  La7  1  0.491023  0.994708  0.112644  1
  Ir  Ir8  1  0.122232  0.872231  0.247193  1
  Ir  Ir9  1  0.374962  0.627769  0.750001  1
  Ir  Ir10  1  0.249999  0.124961  0.877768  1
  Ir  Ir11  1  0.752807  0.375039  0.625038  1
  Ir  Ir12  1  0.625000  0.750000  0.375000  1
  Pd  Pd13  1  0.875000  0.250000  0.125000  1
