# generated using pymatgen
data_Nd12Ga8Ir7Rh
_symmetry_space_group_name_H-M   'P 1'
_cell_length_a   5.75911599
_cell_length_b   8.15090723
_cell_length_c   13.64682835
_cell_angle_alpha   89.94934287
_cell_angle_beta   89.95476408
_cell_angle_gamma   89.97926769
_symmetry_Int_Tables_number   1
_chemical_formula_structural   Nd12Ga8Ir7Rh
_chemical_formula_sum   'Nd12 Ga8 Ir7 Rh1'
_cell_volume   640.60919988
_cell_formula_units_Z   1
loop_
 _symmetry_equiv_pos_site_id
 _symmetry_equiv_pos_as_xyz
  1  'x, y, z'
loop_
 _atom_site_type_symbol
 _atom_site_label
 _atom_site_symmetry_multiplicity
 _atom_site_fract_x
 _atom_site_fract_y
 _atom_site_fract_z
 _atom_site_occupancy
  Nd  Nd0  1  0.630472  0.255703  0.250940  1
  Nd  Nd1  1  0.370109  0.743664  0.750298  1
  Nd  Nd2  1  0.368089  0.757088  0.250698  1
  Nd  Nd3  1  0.630928  0.244248  0.750050  1
  Nd  Nd4  1  0.150124  0.394973  0.098097  1
  Nd  Nd5  1  0.852281  0.602628  0.902414  1
  Nd  Nd6  1  0.852317  0.603455  0.598681  1
  Nd  Nd7  1  0.852172  0.896507  0.401485  1
  Nd  Nd8  1  0.146280  0.397073  0.401444  1
  Nd  Nd9  1  0.147662  0.102460  0.598808  1
  Nd  Nd10  1  0.147677  0.103263  0.901158  1
  Nd  Nd11  1  0.852968  0.899657  0.098635  1
  Ga  Ga12  1  0.133954  0.106164  0.250385  1
  Ga  Ga13  1  0.866073  0.894095  0.750394  1
  Ga  Ga14  1  0.865296  0.606118  0.248836  1
  Ga  Ga15  1  0.134054  0.395229  0.749797  1
  Ga  Ga16  1  0.627942  0.249521  0.999049  1
  Ga  Ga17  1  0.372291  0.749698  0.000091  1
  Ga  Ga18  1  0.374875  0.750103  0.500248  1
  Ga  Ga19  1  0.624735  0.250037  0.500190  1
  Ir  Ir20  1  0.355702  0.032625  0.092660  1
  Ir  Ir21  1  0.643944  0.966637  0.907814  1
  Ir  Ir22  1  0.645273  0.967875  0.592706  1
  Ir  Ir23  1  0.645030  0.531803  0.406658  1
  Ir  Ir24  1  0.355053  0.031827  0.407426  1
  Ir  Ir25  1  0.355100  0.468459  0.592191  1
  Ir  Ir26  1  0.355186  0.467898  0.907396  1
  Rh  Rh27  1  0.644414  0.531193  0.091457  1
