# generated using pymatgen
data_Yb5Si12Ir19
_symmetry_space_group_name_H-M   'P 1'
_cell_length_a   12.79193000
_cell_length_b   12.79193107
_cell_length_c   4.00793100
_cell_angle_alpha   90.00000000
_cell_angle_beta   90.00000000
_cell_angle_gamma   120.00000241
_symmetry_Int_Tables_number   1
_chemical_formula_structural   Yb5Si12Ir19
_chemical_formula_sum   'Yb5 Si12 Ir19'
_cell_volume   567.96692012
_cell_formula_units_Z   1
loop_
 _symmetry_equiv_pos_site_id
 _symmetry_equiv_pos_as_xyz
  1  'x, y, z'
loop_
 _atom_site_type_symbol
 _atom_site_label
 _atom_site_symmetry_multiplicity
 _atom_site_fract_x
 _atom_site_fract_y
 _atom_site_fract_z
 _atom_site_occupancy
  Yb  Yb0  1  0.333333  0.666667  0.000000  1
  Yb  Yb1  1  0.666667  0.333333  0.000000  1
  Yb  Yb2  1  0.180790  0.180790  0.500000  1
  Yb  Yb3  1  0.819210  0.000000  0.500000  1
  Yb  Yb4  1  0.000000  0.819210  0.500000  1
  Si  Si5  1  0.817555  0.817555  0.000000  1
  Si  Si6  1  0.182445  0.000000  0.000000  1
  Si  Si7  1  0.000000  0.182445  0.000000  1
  Si  Si8  1  0.312621  0.832526  0.500000  1
  Si  Si9  1  0.167474  0.480095  0.500000  1
  Si  Si10  1  0.519905  0.687379  0.500000  1
  Si  Si11  1  0.832526  0.312621  0.500000  1
  Si  Si12  1  0.480095  0.167474  0.500000  1
  Si  Si13  1  0.687379  0.519905  0.500000  1
  Si  Si14  1  0.368303  0.368303  0.000000  1
  Si  Si15  1  0.631697  0.000000  0.000000  1
  Si  Si16  1  0.000000  0.631697  0.000000  1
  Ir  Ir17  1  0.194522  0.816304  0.000000  1
  Ir  Ir18  1  0.183696  0.378217  0.000000  1
  Ir  Ir19  1  0.621783  0.805478  0.000000  1
  Ir  Ir20  1  0.816304  0.194522  0.000000  1
  Ir  Ir21  1  0.378217  0.183696  0.000000  1
  Ir  Ir22  1  0.805478  0.621783  0.000000  1
  Ir  Ir23  1  0.716666  0.716666  0.500000  1
  Ir  Ir24  1  0.283334  0.000000  0.500000  1
  Ir  Ir25  1  0.000000  0.283334  0.500000  1
  Ir  Ir26  1  0.126230  0.639634  0.500000  1
  Ir  Ir27  1  0.360366  0.486595  0.500000  1
  Ir  Ir28  1  0.513405  0.873770  0.500000  1
  Ir  Ir29  1  0.639634  0.126230  0.500000  1
  Ir  Ir30  1  0.486595  0.360366  0.500000  1
  Ir  Ir31  1  0.873770  0.513405  0.500000  1
  Ir  Ir32  1  0.552151  0.552151  0.000000  1
  Ir  Ir33  1  0.447849  0.000000  0.000000  1
  Ir  Ir34  1  0.000000  0.447849  0.000000  1
  Ir  Ir35  1  0.000000  0.000000  0.000000  1
