# generated using pymatgen
data_Pa2Zn16Cu
_symmetry_space_group_name_H-M   'P 1'
_cell_length_a   6.77307704
_cell_length_b   6.78030251
_cell_length_c   6.77307597
_cell_angle_alpha   82.59485553
_cell_angle_beta   82.27904958
_cell_angle_gamma   82.59486945
_symmetry_Int_Tables_number   1
_chemical_formula_structural   Pa2Zn16Cu
_chemical_formula_sum   'Pa2 Zn16 Cu1'
_cell_volume   303.67643697
_cell_formula_units_Z   1
loop_
 _symmetry_equiv_pos_site_id
 _symmetry_equiv_pos_as_xyz
  1  'x, y, z'
loop_
 _atom_site_type_symbol
 _atom_site_label
 _atom_site_symmetry_multiplicity
 _atom_site_fract_x
 _atom_site_fract_y
 _atom_site_fract_z
 _atom_site_occupancy
  Pa  Pa0  1  0.661464  0.661821  0.661464  1
  Pa  Pa1  1  0.338536  0.338179  0.338536  1
  Zn  Zn2  1  0.350110  0.353656  0.843929  1
  Zn  Zn3  1  0.843929  0.353656  0.350110  1
  Zn  Zn4  1  0.100325  0.106878  0.100325  1
  Zn  Zn5  1  0.899675  0.893122  0.899675  1
  Zn  Zn6  1  0.000000  0.000000  0.500000  1
  Zn  Zn7  1  0.500000  0.000000  0.000000  1
  Zn  Zn8  1  0.293616  0.701433  0.000159  1
  Zn  Zn9  1  0.702950  0.000000  0.297050  1
  Zn  Zn10  1  0.999841  0.298567  0.706384  1
  Zn  Zn11  1  0.706384  0.298567  0.999841  1
  Zn  Zn12  1  0.297050  0.000000  0.702950  1
  Zn  Zn13  1  0.000159  0.701433  0.293616  1
  Zn  Zn14  1  0.156071  0.646344  0.649890  1
  Zn  Zn15  1  0.649890  0.646344  0.156071  1
  Zn  Zn16  1  0.646763  0.160737  0.646763  1
  Zn  Zn17  1  0.353237  0.839263  0.353237  1
  Cu  Cu18  1  0.000000  0.500000  0.000000  1
