# generated using pymatgen
data_Li16Ca6N
_symmetry_space_group_name_H-M   'P 1'
_cell_length_a   8.90717605
_cell_length_b   8.90717548
_cell_length_c   8.90717500
_cell_angle_alpha   109.47122408
_cell_angle_beta   109.47122280
_cell_angle_gamma   109.47121975
_symmetry_Int_Tables_number   1
_chemical_formula_structural   Li16Ca6N
_chemical_formula_sum   'Li16 Ca6 N1'
_cell_volume   543.99901526
_cell_formula_units_Z   1
loop_
 _symmetry_equiv_pos_site_id
 _symmetry_equiv_pos_as_xyz
  1  'x, y, z'
loop_
 _atom_site_type_symbol
 _atom_site_label
 _atom_site_symmetry_multiplicity
 _atom_site_fract_x
 _atom_site_fract_y
 _atom_site_fract_z
 _atom_site_occupancy
  Li  Li0  1  0.500000  0.500000  0.500000  1
  Li  Li1  1  0.500000  0.000000  0.000000  1
  Li  Li2  1  0.000000  0.500000  0.000000  1
  Li  Li3  1  0.000000  0.000000  0.500000  1
  Li  Li4  1  0.693072  0.346536  0.346536  1
  Li  Li5  1  0.346536  0.000000  0.653464  1
  Li  Li6  1  0.346536  0.693072  0.346536  1
  Li  Li7  1  0.346536  0.346536  0.693072  1
  Li  Li8  1  0.346536  0.653464  0.000000  1
  Li  Li9  1  0.000000  0.346536  0.653464  1
  Li  Li10  1  0.000000  0.653464  0.346536  1
  Li  Li11  1  0.653464  0.653464  0.306928  1
  Li  Li12  1  0.653464  0.000000  0.346536  1
  Li  Li13  1  0.653464  0.346536  0.000000  1
  Li  Li14  1  0.653464  0.306928  0.653464  1
  Li  Li15  1  0.306928  0.653464  0.653464  1
  Ca  Ca16  1  0.000000  0.240535  0.240535  1
  Ca  Ca17  1  0.240535  0.000000  0.240535  1
  Ca  Ca18  1  0.759465  0.000000  0.759465  1
  Ca  Ca19  1  0.759465  0.759465  0.000000  1
  Ca  Ca20  1  0.240535  0.240535  0.000000  1
  Ca  Ca21  1  0.000000  0.759465  0.759465  1
  N  N22  1  0.000000  0.000000  0.000000  1
