# generated using pymatgen
data_Nd2DyTm5(Si3Rh)4
_symmetry_space_group_name_H-M   'P 1'
_cell_length_a   8.16885709
_cell_length_b   8.16676652
_cell_length_c   7.94432700
_cell_angle_alpha   90.00000000
_cell_angle_beta   90.00000000
_cell_angle_gamma   119.99152398
_symmetry_Int_Tables_number   1
_chemical_formula_structural   Nd2DyTm5(Si3Rh)4
_chemical_formula_sum   'Nd2 Dy1 Tm5 Si12 Rh4'
_cell_volume   459.02492517
_cell_formula_units_Z   1
loop_
 _symmetry_equiv_pos_site_id
 _symmetry_equiv_pos_as_xyz
  1  'x, y, z'
loop_
 _atom_site_type_symbol
 _atom_site_label
 _atom_site_symmetry_multiplicity
 _atom_site_fract_x
 _atom_site_fract_y
 _atom_site_fract_z
 _atom_site_occupancy
  Nd  Nd0  1  0.000010  0.000005  0.250000  1
  Nd  Nd1  1  0.999769  0.999885  0.750000  1
  Dy  Dy2  1  0.018308  0.509154  0.750000  1
  Tm  Tm3  1  0.508678  0.491186  0.250000  1
  Tm  Tm4  1  0.508678  0.017493  0.250000  1
  Tm  Tm5  1  0.982423  0.491212  0.250000  1
  Tm  Tm6  1  0.491860  0.508618  0.750000  1
  Tm  Tm7  1  0.491860  0.983241  0.750000  1
  Si  Si8  1  0.168963  0.831654  0.500754  1
  Si  Si9  1  0.168963  0.337309  0.500754  1
  Si  Si10  1  0.662585  0.831293  0.501780  1
  Si  Si11  1  0.831198  0.168478  0.497726  1
  Si  Si12  1  0.831198  0.662719  0.497726  1
  Si  Si13  1  0.336876  0.168437  0.497904  1
  Si  Si14  1  0.831198  0.168478  0.002274  1
  Si  Si15  1  0.831198  0.662719  0.002274  1
  Si  Si16  1  0.336876  0.168437  0.002096  1
  Si  Si17  1  0.168963  0.831654  0.999246  1
  Si  Si18  1  0.168963  0.337309  0.999246  1
  Si  Si19  1  0.662585  0.831293  0.998220  1
  Rh  Rh20  1  0.333845  0.666923  0.462384  1
  Rh  Rh21  1  0.665580  0.332789  0.534234  1
  Rh  Rh22  1  0.665580  0.332789  0.965766  1
  Rh  Rh23  1  0.333845  0.666923  0.037616  1
