# generated using pymatgen
data_Ho4Al18FeNi4Pd
_symmetry_space_group_name_H-M   'P 1'
_cell_length_a   7.43401304
_cell_length_b   7.43401317
_cell_length_c   9.31483996
_cell_angle_alpha   90.10837514
_cell_angle_beta   90.10840544
_cell_angle_gamma   119.18343708
_symmetry_Int_Tables_number   1
_chemical_formula_structural   Ho4Al18FeNi4Pd
_chemical_formula_sum   'Ho4 Al18 Fe1 Ni4 Pd1'
_cell_volume   449.43265799
_cell_formula_units_Z   1
loop_
 _symmetry_equiv_pos_site_id
 _symmetry_equiv_pos_as_xyz
  1  'x, y, z'
loop_
 _atom_site_type_symbol
 _atom_site_label
 _atom_site_symmetry_multiplicity
 _atom_site_fract_x
 _atom_site_fract_y
 _atom_site_fract_z
 _atom_site_occupancy
  Ho  Ho0  1  0.993963  0.672031  0.248685  1
  Ho  Ho1  1  0.006015  0.327958  0.751314  1
  Ho  Ho2  1  0.672041  0.993985  0.248685  1
  Ho  Ho3  1  0.327967  0.006037  0.751315  1
  Al  Al4  1  0.128968  0.128966  0.241220  1
  Al  Al5  1  0.871035  0.871033  0.758780  1
  Al  Al6  1  0.996170  0.331354  0.070867  1
  Al  Al7  1  0.003830  0.668645  0.929136  1
  Al  Al8  1  0.000514  0.658980  0.575953  1
  Al  Al9  1  0.341020  0.999486  0.424047  1
  Al  Al10  1  0.999438  0.341002  0.424051  1
  Al  Al11  1  0.658998  0.000562  0.575949  1
  Al  Al12  1  0.668647  0.003831  0.929134  1
  Al  Al13  1  0.331355  0.996170  0.070864  1
  Al  Al14  1  0.338904  0.338884  0.554214  1
  Al  Al15  1  0.661116  0.661097  0.445786  1
  Al  Al16  1  0.671678  0.671677  0.046461  1
  Al  Al17  1  0.328323  0.328322  0.953539  1
  Al  Al18  1  0.339969  0.554296  0.248162  1
  Al  Al19  1  0.660033  0.445691  0.751818  1
  Al  Al20  1  0.554309  0.339967  0.248182  1
  Al  Al21  1  0.445704  0.660031  0.751838  1
  Fe  Fe22  1  0.000001  0.999999  0.000000  1
  Ni  Ni23  1  0.670657  0.329344  0.000000  1
  Ni  Ni24  1  0.329342  0.670658  0.000000  1
  Ni  Ni25  1  0.328803  0.671198  0.500000  1
  Ni  Ni26  1  0.671203  0.328798  0.500000  1
  Pd  Pd27  1  0.000000  0.000001  0.500000  1
