# generated using pymatgen
data_Dy2Er8(InSb)3
_symmetry_space_group_name_H-M   'P 1'
_cell_length_a   8.89961634
_cell_length_b   8.88926117
_cell_length_c   6.50967200
_cell_angle_alpha   90.00000000
_cell_angle_beta   90.00000000
_cell_angle_gamma   120.06997397
_symmetry_Int_Tables_number   1
_chemical_formula_structural   Dy2Er8(InSb)3
_chemical_formula_sum   'Dy2 Er8 In3 Sb3'
_cell_volume   445.67680686
_cell_formula_units_Z   1
loop_
 _symmetry_equiv_pos_site_id
 _symmetry_equiv_pos_as_xyz
  1  'x, y, z'
loop_
 _atom_site_type_symbol
 _atom_site_label
 _atom_site_symmetry_multiplicity
 _atom_site_fract_x
 _atom_site_fract_y
 _atom_site_fract_z
 _atom_site_occupancy
  Dy  Dy0  1  0.002566  0.763499  0.750000  1
  Dy  Dy1  1  0.761979  0.999980  0.750000  1
  Er  Er2  1  0.003583  0.239010  0.250000  1
  Er  Er3  1  0.764171  0.760820  0.250000  1
  Er  Er4  1  0.239462  0.236176  0.750000  1
  Er  Er5  1  0.237585  0.000307  0.250000  1
  Er  Er6  1  0.330297  0.665979  0.498842  1
  Er  Er7  1  0.664655  0.333722  0.000577  1
  Er  Er8  1  0.664655  0.333722  0.499423  1
  Er  Er9  1  0.330297  0.665979  0.001158  1
  In  In10  1  0.397790  0.000451  0.750000  1
  In  In11  1  0.395350  0.397898  0.250000  1
  In  In12  1  0.997984  0.602286  0.250000  1
  Sb  Sb13  1  0.997325  0.392130  0.750000  1
  Sb  Sb14  1  0.605054  0.607852  0.750000  1
  Sb  Sb15  1  0.607245  0.000188  0.250000  1
