# generated using pymatgen
data_TaNb9Si5Ge
_symmetry_space_group_name_H-M   'P 1'
_cell_length_a   7.59143373
_cell_length_b   7.59143344
_cell_length_c   7.59143456
_cell_angle_alpha   128.09420626
_cell_angle_beta   128.09419635
_cell_angle_gamma   76.47247236
_symmetry_Int_Tables_number   1
_chemical_formula_structural   TaNb9Si5Ge
_chemical_formula_sum   'Ta1 Nb9 Si5 Ge1'
_cell_volume   263.25524476
_cell_formula_units_Z   1
loop_
 _symmetry_equiv_pos_site_id
 _symmetry_equiv_pos_as_xyz
  1  'x, y, z'
loop_
 _atom_site_type_symbol
 _atom_site_label
 _atom_site_symmetry_multiplicity
 _atom_site_fract_x
 _atom_site_fract_y
 _atom_site_fract_z
 _atom_site_occupancy
  Ta  Ta0  1  0.999392  0.999392  0.000000  1
  Nb  Nb1  1  0.014508  0.183220  0.494340  1
  Nb  Nb2  1  0.520168  0.014508  0.831289  1
  Nb  Nb3  1  0.183220  0.688881  0.168711  1
  Nb  Nb4  1  0.484772  0.980586  0.168743  1
  Nb  Nb5  1  0.688881  0.520168  0.505660  1
  Nb  Nb6  1  0.980586  0.811842  0.495814  1
  Nb  Nb7  1  0.316028  0.484772  0.504186  1
  Nb  Nb8  1  0.811842  0.316028  0.831257  1
  Nb  Nb9  1  0.500450  0.500450  0.000000  1
  Si  Si10  1  0.129705  0.629610  0.759291  1
  Si  Si11  1  0.629610  0.870321  0.499905  1
  Si  Si12  1  0.370416  0.129705  0.500095  1
  Si  Si13  1  0.870321  0.370416  0.240709  1
  Si  Si14  1  0.750079  0.750079  0.000000  1
  Ge  Ge15  1  0.250024  0.250024  0.000000  1
