# generated using pymatgen
data_Dy6TiCo16ReP12
_symmetry_space_group_name_H-M   'P 1'
_cell_length_a   3.71317800
_cell_length_b   10.56884900
_cell_length_c   12.26098400
_cell_angle_alpha   90.00000000
_cell_angle_beta   90.00000000
_cell_angle_gamma   90.00000000
_symmetry_Int_Tables_number   1
_chemical_formula_structural   Dy6TiCo16ReP12
_chemical_formula_sum   'Dy6 Ti1 Co16 Re1 P12'
_cell_volume   481.17027179
_cell_formula_units_Z   1
loop_
 _symmetry_equiv_pos_site_id
 _symmetry_equiv_pos_as_xyz
  1  'x, y, z'
loop_
 _atom_site_type_symbol
 _atom_site_label
 _atom_site_symmetry_multiplicity
 _atom_site_fract_x
 _atom_site_fract_y
 _atom_site_fract_z
 _atom_site_occupancy
  Dy  Dy0  1  0.000000  0.500000  0.524541  1
  Dy  Dy1  1  0.500000  0.000000  0.475272  1
  Dy  Dy2  1  0.500000  0.819439  0.205604  1
  Dy  Dy3  1  0.500000  0.180561  0.205604  1
  Dy  Dy4  1  0.000000  0.681206  0.795375  1
  Dy  Dy5  1  0.000000  0.318794  0.795375  1
  Ti  Ti6  1  0.500000  0.500000  0.152258  1
  Co  Co7  1  0.500000  0.500000  0.702818  1
  Co  Co8  1  0.000000  0.000000  0.298063  1
  Co  Co9  1  0.000000  0.500000  0.986524  1
  Co  Co10  1  0.500000  0.000000  0.010958  1
  Co  Co11  1  0.500000  0.330087  0.991881  1
  Co  Co12  1  0.500000  0.669913  0.991881  1
  Co  Co13  1  0.000000  0.165067  0.007728  1
  Co  Co14  1  0.000000  0.834933  0.007728  1
  Co  Co15  1  0.500000  0.295477  0.432435  1
  Co  Co16  1  0.500000  0.704523  0.432435  1
  Co  Co17  1  0.000000  0.203159  0.569684  1
  Co  Co18  1  0.000000  0.796841  0.569684  1
  Co  Co19  1  0.500000  0.879763  0.707708  1
  Co  Co20  1  0.500000  0.120237  0.707708  1
  Co  Co21  1  0.000000  0.621900  0.292593  1
  Co  Co22  1  0.000000  0.378100  0.292593  1
  Re  Re23  1  0.000000  0.000000  0.842626  1
  P  P24  1  0.500000  0.500000  0.882653  1
  P  P25  1  0.000000  0.000000  0.119253  1
  P  P26  1  0.500000  0.500000  0.352536  1
  P  P27  1  0.000000  0.000000  0.650519  1
  P  P28  1  0.500000  0.311049  0.616473  1
  P  P29  1  0.500000  0.688951  0.616473  1
  P  P30  1  0.000000  0.188817  0.384849  1
  P  P31  1  0.000000  0.811183  0.384849  1
  P  P32  1  0.500000  0.846102  0.891029  1
  P  P33  1  0.500000  0.153898  0.891029  1
  P  P34  1  0.000000  0.657535  0.105632  1
  P  P35  1  0.000000  0.342465  0.105632  1
