# generated using pymatgen
data_LiEu4Si6Hg
_symmetry_space_group_name_H-M   'P 1'
_cell_length_a   11.33479002
_cell_length_b   9.63396399
_cell_length_c   8.43783261
_cell_angle_alpha   77.37573043
_cell_angle_beta   56.03699071
_cell_angle_gamma   46.58728573
_symmetry_Int_Tables_number   1
_chemical_formula_structural   LiEu4Si6Hg
_chemical_formula_sum   'Li2 Eu8 Si12 Hg2'
_cell_volume   533.81560579
_cell_formula_units_Z   2
loop_
 _symmetry_equiv_pos_site_id
 _symmetry_equiv_pos_as_xyz
  1  'x, y, z'
loop_
 _atom_site_type_symbol
 _atom_site_label
 _atom_site_symmetry_multiplicity
 _atom_site_fract_x
 _atom_site_fract_y
 _atom_site_fract_z
 _atom_site_occupancy
  Li  Li0  1  0.166982  0.833018  0.166982  1
  Li  Li1  1  0.416982  0.083018  0.416982  1
  Eu  Eu2  1  0.127964  0.120257  0.874006  1
  Eu  Eu3  1  0.874007  0.877773  0.127963  1
  Eu  Eu4  1  0.129744  0.122037  0.372227  1
  Eu  Eu5  1  0.372228  0.375994  0.129743  1
  Eu  Eu6  1  0.621249  0.624895  0.377533  1
  Eu  Eu7  1  0.377533  0.376322  0.621249  1
  Eu  Eu8  1  0.625106  0.628751  0.873678  1
  Eu  Eu9  1  0.873679  0.872468  0.625105  1
  Si  Si10  1  0.909774  0.595701  0.432874  1
  Si  Si11  1  0.078071  0.416262  0.587457  1
  Si  Si12  1  0.432874  0.061651  0.909774  1
  Si  Si13  1  0.587457  0.918210  0.078071  1
  Si  Si14  1  0.331790  0.662543  0.833738  1
  Si  Si15  1  0.654299  0.340226  0.188349  1
  Si  Si16  1  0.833738  0.171929  0.331790  1
  Si  Si17  1  0.188349  0.817126  0.654299  1
  Si  Si18  1  0.907411  0.592590  0.907410  1
  Si  Si19  1  0.584076  0.915925  0.584075  1
  Si  Si20  1  0.334076  0.665925  0.334076  1
  Si  Si21  1  0.657410  0.342590  0.657410  1
  Hg  Hg22  1  0.082603  0.417397  0.082603  1
  Hg  Hg23  1  0.832603  0.167397  0.832603  1
