# generated using pymatgen
data_LiSm2(Co3P2)3
_symmetry_space_group_name_H-M   'P 1'
_cell_length_a   3.70349100
_cell_length_b   10.33929500
_cell_length_c   11.88641300
_cell_angle_alpha   90.00000000
_cell_angle_beta   90.00000000
_cell_angle_gamma   90.00000000
_symmetry_Int_Tables_number   1
_chemical_formula_structural   LiSm2(Co3P2)3
_chemical_formula_sum   'Li2 Sm4 Co18 P12'
_cell_volume   455.14841673
_cell_formula_units_Z   2
loop_
 _symmetry_equiv_pos_site_id
 _symmetry_equiv_pos_as_xyz
  1  'x, y, z'
loop_
 _atom_site_type_symbol
 _atom_site_label
 _atom_site_symmetry_multiplicity
 _atom_site_fract_x
 _atom_site_fract_y
 _atom_site_fract_z
 _atom_site_occupancy
  Li  Li0  1  0.250000  0.701264  0.991143  1
  Li  Li1  1  0.250000  0.798736  0.491143  1
  Sm  Sm2  1  0.250000  0.580024  0.700910  1
  Sm  Sm3  1  0.250000  0.919976  0.200910  1
  Sm  Sm4  1  0.750000  0.419134  0.297702  1
  Sm  Sm5  1  0.750000  0.080866  0.797702  1
  Co  Co6  1  0.750000  0.290445  0.009368  1
  Co  Co7  1  0.750000  0.209555  0.509368  1
  Co  Co8  1  0.250000  0.402343  0.488178  1
  Co  Co9  1  0.250000  0.097657  0.988178  1
  Co  Co10  1  0.750000  0.589751  0.512493  1
  Co  Co11  1  0.750000  0.910249  0.012493  1
  Co  Co12  1  0.250000  0.223607  0.174269  1
  Co  Co13  1  0.250000  0.276393  0.674269  1
  Co  Co14  1  0.750000  0.780183  0.826802  1
  Co  Co15  1  0.750000  0.719817  0.326802  1
  Co  Co16  1  0.250000  0.881597  0.698156  1
  Co  Co17  1  0.250000  0.618403  0.198156  1
  Co  Co18  1  0.750000  0.120778  0.300752  1
  Co  Co19  1  0.750000  0.379222  0.800752  1
  Co  Co20  1  0.250000  0.464312  0.931982  1
  Co  Co21  1  0.250000  0.035688  0.431982  1
  Co  Co22  1  0.750000  0.532181  0.065826  1
  Co  Co23  1  0.750000  0.967819  0.565826  1
  P  P24  1  0.250000  0.421800  0.110659  1
  P  P25  1  0.250000  0.078200  0.610659  1
  P  P26  1  0.750000  0.577359  0.885444  1
  P  P27  1  0.750000  0.922641  0.385444  1
  P  P28  1  0.250000  0.271069  0.866761  1
  P  P29  1  0.250000  0.228931  0.366761  1
  P  P30  1  0.750000  0.725589  0.138968  1
  P  P31  1  0.750000  0.774411  0.638968  1
  P  P32  1  0.250000  0.602794  0.394414  1
  P  P33  1  0.250000  0.897206  0.894414  1
  P  P34  1  0.750000  0.393249  0.606173  1
  P  P35  1  0.750000  0.106751  0.106173  1
