# generated using pymatgen
data_Ca2Zn14Pt3
_symmetry_space_group_name_H-M   'P 1'
_cell_length_a   6.87457285
_cell_length_b   6.87457379
_cell_length_c   6.87457182
_cell_angle_alpha   83.36271389
_cell_angle_beta   83.36270893
_cell_angle_gamma   83.36271591
_symmetry_Int_Tables_number   1
_chemical_formula_structural   Ca2Zn14Pt3
_chemical_formula_sum   'Ca2 Zn14 Pt3'
_cell_volume   318.82506448
_cell_formula_units_Z   1
loop_
 _symmetry_equiv_pos_site_id
 _symmetry_equiv_pos_as_xyz
  1  'x, y, z'
loop_
 _atom_site_type_symbol
 _atom_site_label
 _atom_site_symmetry_multiplicity
 _atom_site_fract_x
 _atom_site_fract_y
 _atom_site_fract_z
 _atom_site_occupancy
  Ca  Ca0  1  0.666339  0.666339  0.666339  1
  Ca  Ca1  1  0.333661  0.333661  0.333661  1
  Zn  Zn2  1  0.351686  0.351686  0.842569  1
  Zn  Zn3  1  0.842569  0.351686  0.351686  1
  Zn  Zn4  1  0.099612  0.099612  0.099612  1
  Zn  Zn5  1  0.900388  0.900388  0.900388  1
  Zn  Zn6  1  0.296252  0.703748  0.000000  1
  Zn  Zn7  1  0.703748  0.000000  0.296252  1
  Zn  Zn8  1  0.000000  0.296252  0.703748  1
  Zn  Zn9  1  0.703748  0.296252  0.000000  1
  Zn  Zn10  1  0.296252  0.000000  0.703748  1
  Zn  Zn11  1  0.000000  0.703748  0.296252  1
  Zn  Zn12  1  0.157431  0.648314  0.648314  1
  Zn  Zn13  1  0.648314  0.648314  0.157431  1
  Zn  Zn14  1  0.648314  0.157431  0.648314  1
  Zn  Zn15  1  0.351686  0.842569  0.351686  1
  Pt  Pt16  1  0.000000  0.000000  0.500000  1
  Pt  Pt17  1  0.000000  0.500000  0.000000  1
  Pt  Pt18  1  0.500000  0.000000  0.000000  1
