# generated using pymatgen
data_Ac2NdIn2Pb3
_symmetry_space_group_name_H-M   'P 1'
_cell_length_a   6.85145000
_cell_length_b   6.85145109
_cell_length_c   10.90203900
_cell_angle_alpha   90.00000000
_cell_angle_beta   90.00000000
_cell_angle_gamma   102.17271261
_symmetry_Int_Tables_number   1
_chemical_formula_structural   Ac2NdIn2Pb3
_chemical_formula_sum   'Ac4 Nd2 In4 Pb6'
_cell_volume   500.26123497
_cell_formula_units_Z   2
loop_
 _symmetry_equiv_pos_site_id
 _symmetry_equiv_pos_as_xyz
  1  'x, y, z'
loop_
 _atom_site_type_symbol
 _atom_site_label
 _atom_site_symmetry_multiplicity
 _atom_site_fract_x
 _atom_site_fract_y
 _atom_site_fract_z
 _atom_site_occupancy
  Ac  Ac0  1  0.797275  0.202725  0.000000  1
  Ac  Ac1  1  0.202725  0.797275  0.000000  1
  Ac  Ac2  1  0.202725  0.797275  0.500000  1
  Ac  Ac3  1  0.797275  0.202725  0.500000  1
  Nd  Nd4  1  0.632264  0.632264  0.250000  1
  Nd  Nd5  1  0.367736  0.367736  0.750000  1
  In  In6  1  0.318025  0.318025  0.041922  1
  In  In7  1  0.681975  0.681975  0.958078  1
  In  In8  1  0.681975  0.681975  0.541922  1
  In  In9  1  0.318025  0.318025  0.458078  1
  Pb  Pb10  1  0.076519  0.493184  0.250000  1
  Pb  Pb11  1  0.923481  0.506816  0.750000  1
  Pb  Pb12  1  0.493184  0.076519  0.250000  1
  Pb  Pb13  1  0.506816  0.923481  0.750000  1
  Pb  Pb14  1  0.015967  0.015967  0.250000  1
  Pb  Pb15  1  0.984033  0.984033  0.750000  1
