# generated using pymatgen
data_Ti2Sn2Rh3
_symmetry_space_group_name_H-M   'P 1'
_cell_length_a   7.63864673
_cell_length_b   7.63864594
_cell_length_c   7.63864663
_cell_angle_alpha   33.78104034
_cell_angle_beta   33.78105065
_cell_angle_gamma   33.78104215
_symmetry_Int_Tables_number   1
_chemical_formula_structural   Ti2Sn2Rh3
_chemical_formula_sum   'Ti2 Sn2 Rh3'
_cell_volume   122.78188499
_cell_formula_units_Z   1
loop_
 _symmetry_equiv_pos_site_id
 _symmetry_equiv_pos_as_xyz
  1  'x, y, z'
loop_
 _atom_site_type_symbol
 _atom_site_label
 _atom_site_symmetry_multiplicity
 _atom_site_fract_x
 _atom_site_fract_y
 _atom_site_fract_z
 _atom_site_occupancy
  Ti  Ti0  1  0.754107  0.754107  0.754107  1
  Ti  Ti1  1  0.246569  0.246569  0.246569  1
  Sn  Sn2  1  0.993919  0.993919  0.993919  1
  Sn  Sn3  1  0.504364  0.504364  0.504364  1
  Rh  Rh4  1  0.122944  0.122944  0.122944  1
  Rh  Rh5  1  0.627734  0.627734  0.627734  1
  Rh  Rh6  1  0.375362  0.375362  0.375362  1
