# generated using pymatgen
data_Nd2Y4IrI10
_symmetry_space_group_name_H-M   'P 1'
_cell_length_a   7.82154460
_cell_length_b   9.86888850
_cell_length_c   9.87029190
_cell_angle_alpha   106.86425244
_cell_angle_beta   96.49810549
_cell_angle_gamma   104.97013495
_symmetry_Int_Tables_number   1
_chemical_formula_structural   Nd2Y4IrI10
_chemical_formula_sum   'Nd2 Y4 Ir1 I10'
_cell_volume   689.64184583
_cell_formula_units_Z   1
loop_
 _symmetry_equiv_pos_site_id
 _symmetry_equiv_pos_as_xyz
  1  'x, y, z'
loop_
 _atom_site_type_symbol
 _atom_site_label
 _atom_site_symmetry_multiplicity
 _atom_site_fract_x
 _atom_site_fract_y
 _atom_site_fract_z
 _atom_site_occupancy
  Nd  Nd0  1  0.116308  0.043271  0.762054  1
  Nd  Nd1  1  0.883692  0.956729  0.237946  1
  Y  Y2  1  0.969923  0.287188  0.086307  1
  Y  Y3  1  0.030077  0.712812  0.913693  1
  Y  Y4  1  0.349042  0.125879  0.166352  1
  Y  Y5  1  0.650958  0.874121  0.833648  1
  Ir  Ir6  1  0.000000  0.000000  0.000000  1
  I  I7  1  0.348861  0.448133  0.270807  1
  I  I8  1  0.651139  0.551867  0.729193  1
  I  I9  1  0.265397  0.089701  0.458782  1
  I  I10  1  0.734603  0.910299  0.541218  1
  I  I11  1  0.084382  0.377305  0.823805  1
  I  I12  1  0.915618  0.622695  0.176195  1
  I  I13  1  0.449795  0.816876  0.088971  1
  I  I14  1  0.550205  0.183124  0.911029  1
  I  I15  1  0.776805  0.260562  0.343673  1
  I  I16  1  0.223195  0.739438  0.656327  1
