# generated using pymatgen
data_LiMgZr2(SbPt)4
_symmetry_space_group_name_H-M   'P 1'
_cell_length_a   6.39253144
_cell_length_b   6.39253218
_cell_length_c   7.80221824
_cell_angle_alpha   65.81646040
_cell_angle_beta   65.81645574
_cell_angle_gamma   89.99999954
_symmetry_Int_Tables_number   1
_chemical_formula_structural   LiMgZr2(SbPt)4
_chemical_formula_sum   'Li1 Mg1 Zr2 Sb4 Pt4'
_cell_volume   259.87483484
_cell_formula_units_Z   1
loop_
 _symmetry_equiv_pos_site_id
 _symmetry_equiv_pos_as_xyz
  1  'x, y, z'
loop_
 _atom_site_type_symbol
 _atom_site_label
 _atom_site_symmetry_multiplicity
 _atom_site_fract_x
 _atom_site_fract_y
 _atom_site_fract_z
 _atom_site_occupancy
  Li  Li0  1  0.000000  0.000000  0.000000  1
  Mg  Mg1  1  0.250000  0.750000  0.500000  1
  Zr  Zr2  1  0.500000  0.500000  0.000000  1
  Zr  Zr3  1  0.750000  0.250000  0.500000  1
  Sb  Sb4  1  0.496115  0.996114  0.007769  1
  Sb  Sb5  1  0.758027  0.758027  0.483946  1
  Sb  Sb6  1  0.241973  0.241973  0.516053  1
  Sb  Sb7  1  0.003885  0.503885  0.992230  1
  Pt  Pt8  1  0.619139  0.612917  0.253240  1
  Pt  Pt9  1  0.127619  0.133841  0.253241  1
  Pt  Pt10  1  0.866157  0.380861  0.746759  1
  Pt  Pt11  1  0.387081  0.872377  0.746761  1
