# generated using pymatgen
data_HoTmPb4
_symmetry_space_group_name_H-M   'P 1'
_cell_length_a   8.49633630
_cell_length_b   8.49633694
_cell_length_c   4.52304300
_cell_angle_alpha   90.00000000
_cell_angle_beta   90.00000000
_cell_angle_gamma   148.32819407
_symmetry_Int_Tables_number   1
_chemical_formula_structural   HoTmPb4
_chemical_formula_sum   'Ho1 Tm1 Pb4'
_cell_volume   171.43410170
_cell_formula_units_Z   1
loop_
 _symmetry_equiv_pos_site_id
 _symmetry_equiv_pos_as_xyz
  1  'x, y, z'
loop_
 _atom_site_type_symbol
 _atom_site_label
 _atom_site_symmetry_multiplicity
 _atom_site_fract_x
 _atom_site_fract_y
 _atom_site_fract_z
 _atom_site_occupancy
  Ho  Ho0  1  0.406334  0.593666  0.250000  1
  Tm  Tm1  1  0.593862  0.406138  0.750001  1
  Pb  Pb2  1  0.751664  0.248336  0.250000  1
  Pb  Pb3  1  0.069991  0.930009  0.250000  1
  Pb  Pb4  1  0.930092  0.069908  0.750001  1
  Pb  Pb5  1  0.248057  0.751943  0.750001  1
