# generated using pymatgen
data_CaSb12OsRu3
_symmetry_space_group_name_H-M   'P 1'
_cell_length_a   8.15223524
_cell_length_b   8.16181926
_cell_length_c   8.16181870
_cell_angle_alpha   109.49499159
_cell_angle_beta   109.44743885
_cell_angle_gamma   109.44743795
_symmetry_Int_Tables_number   1
_chemical_formula_structural   CaSb12OsRu3
_chemical_formula_sum   'Ca1 Sb12 Os1 Ru3'
_cell_volume   418.17312334
_cell_formula_units_Z   1
loop_
 _symmetry_equiv_pos_site_id
 _symmetry_equiv_pos_as_xyz
  1  'x, y, z'
loop_
 _atom_site_type_symbol
 _atom_site_label
 _atom_site_symmetry_multiplicity
 _atom_site_fract_x
 _atom_site_fract_y
 _atom_site_fract_z
 _atom_site_occupancy
  Ca  Ca0  1  0.000000  0.000000  0.000000  1
  Sb  Sb1  1  0.842980  0.661354  0.504241  1
  Sb  Sb2  1  0.157020  0.338646  0.495759  1
  Sb  Sb3  1  0.156511  0.660812  0.818224  1
  Sb  Sb4  1  0.843489  0.339188  0.181776  1
  Sb  Sb5  1  0.661261  0.504241  0.842886  1
  Sb  Sb6  1  0.338739  0.495759  0.157114  1
  Sb  Sb7  1  0.661713  0.818224  0.157412  1
  Sb  Sb8  1  0.338287  0.181776  0.842588  1
  Sb  Sb9  1  0.504301  0.842588  0.660812  1
  Sb  Sb10  1  0.495699  0.157412  0.339188  1
  Sb  Sb11  1  0.181625  0.842886  0.338646  1
  Sb  Sb12  1  0.818375  0.157114  0.661354  1
  Os  Os13  1  0.500000  0.000000  0.000000  1
  Ru  Ru14  1  0.500000  0.500000  0.500000  1
  Ru  Ru15  1  0.000000  0.500000  0.000000  1
  Ru  Ru16  1  0.000000  0.000000  0.500000  1
