# generated using pymatgen
data_LaScP7(IrRu5)2
_symmetry_space_group_name_H-M   'P 1'
_cell_length_a   9.42800121
_cell_length_b   9.48826941
_cell_length_c   3.95316900
_cell_angle_alpha   90.00000000
_cell_angle_beta   90.00000000
_cell_angle_gamma   120.11506856
_symmetry_Int_Tables_number   1
_chemical_formula_structural   LaScP7(IrRu5)2
_chemical_formula_sum   'La1 Sc1 P7 Ir2 Ru10'
_cell_volume   305.89889878
_cell_formula_units_Z   1
loop_
 _symmetry_equiv_pos_site_id
 _symmetry_equiv_pos_as_xyz
  1  'x, y, z'
loop_
 _atom_site_type_symbol
 _atom_site_label
 _atom_site_symmetry_multiplicity
 _atom_site_fract_x
 _atom_site_fract_y
 _atom_site_fract_z
 _atom_site_occupancy
  La  La0  1  0.330805  0.665537  0.000000  1
  Sc  Sc1  1  0.668065  0.333948  0.500000  1
  P  P2  1  0.606536  0.718455  0.500000  1
  P  P3  1  0.000185  0.000716  0.000000  1
  P  P4  1  0.276605  0.883795  0.500000  1
  P  P5  1  0.109225  0.395021  0.500000  1
  P  P6  1  0.884482  0.569178  0.000000  1
  P  P7  1  0.432522  0.311473  0.000000  1
  P  P8  1  0.689084  0.119075  0.000000  1
  Ir  Ir9  1  0.557551  0.954646  0.500000  1
  Ir  Ir10  1  0.396710  0.440720  0.500000  1
  Ru  Ru11  1  0.915285  0.121632  0.500000  1
  Ru  Ru12  1  0.208654  0.086385  0.500000  1
  Ru  Ru13  1  0.878488  0.795190  0.500000  1
  Ru  Ru14  1  0.726126  0.893148  0.000000  1
  Ru  Ru15  1  0.107579  0.836190  0.000000  1
  Ru  Ru16  1  0.167429  0.272464  0.000000  1
  Ru  Ru17  1  0.428169  0.072809  0.000000  1
  Ru  Ru18  1  0.928771  0.353291  0.000000  1
  Ru  Ru19  1  0.646673  0.573124  0.000000  1
  Ru  Ru20  1  0.041056  0.603203  0.500000  1
