# generated using pymatgen
data_RbInHgPb2
_symmetry_space_group_name_H-M   'P 1'
_cell_length_a   7.58182463
_cell_length_b   7.58182488
_cell_length_c   7.58182432
_cell_angle_alpha   140.59590755
_cell_angle_beta   140.59590900
_cell_angle_gamma   56.94960904
_symmetry_Int_Tables_number   1
_chemical_formula_structural   RbInHgPb2
_chemical_formula_sum   'Rb1 In1 Hg1 Pb2'
_cell_volume   174.17075701
_cell_formula_units_Z   1
loop_
 _symmetry_equiv_pos_site_id
 _symmetry_equiv_pos_as_xyz
  1  'x, y, z'
loop_
 _atom_site_type_symbol
 _atom_site_label
 _atom_site_symmetry_multiplicity
 _atom_site_fract_x
 _atom_site_fract_y
 _atom_site_fract_z
 _atom_site_occupancy
  Rb  Rb0  1  0.995969  0.995969  0.000000  1
  In  In1  1  0.611021  0.611021  0.000000  1
  Hg  Hg2  1  0.394773  0.394773  0.000000  1
  Pb  Pb3  1  0.749118  0.249118  0.500001  1
  Pb  Pb4  1  0.249118  0.749118  0.500001  1
