# generated using pymatgen
data_Ho16In3HgIr3Pt
_symmetry_space_group_name_H-M   'P 1'
_cell_length_a   9.60320249
_cell_length_b   9.61755265
_cell_length_c   9.61755246
_cell_angle_alpha   60.15703589
_cell_angle_beta   60.06681367
_cell_angle_gamma   60.06681477
_symmetry_Int_Tables_number   1
_chemical_formula_structural   Ho16In3HgIr3Pt
_chemical_formula_sum   'Ho16 In3 Hg1 Ir3 Pt1'
_cell_volume   629.47993572
_cell_formula_units_Z   1
loop_
 _symmetry_equiv_pos_site_id
 _symmetry_equiv_pos_as_xyz
  1  'x, y, z'
loop_
 _atom_site_type_symbol
 _atom_site_label
 _atom_site_symmetry_multiplicity
 _atom_site_fract_x
 _atom_site_fract_y
 _atom_site_fract_z
 _atom_site_occupancy
  Ho  Ho0  1  0.439181  0.435570  0.064146  1
  Ho  Ho1  1  0.650060  0.645795  0.054245  1
  Ho  Ho2  1  0.187009  0.811612  0.193747  1
  Ho  Ho3  1  0.060716  0.439730  0.059746  1
  Ho  Ho4  1  0.188037  0.809473  0.809473  1
  Ho  Ho5  1  0.064279  0.437608  0.437608  1
  Ho  Ho6  1  0.812429  0.189705  0.189705  1
  Ho  Ho7  1  0.654032  0.650484  0.650484  1
  Ho  Ho8  1  0.810028  0.191161  0.809156  1
  Ho  Ho9  1  0.187009  0.193747  0.811612  1
  Ho  Ho10  1  0.050648  0.648577  0.648577  1
  Ho  Ho11  1  0.440646  0.061185  0.061185  1
  Ho  Ho12  1  0.060716  0.059746  0.439730  1
  Ho  Ho13  1  0.650060  0.054245  0.645795  1
  Ho  Ho14  1  0.810028  0.809156  0.191161  1
  Ho  Ho15  1  0.439181  0.064146  0.435570  1
  In  In16  1  0.417446  0.418039  0.747047  1
  In  In17  1  0.417446  0.747047  0.418039  1
  In  In18  1  0.747891  0.417408  0.417408  1
  Hg  Hg19  1  0.413740  0.413267  0.413267  1
  Ir  Ir20  1  0.856419  0.857839  0.857839  1
  Ir  Ir21  1  0.858240  0.425771  0.859757  1
  Ir  Ir22  1  0.858240  0.859757  0.425771  1
  Pt  Pt23  1  0.426519  0.858934  0.858934  1
