# generated using pymatgen
data_Ce2Nd2ZnCd2Pt3
_symmetry_space_group_name_H-M   'P 1'
_cell_length_a   7.90847304
_cell_length_b   7.90847298
_cell_length_c   3.82492200
_cell_angle_alpha   90.00000000
_cell_angle_beta   90.00000000
_cell_angle_gamma   91.46375355
_symmetry_Int_Tables_number   1
_chemical_formula_structural   Ce2Nd2ZnCd2Pt3
_chemical_formula_sum   'Ce2 Nd2 Zn1 Cd2 Pt3'
_cell_volume   239.14764958
_cell_formula_units_Z   1
loop_
 _symmetry_equiv_pos_site_id
 _symmetry_equiv_pos_as_xyz
  1  'x, y, z'
loop_
 _atom_site_type_symbol
 _atom_site_label
 _atom_site_symmetry_multiplicity
 _atom_site_fract_x
 _atom_site_fract_y
 _atom_site_fract_z
 _atom_site_occupancy
  Ce  Ce0  1  0.311598  0.834466  0.500000  1
  Ce  Ce1  1  0.665534  0.188402  0.500000  1
  Nd  Nd2  1  0.175283  0.324717  0.500000  1
  Nd  Nd3  1  0.837717  0.662283  0.500000  1
  Zn  Zn4  1  0.625813  0.874187  0.000000  1
  Cd  Cd5  1  0.497756  0.510604  0.000000  1
  Cd  Cd6  1  0.989396  0.002244  0.000000  1
  Pt  Pt7  1  0.135986  0.630075  0.000000  1
  Pt  Pt8  1  0.869925  0.364014  0.000000  1
  Pt  Pt9  1  0.390991  0.109009  0.000000  1
