# generated using pymatgen
data_TeF17
_symmetry_space_group_name_H-M   'P 1'
_cell_length_a   8.83281068
_cell_length_b   8.63673722
_cell_length_c   10.17046860
_cell_angle_alpha   83.22877906
_cell_angle_beta   87.67316639
_cell_angle_gamma   68.50094966
_symmetry_Int_Tables_number   1
_chemical_formula_structural   TeF17
_chemical_formula_sum   'Te2 F34'
_cell_volume   716.85070100
_cell_formula_units_Z   2
loop_
 _symmetry_equiv_pos_site_id
 _symmetry_equiv_pos_as_xyz
  1  'x, y, z'
loop_
 _atom_site_type_symbol
 _atom_site_label
 _atom_site_symmetry_multiplicity
 _atom_site_fract_x
 _atom_site_fract_y
 _atom_site_fract_z
 _atom_site_occupancy
  Te  Te0  1  0.863185  0.250218  0.761344  1
  Te  Te1  1  0.136815  0.749782  0.238656  1
  F  F2  1  0.604449  0.199905  0.484149  1
  F  F3  1  0.395551  0.800095  0.515851  1
  F  F4  1  0.820133  0.700760  0.720511  1
  F  F5  1  0.179867  0.299240  0.279489  1
  F  F6  1  0.081026  0.769339  0.857985  1
  F  F7  1  0.918974  0.230661  0.142015  1
  F  F8  1  0.554491  0.139892  0.374772  1
  F  F9  1  0.445509  0.860108  0.625228  1
  F  F10  1  0.649235  0.318004  0.701236  1
  F  F11  1  0.350765  0.681996  0.298764  1
  F  F12  1  0.928170  0.073880  0.656892  1
  F  F13  1  0.071830  0.926120  0.343108  1
  F  F14  1  0.908341  0.384653  0.620138  1
  F  F15  1  0.091659  0.615347  0.379862  1
  F  F16  1  0.850983  0.807826  0.613978  1
  F  F17  1  0.149017  0.192174  0.386022  1
  F  F18  1  0.800698  0.428625  0.864092  1
  F  F19  1  0.199302  0.571375  0.135908  1
  F  F20  1  0.211294  0.687405  0.773592  1
  F  F21  1  0.788706  0.312595  0.226408  1
  F  F22  1  0.925536  0.816890  0.173703  1
  F  F23  1  0.074464  0.183110  0.826297  1
  F  F24  1  0.815900  0.113956  0.900526  1
  F  F25  1  0.184100  0.886044  0.099474  1
  F  F26  1  0.486305  0.586024  0.980324  1
  F  F27  1  0.513695  0.413976  0.019676  1
  F  F28  1  0.459745  0.077987  0.868329  1
  F  F29  1  0.540255  0.922013  0.131671  1
  F  F30  1  0.294458  0.236049  0.614556  1
  F  F31  1  0.705542  0.763951  0.385444  1
  F  F32  1  0.259441  0.386747  0.674261  1
  F  F33  1  0.740559  0.613253  0.325739  1
  F  F34  1  0.562535  0.915812  0.837352  1
  F  F35  1  0.437465  0.084188  0.162648  1
