# generated using pymatgen
data_Ho16Tm4(Ir3Os)3
_symmetry_space_group_name_H-M   'P 1'
_cell_length_a   10.80362800
_cell_length_b   10.80362800
_cell_length_c   6.36913400
_cell_angle_alpha   90.00000000
_cell_angle_beta   90.00000000
_cell_angle_gamma   90.00000000
_symmetry_Int_Tables_number   1
_chemical_formula_structural   Ho16Tm4(Ir3Os)3
_chemical_formula_sum   'Ho16 Tm4 Ir9 Os3'
_cell_volume   743.39498951
_cell_formula_units_Z   1
loop_
 _symmetry_equiv_pos_site_id
 _symmetry_equiv_pos_as_xyz
  1  'x, y, z'
loop_
 _atom_site_type_symbol
 _atom_site_label
 _atom_site_symmetry_multiplicity
 _atom_site_fract_x
 _atom_site_fract_y
 _atom_site_fract_z
 _atom_site_occupancy
  Ho  Ho0  1  0.293345  0.086049  0.376377  1
  Ho  Ho1  1  0.293375  0.914230  0.876556  1
  Ho  Ho2  1  0.706625  0.085770  0.876556  1
  Ho  Ho3  1  0.706655  0.913951  0.376377  1
  Ho  Ho4  1  0.585770  0.793375  0.876556  1
  Ho  Ho5  1  0.586049  0.206655  0.376377  1
  Ho  Ho6  1  0.413951  0.793345  0.376377  1
  Ho  Ho7  1  0.414230  0.206625  0.876556  1
  Ho  Ho8  1  0.208494  0.413449  0.625270  1
  Ho  Ho9  1  0.207993  0.586737  0.121150  1
  Ho  Ho10  1  0.792007  0.413263  0.121150  1
  Ho  Ho11  1  0.791506  0.586551  0.625270  1
  Ho  Ho12  1  0.913263  0.707993  0.121150  1
  Ho  Ho13  1  0.913449  0.291506  0.625270  1
  Ho  Ho14  1  0.086551  0.708494  0.625270  1
  Ho  Ho15  1  0.086737  0.292007  0.121150  1
  Tm  Tm16  1  0.000000  0.000000  0.499710  1
  Tm  Tm17  1  0.000000  0.000000  0.999907  1
  Tm  Tm18  1  0.500000  0.500000  0.999907  1
  Tm  Tm19  1  0.500000  0.500000  0.499710  1
  Ir  Ir20  1  0.848903  0.152547  0.250302  1
  Ir  Ir21  1  0.848615  0.847756  0.749761  1
  Ir  Ir22  1  0.151385  0.152244  0.749761  1
  Ir  Ir23  1  0.151097  0.847453  0.250302  1
  Ir  Ir24  1  0.652244  0.348615  0.749761  1
  Ir  Ir25  1  0.652547  0.651097  0.250302  1
  Ir  Ir26  1  0.347453  0.348903  0.250302  1
  Ir  Ir27  1  0.347756  0.651385  0.749761  1
  Ir  Ir28  1  0.000000  0.500000  0.378610  1
  Os  Os29  1  0.500000  0.000000  0.123881  1
  Os  Os30  1  0.500000  0.000000  0.623688  1
  Os  Os31  1  0.000000  0.500000  0.876923  1
