# generated using pymatgen
data_Ta9Cu2GePt2
_symmetry_space_group_name_H-M   'P 1'
_cell_length_a   5.16046708
_cell_length_b   9.81497770
_cell_length_c   9.81497786
_cell_angle_alpha   86.03714156
_cell_angle_beta   74.75854704
_cell_angle_gamma   74.75854526
_symmetry_Int_Tables_number   1
_chemical_formula_structural   Ta9Cu2GePt2
_chemical_formula_sum   'Ta18 Cu4 Ge2 Pt4'
_cell_volume   462.77100626
_cell_formula_units_Z   2
loop_
 _symmetry_equiv_pos_site_id
 _symmetry_equiv_pos_as_xyz
  1  'x, y, z'
loop_
 _atom_site_type_symbol
 _atom_site_label
 _atom_site_symmetry_multiplicity
 _atom_site_fract_x
 _atom_site_fract_y
 _atom_site_fract_z
 _atom_site_occupancy
  Ta  Ta0  1  0.750000  0.500000  0.500000  1
  Ta  Ta1  1  0.250000  0.500000  0.500000  1
  Ta  Ta2  1  0.790401  0.778776  0.640420  1
  Ta  Ta3  1  0.209599  0.221224  0.359580  1
  Ta  Ta4  1  0.709599  0.359580  0.221224  1
  Ta  Ta5  1  0.290401  0.640420  0.778776  1
  Ta  Ta6  1  0.569179  0.640420  0.221224  1
  Ta  Ta7  1  0.430821  0.359580  0.778776  1
  Ta  Ta8  1  0.069179  0.221224  0.640420  1
  Ta  Ta9  1  0.930821  0.778776  0.359580  1
  Ta  Ta10  1  0.584838  0.076062  0.754263  1
  Ta  Ta11  1  0.415162  0.923938  0.245737  1
  Ta  Ta12  1  0.915162  0.245737  0.923938  1
  Ta  Ta13  1  0.084838  0.754263  0.076062  1
  Ta  Ta14  1  0.660900  0.754263  0.923938  1
  Ta  Ta15  1  0.339100  0.245737  0.076062  1
  Ta  Ta16  1  0.160900  0.923938  0.754263  1
  Ta  Ta17  1  0.839100  0.076062  0.245737  1
  Cu  Cu18  1  0.500000  0.000000  0.500000  1
  Cu  Cu19  1  0.000000  0.000000  0.500000  1
  Cu  Cu20  1  0.500000  0.500000  0.000000  1
  Cu  Cu21  1  0.000000  0.500000  0.000000  1
  Ge  Ge22  1  0.250000  0.000000  0.000000  1
  Ge  Ge23  1  0.750000  0.000000  0.000000  1
  Pt  Pt24  1  0.129228  0.500000  0.241544  1
  Pt  Pt25  1  0.870772  0.500000  0.758456  1
  Pt  Pt26  1  0.370772  0.758456  0.500000  1
  Pt  Pt27  1  0.629228  0.241544  0.500000  1
