# generated using pymatgen
data_Pr8Nd2Bi5PbBr2
_symmetry_space_group_name_H-M   'P 1'
_cell_length_a   9.71400001
_cell_length_b   9.69502435
_cell_length_c   6.77529801
_cell_angle_alpha   89.99719707
_cell_angle_beta   90.00559490
_cell_angle_gamma   120.06475989
_symmetry_Int_Tables_number   1
_chemical_formula_structural   Pr8Nd2Bi5PbBr2
_chemical_formula_sum   'Pr8 Nd2 Bi5 Pb1 Br2'
_cell_volume   552.23287968
_cell_formula_units_Z   1
loop_
 _symmetry_equiv_pos_site_id
 _symmetry_equiv_pos_as_xyz
  1  'x, y, z'
loop_
 _atom_site_type_symbol
 _atom_site_label
 _atom_site_symmetry_multiplicity
 _atom_site_fract_x
 _atom_site_fract_y
 _atom_site_fract_z
 _atom_site_occupancy
  Pr  Pr0  1  0.273183  0.000000  0.749868  1
  Pr  Pr1  1  0.727147  0.000000  0.250221  1
  Pr  Pr2  1  0.998290  0.271468  0.749809  1
  Pr  Pr3  1  0.000247  0.727825  0.250110  1
  Pr  Pr4  1  0.726821  0.728532  0.749809  1
  Pr  Pr5  1  0.272420  0.272175  0.250110  1
  Pr  Pr6  1  0.666804  0.333199  0.000110  1
  Pr  Pr7  1  0.333604  0.666801  0.000110  1
  Nd  Nd8  1  0.333574  0.666780  0.499868  1
  Nd  Nd9  1  0.666794  0.333220  0.499868  1
  Bi  Bi10  1  0.385698  0.000000  0.250488  1
  Bi  Bi11  1  0.999573  0.615275  0.749530  1
  Bi  Bi12  1  0.999663  0.384377  0.250438  1
  Bi  Bi13  1  0.384298  0.384725  0.749530  1
  Bi  Bi14  1  0.615286  0.615623  0.250438  1
  Pb  Pb15  1  0.615176  0.000000  0.749657  1
  Br  Br16  1  0.000696  0.000000  0.499729  1
  Br  Br17  1  0.000724  0.000000  0.000305  1
