# generated using pymatgen
data_Er3Al3ZnNi2
_symmetry_space_group_name_H-M   'P 1'
_cell_length_a   7.08273900
_cell_length_b   7.08273883
_cell_length_c   3.83482200
_cell_angle_alpha   90.00000000
_cell_angle_beta   90.00000000
_cell_angle_gamma   119.99999610
_symmetry_Int_Tables_number   1
_chemical_formula_structural   Er3Al3ZnNi2
_chemical_formula_sum   'Er3 Al3 Zn1 Ni2'
_cell_volume   166.60127678
_cell_formula_units_Z   1
loop_
 _symmetry_equiv_pos_site_id
 _symmetry_equiv_pos_as_xyz
  1  'x, y, z'
loop_
 _atom_site_type_symbol
 _atom_site_label
 _atom_site_symmetry_multiplicity
 _atom_site_fract_x
 _atom_site_fract_y
 _atom_site_fract_z
 _atom_site_occupancy
  Er  Er0  1  0.420520  0.015374  0.500000  1
  Er  Er1  1  0.984626  0.405146  0.500000  1
  Er  Er2  1  0.594854  0.579480  0.500000  1
  Al  Al3  1  0.768244  0.004861  0.000000  1
  Al  Al4  1  0.995139  0.763383  0.000000  1
  Al  Al5  1  0.236617  0.231756  0.000000  1
  Zn  Zn6  1  0.333333  0.666667  0.000000  1
  Ni  Ni7  1  0.666667  0.333333  0.000000  1
  Ni  Ni8  1  0.000000  0.000000  0.500000  1
