# generated using pymatgen
data_Dy3ErCo4(SnH)4
_symmetry_space_group_name_H-M   'P 1'
_cell_length_a   4.25982700
_cell_length_b   7.09970578
_cell_length_c   8.17963590
_cell_angle_alpha   90.05371880
_cell_angle_beta   90.00000000
_cell_angle_gamma   90.00000000
_symmetry_Int_Tables_number   1
_chemical_formula_structural   Dy3ErCo4(SnH)4
_chemical_formula_sum   'Dy3 Er1 Co4 Sn4 H4'
_cell_volume   247.38085987
_cell_formula_units_Z   1
loop_
 _symmetry_equiv_pos_site_id
 _symmetry_equiv_pos_as_xyz
  1  'x, y, z'
loop_
 _atom_site_type_symbol
 _atom_site_label
 _atom_site_symmetry_multiplicity
 _atom_site_fract_x
 _atom_site_fract_y
 _atom_site_fract_z
 _atom_site_occupancy
  Dy  Dy0  1  0.750000  0.013696  0.685978  1
  Dy  Dy1  1  0.250000  0.986358  0.313773  1
  Dy  Dy2  1  0.250000  0.486205  0.186000  1
  Er  Er3  1  0.750000  0.513945  0.815632  1
  Co  Co4  1  0.750000  0.772643  0.102744  1
  Co  Co5  1  0.250000  0.227978  0.896080  1
  Co  Co6  1  0.250000  0.726483  0.604418  1
  Co  Co7  1  0.750000  0.273064  0.396476  1
  Sn  Sn8  1  0.750000  0.654260  0.427504  1
  Sn  Sn9  1  0.250000  0.346174  0.573973  1
  Sn  Sn10  1  0.250000  0.844725  0.926951  1
  Sn  Sn11  1  0.750000  0.154708  0.072528  1
  H  H12  1  0.250000  0.449048  0.918304  1
  H  H13  1  0.750000  0.551455  0.079889  1
  H  H14  1  0.750000  0.051694  0.418803  1
  H  H15  1  0.250000  0.947563  0.580945  1
