# generated using pymatgen
data_SrCrCu(Sb6Os)2
_symmetry_space_group_name_H-M   'P 1'
_cell_length_a   8.21778973
_cell_length_b   8.21913930
_cell_length_c   8.17658415
_cell_angle_alpha   109.41927727
_cell_angle_beta   109.55430423
_cell_angle_gamma   109.37316745
_symmetry_Int_Tables_number   1
_chemical_formula_structural   SrCrCu(Sb6Os)2
_chemical_formula_sum   'Sr1 Cr1 Cu1 Sb12 Os2'
_cell_volume   425.48928400
_cell_formula_units_Z   1
loop_
 _symmetry_equiv_pos_site_id
 _symmetry_equiv_pos_as_xyz
  1  'x, y, z'
loop_
 _atom_site_type_symbol
 _atom_site_label
 _atom_site_symmetry_multiplicity
 _atom_site_fract_x
 _atom_site_fract_y
 _atom_site_fract_z
 _atom_site_occupancy
  Sr  Sr0  1  0.000000  0.000000  0.000000  1
  Cr  Cr1  1  0.000000  0.000000  0.500000  1
  Cu  Cu2  1  0.500000  0.000000  0.000000  1
  Sb  Sb3  1  0.339235  0.159036  0.497810  1
  Sb  Sb4  1  0.339371  0.840065  0.187309  1
  Sb  Sb5  1  0.660629  0.159935  0.812691  1
  Sb  Sb6  1  0.819612  0.660519  0.158525  1
  Sb  Sb7  1  0.158374  0.496377  0.339446  1
  Sb  Sb8  1  0.500356  0.653371  0.841456  1
  Sb  Sb9  1  0.847733  0.189027  0.347380  1
  Sb  Sb10  1  0.660765  0.840964  0.502190  1
  Sb  Sb11  1  0.180388  0.339481  0.841475  1
  Sb  Sb12  1  0.152267  0.810973  0.652620  1
  Sb  Sb13  1  0.499644  0.346629  0.158544  1
  Sb  Sb14  1  0.841626  0.503623  0.660554  1
  Os  Os15  1  0.500000  0.500000  0.500000  1
  Os  Os16  1  0.000000  0.500000  0.000000  1
