# generated using pymatgen
data_Ti12Ga4C3O
_symmetry_space_group_name_H-M   'P 1'
_cell_length_a   5.54196382
_cell_length_b   5.54196321
_cell_length_c   16.81026093
_cell_angle_alpha   89.90481938
_cell_angle_beta   89.90481931
_cell_angle_gamma   33.08981134
_symmetry_Int_Tables_number   1
_chemical_formula_structural   Ti12Ga4C3O
_chemical_formula_sum   'Ti12 Ga4 C3 O1'
_cell_volume   281.87487801
_cell_formula_units_Z   1
loop_
 _symmetry_equiv_pos_site_id
 _symmetry_equiv_pos_as_xyz
  1  'x, y, z'
loop_
 _atom_site_type_symbol
 _atom_site_label
 _atom_site_symmetry_multiplicity
 _atom_site_fract_x
 _atom_site_fract_y
 _atom_site_fract_z
 _atom_site_occupancy
  Ti  Ti0  1  0.871241  0.871241  0.231077  1
  Ti  Ti1  1  0.873860  0.873860  0.727773  1
  Ti  Ti2  1  0.126140  0.126140  0.272227  1
  Ti  Ti3  1  0.128759  0.128759  0.768923  1
  Ti  Ti4  1  0.872447  0.872447  0.020524  1
  Ti  Ti5  1  0.872275  0.872275  0.519226  1
  Ti  Ti6  1  0.127725  0.127725  0.480774  1
  Ti  Ti7  1  0.127553  0.127553  0.979476  1
  Ti  Ti8  1  0.538943  0.538943  0.125623  1
  Ti  Ti9  1  0.541094  0.541094  0.625400  1
  Ti  Ti10  1  0.458906  0.458906  0.374600  1
  Ti  Ti11  1  0.461057  0.461057  0.874377  1
  Ga  Ga12  1  0.249077  0.249077  0.125932  1
  Ga  Ga13  1  0.249061  0.249061  0.623483  1
  Ga  Ga14  1  0.750939  0.750939  0.376517  1
  Ga  Ga15  1  0.750923  0.750923  0.874068  1
  C  C16  1  0.499283  0.499283  0.250768  1
  C  C17  1  0.500717  0.500717  0.749232  1
  C  C18  1  0.500000  0.500000  0.000000  1
  O  O19  1  0.500000  0.500000  0.500000  1
