# generated using pymatgen
data_TbSm8(IO8)3
_symmetry_space_group_name_H-M   'P 1'
_cell_length_a   5.60085874
_cell_length_b   7.86427628
_cell_length_c   11.88937700
_cell_angle_alpha   76.15713648
_cell_angle_beta   90.12691126
_cell_angle_gamma   89.81209639
_symmetry_Int_Tables_number   1
_chemical_formula_structural   TbSm8(IO8)3
_chemical_formula_sum   'Tb1 Sm8 I3 O24'
_cell_volume   508.47244703
_cell_formula_units_Z   1
loop_
 _symmetry_equiv_pos_site_id
 _symmetry_equiv_pos_as_xyz
  1  'x, y, z'
loop_
 _atom_site_type_symbol
 _atom_site_label
 _atom_site_symmetry_multiplicity
 _atom_site_fract_x
 _atom_site_fract_y
 _atom_site_fract_z
 _atom_site_occupancy
  Tb  Tb0  1  0.254472  0.701947  0.895433  1
  Sm  Sm1  1  0.739703  0.972121  0.757099  1
  Sm  Sm2  1  0.258873  0.001779  0.257683  1
  Sm  Sm3  1  0.194021  0.780642  0.589416  1
  Sm  Sm4  1  0.800903  0.808196  0.066825  1
  Sm  Sm5  1  0.681835  0.507747  0.745146  1
  Sm  Sm6  1  0.301045  0.510559  0.245956  1
  Sm  Sm7  1  0.232764  0.179830  0.923535  1
  Sm  Sm8  1  0.800763  0.220949  0.426254  1
  I  I9  1  0.745730  0.735435  0.383102  1
  I  I10  1  0.244624  0.269154  0.609735  1
  I  I11  1  0.755572  0.275487  0.120351  1
  O  O12  1  0.005380  0.948946  0.902360  1
  O  O13  1  0.524667  0.891750  0.927591  1
  O  O14  1  0.925195  0.949562  0.392950  1
  O  O15  1  0.479122  0.769981  0.719217  1
  O  O16  1  0.468353  0.839028  0.432877  1
  O  O17  1  0.967618  0.712599  0.754692  1
  O  O18  1  0.566671  0.808373  0.235493  1
  O  O19  1  0.854436  0.641610  0.532501  1
  O  O20  1  0.401638  0.446038  0.878818  1
  O  O21  1  0.019093  0.714311  0.290878  1
  O  O22  1  0.373682  0.489285  0.606828  1
  O  O23  1  0.900983  0.356131  0.976243  1
  O  O24  1  0.151692  0.659144  0.083052  1
  O  O25  1  0.632297  0.512341  0.377515  1
  O  O26  1  0.976715  0.302201  0.703028  1
  O  O27  1  0.627701  0.500215  0.110511  1
  O  O28  1  0.140599  0.364037  0.453791  1
  O  O29  1  0.412201  0.177878  0.750403  1
  O  O30  1  0.011258  0.298550  0.230678  1
  O  O31  1  0.504620  0.160337  0.551802  1
  O  O32  1  0.559136  0.214752  0.268155  1
  O  O33  1  0.055927  0.064830  0.596577  1
  O  O34  1  0.490324  0.153965  0.077476  1
  O  O35  1  0.940387  0.060291  0.126028  1
