# generated using pymatgen
data_LiSm3Mg2Si2Ag
_symmetry_space_group_name_H-M   'P 1'
_cell_length_a   7.36668813
_cell_length_b   7.33203426
_cell_length_c   4.37033900
_cell_angle_alpha   90.00000000
_cell_angle_beta   90.00000000
_cell_angle_gamma   119.84450718
_symmetry_Int_Tables_number   1
_chemical_formula_structural   LiSm3Mg2Si2Ag
_chemical_formula_sum   'Li1 Sm3 Mg2 Si2 Ag1'
_cell_volume   204.74856684
_cell_formula_units_Z   1
loop_
 _symmetry_equiv_pos_site_id
 _symmetry_equiv_pos_as_xyz
  1  'x, y, z'
loop_
 _atom_site_type_symbol
 _atom_site_label
 _atom_site_symmetry_multiplicity
 _atom_site_fract_x
 _atom_site_fract_y
 _atom_site_fract_z
 _atom_site_occupancy
  Li  Li0  1  0.000000  0.749648  0.000000  1
  Sm  Sm1  1  0.000000  0.428411  0.500000  1
  Sm  Sm2  1  0.581169  0.577649  0.500000  1
  Sm  Sm3  1  0.418831  0.996480  0.500000  1
  Mg  Mg4  1  0.247752  0.246420  0.000000  1
  Mg  Mg5  1  0.752248  0.998669  0.000000  1
  Si  Si6  1  0.333282  0.667982  0.000000  1
  Si  Si7  1  0.666718  0.334699  0.000000  1
  Ag  Ag8  1  0.000000  0.000041  0.500000  1
