# generated using pymatgen
data_Lu8MgCdPt2
_symmetry_space_group_name_H-M   'P 1'
_cell_length_a   9.52172141
_cell_length_b   9.52172113
_cell_length_c   9.56745000
_cell_angle_alpha   59.84100421
_cell_angle_beta   59.84100520
_cell_angle_gamma   59.65640814
_symmetry_Int_Tables_number   1
_chemical_formula_structural   Lu8MgCdPt2
_chemical_formula_sum   'Lu16 Mg2 Cd2 Pt4'
_cell_volume   610.28011964
_cell_formula_units_Z   2
loop_
 _symmetry_equiv_pos_site_id
 _symmetry_equiv_pos_as_xyz
  1  'x, y, z'
loop_
 _atom_site_type_symbol
 _atom_site_label
 _atom_site_symmetry_multiplicity
 _atom_site_fract_x
 _atom_site_fract_y
 _atom_site_fract_z
 _atom_site_occupancy
  Lu  Lu0  1  0.602279  0.602279  0.601213  1
  Lu  Lu1  1  0.602279  0.602279  0.194229  1
  Lu  Lu2  1  0.602247  0.194554  0.601600  1
  Lu  Lu3  1  0.194554  0.602247  0.601600  1
  Lu  Lu4  1  0.060738  0.439315  0.439067  1
  Lu  Lu5  1  0.439315  0.060738  0.060880  1
  Lu  Lu6  1  0.439315  0.060738  0.439067  1
  Lu  Lu7  1  0.060738  0.439315  0.060880  1
  Lu  Lu8  1  0.440441  0.440441  0.059559  1
  Lu  Lu9  1  0.061821  0.061821  0.438179  1
  Lu  Lu10  1  0.186361  0.814801  0.815417  1
  Lu  Lu11  1  0.814801  0.186361  0.183420  1
  Lu  Lu12  1  0.814801  0.186361  0.815417  1
  Lu  Lu13  1  0.186361  0.814801  0.183420  1
  Lu  Lu14  1  0.816040  0.816040  0.183960  1
  Lu  Lu15  1  0.185475  0.185475  0.814525  1
  Mg  Mg16  1  0.828537  0.828537  0.831105  1
  Mg  Mg17  1  0.828537  0.828537  0.511822  1
  Cd  Cd18  1  0.832581  0.503088  0.832166  1
  Cd  Cd19  1  0.503088  0.832581  0.832166  1
  Pt  Pt20  1  0.393159  0.393159  0.393261  1
  Pt  Pt21  1  0.393159  0.393159  0.820420  1
  Pt  Pt22  1  0.393269  0.820104  0.393313  1
  Pt  Pt23  1  0.820104  0.393269  0.393313  1
