# generated using pymatgen
data_Tb5Er5Tl8(IrPd)2
_symmetry_space_group_name_H-M   'P 1'
_cell_length_a   3.63096700
_cell_length_b   8.20706858
_cell_length_c   18.36514038
_cell_angle_alpha   90.19906025
_cell_angle_beta   90.00000000
_cell_angle_gamma   90.00000000
_symmetry_Int_Tables_number   1
_chemical_formula_structural   Tb5Er5Tl8(IrPd)2
_chemical_formula_sum   'Tb5 Er5 Tl8 Ir2 Pd2'
_cell_volume   547.27044567
_cell_formula_units_Z   1
loop_
 _symmetry_equiv_pos_site_id
 _symmetry_equiv_pos_as_xyz
  1  'x, y, z'
loop_
 _atom_site_type_symbol
 _atom_site_label
 _atom_site_symmetry_multiplicity
 _atom_site_fract_x
 _atom_site_fract_y
 _atom_site_fract_z
 _atom_site_occupancy
  Tb  Tb0  1  0.000000  0.500365  0.499893  1
  Tb  Tb1  1  0.000000  0.998785  0.999952  1
  Tb  Tb2  1  0.000000  0.726475  0.279775  1
  Tb  Tb3  1  0.000000  0.273965  0.720163  1
  Tb  Tb4  1  0.000000  0.745299  0.782642  1
  Er  Er5  1  0.000000  0.256182  0.218038  1
  Er  Er6  1  0.000000  0.612253  0.090653  1
  Er  Er7  1  0.000000  0.385315  0.910159  1
  Er  Er8  1  0.000000  0.885436  0.588024  1
  Er  Er9  1  0.000000  0.115378  0.410963  1
  Tl  Tl10  1  0.500000  0.702555  0.937593  1
  Tl  Tl11  1  0.500000  0.294384  0.063683  1
  Tl  Tl12  1  0.500000  0.798656  0.436065  1
  Tl  Tl13  1  0.500000  0.202817  0.563551  1
  Tl  Tl14  1  0.500000  0.585224  0.647608  1
  Tl  Tl15  1  0.500000  0.415411  0.352553  1
  Tl  Tl16  1  0.500000  0.920128  0.149967  1
  Tl  Tl17  1  0.500000  0.080333  0.849737  1
  Ir  Ir18  1  0.500000  0.518527  0.196283  1
  Ir  Ir19  1  0.500000  0.478379  0.804299  1
  Pd  Pd20  1  0.500000  0.979475  0.695568  1
  Pd  Pd21  1  0.500000  0.024659  0.302830  1
