# generated using pymatgen
data_Dy12Co4CuBi
_symmetry_space_group_name_H-M   'P 1'
_cell_length_a   8.35333867
_cell_length_b   8.35332669
_cell_length_c   8.35333953
_cell_angle_alpha   111.33900744
_cell_angle_beta   109.85517179
_cell_angle_gamma   107.24580792
_symmetry_Int_Tables_number   1
_chemical_formula_structural   Dy12Co4CuBi
_chemical_formula_sum   'Dy12 Co4 Cu1 Bi1'
_cell_volume   448.11788772
_cell_formula_units_Z   1
loop_
 _symmetry_equiv_pos_site_id
 _symmetry_equiv_pos_as_xyz
  1  'x, y, z'
loop_
 _atom_site_type_symbol
 _atom_site_label
 _atom_site_symmetry_multiplicity
 _atom_site_fract_x
 _atom_site_fract_y
 _atom_site_fract_z
 _atom_site_occupancy
  Dy  Dy0  1  0.816795  0.710211  0.527007  1
  Dy  Dy1  1  0.183205  0.289789  0.472993  1
  Dy  Dy2  1  0.183205  0.710211  0.893415  1
  Dy  Dy3  1  0.816795  0.289789  0.106585  1
  Dy  Dy4  1  0.687035  0.378312  0.691277  1
  Dy  Dy5  1  0.312965  0.621688  0.308723  1
  Dy  Dy6  1  0.687035  0.995758  0.308724  1
  Dy  Dy7  1  0.312965  0.004242  0.691276  1
  Dy  Dy8  1  0.588326  0.789426  0.798900  1
  Dy  Dy9  1  0.411674  0.210574  0.201100  1
  Dy  Dy10  1  0.990527  0.789426  0.201100  1
  Dy  Dy11  1  0.009473  0.210574  0.798900  1
  Co  Co12  1  0.623065  0.000000  0.623065  1
  Co  Co13  1  0.376935  0.000000  0.376935  1
  Co  Co14  1  0.112081  0.612080  0.499999  1
  Co  Co15  1  0.887919  0.387920  0.500001  1
  Cu  Cu16  1  0.000000  0.000000  0.000000  1
  Bi  Bi17  1  0.500000  0.500000  0.000000  1
