# generated using pymatgen
data_Pr7Y3(Sn3Cl)2
_symmetry_space_group_name_H-M   'P 1'
_cell_length_a   9.44814200
_cell_length_b   9.44814287
_cell_length_c   6.72317300
_cell_angle_alpha   90.00000000
_cell_angle_beta   90.00000000
_cell_angle_gamma   119.99999694
_symmetry_Int_Tables_number   1
_chemical_formula_structural   Pr7Y3(Sn3Cl)2
_chemical_formula_sum   'Pr7 Y3 Sn6 Cl2'
_cell_volume   519.75394645
_cell_formula_units_Z   1
loop_
 _symmetry_equiv_pos_site_id
 _symmetry_equiv_pos_as_xyz
  1  'x, y, z'
loop_
 _atom_site_type_symbol
 _atom_site_label
 _atom_site_symmetry_multiplicity
 _atom_site_fract_x
 _atom_site_fract_y
 _atom_site_fract_z
 _atom_site_occupancy
  Pr  Pr0  1  0.333333  0.666667  0.000000  1
  Pr  Pr1  1  0.739374  0.999815  0.749183  1
  Pr  Pr2  1  0.739374  0.739559  0.250817  1
  Pr  Pr3  1  0.000185  0.260626  0.250817  1
  Pr  Pr4  1  0.000185  0.739559  0.749183  1
  Pr  Pr5  1  0.260441  0.260626  0.749183  1
  Pr  Pr6  1  0.260441  0.999815  0.250817  1
  Y  Y7  1  0.666667  0.333333  0.000000  1
  Y  Y8  1  0.333333  0.666667  0.500000  1
  Y  Y9  1  0.666667  0.333333  0.500000  1
  Sn  Sn10  1  0.609521  0.606014  0.747134  1
  Sn  Sn11  1  0.996492  0.606014  0.252866  1
  Sn  Sn12  1  0.609521  0.003508  0.252866  1
  Sn  Sn13  1  0.393986  0.003508  0.747134  1
  Sn  Sn14  1  0.996492  0.390479  0.747134  1
  Sn  Sn15  1  0.393986  0.390479  0.252866  1
  Cl  Cl16  1  0.000000  0.000000  0.500000  1
  Cl  Cl17  1  0.000000  0.000000  0.000000  1
