# generated using pymatgen
data_Yb2SmY(Pt2O7)2
_symmetry_space_group_name_H-M   'P 1'
_cell_length_a   7.27823194
_cell_length_b   7.28504895
_cell_length_c   7.27823266
_cell_angle_alpha   60.11880352
_cell_angle_beta   60.09480460
_cell_angle_gamma   60.11880939
_symmetry_Int_Tables_number   1
_chemical_formula_structural   Yb2SmY(Pt2O7)2
_chemical_formula_sum   'Yb2 Sm1 Y1 Pt4 O14'
_cell_volume   273.56351459
_cell_formula_units_Z   1
loop_
 _symmetry_equiv_pos_site_id
 _symmetry_equiv_pos_as_xyz
  1  'x, y, z'
loop_
 _atom_site_type_symbol
 _atom_site_label
 _atom_site_symmetry_multiplicity
 _atom_site_fract_x
 _atom_site_fract_y
 _atom_site_fract_z
 _atom_site_occupancy
  Yb  Yb0  1  0.125000  0.125000  0.625000  1
  Yb  Yb1  1  0.625000  0.125000  0.125000  1
  Sm  Sm2  1  0.125000  0.625000  0.125000  1
  Y  Y3  1  0.125000  0.125000  0.125000  1
  Pt  Pt4  1  0.625000  0.625000  0.625000  1
  Pt  Pt5  1  0.125000  0.625000  0.625000  1
  Pt  Pt6  1  0.625000  0.625000  0.125000  1
  Pt  Pt7  1  0.625000  0.125000  0.625000  1
  O  O8  1  0.290435  0.708821  0.709822  1
  O  O9  1  0.535933  0.959538  0.959899  1
  O  O10  1  0.709822  0.708821  0.290435  1
  O  O11  1  0.290101  0.290462  0.714067  1
  O  O12  1  0.002402  0.001887  0.002402  1
  O  O13  1  0.288729  0.714576  0.288729  1
  O  O14  1  0.707857  0.291733  0.707857  1
  O  O15  1  0.961271  0.535424  0.961271  1
  O  O16  1  0.540178  0.541179  0.959565  1
  O  O17  1  0.959899  0.959538  0.535933  1
  O  O18  1  0.247598  0.248113  0.247598  1
  O  O19  1  0.542143  0.958267  0.542143  1
  O  O20  1  0.714067  0.290462  0.290101  1
  O  O21  1  0.959565  0.541179  0.540178  1
