# generated using pymatgen
data_LiDy3Cd4Co
_symmetry_space_group_name_H-M   'P 1'
_cell_length_a   8.08739400
_cell_length_b   8.08739393
_cell_length_c   3.56604500
_cell_angle_alpha   90.00000000
_cell_angle_beta   90.00000000
_cell_angle_gamma   120.00000845
_symmetry_Int_Tables_number   1
_chemical_formula_structural   LiDy3Cd4Co
_chemical_formula_sum   'Li1 Dy3 Cd4 Co1'
_cell_volume   201.99220652
_cell_formula_units_Z   1
loop_
 _symmetry_equiv_pos_site_id
 _symmetry_equiv_pos_as_xyz
  1  'x, y, z'
loop_
 _atom_site_type_symbol
 _atom_site_label
 _atom_site_symmetry_multiplicity
 _atom_site_fract_x
 _atom_site_fract_y
 _atom_site_fract_z
 _atom_site_occupancy
  Li  Li0  1  0.666667  0.333333  0.500000  1
  Dy  Dy1  1  0.050842  0.282546  0.500000  1
  Dy  Dy2  1  0.717454  0.768295  0.500000  1
  Dy  Dy3  1  0.231705  0.949158  0.500000  1
  Cd  Cd4  1  0.658956  0.068339  0.000000  1
  Cd  Cd5  1  0.931661  0.590619  0.000000  1
  Cd  Cd6  1  0.409381  0.341044  0.000000  1
  Cd  Cd7  1  0.333333  0.666667  0.000000  1
  Co  Co8  1  0.000000  0.000000  0.000000  1
