# generated using pymatgen
data_DyHoTh(GaPt)3
_symmetry_space_group_name_H-M   'P 1'
_cell_length_a   7.37961610
_cell_length_b   7.36954572
_cell_length_c   3.89152700
_cell_angle_alpha   90.00000000
_cell_angle_beta   90.00000000
_cell_angle_gamma   120.04398279
_symmetry_Int_Tables_number   1
_chemical_formula_structural   DyHoTh(GaPt)3
_chemical_formula_sum   'Dy1 Ho1 Th1 Ga3 Pt3'
_cell_volume   183.20297279
_cell_formula_units_Z   1
loop_
 _symmetry_equiv_pos_site_id
 _symmetry_equiv_pos_as_xyz
  1  'x, y, z'
loop_
 _atom_site_type_symbol
 _atom_site_label
 _atom_site_symmetry_multiplicity
 _atom_site_fract_x
 _atom_site_fract_y
 _atom_site_fract_z
 _atom_site_occupancy
  Dy  Dy0  1  0.406467  0.407325  0.500000  1
  Ho  Ho1  1  0.594055  0.000875  0.500000  1
  Th  Th2  1  0.000049  0.589547  0.500000  1
  Ga  Ga3  1  0.739139  0.751080  0.000000  1
  Ga  Ga4  1  0.261048  0.011242  0.000000  1
  Ga  Ga5  1  0.999410  0.241334  0.000000  1
  Pt  Pt6  1  0.670151  0.335078  0.000000  1
  Pt  Pt7  1  0.330579  0.667578  0.000000  1
  Pt  Pt8  1  0.999101  0.995940  0.500000  1
