# generated using pymatgen
data_PaSbF10
_symmetry_space_group_name_H-M   'P 1'
_cell_length_a   6.09865174
_cell_length_b   7.78869872
_cell_length_c   10.12895782
_cell_angle_alpha   87.83020797
_cell_angle_beta   106.50441358
_cell_angle_gamma   99.59037605
_symmetry_Int_Tables_number   1
_chemical_formula_structural   PaSbF10
_chemical_formula_sum   'Pa2 Sb2 F20'
_cell_volume   454.83750724
_cell_formula_units_Z   2
loop_
 _symmetry_equiv_pos_site_id
 _symmetry_equiv_pos_as_xyz
  1  'x, y, z'
loop_
 _atom_site_type_symbol
 _atom_site_label
 _atom_site_symmetry_multiplicity
 _atom_site_fract_x
 _atom_site_fract_y
 _atom_site_fract_z
 _atom_site_occupancy
  Pa  Pa0  1  0.342744  0.383995  0.224725  1
  Pa  Pa1  1  0.657256  0.616005  0.775275  1
  Sb  Sb2  1  0.967165  0.772339  0.315526  1
  Sb  Sb3  1  0.032835  0.227661  0.684474  1
  F  F4  1  0.017981  0.241599  0.167515  1
  F  F5  1  0.982019  0.758401  0.832485  1
  F  F6  1  0.498774  0.209800  0.154897  1
  F  F7  1  0.501226  0.790200  0.845103  1
  F  F8  1  0.112083  0.225516  0.879072  1
  F  F9  1  0.887917  0.774484  0.120928  1
  F  F10  1  0.959027  0.282612  0.495177  1
  F  F11  1  0.040973  0.717388  0.504823  1
  F  F12  1  0.771215  0.052000  0.664668  1
  F  F13  1  0.228785  0.948000  0.335332  1
  F  F14  1  0.246630  0.084036  0.673068  1
  F  F15  1  0.753370  0.915964  0.326932  1
  F  F16  1  0.290999  0.435343  0.709160  1
  F  F17  1  0.709001  0.564657  0.290840  1
  F  F18  1  0.836567  0.408061  0.698394  1
  F  F19  1  0.163433  0.591939  0.301606  1
  F  F20  1  0.704307  0.461695  0.946015  1
  F  F21  1  0.295693  0.538305  0.053985  1
  F  F22  1  0.571895  0.688652  0.573078  1
  F  F23  1  0.428105  0.311348  0.426922  1
