# generated using pymatgen
data_Dy5SnBi2S
_symmetry_space_group_name_H-M   'P 1'
_cell_length_a   9.16657688
_cell_length_b   9.16657665
_cell_length_c   6.58504100
_cell_angle_alpha   90.00000000
_cell_angle_beta   90.00000000
_cell_angle_gamma   120.15024877
_symmetry_Int_Tables_number   1
_chemical_formula_structural   Dy5SnBi2S
_chemical_formula_sum   'Dy10 Sn2 Bi4 S2'
_cell_volume   478.45815008
_cell_formula_units_Z   2
loop_
 _symmetry_equiv_pos_site_id
 _symmetry_equiv_pos_as_xyz
  1  'x, y, z'
loop_
 _atom_site_type_symbol
 _atom_site_label
 _atom_site_symmetry_multiplicity
 _atom_site_fract_x
 _atom_site_fract_y
 _atom_site_fract_z
 _atom_site_occupancy
  Dy  Dy0  1  0.667555  0.331244  0.003668  1
  Dy  Dy1  1  0.331244  0.667555  0.003668  1
  Dy  Dy2  1  0.331244  0.667555  0.496332  1
  Dy  Dy3  1  0.667555  0.331244  0.496332  1
  Dy  Dy4  1  0.755930  0.755930  0.750000  1
  Dy  Dy5  1  0.245028  0.999942  0.750000  1
  Dy  Dy6  1  0.999942  0.245028  0.750000  1
  Dy  Dy7  1  0.242790  0.242790  0.250000  1
  Dy  Dy8  1  0.756039  0.004520  0.250000  1
  Dy  Dy9  1  0.004520  0.756039  0.250000  1
  Sn  Sn10  1  0.397107  0.000200  0.250000  1
  Sn  Sn11  1  0.000200  0.397107  0.250000  1
  Bi  Bi12  1  0.396915  0.396915  0.750000  1
  Bi  Bi13  1  0.602196  0.999730  0.750000  1
  Bi  Bi14  1  0.999730  0.602196  0.750000  1
  Bi  Bi15  1  0.603937  0.603937  0.250000  1
  S  S16  1  0.999035  0.999035  0.999389  1
  S  S17  1  0.999035  0.999035  0.500611  1
