# generated using pymatgen
data_Nb12Al6ZnGa(NiN)4
_symmetry_space_group_name_H-M   'P 1'
_cell_length_a   8.21918668
_cell_length_b   8.21918518
_cell_length_c   8.22125800
_cell_angle_alpha   59.99166523
_cell_angle_beta   59.99167126
_cell_angle_gamma   60.01470750
_symmetry_Int_Tables_number   1
_chemical_formula_structural   Nb12Al6ZnGa(NiN)4
_chemical_formula_sum   'Nb12 Al6 Zn1 Ga1 Ni4 N4'
_cell_volume   392.71222646
_cell_formula_units_Z   1
loop_
 _symmetry_equiv_pos_site_id
 _symmetry_equiv_pos_as_xyz
  1  'x, y, z'
loop_
 _atom_site_type_symbol
 _atom_site_label
 _atom_site_symmetry_multiplicity
 _atom_site_fract_x
 _atom_site_fract_y
 _atom_site_fract_z
 _atom_site_occupancy
  Nb  Nb0  1  0.812253  0.812253  0.187940  1
  Nb  Nb1  1  0.187127  0.187127  0.812853  1
  Nb  Nb2  1  0.812201  0.188125  0.812287  1
  Nb  Nb3  1  0.187762  0.812758  0.186688  1
  Nb  Nb4  1  0.188125  0.812201  0.812287  1
  Nb  Nb5  1  0.812758  0.187762  0.186688  1
  Nb  Nb6  1  0.437390  0.437390  0.062829  1
  Nb  Nb7  1  0.061204  0.061204  0.439178  1
  Nb  Nb8  1  0.437283  0.062076  0.438886  1
  Nb  Nb9  1  0.062295  0.437273  0.062414  1
  Nb  Nb10  1  0.062076  0.437283  0.438886  1
  Nb  Nb11  1  0.437273  0.062295  0.062414  1
  Al  Al12  1  0.747888  0.417750  0.417178  1
  Al  Al13  1  0.417750  0.747888  0.417178  1
  Al  Al14  1  0.417525  0.417525  0.747752  1
  Al  Al15  1  0.417539  0.417539  0.417269  1
  Al  Al16  1  0.504924  0.833458  0.829269  1
  Al  Al17  1  0.833458  0.504924  0.829269  1
  Zn  Zn18  1  0.832334  0.832334  0.502737  1
  Ga  Ga19  1  0.833723  0.833723  0.831201  1
  Ni  Ni20  1  0.130236  0.621716  0.625041  1
  Ni  Ni21  1  0.621716  0.130236  0.625041  1
  Ni  Ni22  1  0.624071  0.624071  0.125254  1
  Ni  Ni23  1  0.622805  0.622805  0.626554  1
  N  N24  1  0.624993  0.124089  0.125893  1
  N  N25  1  0.124089  0.624993  0.125893  1
  N  N26  1  0.124710  0.124710  0.624615  1
  N  N27  1  0.124498  0.124498  0.126506  1
