# generated using pymatgen
data_Tb4SiTc6Os
_symmetry_space_group_name_H-M   'P 1'
_cell_length_a   5.31698700
_cell_length_b   5.31698778
_cell_length_c   8.97598300
_cell_angle_alpha   90.00000000
_cell_angle_beta   90.00000000
_cell_angle_gamma   119.99998894
_symmetry_Int_Tables_number   1
_chemical_formula_structural   Tb4SiTc6Os
_chemical_formula_sum   'Tb4 Si1 Tc6 Os1'
_cell_volume   219.75762958
_cell_formula_units_Z   1
loop_
 _symmetry_equiv_pos_site_id
 _symmetry_equiv_pos_as_xyz
  1  'x, y, z'
loop_
 _atom_site_type_symbol
 _atom_site_label
 _atom_site_symmetry_multiplicity
 _atom_site_fract_x
 _atom_site_fract_y
 _atom_site_fract_z
 _atom_site_occupancy
  Tb  Tb0  1  0.333333  0.666667  0.433002  1
  Tb  Tb1  1  0.666667  0.333333  0.566998  1
  Tb  Tb2  1  0.666667  0.333333  0.936785  1
  Tb  Tb3  1  0.333333  0.666667  0.063215  1
  Si  Si4  1  0.000000  0.000000  0.500000  1
  Tc  Tc5  1  0.829731  0.170269  0.254633  1
  Tc  Tc6  1  0.829731  0.659464  0.254633  1
  Tc  Tc7  1  0.340536  0.170269  0.254633  1
  Tc  Tc8  1  0.170269  0.829731  0.745367  1
  Tc  Tc9  1  0.170269  0.340536  0.745367  1
  Tc  Tc10  1  0.659464  0.829731  0.745367  1
  Os  Os11  1  0.000000  0.000000  0.000000  1
