# generated using pymatgen
data_Hf6Al4CoAuC2
_symmetry_space_group_name_H-M   'P 1'
_cell_length_a   8.56872462
_cell_length_b   8.57795608
_cell_length_c   8.56879121
_cell_angle_alpha   59.96462936
_cell_angle_beta   59.92070238
_cell_angle_gamma   59.96436208
_symmetry_Int_Tables_number   1
_chemical_formula_structural   Hf6Al4CoAuC2
_chemical_formula_sum   'Hf12 Al8 Co2 Au2 C4'
_cell_volume   444.84696263
_cell_formula_units_Z   2
loop_
 _symmetry_equiv_pos_site_id
 _symmetry_equiv_pos_as_xyz
  1  'x, y, z'
loop_
 _atom_site_type_symbol
 _atom_site_label
 _atom_site_symmetry_multiplicity
 _atom_site_fract_x
 _atom_site_fract_y
 _atom_site_fract_z
 _atom_site_occupancy
  Hf  Hf0  1  0.559007  0.940987  0.559018  1
  Hf  Hf1  1  0.308937  0.691973  0.689056  1
  Hf  Hf2  1  0.689054  0.310033  0.308953  1
  Hf  Hf3  1  0.310862  0.689133  0.310873  1
  Hf  Hf4  1  0.689054  0.691959  0.308953  1
  Hf  Hf5  1  0.308937  0.310034  0.689057  1
  Hf  Hf6  1  0.560946  0.558041  0.941047  1
  Hf  Hf7  1  0.941063  0.558027  0.560944  1
  Hf  Hf8  1  0.560946  0.939967  0.941047  1
  Hf  Hf9  1  0.941063  0.939967  0.560943  1
  Hf  Hf10  1  0.690993  0.309013  0.690982  1
  Hf  Hf11  1  0.939138  0.560867  0.939127  1
  Al  Al12  1  0.912336  0.933309  0.912277  1
  Al  Al13  1  0.008320  0.322404  0.346871  1
  Al  Al14  1  0.337664  0.007924  0.337722  1
  Al  Al15  1  0.346826  0.322431  0.008311  1
  Al  Al16  1  0.912336  0.242076  0.912278  1
  Al  Al17  1  0.903174  0.927569  0.241689  1
  Al  Al18  1  0.241680  0.927596  0.903129  1
  Al  Al19  1  0.337664  0.316691  0.337723  1
  Co  Co20  1  0.625000  0.125000  0.125000  1
  Co  Co21  1  0.125000  0.125000  0.625000  1
  Au  Au22  1  0.125000  0.125000  0.125000  1
  Au  Au23  1  0.125000  0.625000  0.125000  1
  C  C24  1  0.625000  0.625000  0.625000  1
  C  C25  1  0.125000  0.625000  0.625000  1
  C  C26  1  0.625000  0.125000  0.625000  1
  C  C27  1  0.625000  0.625000  0.125000  1
