# generated using pymatgen
data_Tb10In8CuAu3
_symmetry_space_group_name_H-M   'P 1'
_cell_length_a   3.68487700
_cell_length_b   8.23282623
_cell_length_c   18.46848700
_cell_angle_alpha   89.95782585
_cell_angle_beta   90.00000000
_cell_angle_gamma   90.00000000
_symmetry_Int_Tables_number   1
_chemical_formula_structural   Tb10In8CuAu3
_chemical_formula_sum   'Tb10 In8 Cu1 Au3'
_cell_volume   560.27745224
_cell_formula_units_Z   1
loop_
 _symmetry_equiv_pos_site_id
 _symmetry_equiv_pos_as_xyz
  1  'x, y, z'
loop_
 _atom_site_type_symbol
 _atom_site_label
 _atom_site_symmetry_multiplicity
 _atom_site_fract_x
 _atom_site_fract_y
 _atom_site_fract_z
 _atom_site_occupancy
  Tb  Tb0  1  0.000000  0.499766  0.498715  1
  Tb  Tb1  1  0.000000  0.000563  0.001464  1
  Tb  Tb2  1  0.000000  0.750535  0.281453  1
  Tb  Tb3  1  0.000000  0.260279  0.716907  1
  Tb  Tb4  1  0.000000  0.758295  0.781647  1
  Tb  Tb5  1  0.000000  0.233770  0.221584  1
  Tb  Tb6  1  0.000000  0.622112  0.081332  1
  Tb  Tb7  1  0.000000  0.377843  0.920665  1
  Tb  Tb8  1  0.000000  0.878369  0.578880  1
  Tb  Tb9  1  0.000000  0.119702  0.415712  1
  In  In10  1  0.500000  0.709691  0.933299  1
  In  In11  1  0.500000  0.290793  0.069143  1
  In  In12  1  0.500000  0.792736  0.430266  1
  In  In13  1  0.500000  0.208431  0.565557  1
  In  In14  1  0.500000  0.574599  0.645719  1
  In  In15  1  0.500000  0.425302  0.352722  1
  In  In16  1  0.500000  0.928487  0.149431  1
  In  In17  1  0.500000  0.074152  0.853727  1
  Cu  Cu18  1  0.500000  0.026725  0.303768  1
  Au  Au19  1  0.500000  0.527839  0.198413  1
  Au  Au20  1  0.500000  0.469523  0.803314  1
  Au  Au21  1  0.500000  0.970484  0.696280  1
