# generated using pymatgen
data_Y6Ho14Co3Bi8Os
_symmetry_space_group_name_H-M   'P 1'
_cell_length_a   7.97843282
_cell_length_b   8.91227900
_cell_length_c   12.44144484
_cell_angle_alpha   90.00000000
_cell_angle_beta   89.70702690
_cell_angle_gamma   90.00000000
_symmetry_Int_Tables_number   1
_chemical_formula_structural   Y6Ho14Co3Bi8Os
_chemical_formula_sum   'Y6 Ho14 Co3 Bi8 Os1'
_cell_volume   884.65005151
_cell_formula_units_Z   1
loop_
 _symmetry_equiv_pos_site_id
 _symmetry_equiv_pos_as_xyz
  1  'x, y, z'
loop_
 _atom_site_type_symbol
 _atom_site_label
 _atom_site_symmetry_multiplicity
 _atom_site_fract_x
 _atom_site_fract_y
 _atom_site_fract_z
 _atom_site_occupancy
  Y  Y0  1  0.345746  0.750000  0.702004  1
  Y  Y1  1  0.652899  0.250000  0.299454  1
  Y  Y2  1  0.847325  0.250000  0.799017  1
  Y  Y3  1  0.116419  0.250000  0.190498  1
  Y  Y4  1  0.383316  0.250000  0.689373  1
  Y  Y5  1  0.948897  0.250000  0.502434  1
  Ho  Ho6  1  0.155057  0.750000  0.205891  1
  Ho  Ho7  1  0.880657  0.750000  0.805786  1
  Ho  Ho8  1  0.614946  0.750000  0.313051  1
  Ho  Ho9  1  0.675037  0.537697  0.562716  1
  Ho  Ho10  1  0.324983  0.462710  0.436861  1
  Ho  Ho11  1  0.176273  0.457945  0.935651  1
  Ho  Ho12  1  0.324983  0.037290  0.436861  1
  Ho  Ho13  1  0.824486  0.538237  0.063383  1
  Ho  Ho14  1  0.675037  0.962303  0.562716  1
  Ho  Ho15  1  0.824486  0.961763  0.063383  1
  Ho  Ho16  1  0.176273  0.042055  0.935651  1
  Ho  Ho17  1  0.052021  0.750000  0.497759  1
  Ho  Ho18  1  0.554652  0.250000  0.003096  1
  Ho  Ho19  1  0.443841  0.750000  0.997020  1
  Co  Co20  1  0.929833  0.250000  0.009289  1
  Co  Co21  1  0.563487  0.250000  0.507762  1
  Co  Co22  1  0.434294  0.750000  0.491423  1
  Bi  Bi23  1  0.571938  0.508796  0.826947  1
  Bi  Bi24  1  0.429692  0.491671  0.173116  1
  Bi  Bi25  1  0.071754  0.491139  0.672122  1
  Bi  Bi26  1  0.429692  0.008329  0.173116  1
  Bi  Bi27  1  0.927871  0.509632  0.327392  1
  Bi  Bi28  1  0.571938  0.991204  0.826947  1
  Bi  Bi29  1  0.927871  0.990368  0.327392  1
  Bi  Bi30  1  0.071754  0.008861  0.672122  1
  Os  Os31  1  0.072542  0.750000  0.989767  1
