# generated using pymatgen
data_Ti15Nb(Si4W)4
_symmetry_space_group_name_H-M   'P 1'
_cell_length_a   6.67196732
_cell_length_b   6.67431753
_cell_length_c   12.22748263
_cell_angle_alpha   89.94782015
_cell_angle_beta   89.99180958
_cell_angle_gamma   89.99899063
_symmetry_Int_Tables_number   1
_chemical_formula_structural   Ti15Nb(Si4W)4
_chemical_formula_sum   'Ti15 Nb1 Si16 W4'
_cell_volume   544.49969977
_cell_formula_units_Z   1
loop_
 _symmetry_equiv_pos_site_id
 _symmetry_equiv_pos_as_xyz
  1  'x, y, z'
loop_
 _atom_site_type_symbol
 _atom_site_label
 _atom_site_symmetry_multiplicity
 _atom_site_fract_x
 _atom_site_fract_y
 _atom_site_fract_z
 _atom_site_occupancy
  Ti  Ti0  1  0.350831  0.495440  0.872938  1
  Ti  Ti1  1  0.649203  0.505170  0.371552  1
  Ti  Ti2  1  0.495105  0.350287  0.127617  1
  Ti  Ti3  1  0.506055  0.650244  0.627903  1
  Ti  Ti4  1  0.005024  0.850110  0.122083  1
  Ti  Ti5  1  0.149982  0.995199  0.377602  1
  Ti  Ti6  1  0.850860  0.004878  0.877822  1
  Ti  Ti7  1  0.002745  0.339942  0.221986  1
  Ti  Ti8  1  0.160935  0.501490  0.471416  1
  Ti  Ti9  1  0.839181  0.497925  0.972540  1
  Ti  Ti10  1  0.502323  0.161292  0.528016  1
  Ti  Ti11  1  0.497486  0.839807  0.028031  1
  Ti  Ti12  1  0.997565  0.659438  0.721929  1
  Ti  Ti13  1  0.338677  0.001821  0.778177  1
  Ti  Ti14  1  0.660269  0.996715  0.277765  1
  Nb  Nb15  1  0.997075  0.149980  0.622191  1
  Si  Si16  1  0.042185  0.306043  0.816616  1
  Si  Si17  1  0.196600  0.542190  0.064299  1
  Si  Si18  1  0.801033  0.459248  0.562936  1
  Si  Si19  1  0.542831  0.196370  0.936092  1
  Si  Si20  1  0.457786  0.803315  0.435215  1
  Si  Si21  1  0.957677  0.696947  0.313751  1
  Si  Si22  1  0.303437  0.041989  0.185846  1
  Si  Si23  1  0.692845  0.956556  0.686941  1
  Si  Si24  1  0.296589  0.362425  0.674178  1
  Si  Si25  1  0.140437  0.793520  0.923138  1
  Si  Si26  1  0.858631  0.206977  0.420434  1
  Si  Si27  1  0.793718  0.140407  0.077474  1
  Si  Si28  1  0.208291  0.854294  0.575998  1
  Si  Si29  1  0.706380  0.640352  0.172540  1
  Si  Si30  1  0.359659  0.293547  0.326666  1
  Si  Si31  1  0.640564  0.706747  0.828052  1
  W  W32  1  0.170411  0.169617  0.000401  1
  W  W33  1  0.329822  0.669779  0.249822  1
  W  W34  1  0.669126  0.331515  0.750652  1
  W  W35  1  0.828663  0.828420  0.499379  1
