# generated using pymatgen
data_Li3Ho4Co9(Ni2P3)4
_symmetry_space_group_name_H-M   'P 1'
_cell_length_a   3.71097200
_cell_length_b   10.33280035
_cell_length_c   11.92319087
_cell_angle_alpha   90.27815771
_cell_angle_beta   90.00000000
_cell_angle_gamma   90.00000000
_symmetry_Int_Tables_number   1
_chemical_formula_structural   Li3Ho4Co9(Ni2P3)4
_chemical_formula_sum   'Li3 Ho4 Co9 Ni8 P12'
_cell_volume   457.18617999
_cell_formula_units_Z   1
loop_
 _symmetry_equiv_pos_site_id
 _symmetry_equiv_pos_as_xyz
  1  'x, y, z'
loop_
 _atom_site_type_symbol
 _atom_site_label
 _atom_site_symmetry_multiplicity
 _atom_site_fract_x
 _atom_site_fract_y
 _atom_site_fract_z
 _atom_site_occupancy
  Li  Li0  1  0.250000  0.701892  0.991036  1
  Li  Li1  1  0.250000  0.797294  0.492119  1
  Li  Li2  1  0.750000  0.297132  0.007005  1
  Ho  Ho3  1  0.250000  0.580164  0.703315  1
  Ho  Ho4  1  0.250000  0.919009  0.205294  1
  Ho  Ho5  1  0.750000  0.419315  0.293640  1
  Ho  Ho6  1  0.750000  0.079946  0.795616  1
  Co  Co7  1  0.250000  0.274939  0.671611  1
  Co  Co8  1  0.250000  0.880679  0.700070  1
  Co  Co9  1  0.250000  0.620938  0.199103  1
  Co  Co10  1  0.750000  0.121634  0.303202  1
  Co  Co11  1  0.750000  0.377817  0.797380  1
  Co  Co12  1  0.250000  0.465735  0.930543  1
  Co  Co13  1  0.250000  0.034853  0.433305  1
  Co  Co14  1  0.750000  0.532840  0.066479  1
  Co  Co15  1  0.750000  0.966839  0.567041  1
  Ni  Ni16  1  0.750000  0.209269  0.511818  1
  Ni  Ni17  1  0.250000  0.406317  0.484558  1
  Ni  Ni18  1  0.250000  0.094133  0.988944  1
  Ni  Ni19  1  0.750000  0.592146  0.512477  1
  Ni  Ni20  1  0.750000  0.906559  0.014190  1
  Ni  Ni21  1  0.250000  0.222067  0.176186  1
  Ni  Ni22  1  0.750000  0.778925  0.827077  1
  Ni  Ni23  1  0.750000  0.722230  0.326613  1
  P  P24  1  0.250000  0.426391  0.113193  1
  P  P25  1  0.250000  0.075356  0.614014  1
  P  P26  1  0.750000  0.572376  0.884244  1
  P  P27  1  0.750000  0.927318  0.385605  1
  P  P28  1  0.250000  0.271741  0.858019  1
  P  P29  1  0.250000  0.229218  0.365784  1
  P  P30  1  0.750000  0.726740  0.138812  1
  P  P31  1  0.750000  0.773582  0.639712  1
  P  P32  1  0.250000  0.598384  0.389646  1
  P  P33  1  0.250000  0.901561  0.890992  1
  P  P34  1  0.750000  0.393685  0.608994  1
  P  P35  1  0.750000  0.100975  0.112361  1
