# generated using pymatgen
data_LaY5(SiPd5)2
_symmetry_space_group_name_H-M   'P 1'
_cell_length_a   8.30185937
_cell_length_b   8.30186002
_cell_length_c   8.30186022
_cell_angle_alpha   127.61865543
_cell_angle_beta   125.84381608
_cell_angle_gamma   78.69797568
_symmetry_Int_Tables_number   1
_chemical_formula_structural   LaY5(SiPd5)2
_chemical_formula_sum   'La1 Y5 Si2 Pd10'
_cell_volume   355.57610843
_cell_formula_units_Z   1
loop_
 _symmetry_equiv_pos_site_id
 _symmetry_equiv_pos_as_xyz
  1  'x, y, z'
loop_
 _atom_site_type_symbol
 _atom_site_label
 _atom_site_symmetry_multiplicity
 _atom_site_fract_x
 _atom_site_fract_y
 _atom_site_fract_z
 _atom_site_occupancy
  La  La0  1  0.617273  0.750000  0.867273  1
  Y  Y1  1  0.826594  0.050871  0.775723  1
  Y  Y2  1  0.224851  0.449129  0.775723  1
  Y  Y3  1  0.176993  0.951297  0.225697  1
  Y  Y4  1  0.390249  0.250000  0.140249  1
  Y  Y5  1  0.774401  0.548703  0.225697  1
  Si  Si6  1  0.210515  0.750000  0.460515  1
  Si  Si7  1  0.782364  0.250000  0.532364  1
  Pd  Pd8  1  0.834312  0.597837  0.640732  1
  Pd  Pd9  1  0.542895  0.306420  0.640732  1
  Pd  Pd10  1  0.453003  0.098086  0.764041  1
  Pd  Pd11  1  0.834312  0.193580  0.236475  1
  Pd  Pd12  1  0.165955  0.401914  0.354918  1
  Pd  Pd13  1  0.453003  0.688963  0.354918  1
  Pd  Pd14  1  0.542895  0.902163  0.236475  1
  Pd  Pd15  1  0.165955  0.811037  0.764041  1
  Pd  Pd16  1  0.002215  0.005175  0.507391  1
  Pd  Pd17  1  0.002215  0.494825  0.997040  1
