# generated using pymatgen
data_SmEr3(BeSi3)2
_symmetry_space_group_name_H-M   'P 1'
_cell_length_a   7.84900600
_cell_length_b   7.84900635
_cell_length_c   8.07322300
_cell_angle_alpha   90.00000000
_cell_angle_beta   90.00000000
_cell_angle_gamma   119.99999851
_symmetry_Int_Tables_number   1
_chemical_formula_structural   SmEr3(BeSi3)2
_chemical_formula_sum   'Sm2 Er6 Be4 Si12'
_cell_volume   430.73179290
_cell_formula_units_Z   2
loop_
 _symmetry_equiv_pos_site_id
 _symmetry_equiv_pos_as_xyz
  1  'x, y, z'
loop_
 _atom_site_type_symbol
 _atom_site_label
 _atom_site_symmetry_multiplicity
 _atom_site_fract_x
 _atom_site_fract_y
 _atom_site_fract_z
 _atom_site_occupancy
  Sm  Sm0  1  0.000000  0.000000  0.250000  1
  Sm  Sm1  1  0.000000  0.000000  0.750000  1
  Er  Er2  1  0.499228  0.500772  0.250000  1
  Er  Er3  1  0.499228  0.998455  0.250000  1
  Er  Er4  1  0.001545  0.500772  0.250000  1
  Er  Er5  1  0.500772  0.499228  0.750000  1
  Er  Er6  1  0.998455  0.499228  0.750000  1
  Er  Er7  1  0.500772  0.001545  0.750000  1
  Be  Be8  1  0.666667  0.333333  0.493626  1
  Be  Be9  1  0.666667  0.333333  0.006374  1
  Be  Be10  1  0.333333  0.666667  0.993626  1
  Be  Be11  1  0.333333  0.666667  0.506374  1
  Si  Si12  1  0.826487  0.173513  0.499601  1
  Si  Si13  1  0.826487  0.652975  0.499601  1
  Si  Si14  1  0.347025  0.173513  0.499601  1
  Si  Si15  1  0.826487  0.173513  0.000399  1
  Si  Si16  1  0.826487  0.652975  0.000399  1
  Si  Si17  1  0.347025  0.173513  0.000399  1
  Si  Si18  1  0.173513  0.826487  0.999601  1
  Si  Si19  1  0.652975  0.826487  0.999601  1
  Si  Si20  1  0.173513  0.347025  0.999601  1
  Si  Si21  1  0.173513  0.826487  0.500399  1
  Si  Si22  1  0.652975  0.826487  0.500399  1
  Si  Si23  1  0.173513  0.347025  0.500399  1
