# generated using pymatgen
data_Al8NiPt15
_symmetry_space_group_name_H-M   'P 1'
_cell_length_a   16.39540003
_cell_length_b   3.96307200
_cell_length_c   5.47507441
_cell_angle_alpha   90.00000000
_cell_angle_beta   89.36731450
_cell_angle_gamma   90.00000000
_symmetry_Int_Tables_number   1
_chemical_formula_structural   Al8NiPt15
_chemical_formula_sum   'Al8 Ni1 Pt15'
_cell_volume   355.72757117
_cell_formula_units_Z   1
loop_
 _symmetry_equiv_pos_site_id
 _symmetry_equiv_pos_as_xyz
  1  'x, y, z'
loop_
 _atom_site_type_symbol
 _atom_site_label
 _atom_site_symmetry_multiplicity
 _atom_site_fract_x
 _atom_site_fract_y
 _atom_site_fract_z
 _atom_site_occupancy
  Al  Al0  1  0.092002  0.000000  0.303781  1
  Al  Al1  1  0.406575  0.000000  0.314587  1
  Al  Al2  1  0.590144  0.000000  0.692406  1
  Al  Al3  1  0.911022  0.000000  0.687406  1
  Al  Al4  1  0.245496  0.000000  0.796735  1
  Al  Al5  1  0.750750  0.000000  0.206590  1
  Al  Al6  1  0.003833  0.499999  0.989417  1
  Al  Al7  1  0.498338  0.499999  0.000925  1
  Ni  Ni8  1  0.166163  0.499999  0.546568  1
  Pt  Pt9  1  0.245894  0.000000  0.290857  1
  Pt  Pt10  1  0.750827  0.000000  0.730454  1
  Pt  Pt11  1  0.324686  0.499999  0.570818  1
  Pt  Pt12  1  0.667829  0.499999  0.443519  1
  Pt  Pt13  1  0.833719  0.499999  0.441499  1
  Pt  Pt14  1  0.159621  0.499999  0.045774  1
  Pt  Pt15  1  0.342140  0.499999  0.066255  1
  Pt  Pt16  1  0.655562  0.499999  0.947247  1
  Pt  Pt17  1  0.846278  0.499999  0.944522  1
  Pt  Pt18  1  0.004652  0.499999  0.494601  1
  Pt  Pt19  1  0.497581  0.499999  0.501866  1
  Pt  Pt20  1  0.077842  0.000000  0.781391  1
  Pt  Pt21  1  0.427242  0.000000  0.798232  1
  Pt  Pt22  1  0.568438  0.000000  0.205263  1
  Pt  Pt23  1  0.933366  0.000000  0.199283  1
