# generated using pymatgen
data_YLu2Sc2(In2Pt)2
_symmetry_space_group_name_H-M   'P 1'
_cell_length_a   3.55588500
_cell_length_b   7.91022200
_cell_length_c   17.82712400
_cell_angle_alpha   90.00000000
_cell_angle_beta   90.00000000
_cell_angle_gamma   90.00000000
_symmetry_Int_Tables_number   1
_chemical_formula_structural   YLu2Sc2(In2Pt)2
_chemical_formula_sum   'Y2 Lu4 Sc4 In8 Pt4'
_cell_volume   501.43848719
_cell_formula_units_Z   2
loop_
 _symmetry_equiv_pos_site_id
 _symmetry_equiv_pos_as_xyz
  1  'x, y, z'
loop_
 _atom_site_type_symbol
 _atom_site_label
 _atom_site_symmetry_multiplicity
 _atom_site_fract_x
 _atom_site_fract_y
 _atom_site_fract_z
 _atom_site_occupancy
  Y  Y0  1  0.000000  0.000000  0.000000  1
  Y  Y1  1  0.000000  0.500000  0.500000  1
  Lu  Lu2  1  0.000000  0.243533  0.220113  1
  Lu  Lu3  1  0.000000  0.756467  0.779887  1
  Lu  Lu4  1  0.000000  0.256467  0.720113  1
  Lu  Lu5  1  0.000000  0.743533  0.279887  1
  Sc  Sc6  1  0.000000  0.117335  0.413910  1
  Sc  Sc7  1  0.000000  0.882665  0.586090  1
  Sc  Sc8  1  0.000000  0.382665  0.913910  1
  Sc  Sc9  1  0.000000  0.617335  0.086090  1
  In  In10  1  0.500000  0.417964  0.351218  1
  In  In11  1  0.500000  0.582036  0.648782  1
  In  In12  1  0.500000  0.082036  0.851218  1
  In  In13  1  0.500000  0.917964  0.148782  1
  In  In14  1  0.500000  0.303627  0.063401  1
  In  In15  1  0.500000  0.696373  0.936599  1
  In  In16  1  0.500000  0.196373  0.563401  1
  In  In17  1  0.500000  0.803627  0.436599  1
  Pt  Pt18  1  0.500000  0.029151  0.306339  1
  Pt  Pt19  1  0.500000  0.970849  0.693661  1
  Pt  Pt20  1  0.500000  0.470849  0.806339  1
  Pt  Pt21  1  0.500000  0.529151  0.193661  1
