# generated using pymatgen
data_Dy6P13PtRh19
_symmetry_space_group_name_H-M   'P 1'
_cell_length_a   13.35874800
_cell_length_b   13.35874702
_cell_length_c   3.92998600
_cell_angle_alpha   90.00000000
_cell_angle_beta   90.00000000
_cell_angle_gamma   120.00000242
_symmetry_Int_Tables_number   1
_chemical_formula_structural   Dy6P13PtRh19
_chemical_formula_sum   'Dy6 P13 Pt1 Rh19'
_cell_volume   607.36967889
_cell_formula_units_Z   1
loop_
 _symmetry_equiv_pos_site_id
 _symmetry_equiv_pos_as_xyz
  1  'x, y, z'
loop_
 _atom_site_type_symbol
 _atom_site_label
 _atom_site_symmetry_multiplicity
 _atom_site_fract_x
 _atom_site_fract_y
 _atom_site_fract_z
 _atom_site_occupancy
  Dy  Dy0  1  0.529663  0.717413  0.247620  1
  Dy  Dy1  1  0.282587  0.812251  0.247620  1
  Dy  Dy2  1  0.187749  0.470337  0.247620  1
  Dy  Dy3  1  0.471061  0.282414  0.752570  1
  Dy  Dy4  1  0.717586  0.188648  0.752570  1
  Dy  Dy5  1  0.811352  0.528939  0.752570  1
  P  P6  1  0.526100  0.139463  0.250902  1
  P  P7  1  0.860537  0.386638  0.250902  1
  P  P8  1  0.613362  0.473900  0.250902  1
  P  P9  1  0.945285  0.715045  0.255230  1
  P  P10  1  0.284955  0.230240  0.255230  1
  P  P11  1  0.769760  0.054715  0.255230  1
  P  P12  1  0.387759  0.524467  0.749646  1
  P  P13  1  0.475533  0.863291  0.749646  1
  P  P14  1  0.136709  0.612241  0.749646  1
  P  P15  1  0.715507  0.769753  0.745579  1
  P  P16  1  0.230247  0.945754  0.745579  1
  P  P17  1  0.054246  0.284493  0.745579  1
  P  P18  1  0.000000  0.000000  0.994209  1
  Pt  Pt19  1  0.333333  0.666667  0.749871  1
  Rh  Rh20  1  0.920857  0.249564  0.255346  1
  Rh  Rh21  1  0.750436  0.671293  0.255346  1
  Rh  Rh22  1  0.328707  0.079143  0.255346  1
  Rh  Rh23  1  0.437156  0.021476  0.752375  1
  Rh  Rh24  1  0.978524  0.415680  0.752375  1
  Rh  Rh25  1  0.584320  0.562844  0.752375  1
  Rh  Rh26  1  0.666667  0.333333  0.248115  1
  Rh  Rh27  1  0.093630  0.186501  0.246327  1
  Rh  Rh28  1  0.813499  0.907129  0.246327  1
  Rh  Rh29  1  0.092871  0.906370  0.246327  1
  Rh  Rh30  1  0.020974  0.583991  0.248303  1
  Rh  Rh31  1  0.416009  0.436982  0.248303  1
  Rh  Rh32  1  0.563018  0.979026  0.248303  1
  Rh  Rh33  1  0.670772  0.919849  0.744842  1
  Rh  Rh34  1  0.080151  0.750922  0.744842  1
  Rh  Rh35  1  0.249078  0.329228  0.744842  1
  Rh  Rh36  1  0.905899  0.812057  0.753862  1
  Rh  Rh37  1  0.187943  0.093843  0.753862  1
  Rh  Rh38  1  0.906157  0.094101  0.753862  1
