# generated using pymatgen
data_Cs6LuSc(IrBr9)2
_symmetry_space_group_name_H-M   'P 1'
_cell_length_a   7.90730500
_cell_length_b   7.90730425
_cell_length_c   19.64766600
_cell_angle_alpha   90.00000000
_cell_angle_beta   90.00000000
_cell_angle_gamma   119.99999061
_symmetry_Int_Tables_number   1
_chemical_formula_structural   Cs6LuSc(IrBr9)2
_chemical_formula_sum   'Cs6 Lu1 Sc1 Ir2 Br18'
_cell_volume   1063.89453860
_cell_formula_units_Z   1
loop_
 _symmetry_equiv_pos_site_id
 _symmetry_equiv_pos_as_xyz
  1  'x, y, z'
loop_
 _atom_site_type_symbol
 _atom_site_label
 _atom_site_symmetry_multiplicity
 _atom_site_fract_x
 _atom_site_fract_y
 _atom_site_fract_z
 _atom_site_occupancy
  Cs  Cs0  1  0.333333  0.666667  0.069216  1
  Cs  Cs1  1  0.666667  0.333333  0.930367  1
  Cs  Cs2  1  0.666667  0.333333  0.570454  1
  Cs  Cs3  1  0.333333  0.666667  0.429980  1
  Cs  Cs4  1  0.000000  0.000000  0.253604  1
  Cs  Cs5  1  0.000000  0.000000  0.746294  1
  Lu  Lu6  1  0.666667  0.333333  0.162506  1
  Sc  Sc7  1  0.333333  0.666667  0.837553  1
  Ir  Ir8  1  0.333333  0.666667  0.668618  1
  Ir  Ir9  1  0.666667  0.333333  0.331667  1
  Br  Br10  1  0.183919  0.367837  0.595558  1
  Br  Br11  1  0.815980  0.631960  0.404530  1
  Br  Br12  1  0.632163  0.816081  0.595558  1
  Br  Br13  1  0.831857  0.663715  0.090369  1
  Br  Br14  1  0.368040  0.184020  0.404530  1
  Br  Br15  1  0.173636  0.347271  0.907189  1
  Br  Br16  1  0.183919  0.816081  0.595558  1
  Br  Br17  1  0.336285  0.168143  0.090369  1
  Br  Br18  1  0.815980  0.184020  0.404530  1
  Br  Br19  1  0.652729  0.826364  0.907189  1
  Br  Br20  1  0.831857  0.168143  0.090369  1
  Br  Br21  1  0.173636  0.826364  0.907189  1
  Br  Br22  1  0.511695  0.023392  0.258196  1
  Br  Br23  1  0.485026  0.970051  0.744071  1
  Br  Br24  1  0.976608  0.488305  0.258196  1
  Br  Br25  1  0.029949  0.514974  0.744071  1
  Br  Br26  1  0.511695  0.488305  0.258196  1
  Br  Br27  1  0.485026  0.514974  0.744071  1
