# generated using pymatgen
data_SrNi(P4Ru)3
_symmetry_space_group_name_H-M   'P 1'
_cell_length_a   7.02877623
_cell_length_b   6.98924063
_cell_length_c   6.98924105
_cell_angle_alpha   109.35636382
_cell_angle_beta   109.58584191
_cell_angle_gamma   109.58583994
_symmetry_Int_Tables_number   1
_chemical_formula_structural   SrNi(P4Ru)3
_chemical_formula_sum   'Sr1 Ni1 P12 Ru3'
_cell_volume   263.93774951
_cell_formula_units_Z   1
loop_
 _symmetry_equiv_pos_site_id
 _symmetry_equiv_pos_as_xyz
  1  'x, y, z'
loop_
 _atom_site_type_symbol
 _atom_site_label
 _atom_site_symmetry_multiplicity
 _atom_site_fract_x
 _atom_site_fract_y
 _atom_site_fract_z
 _atom_site_occupancy
  Sr  Sr0  1  0.000000  0.000000  0.000000  1
  Ni  Ni1  1  0.500000  0.000000  0.000000  1
  P  P2  1  0.146010  0.788231  0.644873  1
  P  P3  1  0.144256  0.501751  0.358606  1
  P  P4  1  0.855744  0.498249  0.641394  1
  P  P5  1  0.357495  0.143145  0.501751  1
  P  P6  1  0.785651  0.641394  0.143145  1
  P  P7  1  0.853990  0.211769  0.355127  1
  P  P8  1  0.642220  0.143358  0.788231  1
  P  P9  1  0.498862  0.644873  0.856642  1
  P  P10  1  0.642505  0.856855  0.498249  1
  P  P11  1  0.501138  0.355127  0.143358  1
  P  P12  1  0.357780  0.856642  0.211769  1
  P  P13  1  0.214349  0.358606  0.856855  1
  Ru  Ru14  1  0.500000  0.500000  0.500000  1
  Ru  Ru15  1  0.000000  0.500000  0.000000  1
  Ru  Ru16  1  0.000000  0.000000  0.500000  1
