# generated using pymatgen
data_YbEr3MnOs7
_symmetry_space_group_name_H-M   'P 1'
_cell_length_a   5.31212500
_cell_length_b   5.31212321
_cell_length_c   8.72181000
_cell_angle_alpha   90.00000000
_cell_angle_beta   90.00000000
_cell_angle_gamma   119.99999245
_symmetry_Int_Tables_number   1
_chemical_formula_structural   YbEr3MnOs7
_chemical_formula_sum   'Yb1 Er3 Mn1 Os7'
_cell_volume   213.14429456
_cell_formula_units_Z   1
loop_
 _symmetry_equiv_pos_site_id
 _symmetry_equiv_pos_as_xyz
  1  'x, y, z'
loop_
 _atom_site_type_symbol
 _atom_site_label
 _atom_site_symmetry_multiplicity
 _atom_site_fract_x
 _atom_site_fract_y
 _atom_site_fract_z
 _atom_site_occupancy
  Yb  Yb0  1  0.333333  0.666667  0.062881  1
  Er  Er1  1  0.333333  0.666667  0.426689  1
  Er  Er2  1  0.666667  0.333333  0.568127  1
  Er  Er3  1  0.666667  0.333333  0.939029  1
  Mn  Mn4  1  0.000000  0.000000  0.503849  1
  Os  Os5  1  0.000000  0.000000  0.999565  1
  Os  Os6  1  0.829535  0.170465  0.253625  1
  Os  Os7  1  0.829535  0.659069  0.253625  1
  Os  Os8  1  0.340931  0.170465  0.253625  1
  Os  Os9  1  0.171666  0.828334  0.746327  1
  Os  Os10  1  0.171666  0.343332  0.746327  1
  Os  Os11  1  0.656668  0.828334  0.746327  1
