# generated using pymatgen
data_Mg2TaInRh4
_symmetry_space_group_name_H-M   'P 1'
_cell_length_a   4.48850300
_cell_length_b   6.31999700
_cell_length_c   13.40784800
_cell_angle_alpha   90.00000000
_cell_angle_beta   90.00108311
_cell_angle_gamma   90.00000000
_symmetry_Int_Tables_number   1
_chemical_formula_structural   Mg2TaInRh4
_chemical_formula_sum   'Mg6 Ta3 In3 Rh12'
_cell_volume   380.34478836
_cell_formula_units_Z   3
loop_
 _symmetry_equiv_pos_site_id
 _symmetry_equiv_pos_as_xyz
  1  'x, y, z'
loop_
 _atom_site_type_symbol
 _atom_site_label
 _atom_site_symmetry_multiplicity
 _atom_site_fract_x
 _atom_site_fract_y
 _atom_site_fract_z
 _atom_site_occupancy
  Mg  Mg0  1  0.000002  0.000000  0.002094  1
  Mg  Mg1  1  0.499963  0.500000  0.166692  1
  Mg  Mg2  1  0.000107  0.000000  0.331106  1
  Mg  Mg3  1  0.499988  0.500000  0.499713  1
  Mg  Mg4  1  0.999917  0.000000  0.666739  1
  Mg  Mg5  1  0.499888  0.500000  0.833673  1
  Ta  Ta6  1  0.500005  0.000000  0.498725  1
  Ta  Ta7  1  0.999861  0.500000  0.666640  1
  Ta  Ta8  1  0.499922  0.000000  0.834676  1
  In  In9  1  0.999975  0.500000  0.999832  1
  In  In10  1  0.500166  0.000000  0.166560  1
  In  In11  1  0.000188  0.500000  0.333471  1
  Rh  Rh12  1  0.499972  0.242778  0.991775  1
  Rh  Rh13  1  0.499972  0.757221  0.991775  1
  Rh  Rh14  1  0.000105  0.251596  0.166649  1
  Rh  Rh15  1  0.000105  0.748405  0.166649  1
  Rh  Rh16  1  0.500136  0.242739  0.341582  1
  Rh  Rh17  1  0.500136  0.757262  0.341582  1
  Rh  Rh18  1  0.999991  0.246643  0.506013  1
  Rh  Rh19  1  0.999991  0.753358  0.506013  1
  Rh  Rh20  1  0.499891  0.251141  0.666684  1
  Rh  Rh21  1  0.499891  0.748860  0.666684  1
  Rh  Rh22  1  0.999911  0.246641  0.827336  1
  Rh  Rh23  1  0.999911  0.753360  0.827336  1
