# generated using pymatgen
data_Hf6Co17ReP12
_symmetry_space_group_name_H-M   'P 1'
_cell_length_a   3.62335100
_cell_length_b   10.27612900
_cell_length_c   11.93194700
_cell_angle_alpha   90.00000000
_cell_angle_beta   90.00000000
_cell_angle_gamma   90.00000000
_symmetry_Int_Tables_number   1
_chemical_formula_structural   Hf6Co17ReP12
_chemical_formula_sum   'Hf6 Co17 Re1 P12'
_cell_volume   444.27438054
_cell_formula_units_Z   1
loop_
 _symmetry_equiv_pos_site_id
 _symmetry_equiv_pos_as_xyz
  1  'x, y, z'
loop_
 _atom_site_type_symbol
 _atom_site_label
 _atom_site_symmetry_multiplicity
 _atom_site_fract_x
 _atom_site_fract_y
 _atom_site_fract_z
 _atom_site_occupancy
  Hf  Hf0  1  0.000000  0.500000  0.531427  1
  Hf  Hf1  1  0.500000  0.000000  0.472769  1
  Hf  Hf2  1  0.500000  0.822450  0.209596  1
  Hf  Hf3  1  0.500000  0.177550  0.209596  1
  Hf  Hf4  1  0.000000  0.679012  0.792071  1
  Hf  Hf5  1  0.000000  0.320988  0.792071  1
  Co  Co6  1  0.000000  0.500000  0.989154  1
  Co  Co7  1  0.500000  0.000000  0.014387  1
  Co  Co8  1  0.500000  0.299912  0.433197  1
  Co  Co9  1  0.500000  0.700088  0.433197  1
  Co  Co10  1  0.000000  0.199786  0.566848  1
  Co  Co11  1  0.000000  0.800214  0.566848  1
  Co  Co12  1  0.500000  0.875001  0.707139  1
  Co  Co13  1  0.500000  0.124999  0.707139  1
  Co  Co14  1  0.000000  0.624641  0.293645  1
  Co  Co15  1  0.000000  0.375359  0.293645  1
  Co  Co16  1  0.500000  0.332267  0.989506  1
  Co  Co17  1  0.500000  0.667733  0.989506  1
  Co  Co18  1  0.000000  0.167192  0.006312  1
  Co  Co19  1  0.000000  0.832808  0.006312  1
  Co  Co20  1  0.000000  0.000000  0.833906  1
  Co  Co21  1  0.500000  0.500000  0.702638  1
  Co  Co22  1  0.000000  0.000000  0.296157  1
  Re  Re23  1  0.500000  0.500000  0.161184  1
  P  P24  1  0.500000  0.316998  0.617892  1
  P  P25  1  0.500000  0.683002  0.617892  1
  P  P26  1  0.000000  0.181569  0.383230  1
  P  P27  1  0.000000  0.818431  0.383230  1
  P  P28  1  0.500000  0.500000  0.877256  1
  P  P29  1  0.000000  0.000000  0.120675  1
  P  P30  1  0.500000  0.847138  0.887721  1
  P  P31  1  0.500000  0.152862  0.887721  1
  P  P32  1  0.000000  0.660304  0.110587  1
  P  P33  1  0.000000  0.339696  0.110587  1
  P  P34  1  0.500000  0.500000  0.358345  1
  P  P35  1  0.000000  0.000000  0.646612  1
