# generated using pymatgen
data_Ti14V5Si16Ir
_symmetry_space_group_name_H-M   'P 1'
_cell_length_a   6.58774096
_cell_length_b   6.58684133
_cell_length_c   12.06068481
_cell_angle_alpha   89.90009853
_cell_angle_beta   90.35176885
_cell_angle_gamma   89.84633792
_symmetry_Int_Tables_number   1
_chemical_formula_structural   Ti14V5Si16Ir
_chemical_formula_sum   'Ti14 V5 Si16 Ir1'
_cell_volume   523.32955738
_cell_formula_units_Z   1
loop_
 _symmetry_equiv_pos_site_id
 _symmetry_equiv_pos_as_xyz
  1  'x, y, z'
loop_
 _atom_site_type_symbol
 _atom_site_label
 _atom_site_symmetry_multiplicity
 _atom_site_fract_x
 _atom_site_fract_y
 _atom_site_fract_z
 _atom_site_occupancy
  Ti  Ti0  1  0.003808  0.841594  0.119133  1
  Ti  Ti1  1  0.153125  0.998703  0.376317  1
  Ti  Ti2  1  0.840904  0.001998  0.881440  1
  Ti  Ti3  1  0.004022  0.344518  0.220922  1
  Ti  Ti4  1  0.158081  0.501981  0.470291  1
  Ti  Ti5  1  0.835070  0.499158  0.969746  1
  Ti  Ti6  1  0.500968  0.159107  0.530821  1
  Ti  Ti7  1  0.500945  0.834365  0.028681  1
  Ti  Ti8  1  0.998132  0.659333  0.720569  1
  Ti  Ti9  1  0.344986  0.003206  0.778343  1
  Ti  Ti10  1  0.658890  0.996994  0.280689  1
  Ti  Ti11  1  0.331360  0.667892  0.247338  1
  Ti  Ti12  1  0.666365  0.329811  0.751800  1
  Ti  Ti13  1  0.831448  0.831301  0.501051  1
  V  V14  1  0.994905  0.152734  0.623771  1
  V  V15  1  0.350794  0.497914  0.867998  1
  V  V16  1  0.653098  0.505363  0.372952  1
  V  V17  1  0.499769  0.353259  0.130592  1
  V  V18  1  0.505096  0.651306  0.627896  1
  Si  Si19  1  0.046703  0.299111  0.814830  1
  Si  Si20  1  0.206037  0.535167  0.058784  1
  Si  Si21  1  0.797835  0.456613  0.564421  1
  Si  Si22  1  0.535452  0.205563  0.940393  1
  Si  Si23  1  0.457776  0.796325  0.437205  1
  Si  Si24  1  0.955844  0.698261  0.314708  1
  Si  Si25  1  0.302416  0.048615  0.182813  1
  Si  Si26  1  0.700995  0.956296  0.685774  1
  Si  Si27  1  0.290602  0.364737  0.672357  1
  Si  Si28  1  0.139041  0.786227  0.919462  1
  Si  Si29  1  0.860508  0.210507  0.424466  1
  Si  Si30  1  0.785699  0.137924  0.080810  1
  Si  Si31  1  0.209469  0.865359  0.578419  1
  Si  Si32  1  0.705669  0.636112  0.175530  1
  Si  Si33  1  0.366775  0.296398  0.326324  1
  Si  Si34  1  0.634672  0.704838  0.824370  1
  Ir  Ir35  1  0.172742  0.171409  0.998986  1
