# generated using pymatgen
data_Nd8Al(Pd7Pt)3
_symmetry_space_group_name_H-M   'P 1'
_cell_length_a   8.50690100
_cell_length_b   8.50382800
_cell_length_c   8.50503800
_cell_angle_alpha   90.00000000
_cell_angle_beta   90.00000000
_cell_angle_gamma   90.00000000
_symmetry_Int_Tables_number   1
_chemical_formula_structural   Nd8Al(Pd7Pt)3
_chemical_formula_sum   'Nd8 Al1 Pd21 Pt3'
_cell_volume   615.26484988
_cell_formula_units_Z   1
loop_
 _symmetry_equiv_pos_site_id
 _symmetry_equiv_pos_as_xyz
  1  'x, y, z'
loop_
 _atom_site_type_symbol
 _atom_site_label
 _atom_site_symmetry_multiplicity
 _atom_site_fract_x
 _atom_site_fract_y
 _atom_site_fract_z
 _atom_site_occupancy
  Nd  Nd0  1  0.250780  0.250816  0.250750  1
  Nd  Nd1  1  0.748391  0.748493  0.748337  1
  Nd  Nd2  1  0.748391  0.748493  0.251663  1
  Nd  Nd3  1  0.749220  0.250816  0.749250  1
  Nd  Nd4  1  0.250780  0.250816  0.749250  1
  Nd  Nd5  1  0.251609  0.748493  0.251663  1
  Nd  Nd6  1  0.251609  0.748493  0.748337  1
  Nd  Nd7  1  0.749220  0.250816  0.250750  1
  Al  Al8  1  0.000000  0.004360  0.000000  1
  Pd  Pd9  1  0.260768  0.500023  0.000000  1
  Pd  Pd10  1  0.739232  0.500023  0.000000  1
  Pd  Pd11  1  0.000000  0.260706  0.500000  1
  Pd  Pd12  1  0.500000  0.259471  0.000000  1
  Pd  Pd13  1  0.000000  0.738343  0.500000  1
  Pd  Pd14  1  0.500000  0.738983  0.000000  1
  Pd  Pd15  1  0.500000  0.999867  0.260390  1
  Pd  Pd16  1  0.261097  0.999882  0.500000  1
  Pd  Pd17  1  0.500000  0.999867  0.739610  1
  Pd  Pd18  1  0.738903  0.999882  0.500000  1
  Pd  Pd19  1  0.000000  0.500090  0.261035  1
  Pd  Pd20  1  0.000000  0.500090  0.738965  1
  Pd  Pd21  1  0.253054  0.499884  0.500000  1
  Pd  Pd22  1  0.746946  0.499884  0.500000  1
  Pd  Pd23  1  0.500000  0.253212  0.500000  1
  Pd  Pd24  1  0.500000  0.746836  0.500000  1
  Pd  Pd25  1  0.500000  0.500026  0.253301  1
  Pd  Pd26  1  0.500000  0.500026  0.746699  1
  Pd  Pd27  1  0.000000  0.710213  0.000000  1
  Pd  Pd28  1  0.000000  0.999193  0.293798  1
  Pd  Pd29  1  0.000000  0.999193  0.706202  1
  Pt  Pt30  1  0.290271  0.998635  0.000000  1
  Pt  Pt31  1  0.709729  0.998635  0.000000  1
  Pt  Pt32  1  0.000000  0.295438  0.000000  1
