# generated using pymatgen
data_As2SeN8
_symmetry_space_group_name_H-M   'P 1'
_cell_length_a   3.80757871
_cell_length_b   9.14477004
_cell_length_c   12.18403255
_cell_angle_alpha   69.77379457
_cell_angle_beta   85.22017028
_cell_angle_gamma   85.12003039
_symmetry_Int_Tables_number   1
_chemical_formula_structural   As2SeN8
_chemical_formula_sum   'As2 Se1 N8'
_cell_volume   395.97716304
_cell_formula_units_Z   1
loop_
 _symmetry_equiv_pos_site_id
 _symmetry_equiv_pos_as_xyz
  1  'x, y, z'
loop_
 _atom_site_type_symbol
 _atom_site_label
 _atom_site_symmetry_multiplicity
 _atom_site_fract_x
 _atom_site_fract_y
 _atom_site_fract_z
 _atom_site_occupancy
  As  As0  1  0.820631  0.710377  0.050875  1
  As  As1  1  0.269800  0.776948  0.162235  1
  Se  Se2  1  0.030347  0.968157  0.990828  1
  N  N3  1  0.720843  0.313160  0.407656  1
  N  N4  1  0.145818  0.538577  0.613235  1
  N  N5  1  0.698875  0.441929  0.387274  1
  N  N6  1  0.352986  0.361755  0.937123  1
  N  N7  1  0.995980  0.436323  0.667766  1
  N  N8  1  0.136996  0.977257  0.636627  1
  N  N9  1  0.277270  0.870036  0.694545  1
  N  N10  1  0.493697  0.353117  0.015838  1
