# generated using pymatgen
data_Tb3Dy2Si9P3Ir19
_symmetry_space_group_name_H-M   'P 1'
_cell_length_a   12.82838300
_cell_length_b   12.82838312
_cell_length_c   3.95107100
_cell_angle_alpha   90.00000000
_cell_angle_beta   90.00000000
_cell_angle_gamma   119.99999710
_symmetry_Int_Tables_number   1
_chemical_formula_structural   Tb3Dy2Si9P3Ir19
_chemical_formula_sum   'Tb3 Dy2 Si9 P3 Ir19'
_cell_volume   563.10491461
_cell_formula_units_Z   1
loop_
 _symmetry_equiv_pos_site_id
 _symmetry_equiv_pos_as_xyz
  1  'x, y, z'
loop_
 _atom_site_type_symbol
 _atom_site_label
 _atom_site_symmetry_multiplicity
 _atom_site_fract_x
 _atom_site_fract_y
 _atom_site_fract_z
 _atom_site_occupancy
  Tb  Tb0  1  0.000000  0.814793  0.000000  1
  Tb  Tb1  1  0.185207  0.185207  0.000000  1
  Tb  Tb2  1  0.814793  0.000000  0.000000  1
  Dy  Dy3  1  0.333333  0.666667  0.500000  1
  Dy  Dy4  1  0.666667  0.333333  0.500000  1
  Si  Si5  1  0.000000  0.633145  0.500000  1
  Si  Si6  1  0.366855  0.366855  0.500000  1
  Si  Si7  1  0.633145  0.000000  0.500000  1
  Si  Si8  1  0.518693  0.686082  0.000000  1
  Si  Si9  1  0.313918  0.832611  0.000000  1
  Si  Si10  1  0.167389  0.481307  0.000000  1
  Si  Si11  1  0.481307  0.167389  0.000000  1
  Si  Si12  1  0.686082  0.518693  0.000000  1
  Si  Si13  1  0.832611  0.313918  0.000000  1
  P  P14  1  0.000000  0.179106  0.500000  1
  P  P15  1  0.820894  0.820894  0.500000  1
  P  P16  1  0.179106  0.000000  0.500000  1
  Ir  Ir17  1  0.512897  0.872474  0.000000  1
  Ir  Ir18  1  0.127526  0.640423  0.000000  1
  Ir  Ir19  1  0.359577  0.487103  0.000000  1
  Ir  Ir20  1  0.487103  0.359577  0.000000  1
  Ir  Ir21  1  0.872474  0.512897  0.000000  1
  Ir  Ir22  1  0.640423  0.127526  0.000000  1
  Ir  Ir23  1  0.000000  0.447414  0.500000  1
  Ir  Ir24  1  0.552586  0.552586  0.500000  1
  Ir  Ir25  1  0.447414  0.000000  0.500000  1
  Ir  Ir26  1  0.000000  0.278949  0.000000  1
  Ir  Ir27  1  0.721051  0.721051  0.000000  1
  Ir  Ir28  1  0.278949  0.000000  0.000000  1
  Ir  Ir29  1  0.626656  0.806117  0.500000  1
  Ir  Ir30  1  0.193883  0.820539  0.500000  1
  Ir  Ir31  1  0.179461  0.373344  0.500000  1
  Ir  Ir32  1  0.373344  0.179461  0.500000  1
  Ir  Ir33  1  0.806117  0.626656  0.500000  1
  Ir  Ir34  1  0.820539  0.193883  0.500000  1
  Ir  Ir35  1  0.000000  0.000000  0.500000  1
