# generated using pymatgen
data_Lu2PaFe6(CoP2)3
_symmetry_space_group_name_H-M   'P 1'
_cell_length_a   3.67691700
_cell_length_b   10.55044700
_cell_length_c   11.98880000
_cell_angle_alpha   90.00000000
_cell_angle_beta   90.00000000
_cell_angle_gamma   90.00000000
_symmetry_Int_Tables_number   1
_chemical_formula_structural   Lu2PaFe6(CoP2)3
_chemical_formula_sum   'Lu4 Pa2 Fe12 Co6 P12'
_cell_volume   465.08293226
_cell_formula_units_Z   2
loop_
 _symmetry_equiv_pos_site_id
 _symmetry_equiv_pos_as_xyz
  1  'x, y, z'
loop_
 _atom_site_type_symbol
 _atom_site_label
 _atom_site_symmetry_multiplicity
 _atom_site_fract_x
 _atom_site_fract_y
 _atom_site_fract_z
 _atom_site_occupancy
  Lu  Lu0  1  0.500000  0.817724  0.203952  1
  Lu  Lu1  1  0.500000  0.182276  0.203952  1
  Lu  Lu2  1  0.000000  0.682276  0.796048  1
  Lu  Lu3  1  0.000000  0.317724  0.796048  1
  Pa  Pa4  1  0.000000  0.500000  0.529514  1
  Pa  Pa5  1  0.500000  0.000000  0.470486  1
  Fe  Fe6  1  0.500000  0.500000  0.154306  1
  Fe  Fe7  1  0.000000  0.000000  0.845694  1
  Fe  Fe8  1  0.000000  0.500000  0.988687  1
  Fe  Fe9  1  0.500000  0.000000  0.011313  1
  Fe  Fe10  1  0.500000  0.332304  0.995039  1
  Fe  Fe11  1  0.500000  0.667696  0.995039  1
  Fe  Fe12  1  0.000000  0.167696  0.004961  1
  Fe  Fe13  1  0.000000  0.832304  0.004961  1
  Fe  Fe14  1  0.500000  0.302637  0.428544  1
  Fe  Fe15  1  0.500000  0.697363  0.428544  1
  Fe  Fe16  1  0.000000  0.197363  0.571456  1
  Fe  Fe17  1  0.000000  0.802637  0.571456  1
  Co  Co18  1  0.500000  0.500000  0.698479  1
  Co  Co19  1  0.000000  0.000000  0.301521  1
  Co  Co20  1  0.500000  0.881083  0.713346  1
  Co  Co21  1  0.500000  0.118917  0.713346  1
  Co  Co22  1  0.000000  0.618917  0.286654  1
  Co  Co23  1  0.000000  0.381083  0.286654  1
  P  P24  1  0.500000  0.500000  0.883403  1
  P  P25  1  0.000000  0.000000  0.116597  1
  P  P26  1  0.500000  0.500000  0.342093  1
  P  P27  1  0.000000  0.000000  0.657907  1
  P  P28  1  0.500000  0.304216  0.616393  1
  P  P29  1  0.500000  0.695784  0.616393  1
  P  P30  1  0.000000  0.195784  0.383607  1
  P  P31  1  0.000000  0.804216  0.383607  1
  P  P32  1  0.500000  0.844982  0.894843  1
  P  P33  1  0.500000  0.155018  0.894843  1
  P  P34  1  0.000000  0.655018  0.105157  1
  P  P35  1  0.000000  0.344982  0.105157  1
