# generated using pymatgen
data_V3Si2IrC
_symmetry_space_group_name_H-M   'P 1'
_cell_length_a   7.82869324
_cell_length_b   7.82869319
_cell_length_c   7.82869200
_cell_angle_alpha   59.99999659
_cell_angle_beta   59.99999677
_cell_angle_gamma   59.99999767
_symmetry_Int_Tables_number   1
_chemical_formula_structural   V3Si2IrC
_chemical_formula_sum   'V12 Si8 Ir4 C4'
_cell_volume   339.27567955
_cell_formula_units_Z   4
loop_
 _symmetry_equiv_pos_site_id
 _symmetry_equiv_pos_as_xyz
  1  'x, y, z'
loop_
 _atom_site_type_symbol
 _atom_site_label
 _atom_site_symmetry_multiplicity
 _atom_site_fract_x
 _atom_site_fract_y
 _atom_site_fract_z
 _atom_site_occupancy
  V  V0  1  0.817666  0.817666  0.182334  1
  V  V1  1  0.182334  0.182334  0.817666  1
  V  V2  1  0.817666  0.182334  0.817666  1
  V  V3  1  0.182334  0.817666  0.182334  1
  V  V4  1  0.182334  0.817666  0.817666  1
  V  V5  1  0.817666  0.182334  0.182334  1
  V  V6  1  0.432334  0.432334  0.067666  1
  V  V7  1  0.067666  0.067666  0.432334  1
  V  V8  1  0.432334  0.067666  0.432334  1
  V  V9  1  0.067666  0.432334  0.067666  1
  V  V10  1  0.067666  0.432334  0.432334  1
  V  V11  1  0.432334  0.067666  0.067666  1
  Si  Si12  1  0.773765  0.408746  0.408746  1
  Si  Si13  1  0.408746  0.773765  0.408746  1
  Si  Si14  1  0.408746  0.408746  0.773765  1
  Si  Si15  1  0.408746  0.408746  0.408746  1
  Si  Si16  1  0.476235  0.841254  0.841254  1
  Si  Si17  1  0.841254  0.476235  0.841254  1
  Si  Si18  1  0.841254  0.841254  0.476235  1
  Si  Si19  1  0.841254  0.841254  0.841254  1
  Ir  Ir20  1  0.125000  0.625000  0.625000  1
  Ir  Ir21  1  0.625000  0.125000  0.625000  1
  Ir  Ir22  1  0.625000  0.625000  0.125000  1
  Ir  Ir23  1  0.625000  0.625000  0.625000  1
  C  C24  1  0.625000  0.125000  0.125000  1
  C  C25  1  0.125000  0.625000  0.125000  1
  C  C26  1  0.125000  0.125000  0.625000  1
  C  C27  1  0.125000  0.125000  0.125000  1
