# generated using pymatgen
data_Sm2Al3SiIr4
_symmetry_space_group_name_H-M   'P 1'
_cell_length_a   4.21071100
_cell_length_b   4.21071100
_cell_length_c   10.25820800
_cell_angle_alpha   90.00000000
_cell_angle_beta   90.00000000
_cell_angle_gamma   90.00000000
_symmetry_Int_Tables_number   1
_chemical_formula_structural   Sm2Al3SiIr4
_chemical_formula_sum   'Sm2 Al3 Si1 Ir4'
_cell_volume   181.87892159
_cell_formula_units_Z   1
loop_
 _symmetry_equiv_pos_site_id
 _symmetry_equiv_pos_as_xyz
  1  'x, y, z'
loop_
 _atom_site_type_symbol
 _atom_site_label
 _atom_site_symmetry_multiplicity
 _atom_site_fract_x
 _atom_site_fract_y
 _atom_site_fract_z
 _atom_site_occupancy
  Sm  Sm0  1  0.000000  0.500000  0.241477  1
  Sm  Sm1  1  0.500000  0.000000  0.752737  1
  Al  Al2  1  0.000000  0.000000  0.497806  1
  Al  Al3  1  0.500000  0.500000  0.497806  1
  Al  Al4  1  0.000000  0.500000  0.877106  1
  Si  Si5  1  0.500000  0.000000  0.123404  1
  Ir  Ir6  1  0.000000  0.000000  0.008348  1
  Ir  Ir7  1  0.500000  0.500000  0.008348  1
  Ir  Ir8  1  0.000000  0.500000  0.633643  1
  Ir  Ir9  1  0.500000  0.000000  0.359324  1
