# generated using pymatgen
data_Yb2(B2Os)3
_symmetry_space_group_name_H-M   'P 1'
_cell_length_a   6.16868164
_cell_length_b   6.16868092
_cell_length_c   7.40233931
_cell_angle_alpha   90.29608457
_cell_angle_beta   90.29608019
_cell_angle_gamma   114.61792743
_symmetry_Int_Tables_number   1
_chemical_formula_structural   Yb2(B2Os)3
_chemical_formula_sum   'Yb4 B12 Os6'
_cell_volume   256.06381334
_cell_formula_units_Z   2
loop_
 _symmetry_equiv_pos_site_id
 _symmetry_equiv_pos_as_xyz
  1  'x, y, z'
loop_
 _atom_site_type_symbol
 _atom_site_label
 _atom_site_symmetry_multiplicity
 _atom_site_fract_x
 _atom_site_fract_y
 _atom_site_fract_z
 _atom_site_occupancy
  Yb  Yb0  1  0.092118  0.445188  0.326622  1
  Yb  Yb1  1  0.554812  0.907882  0.173378  1
  Yb  Yb2  1  0.907882  0.554812  0.673378  1
  Yb  Yb3  1  0.445188  0.092118  0.826622  1
  B  B4  1  0.241203  0.148451  0.130721  1
  B  B5  1  0.851549  0.758797  0.369279  1
  B  B6  1  0.758797  0.851549  0.869279  1
  B  B7  1  0.148451  0.241203  0.630721  1
  B  B8  1  0.589313  0.162815  0.483568  1
  B  B9  1  0.837185  0.410687  0.016432  1
  B  B10  1  0.410687  0.837185  0.516432  1
  B  B11  1  0.162815  0.589313  0.983568  1
  B  B12  1  0.450734  0.349732  0.538376  1
  B  B13  1  0.650268  0.549266  0.961624  1
  B  B14  1  0.549266  0.650268  0.461624  1
  B  B15  1  0.349732  0.450734  0.038376  1
  Os  Os16  1  0.583834  0.416166  0.250000  1
  Os  Os17  1  0.416166  0.583834  0.750000  1
  Os  Os18  1  0.985790  0.799861  0.086242  1
  Os  Os19  1  0.200139  0.014210  0.413758  1
  Os  Os20  1  0.014210  0.200139  0.913758  1
  Os  Os21  1  0.799861  0.985790  0.586242  1
