# generated using pymatgen
data_Y5BeSe4
_symmetry_space_group_name_H-M   'P 1'
_cell_length_a   7.07170065
_cell_length_b   7.07170121
_cell_length_c   7.07170194
_cell_angle_alpha   99.52264039
_cell_angle_beta   99.52263665
_cell_angle_gamma   131.99960343
_symmetry_Int_Tables_number   1
_chemical_formula_structural   Y5BeSe4
_chemical_formula_sum   'Y5 Be1 Se4'
_cell_volume   240.09182098
_cell_formula_units_Z   1
loop_
 _symmetry_equiv_pos_site_id
 _symmetry_equiv_pos_as_xyz
  1  'x, y, z'
loop_
 _atom_site_type_symbol
 _atom_site_label
 _atom_site_symmetry_multiplicity
 _atom_site_fract_x
 _atom_site_fract_y
 _atom_site_fract_z
 _atom_site_occupancy
  Y  Y0  1  0.405239  0.784879  0.190118  1
  Y  Y1  1  0.000000  0.000000  0.000000  1
  Y  Y2  1  0.594761  0.215121  0.809882  1
  Y  Y3  1  0.215121  0.405239  0.620360  1
  Y  Y4  1  0.784879  0.594761  0.379640  1
  Be  Be5  1  0.500000  0.500000  0.000000  1
  Se  Se6  1  0.094567  0.696124  0.790689  1
  Se  Se7  1  0.696124  0.905433  0.601557  1
  Se  Se8  1  0.303876  0.094567  0.398443  1
  Se  Se9  1  0.905433  0.303876  0.209311  1
