# generated using pymatgen
data_La6Tl9Sn
_symmetry_space_group_name_H-M   'P 1'
_cell_length_a   6.83386292
_cell_length_b   6.84594704
_cell_length_c   10.76999600
_cell_angle_alpha   90.00000000
_cell_angle_beta   90.00000000
_cell_angle_gamma   102.59621242
_symmetry_Int_Tables_number   1
_chemical_formula_structural   La6Tl9Sn
_chemical_formula_sum   'La6 Tl9 Sn1'
_cell_volume   491.73886423
_cell_formula_units_Z   1
loop_
 _symmetry_equiv_pos_site_id
 _symmetry_equiv_pos_as_xyz
  1  'x, y, z'
loop_
 _atom_site_type_symbol
 _atom_site_label
 _atom_site_symmetry_multiplicity
 _atom_site_fract_x
 _atom_site_fract_y
 _atom_site_fract_z
 _atom_site_occupancy
  La  La0  1  0.637241  0.632845  0.250000  1
  La  La1  1  0.366339  0.369886  0.750000  1
  La  La2  1  0.201526  0.792747  0.496745  1
  La  La3  1  0.201526  0.792747  0.003255  1
  La  La4  1  0.799012  0.206503  0.496262  1
  La  La5  1  0.799012  0.206503  0.003738  1
  Tl  Tl6  1  0.010930  0.017063  0.250000  1
  Tl  Tl7  1  0.988296  0.988277  0.750000  1
  Tl  Tl8  1  0.307813  0.304003  0.046420  1
  Tl  Tl9  1  0.691534  0.697206  0.952275  1
  Tl  Tl10  1  0.307813  0.304003  0.453580  1
  Tl  Tl11  1  0.691534  0.697206  0.547725  1
  Tl  Tl12  1  0.502729  0.068513  0.250000  1
  Tl  Tl13  1  0.924562  0.494528  0.750000  1
  Tl  Tl14  1  0.492964  0.929488  0.750000  1
  Sn  Sn15  1  0.077166  0.498481  0.250000  1
