# generated using pymatgen
data_Mn12ZnCr8(WC3)2
_symmetry_space_group_name_H-M   'P 1'
_cell_length_a   7.46356258
_cell_length_b   7.46224994
_cell_length_c   7.46784336
_cell_angle_alpha   60.06587048
_cell_angle_beta   60.02037544
_cell_angle_gamma   59.99226250
_symmetry_Int_Tables_number   1
_chemical_formula_structural   Mn12ZnCr8(WC3)2
_chemical_formula_sum   'Mn12 Zn1 Cr8 W2 C6'
_cell_volume   294.27499931
_cell_formula_units_Z   1
loop_
 _symmetry_equiv_pos_site_id
 _symmetry_equiv_pos_as_xyz
  1  'x, y, z'
loop_
 _atom_site_type_symbol
 _atom_site_label
 _atom_site_symmetry_multiplicity
 _atom_site_fract_x
 _atom_site_fract_y
 _atom_site_fract_z
 _atom_site_occupancy
  Mn  Mn0  1  0.616017  0.615387  0.151237  1
  Mn  Mn1  1  0.617088  0.151249  0.615033  1
  Mn  Mn2  1  0.151830  0.616603  0.615891  1
  Mn  Mn3  1  0.615860  0.616293  0.616454  1
  Mn  Mn4  1  0.384520  0.383482  0.848417  1
  Mn  Mn5  1  0.384206  0.849276  0.382577  1
  Mn  Mn6  1  0.849194  0.383338  0.383514  1
  Mn  Mn7  1  0.383652  0.383842  0.383115  1
  Mn  Mn8  1  0.998894  0.999434  0.343742  1
  Mn  Mn9  1  0.657807  0.999358  0.342616  1
  Mn  Mn10  1  0.998947  0.658563  0.343918  1
  Mn  Mn11  1  0.656431  0.341587  0.001083  1
  Zn  Zn12  1  0.998301  0.000028  0.002911  1
  Cr  Cr13  1  0.000506  0.343203  0.998942  1
  Cr  Cr14  1  0.999911  0.342839  0.657222  1
  Cr  Cr15  1  0.342790  0.656723  0.000511  1
  Cr  Cr16  1  0.342265  0.000459  0.656514  1
  Cr  Cr17  1  0.342725  0.999560  0.000473  1
  Cr  Cr18  1  0.000116  0.001702  0.656182  1
  Cr  Cr19  1  0.000149  0.657033  0.000728  1
  Cr  Cr20  1  0.657912  0.999638  0.000395  1
  W  W21  1  0.750494  0.750383  0.748399  1
  W  W22  1  0.250191  0.249982  0.250031  1
  C  C23  1  0.722036  0.720925  0.280299  1
  C  C24  1  0.275532  0.722601  0.280118  1
  C  C25  1  0.722472  0.276076  0.277101  1
  C  C26  1  0.280961  0.280284  0.719895  1
  C  C27  1  0.719795  0.279934  0.722428  1
  C  C28  1  0.279400  0.720218  0.720256  1
