# generated using pymatgen
data_Li3V2Zn3AsO12
_symmetry_space_group_name_H-M   'P 1'
_cell_length_a   8.88244503
_cell_length_b   8.87759372
_cell_length_c   8.88945931
_cell_angle_alpha   107.74769935
_cell_angle_beta   107.88269471
_cell_angle_gamma   107.93683657
_symmetry_Int_Tables_number   1
_chemical_formula_structural   Li3V2Zn3AsO12
_chemical_formula_sum   'Li6 V4 Zn6 As2 O24'
_cell_volume   569.60143618
_cell_formula_units_Z   2
loop_
 _symmetry_equiv_pos_site_id
 _symmetry_equiv_pos_as_xyz
  1  'x, y, z'
loop_
 _atom_site_type_symbol
 _atom_site_label
 _atom_site_symmetry_multiplicity
 _atom_site_fract_x
 _atom_site_fract_y
 _atom_site_fract_z
 _atom_site_occupancy
  Li  Li0  1  0.334521  0.156564  0.933027  1
  Li  Li1  1  0.854092  0.448726  0.620923  1
  Li  Li2  1  0.449142  0.619761  0.852838  1
  Li  Li3  1  0.619640  0.852978  0.447965  1
  Li  Li4  1  0.158003  0.933071  0.334368  1
  Li  Li5  1  0.932665  0.335112  0.157693  1
  V  V6  1  0.293039  0.518585  0.112142  1
  V  V7  1  0.519003  0.112229  0.292327  1
  V  V8  1  0.112150  0.292792  0.519228  1
  V  V9  1  0.003548  0.823739  0.597349  1
  Zn  Zn10  1  0.668923  0.495120  0.259992  1
  Zn  Zn11  1  0.495596  0.261401  0.670644  1
  Zn  Zn12  1  0.263335  0.671403  0.493997  1
  Zn  Zn13  1  0.182104  0.777023  0.954700  1
  Zn  Zn14  1  0.779304  0.952757  0.181550  1
  Zn  Zn15  1  0.954128  0.184551  0.782004  1
  As  As16  1  0.823110  0.597294  0.004359  1
  As  As17  1  0.597383  0.004125  0.822947  1
  O  O18  1  0.421814  0.406227  0.094619  1
  O  O19  1  0.409615  0.096942  0.424232  1
  O  O20  1  0.096832  0.425097  0.409925  1
  O  O21  1  0.036277  0.752887  0.085807  1
  O  O22  1  0.752005  0.084643  0.035999  1
  O  O23  1  0.084223  0.040151  0.751977  1
  O  O24  1  0.704346  0.022521  0.691694  1
  O  O25  1  0.691311  0.703631  0.021857  1
  O  O26  1  0.307592  0.633317  0.984612  1
  O  O27  1  0.022547  0.693510  0.708564  1
  O  O28  1  0.984107  0.305553  0.633414  1
  O  O29  1  0.633742  0.984659  0.305459  1
  O  O30  1  0.332287  0.371005  0.666728  1
  O  O31  1  0.666966  0.332471  0.370833  1
  O  O32  1  0.373324  0.666449  0.331868  1
  O  O33  1  0.026525  0.075548  0.361120  1
  O  O34  1  0.359860  0.025462  0.075319  1
  O  O35  1  0.074633  0.363530  0.028100  1
  O  O36  1  0.130778  0.812131  0.482263  1
  O  O37  1  0.481338  0.127577  0.812380  1
  O  O38  1  0.812164  0.481500  0.127953  1
  O  O39  1  0.452552  0.785050  0.741365  1
  O  O40  1  0.742369  0.452995  0.785910  1
  O  O41  1  0.781807  0.738609  0.448648  1
