# generated using pymatgen
data_Y8Al2PtRh
_symmetry_space_group_name_H-M   'P 1'
_cell_length_a   9.61342876
_cell_length_b   9.61345545
_cell_length_c   9.60558514
_cell_angle_alpha   60.08443067
_cell_angle_beta   60.08397818
_cell_angle_gamma   60.15307671
_symmetry_Int_Tables_number   1
_chemical_formula_structural   Y8Al2PtRh
_chemical_formula_sum   'Y16 Al4 Pt2 Rh2'
_cell_volume   629.24449035
_cell_formula_units_Z   2
loop_
 _symmetry_equiv_pos_site_id
 _symmetry_equiv_pos_as_xyz
  1  'x, y, z'
loop_
 _atom_site_type_symbol
 _atom_site_label
 _atom_site_symmetry_multiplicity
 _atom_site_fract_x
 _atom_site_fract_y
 _atom_site_fract_z
 _atom_site_occupancy
  Y  Y0  1  0.601457  0.601451  0.598102  1
  Y  Y1  1  0.605545  0.605543  0.189155  1
  Y  Y2  1  0.608945  0.184662  0.604603  1
  Y  Y3  1  0.184652  0.608957  0.604599  1
  Y  Y4  1  0.054068  0.443413  0.443265  1
  Y  Y5  1  0.444081  0.054066  0.059959  1
  Y  Y6  1  0.443412  0.054073  0.443264  1
  Y  Y7  1  0.054068  0.444074  0.059959  1
  Y  Y8  1  0.443812  0.443807  0.056208  1
  Y  Y9  1  0.058656  0.058651  0.442548  1
  Y  Y10  1  0.185130  0.814775  0.813804  1
  Y  Y11  1  0.813485  0.188124  0.187734  1
  Y  Y12  1  0.814780  0.185130  0.813800  1
  Y  Y13  1  0.188119  0.813488  0.187726  1
  Y  Y14  1  0.815426  0.815434  0.183518  1
  Y  Y15  1  0.188301  0.188301  0.812167  1
  Al  Al16  1  0.828698  0.828699  0.829877  1
  Al  Al17  1  0.826847  0.826852  0.517029  1
  Al  Al18  1  0.826604  0.516970  0.827343  1
  Al  Al19  1  0.516971  0.826606  0.827338  1
  Pt  Pt20  1  0.393807  0.393823  0.394931  1
  Pt  Pt21  1  0.391084  0.391085  0.820650  1
  Rh  Rh22  1  0.390041  0.821988  0.391219  1
  Rh  Rh23  1  0.822012  0.390028  0.391202  1
