# generated using pymatgen
data_HfZr7Nb12Ga3Si12Ge
_symmetry_space_group_name_H-M   'P 1'
_cell_length_a   6.71250312
_cell_length_b   6.89546225
_cell_length_c   13.17070600
_cell_angle_alpha   90.01513105
_cell_angle_beta   90.01095128
_cell_angle_gamma   90.00337895
_symmetry_Int_Tables_number   1
_chemical_formula_structural   HfZr7Nb12Ga3Si12Ge
_chemical_formula_sum   'Hf1 Zr7 Nb12 Ga3 Si12 Ge1'
_cell_volume   609.61678707
_cell_formula_units_Z   1
loop_
 _symmetry_equiv_pos_site_id
 _symmetry_equiv_pos_as_xyz
  1  'x, y, z'
loop_
 _atom_site_type_symbol
 _atom_site_label
 _atom_site_symmetry_multiplicity
 _atom_site_fract_x
 _atom_site_fract_y
 _atom_site_fract_z
 _atom_site_occupancy
  Hf  Hf0  1  0.000345  0.824643  0.595295  1
  Zr  Zr1  1  0.496271  0.670902  0.595442  1
  Zr  Zr2  1  0.992236  0.827305  0.904302  1
  Zr  Zr3  1  0.506126  0.327489  0.094814  1
  Zr  Zr4  1  0.007629  0.172580  0.408107  1
  Zr  Zr5  1  0.499779  0.330060  0.407522  1
  Zr  Zr6  1  0.999678  0.169167  0.093232  1
  Zr  Zr7  1  0.501891  0.672055  0.903712  1
  Nb  Nb8  1  0.662330  0.175825  0.625737  1
  Nb  Nb9  1  0.158858  0.329500  0.871513  1
  Nb  Nb10  1  0.338984  0.829629  0.127662  1
  Nb  Nb11  1  0.839437  0.669063  0.375833  1
  Nb  Nb12  1  0.330902  0.828450  0.376583  1
  Nb  Nb13  1  0.832501  0.673700  0.124123  1
  Nb  Nb14  1  0.668462  0.172708  0.874909  1
  Nb  Nb15  1  0.163909  0.328447  0.623325  1
  Nb  Nb16  1  0.837558  0.496535  0.749188  1
  Nb  Nb17  1  0.337746  0.005054  0.747081  1
  Nb  Nb18  1  0.164818  0.506208  0.252674  1
  Nb  Nb19  1  0.660204  0.991694  0.248396  1
  Ga  Ga20  1  0.673981  0.963646  0.462047  1
  Ga  Ga21  1  0.175014  0.536534  0.037744  1
  Ga  Ga22  1  0.325098  0.036725  0.961202  1
  Si  Si23  1  0.829096  0.463474  0.537921  1
  Si  Si24  1  0.329542  0.035452  0.538719  1
  Si  Si25  1  0.830179  0.463804  0.962193  1
  Si  Si26  1  0.668522  0.963477  0.037162  1
  Si  Si27  1  0.169249  0.537978  0.463094  1
  Si  Si28  1  0.460396  0.385917  0.750509  1
  Si  Si29  1  0.961986  0.111869  0.748970  1
  Si  Si30  1  0.537569  0.615660  0.251305  1
  Si  Si31  1  0.037650  0.886343  0.250023  1
  Si  Si32  1  0.704236  0.863832  0.748855  1
  Si  Si33  1  0.204297  0.638883  0.750274  1
  Si  Si34  1  0.295478  0.138597  0.250077  1
  Ge  Ge35  1  0.798044  0.356790  0.250460  1
