# generated using pymatgen
data_Nd10Si2Br15
_symmetry_space_group_name_H-M   'P 1'
_cell_length_a   9.57311805
_cell_length_b   10.32086445
_cell_length_c   11.23497746
_cell_angle_alpha   90.75033218
_cell_angle_beta   114.76553699
_cell_angle_gamma   110.94728274
_symmetry_Int_Tables_number   1
_chemical_formula_structural   Nd10Si2Br15
_chemical_formula_sum   'Nd10 Si2 Br15'
_cell_volume   923.81814880
_cell_formula_units_Z   1
loop_
 _symmetry_equiv_pos_site_id
 _symmetry_equiv_pos_as_xyz
  1  'x, y, z'
loop_
 _atom_site_type_symbol
 _atom_site_label
 _atom_site_symmetry_multiplicity
 _atom_site_fract_x
 _atom_site_fract_y
 _atom_site_fract_z
 _atom_site_occupancy
  Nd  Nd0  1  0.813793  0.420087  0.281781  1
  Nd  Nd1  1  0.186207  0.579913  0.718219  1
  Nd  Nd2  1  0.684465  0.743454  0.820162  1
  Nd  Nd3  1  0.315535  0.256546  0.179838  1
  Nd  Nd4  1  0.527718  0.695093  0.104514  1
  Nd  Nd5  1  0.472282  0.304907  0.895486  1
  Nd  Nd6  1  0.591140  0.039499  0.339380  1
  Nd  Nd7  1  0.408860  0.960501  0.660620  1
  Nd  Nd8  1  0.744385  0.082272  0.053122  1
  Nd  Nd9  1  0.255615  0.917728  0.946878  1
  Si  Si10  1  0.468150  0.825114  0.880591  1
  Si  Si11  1  0.531850  0.174886  0.119409  1
  Br  Br12  1  0.000000  0.000000  0.000000  1
  Br  Br13  1  0.636721  0.881751  0.585038  1
  Br  Br14  1  0.363279  0.118249  0.414962  1
  Br  Br15  1  0.884907  0.299922  0.527655  1
  Br  Br16  1  0.115093  0.700078  0.472345  1
  Br  Br17  1  0.297941  0.764419  0.182967  1
  Br  Br18  1  0.702059  0.235581  0.817033  1
  Br  Br19  1  0.060505  0.347670  0.229964  1
  Br  Br20  1  0.170433  0.059626  0.703515  1
  Br  Br21  1  0.829567  0.940374  0.296485  1
  Br  Br22  1  0.235962  0.411392  0.945138  1
  Br  Br23  1  0.764038  0.588608  0.054862  1
  Br  Br24  1  0.406433  0.467751  0.657523  1
  Br  Br25  1  0.593567  0.532249  0.342477  1
  Br  Br26  1  0.939495  0.652330  0.770036  1
