# generated using pymatgen
data_DyHo23Ru14
_symmetry_space_group_name_H-M   'P 1'
_cell_length_a   11.29556711
_cell_length_b   8.35185284
_cell_length_c   11.21131966
_cell_angle_alpha   56.42944694
_cell_angle_beta   90.01081075
_cell_angle_gamma   90.00872422
_symmetry_Int_Tables_number   1
_chemical_formula_structural   DyHo23Ru14
_chemical_formula_sum   'Dy1 Ho23 Ru14'
_cell_volume   881.25126066
_cell_formula_units_Z   1
loop_
 _symmetry_equiv_pos_site_id
 _symmetry_equiv_pos_as_xyz
  1  'x, y, z'
loop_
 _atom_site_type_symbol
 _atom_site_label
 _atom_site_symmetry_multiplicity
 _atom_site_fract_x
 _atom_site_fract_y
 _atom_site_fract_z
 _atom_site_occupancy
  Dy  Dy0  1  0.705850  0.241048  0.531715  1
  Ho  Ho1  1  0.206300  0.758688  0.968815  1
  Ho  Ho2  1  0.845316  0.507198  0.655012  1
  Ho  Ho3  1  0.345177  0.492829  0.845055  1
  Ho  Ho4  1  0.154872  0.492835  0.345074  1
  Ho  Ho5  1  0.654725  0.507252  0.154722  1
  Ho  Ho6  1  0.006760  0.851914  0.361805  1
  Ho  Ho7  1  0.506596  0.148260  0.138025  1
  Ho  Ho8  1  0.993577  0.148291  0.638081  1
  Ho  Ho9  1  0.493265  0.851664  0.861969  1
  Ho  Ho10  1  0.793755  0.241414  0.031215  1
  Ho  Ho11  1  0.293688  0.758605  0.468841  1
  Ho  Ho12  1  0.931203  0.777047  0.090039  1
  Ho  Ho13  1  0.430772  0.222952  0.409828  1
  Ho  Ho14  1  0.068931  0.222848  0.910033  1
  Ho  Ho15  1  0.568809  0.776910  0.590079  1
  Ho  Ho16  1  0.301646  0.242508  0.675202  1
  Ho  Ho17  1  0.801734  0.757219  0.825017  1
  Ho  Ho18  1  0.698366  0.757561  0.324822  1
  Ho  Ho19  1  0.198350  0.242507  0.175124  1
  Ho  Ho20  1  0.925543  0.279620  0.293759  1
  Ho  Ho21  1  0.425412  0.720421  0.206168  1
  Ho  Ho22  1  0.074637  0.720375  0.706233  1
  Ho  Ho23  1  0.574398  0.279673  0.793998  1
  Ru  Ru24  1  0.499507  0.500593  0.499958  1
  Ru  Ru25  1  0.000042  0.499946  0.000011  1
  Ru  Ru26  1  0.648321  0.923948  0.033428  1
  Ru  Ru27  1  0.148249  0.076209  0.466419  1
  Ru  Ru28  1  0.351669  0.076083  0.966582  1
  Ru  Ru29  1  0.851881  0.923489  0.533433  1
  Ru  Ru30  1  0.398142  0.484911  0.103050  1
  Ru  Ru31  1  0.898666  0.515590  0.396696  1
  Ru  Ru32  1  0.601788  0.515121  0.896943  1
  Ru  Ru33  1  0.101848  0.484965  0.603088  1
  Ru  Ru34  1  0.820352  0.098078  0.849809  1
  Ru  Ru35  1  0.320327  0.901751  0.650486  1
  Ru  Ru36  1  0.179687  0.901753  0.150460  1
  Ru  Ru37  1  0.679839  0.097920  0.349003  1
