# generated using pymatgen
data_SrY2(NiIr2)3
_symmetry_space_group_name_H-M   'P 1'
_cell_length_a   5.37986325
_cell_length_b   5.37986409
_cell_length_c   8.85996900
_cell_angle_alpha   72.32575007
_cell_angle_beta   72.32574724
_cell_angle_gamma   60.00000625
_symmetry_Int_Tables_number   1
_chemical_formula_structural   SrY2(NiIr2)3
_chemical_formula_sum   'Sr1 Y2 Ni3 Ir6'
_cell_volume   207.98386569
_cell_formula_units_Z   1
loop_
 _symmetry_equiv_pos_site_id
 _symmetry_equiv_pos_as_xyz
  1  'x, y, z'
loop_
 _atom_site_type_symbol
 _atom_site_label
 _atom_site_symmetry_multiplicity
 _atom_site_fract_x
 _atom_site_fract_y
 _atom_site_fract_z
 _atom_site_occupancy
  Sr  Sr0  1  0.000000  0.000000  0.000000  1
  Y  Y1  1  0.139988  0.139988  0.580035  1
  Y  Y2  1  0.860012  0.860012  0.419965  1
  Ni  Ni3  1  0.332429  0.332429  0.002713  1
  Ni  Ni4  1  0.667571  0.667571  0.997287  1
  Ni  Ni5  1  0.500000  0.500000  0.500000  1
  Ir  Ir6  1  0.081935  0.582970  0.752127  1
  Ir  Ir7  1  0.582970  0.582970  0.752127  1
  Ir  Ir8  1  0.582970  0.081935  0.752127  1
  Ir  Ir9  1  0.918065  0.417030  0.247873  1
  Ir  Ir10  1  0.417030  0.417030  0.247873  1
  Ir  Ir11  1  0.417030  0.918065  0.247873  1
