# generated using pymatgen
data_Mg5Si16(IrPd4)2
_symmetry_space_group_name_H-M   'P 1'
_cell_length_a   8.91814464
_cell_length_b   8.93929055
_cell_length_c   8.92752072
_cell_angle_alpha   59.89647055
_cell_angle_beta   60.03473851
_cell_angle_gamma   60.07822195
_symmetry_Int_Tables_number   1
_chemical_formula_structural   Mg5Si16(IrPd4)2
_chemical_formula_sum   'Mg5 Si16 Ir2 Pd8'
_cell_volume   503.29429270
_cell_formula_units_Z   1
loop_
 _symmetry_equiv_pos_site_id
 _symmetry_equiv_pos_as_xyz
  1  'x, y, z'
loop_
 _atom_site_type_symbol
 _atom_site_label
 _atom_site_symmetry_multiplicity
 _atom_site_fract_x
 _atom_site_fract_y
 _atom_site_fract_z
 _atom_site_occupancy
  Mg  Mg0  1  0.197313  0.602062  0.600176  1
  Mg  Mg1  1  0.600009  0.599824  0.200157  1
  Mg  Mg2  1  0.600450  0.602062  0.600176  1
  Mg  Mg3  1  0.602219  0.195216  0.600347  1
  Mg  Mg4  1  0.250047  0.245326  0.254580  1
  Si  Si5  1  0.204541  0.663837  0.204125  1
  Si  Si6  1  0.927498  0.663837  0.204125  1
  Si  Si7  1  0.207863  0.198737  0.663756  1
  Si  Si8  1  0.660217  0.202873  0.211206  1
  Si  Si9  1  0.929644  0.198737  0.663756  1
  Si  Si10  1  0.205530  0.661978  0.926962  1
  Si  Si11  1  0.925705  0.202873  0.211206  1
  Si  Si12  1  0.662563  0.926289  0.209843  1
  Si  Si13  1  0.201305  0.926289  0.209843  1
  Si  Si14  1  0.208273  0.924721  0.658733  1
  Si  Si15  1  0.532091  0.827122  0.816233  1
  Si  Si16  1  0.824552  0.827122  0.816233  1
  Si  Si17  1  0.664808  0.202537  0.930839  1
  Si  Si18  1  0.821857  0.830717  0.525567  1
  Si  Si19  1  0.821055  0.540170  0.817719  1
  Si  Si20  1  0.201816  0.202537  0.930839  1
  Ir  Ir21  1  0.988899  0.988297  0.511449  1
  Ir  Ir22  1  0.511355  0.988297  0.511449  1
  Pd  Pd23  1  0.985815  0.513874  0.986342  1
  Pd  Pd24  1  0.379422  0.377180  0.863977  1
  Pd  Pd25  1  0.376586  0.382445  0.379294  1
  Pd  Pd26  1  0.861674  0.382445  0.379294  1
  Pd  Pd27  1  0.986801  0.513413  0.512984  1
  Pd  Pd28  1  0.513969  0.513874  0.986342  1
  Pd  Pd29  1  0.382721  0.858749  0.375808  1
  Pd  Pd30  1  0.513402  0.986559  0.986638  1
