# generated using pymatgen
data_CeThB10Rh
_symmetry_space_group_name_H-M   'P 1'
_cell_length_a   4.19305000
_cell_length_b   5.72286900
_cell_length_c   11.44192201
_cell_angle_alpha   90.02773652
_cell_angle_beta   90.00000000
_cell_angle_gamma   90.00000000
_symmetry_Int_Tables_number   1
_chemical_formula_structural   CeThB10Rh
_chemical_formula_sum   'Ce2 Th2 B20 Rh2'
_cell_volume   274.56348468
_cell_formula_units_Z   2
loop_
 _symmetry_equiv_pos_site_id
 _symmetry_equiv_pos_as_xyz
  1  'x, y, z'
loop_
 _atom_site_type_symbol
 _atom_site_label
 _atom_site_symmetry_multiplicity
 _atom_site_fract_x
 _atom_site_fract_y
 _atom_site_fract_z
 _atom_site_occupancy
  Ce  Ce0  1  0.500000  0.300306  0.864592  1
  Ce  Ce1  1  0.500000  0.699694  0.135408  1
  Th  Th2  1  0.500000  0.798680  0.637901  1
  Th  Th3  1  0.500000  0.201320  0.362099  1
  B  B4  1  0.000000  0.118293  0.543342  1
  B  B5  1  0.000000  0.881707  0.456658  1
  B  B6  1  0.000000  0.617918  0.956873  1
  B  B7  1  0.000000  0.382082  0.043127  1
  B  B8  1  0.000000  0.138598  0.698195  1
  B  B9  1  0.000000  0.861402  0.301805  1
  B  B10  1  0.302001  0.216500  0.118515  1
  B  B11  1  0.302001  0.783500  0.881485  1
  B  B12  1  0.698006  0.716774  0.380223  1
  B  B13  1  0.698006  0.283226  0.619777  1
  B  B14  1  0.697999  0.783500  0.881485  1
  B  B15  1  0.697999  0.216500  0.118515  1
  B  B16  1  0.301994  0.283226  0.619777  1
  B  B17  1  0.301994  0.716774  0.380223  1
  B  B18  1  0.000000  0.052459  0.192059  1
  B  B19  1  0.000000  0.947541  0.807941  1
  B  B20  1  0.000000  0.552879  0.306872  1
  B  B21  1  0.000000  0.447121  0.693128  1
  B  B22  1  0.000000  0.361952  0.197058  1
  B  B23  1  0.000000  0.638048  0.802942  1
  Rh  Rh24  1  0.000000  0.500000  0.500000  1
  Rh  Rh25  1  0.000000  0.000000  0.000000  1
