# generated using pymatgen
data_Tb2ErTh(Ga3Ir)6
_symmetry_space_group_name_H-M   'P 1'
_cell_length_a   7.62753851
_cell_length_b   7.63199549
_cell_length_c   9.49830800
_cell_angle_alpha   90.00000000
_cell_angle_beta   90.00000000
_cell_angle_gamma   119.76555334
_symmetry_Int_Tables_number   1
_chemical_formula_structural   Tb2ErTh(Ga3Ir)6
_chemical_formula_sum   'Tb2 Er1 Th1 Ga18 Ir6'
_cell_volume   479.97713449
_cell_formula_units_Z   1
loop_
 _symmetry_equiv_pos_site_id
 _symmetry_equiv_pos_as_xyz
  1  'x, y, z'
loop_
 _atom_site_type_symbol
 _atom_site_label
 _atom_site_symmetry_multiplicity
 _atom_site_fract_x
 _atom_site_fract_y
 _atom_site_fract_z
 _atom_site_occupancy
  Tb  Tb0  1  0.002215  0.331080  0.250000  1
  Tb  Tb1  1  0.669756  0.996979  0.750000  1
  Er  Er2  1  0.330629  0.001939  0.250000  1
  Th  Th3  1  0.996853  0.668936  0.750000  1
  Ga  Ga4  1  0.129515  0.131471  0.750000  1
  Ga  Ga5  1  0.873632  0.875159  0.250000  1
  Ga  Ga6  1  0.999741  0.329259  0.577772  1
  Ga  Ga7  1  0.001357  0.666155  0.413564  1
  Ga  Ga8  1  0.001357  0.666155  0.086436  1
  Ga  Ga9  1  0.340061  0.004493  0.922655  1
  Ga  Ga10  1  0.999741  0.329259  0.922228  1
  Ga  Ga11  1  0.664813  0.001382  0.081934  1
  Ga  Ga12  1  0.664813  0.001382  0.418066  1
  Ga  Ga13  1  0.340061  0.004493  0.577345  1
  Ga  Ga14  1  0.331340  0.330473  0.067662  1
  Ga  Ga15  1  0.663039  0.667967  0.939024  1
  Ga  Ga16  1  0.663039  0.667967  0.560976  1
  Ga  Ga17  1  0.331340  0.330473  0.432338  1
  Ga  Ga18  1  0.342021  0.546176  0.750000  1
  Ga  Ga19  1  0.658939  0.451483  0.250000  1
  Ga  Ga20  1  0.541809  0.336207  0.750000  1
  Ga  Ga21  1  0.452632  0.661582  0.250000  1
  Ir  Ir22  1  0.673684  0.331381  0.500696  1
  Ir  Ir23  1  0.326386  0.670814  0.500515  1
  Ir  Ir24  1  0.326386  0.670814  0.999485  1
  Ir  Ir25  1  0.673684  0.331381  0.999304  1
  Ir  Ir26  1  0.000576  0.997571  0.500790  1
  Ir  Ir27  1  0.000576  0.997571  0.999210  1
