# generated using pymatgen
data_YbErSbPtO7
_symmetry_space_group_name_H-M   'P 1'
_cell_length_a   7.35084704
_cell_length_b   7.29089926
_cell_length_c   7.29089903
_cell_angle_alpha   59.46444844
_cell_angle_beta   59.72150554
_cell_angle_gamma   59.72150194
_symmetry_Int_Tables_number   1
_chemical_formula_structural   YbErSbPtO7
_chemical_formula_sum   'Yb2 Er2 Sb2 Pt2 O14'
_cell_volume   274.01206406
_cell_formula_units_Z   2
loop_
 _symmetry_equiv_pos_site_id
 _symmetry_equiv_pos_as_xyz
  1  'x, y, z'
loop_
 _atom_site_type_symbol
 _atom_site_label
 _atom_site_symmetry_multiplicity
 _atom_site_fract_x
 _atom_site_fract_y
 _atom_site_fract_z
 _atom_site_occupancy
  Yb  Yb0  1  0.625010  0.624987  0.124985  1
  Yb  Yb1  1  0.625010  0.124985  0.624987  1
  Er  Er2  1  0.624963  0.625008  0.625008  1
  Er  Er3  1  0.125137  0.624874  0.624874  1
  Sb  Sb4  1  0.625008  0.124980  0.124980  1
  Sb  Sb5  1  0.124973  0.124981  0.124981  1
  Pt  Pt6  1  0.124969  0.625034  0.125073  1
  Pt  Pt7  1  0.124969  0.125073  0.625034  1
  O  O8  1  0.033437  0.466570  0.466570  1
  O  O9  1  0.789967  0.790771  0.212159  1
  O  O10  1  0.796763  0.203254  0.203254  1
  O  O11  1  0.757786  0.742235  0.742235  1
  O  O12  1  0.042840  0.459126  0.037982  1
  O  O13  1  0.460035  0.038017  0.459093  1
  O  O14  1  0.042840  0.037982  0.459126  1
  O  O15  1  0.492344  0.507684  0.507684  1
  O  O16  1  0.207088  0.212104  0.790806  1
  O  O17  1  0.207088  0.790806  0.212104  1
  O  O18  1  0.789967  0.212159  0.790771  1
  O  O19  1  0.453373  0.046648  0.046648  1
  O  O20  1  0.460035  0.459093  0.038017  1
  O  O21  1  0.216397  0.783628  0.783628  1
