# generated using pymatgen
data_TbDyTh2(NiP)4
_symmetry_space_group_name_H-M   'P 1'
_cell_length_a   3.95409200
_cell_length_b   3.95409326
_cell_length_c   15.56884900
_cell_angle_alpha   90.00000000
_cell_angle_beta   90.00000000
_cell_angle_gamma   120.00000618
_symmetry_Int_Tables_number   1
_chemical_formula_structural   TbDyTh2(NiP)4
_chemical_formula_sum   'Tb1 Dy1 Th2 Ni4 P4'
_cell_volume   210.80494265
_cell_formula_units_Z   1
loop_
 _symmetry_equiv_pos_site_id
 _symmetry_equiv_pos_as_xyz
  1  'x, y, z'
loop_
 _atom_site_type_symbol
 _atom_site_label
 _atom_site_symmetry_multiplicity
 _atom_site_fract_x
 _atom_site_fract_y
 _atom_site_fract_z
 _atom_site_occupancy
  Tb  Tb0  1  0.000000  0.000000  0.249999  1
  Dy  Dy1  1  0.000000  0.000000  0.750001  1
  Th  Th2  1  0.000000  0.000000  0.500075  1
  Th  Th3  1  0.000000  0.000000  0.999923  1
  Ni  Ni4  1  0.333333  0.666667  0.369962  1
  Ni  Ni5  1  0.666667  0.333333  0.630372  1
  Ni  Ni6  1  0.666667  0.333333  0.869622  1
  Ni  Ni7  1  0.333333  0.666667  0.130047  1
  P  P8  1  0.333333  0.666667  0.872778  1
  P  P9  1  0.666667  0.333333  0.127074  1
  P  P10  1  0.666667  0.333333  0.372926  1
  P  P11  1  0.333333  0.666667  0.627221  1
