# generated using pymatgen
data_SrCr2(Sb6Ru)2
_symmetry_space_group_name_H-M   'P 1'
_cell_length_a   8.20632198
_cell_length_b   8.24096286
_cell_length_c   8.20632173
_cell_angle_alpha   109.42274998
_cell_angle_beta   109.48001503
_cell_angle_gamma   109.34069285
_symmetry_Int_Tables_number   1
_chemical_formula_structural   SrCr2(Sb6Ru)2
_chemical_formula_sum   'Sr1 Cr2 Sb12 Ru2'
_cell_volume   428.11612426
_cell_formula_units_Z   1
loop_
 _symmetry_equiv_pos_site_id
 _symmetry_equiv_pos_as_xyz
  1  'x, y, z'
loop_
 _atom_site_type_symbol
 _atom_site_label
 _atom_site_symmetry_multiplicity
 _atom_site_fract_x
 _atom_site_fract_y
 _atom_site_fract_z
 _atom_site_occupancy
  Sr  Sr0  1  0.000000  0.000000  0.000000  1
  Cr  Cr1  1  0.500000  0.000000  0.000000  1
  Cr  Cr2  1  0.000000  0.000000  0.500000  1
  Sb  Sb3  1  0.158090  0.496602  0.338513  1
  Sb  Sb4  1  0.501572  0.653606  0.839844  1
  Sb  Sb5  1  0.337368  0.839044  0.185910  1
  Sb  Sb6  1  0.813761  0.653606  0.152034  1
  Sb  Sb7  1  0.653136  0.839044  0.501676  1
  Sb  Sb8  1  0.186239  0.346394  0.847966  1
  Sb  Sb9  1  0.662632  0.160956  0.814090  1
  Sb  Sb10  1  0.346864  0.160956  0.498324  1
  Sb  Sb11  1  0.498428  0.346394  0.160156  1
  Sb  Sb12  1  0.841910  0.503398  0.661487  1
  Sb  Sb13  1  0.845899  0.191204  0.345303  1
  Sb  Sb14  1  0.154101  0.808796  0.654697  1
  Ru  Ru15  1  0.500000  0.500000  0.500000  1
  Ru  Ru16  1  0.000000  0.500000  0.000000  1
