# generated using pymatgen
data_Ta3(TiP)4
_symmetry_space_group_name_H-M   'P 1'
_cell_length_a   7.62171725
_cell_length_b   7.62171805
_cell_length_c   13.77250079
_cell_angle_alpha   76.01666078
_cell_angle_beta   76.01665914
_cell_angle_gamma   25.75696252
_symmetry_Int_Tables_number   1
_chemical_formula_structural   Ta3(TiP)4
_chemical_formula_sum   'Ta6 Ti8 P8'
_cell_volume   336.81662789
_cell_formula_units_Z   2
loop_
 _symmetry_equiv_pos_site_id
 _symmetry_equiv_pos_as_xyz
  1  'x, y, z'
loop_
 _atom_site_type_symbol
 _atom_site_label
 _atom_site_symmetry_multiplicity
 _atom_site_fract_x
 _atom_site_fract_y
 _atom_site_fract_z
 _atom_site_occupancy
  Ta  Ta0  1  0.000000  0.000000  0.000000  1
  Ta  Ta1  1  0.500000  0.500000  0.500000  1
  Ta  Ta2  1  0.428570  0.428570  0.172233  1
  Ta  Ta3  1  0.571430  0.571430  0.827767  1
  Ta  Ta4  1  0.197370  0.197370  0.689645  1
  Ta  Ta5  1  0.802630  0.802630  0.310355  1
  Ti  Ti6  1  0.207407  0.207407  0.204577  1
  Ti  Ti7  1  0.792593  0.792593  0.795423  1
  Ti  Ti8  1  0.339299  0.339299  0.969508  1
  Ti  Ti9  1  0.660701  0.660701  0.030492  1
  Ti  Ti10  1  0.004010  0.004010  0.334852  1
  Ti  Ti11  1  0.995990  0.995990  0.665148  1
  Ti  Ti12  1  0.176548  0.176548  0.458252  1
  Ti  Ti13  1  0.823452  0.823452  0.541748  1
  P  P14  1  0.179852  0.179852  0.890979  1
  P  P15  1  0.820148  0.820148  0.109021  1
  P  P16  1  0.375171  0.375171  0.398595  1
  P  P17  1  0.624829  0.624829  0.601405  1
  P  P18  1  0.371131  0.371131  0.661588  1
  P  P19  1  0.628869  0.628869  0.338412  1
  P  P20  1  0.064924  0.064924  0.152113  1
  P  P21  1  0.935076  0.935076  0.847887  1
