# generated using pymatgen
data_Pr3Nd(Ga3Rh)6
_symmetry_space_group_name_H-M   'P 1'
_cell_length_a   7.65328505
_cell_length_b   7.65403965
_cell_length_c   9.68518200
_cell_angle_alpha   90.00000000
_cell_angle_beta   90.00000000
_cell_angle_gamma   119.57688862
_symmetry_Int_Tables_number   1
_chemical_formula_structural   Pr3Nd(Ga3Rh)6
_chemical_formula_sum   'Pr3 Nd1 Ga18 Rh6'
_cell_volume   493.41563494
_cell_formula_units_Z   1
loop_
 _symmetry_equiv_pos_site_id
 _symmetry_equiv_pos_as_xyz
  1  'x, y, z'
loop_
 _atom_site_type_symbol
 _atom_site_label
 _atom_site_symmetry_multiplicity
 _atom_site_fract_x
 _atom_site_fract_y
 _atom_site_fract_z
 _atom_site_occupancy
  Pr  Pr0  1  0.997953  0.669143  0.250000  1
  Pr  Pr1  1  0.002030  0.330847  0.750000  1
  Pr  Pr2  1  0.669176  0.997964  0.250000  1
  Nd  Nd3  1  0.330852  0.001982  0.750000  1
  Ga  Ga4  1  0.128662  0.128655  0.250000  1
  Ga  Ga5  1  0.871678  0.871480  0.750000  1
  Ga  Ga6  1  0.003293  0.334986  0.077407  1
  Ga  Ga7  1  0.996993  0.665302  0.922445  1
  Ga  Ga8  1  0.996993  0.665302  0.577555  1
  Ga  Ga9  1  0.334972  0.003263  0.422800  1
  Ga  Ga10  1  0.003293  0.334986  0.422593  1
  Ga  Ga11  1  0.664723  0.996700  0.577561  1
  Ga  Ga12  1  0.664723  0.996700  0.922439  1
  Ga  Ga13  1  0.334972  0.003263  0.077200  1
  Ga  Ga14  1  0.334509  0.334261  0.560934  1
  Ga  Ga15  1  0.665493  0.665502  0.439221  1
  Ga  Ga16  1  0.665493  0.665502  0.060779  1
  Ga  Ga17  1  0.334509  0.334261  0.939066  1
  Ga  Ga18  1  0.338296  0.544787  0.250000  1
  Ga  Ga19  1  0.661486  0.454887  0.750000  1
  Ga  Ga20  1  0.544765  0.338278  0.250000  1
  Ga  Ga21  1  0.455128  0.661932  0.750000  1
  Rh  Rh22  1  0.670681  0.329184  0.999916  1
  Rh  Rh23  1  0.329230  0.670802  0.999912  1
  Rh  Rh24  1  0.329230  0.670802  0.500088  1
  Rh  Rh25  1  0.670681  0.329184  0.500084  1
  Rh  Rh26  1  0.000094  0.000023  0.999917  1
  Rh  Rh27  1  0.000094  0.000023  0.500083  1
