# generated using pymatgen
data_SnBCl17
_symmetry_space_group_name_H-M   'P 1'
_cell_length_a   8.34205387
_cell_length_b   12.87314369
_cell_length_c   10.96593115
_cell_angle_alpha   106.38260531
_cell_angle_beta   95.74730787
_cell_angle_gamma   116.90444485
_symmetry_Int_Tables_number   1
_chemical_formula_structural   SnBCl17
_chemical_formula_sum   'Sn1 B1 Cl17'
_cell_volume   971.15557034
_cell_formula_units_Z   1
loop_
 _symmetry_equiv_pos_site_id
 _symmetry_equiv_pos_as_xyz
  1  'x, y, z'
loop_
 _atom_site_type_symbol
 _atom_site_label
 _atom_site_symmetry_multiplicity
 _atom_site_fract_x
 _atom_site_fract_y
 _atom_site_fract_z
 _atom_site_occupancy
  Sn  Sn0  1  0.953098  0.361759  0.131269  1
  B  B1  1  0.020153  0.952678  0.865120  1
  Cl  Cl2  1  0.892880  0.295958  0.903858  1
  Cl  Cl3  1  0.717665  0.217879  0.190470  1
  Cl  Cl4  1  0.617721  0.373498  0.524728  1
  Cl  Cl5  1  0.889505  0.498248  0.562947  1
  Cl  Cl6  1  0.303139  0.131993  0.507388  1
  Cl  Cl7  1  0.603021  0.682555  0.003210  1
  Cl  Cl8  1  0.471864  0.554555  0.082380  1
  Cl  Cl9  1  0.635554  0.916378  0.484835  1
  Cl  Cl10  1  0.233836  0.379111  0.220098  1
  Cl  Cl11  1  0.379705  0.778349  0.373271  1
  Cl  Cl12  1  0.241057  0.712650  0.948570  1
  Cl  Cl13  1  0.971456  0.555156  0.215187  1
  Cl  Cl14  1  0.988477  0.694124  0.946863  1
  Cl  Cl15  1  0.202412  0.055563  0.007328  1
  Cl  Cl16  1  0.022831  0.034550  0.445205  1
  Cl  Cl17  1  0.065985  0.897438  0.716412  1
  Cl  Cl18  1  0.789641  0.907560  0.870862  1
