# generated using pymatgen
data_Ce9NdSn8
_symmetry_space_group_name_H-M   'P 1'
_cell_length_a   9.58800500
_cell_length_b   9.58800347
_cell_length_c   6.52174100
_cell_angle_alpha   90.00000000
_cell_angle_beta   90.00000000
_cell_angle_gamma   119.99999493
_symmetry_Int_Tables_number   1
_chemical_formula_structural   Ce9NdSn8
_chemical_formula_sum   'Ce9 Nd1 Sn8'
_cell_volume   519.21907096
_cell_formula_units_Z   1
loop_
 _symmetry_equiv_pos_site_id
 _symmetry_equiv_pos_as_xyz
  1  'x, y, z'
loop_
 _atom_site_type_symbol
 _atom_site_label
 _atom_site_symmetry_multiplicity
 _atom_site_fract_x
 _atom_site_fract_y
 _atom_site_fract_z
 _atom_site_occupancy
  Ce  Ce0  1  0.333333  0.666667  0.000000  1
  Ce  Ce1  1  0.666667  0.333333  0.500000  1
  Ce  Ce2  1  0.666667  0.333333  0.000000  1
  Ce  Ce3  1  0.280993  0.003347  0.249113  1
  Ce  Ce4  1  0.280993  0.277646  0.750887  1
  Ce  Ce5  1  0.996653  0.719007  0.750887  1
  Ce  Ce6  1  0.996653  0.277646  0.249113  1
  Ce  Ce7  1  0.722354  0.719007  0.249113  1
  Ce  Ce8  1  0.722354  0.003347  0.750887  1
  Nd  Nd9  1  0.333333  0.666667  0.500000  1
  Sn  Sn10  1  0.000000  0.000000  0.000000  1
  Sn  Sn11  1  0.000000  0.000000  0.500000  1
  Sn  Sn12  1  0.621763  0.996730  0.251966  1
  Sn  Sn13  1  0.621763  0.625033  0.748034  1
  Sn  Sn14  1  0.003270  0.378237  0.748034  1
  Sn  Sn15  1  0.003270  0.625033  0.251966  1
  Sn  Sn16  1  0.374967  0.378237  0.251966  1
  Sn  Sn17  1  0.374967  0.996730  0.748034  1
