# generated using pymatgen
data_Dy5AsRuO12
_symmetry_space_group_name_H-M   'P 1'
_cell_length_a   6.83078313
_cell_length_b   6.83078277
_cell_length_c   7.22394240
_cell_angle_alpha   74.57827569
_cell_angle_beta   74.57827789
_cell_angle_gamma   51.12821072
_symmetry_Int_Tables_number   1
_chemical_formula_structural   Dy5AsRuO12
_chemical_formula_sum   'Dy5 As1 Ru1 O12'
_cell_volume   250.76294204
_cell_formula_units_Z   1
loop_
 _symmetry_equiv_pos_site_id
 _symmetry_equiv_pos_as_xyz
  1  'x, y, z'
loop_
 _atom_site_type_symbol
 _atom_site_label
 _atom_site_symmetry_multiplicity
 _atom_site_fract_x
 _atom_site_fract_y
 _atom_site_fract_z
 _atom_site_occupancy
  Dy  Dy0  1  0.302326  0.301647  0.359965  1
  Dy  Dy1  1  0.698353  0.697674  0.640035  1
  Dy  Dy2  1  0.307324  0.305401  0.832178  1
  Dy  Dy3  1  0.694599  0.692676  0.167822  1
  Dy  Dy4  1  0.007629  0.992371  0.500000  1
  As  As5  1  0.242301  0.757699  0.000000  1
  Ru  Ru6  1  0.752150  0.247850  0.000000  1
  O  O7  1  0.902483  0.428575  0.918158  1
  O  O8  1  0.418082  0.898438  0.919456  1
  O  O9  1  0.101562  0.581918  0.080544  1
  O  O10  1  0.571425  0.097517  0.081842  1
  O  O11  1  0.098933  0.594218  0.574123  1
  O  O12  1  0.601429  0.094921  0.575961  1
  O  O13  1  0.905079  0.398571  0.424039  1
  O  O14  1  0.405782  0.901067  0.425877  1
  O  O15  1  0.014862  0.985308  0.822820  1
  O  O16  1  0.014692  0.985138  0.177180  1
  O  O17  1  0.480323  0.519334  0.820785  1
  O  O18  1  0.480666  0.519677  0.179215  1
