# generated using pymatgen
data_YbDy4(In2Pd)2
_symmetry_space_group_name_H-M   'P 1'
_cell_length_a   3.66329000
_cell_length_b   8.11727000
_cell_length_c   18.31301600
_cell_angle_alpha   90.00000000
_cell_angle_beta   90.00000000
_cell_angle_gamma   90.00000000
_symmetry_Int_Tables_number   1
_chemical_formula_structural   YbDy4(In2Pd)2
_chemical_formula_sum   'Yb2 Dy8 In8 Pd4'
_cell_volume   544.55426919
_cell_formula_units_Z   2
loop_
 _symmetry_equiv_pos_site_id
 _symmetry_equiv_pos_as_xyz
  1  'x, y, z'
loop_
 _atom_site_type_symbol
 _atom_site_label
 _atom_site_symmetry_multiplicity
 _atom_site_fract_x
 _atom_site_fract_y
 _atom_site_fract_z
 _atom_site_occupancy
  Yb  Yb0  1  0.000000  0.500000  0.500000  1
  Yb  Yb1  1  0.000000  0.000000  0.000000  1
  Dy  Dy2  1  0.000000  0.743401  0.279562  1
  Dy  Dy3  1  0.000000  0.256599  0.720438  1
  Dy  Dy4  1  0.000000  0.756599  0.779562  1
  Dy  Dy5  1  0.000000  0.243401  0.220438  1
  Dy  Dy6  1  0.000000  0.619337  0.084181  1
  Dy  Dy7  1  0.000000  0.380663  0.915819  1
  Dy  Dy8  1  0.000000  0.880663  0.584181  1
  Dy  Dy9  1  0.000000  0.119337  0.415819  1
  In  In10  1  0.500000  0.708209  0.931593  1
  In  In11  1  0.500000  0.291791  0.068407  1
  In  In12  1  0.500000  0.791791  0.431593  1
  In  In13  1  0.500000  0.208209  0.568407  1
  In  In14  1  0.500000  0.575733  0.650024  1
  In  In15  1  0.500000  0.424267  0.349976  1
  In  In16  1  0.500000  0.924267  0.150024  1
  In  In17  1  0.500000  0.075733  0.849976  1
  Pd  Pd18  1  0.500000  0.524607  0.195770  1
  Pd  Pd19  1  0.500000  0.475393  0.804230  1
  Pd  Pd20  1  0.500000  0.975393  0.695770  1
  Pd  Pd21  1  0.500000  0.024607  0.304230  1
