# generated using pymatgen
data_Th3Pt2Rh2Au
_symmetry_space_group_name_H-M   'P 1'
_cell_length_a   7.40995730
_cell_length_b   7.40995739
_cell_length_c   3.85984300
_cell_angle_alpha   90.00000000
_cell_angle_beta   90.00000000
_cell_angle_gamma   122.96659633
_symmetry_Int_Tables_number   1
_chemical_formula_structural   Th3Pt2Rh2Au
_chemical_formula_sum   'Th3 Pt2 Rh2 Au1'
_cell_volume   177.81024505
_cell_formula_units_Z   1
loop_
 _symmetry_equiv_pos_site_id
 _symmetry_equiv_pos_as_xyz
  1  'x, y, z'
loop_
 _atom_site_type_symbol
 _atom_site_label
 _atom_site_symmetry_multiplicity
 _atom_site_fract_x
 _atom_site_fract_y
 _atom_site_fract_z
 _atom_site_occupancy
  Th  Th0  1  0.653161  0.024643  0.500000  1
  Th  Th1  1  0.024643  0.653161  0.500000  1
  Th  Th2  1  0.333011  0.333011  0.500000  1
  Pt  Pt3  1  0.338151  0.667637  0.000000  1
  Pt  Pt4  1  0.667637  0.338151  0.000000  1
  Rh  Rh5  1  0.221536  0.996046  0.000000  1
  Rh  Rh6  1  0.996046  0.221536  0.000000  1
  Au  Au7  1  0.765816  0.765816  0.000000  1
