# generated using pymatgen
data_Tb16Tm3LuPb16
_symmetry_space_group_name_H-M   'P 1'
_cell_length_a   8.19785810
_cell_length_b   8.29402451
_cell_length_c   15.67901700
_cell_angle_alpha   90.00000000
_cell_angle_beta   90.00000000
_cell_angle_gamma   89.96442422
_symmetry_Int_Tables_number   1
_chemical_formula_structural   Tb16Tm3LuPb16
_chemical_formula_sum   'Tb16 Tm3 Lu1 Pb16'
_cell_volume   1066.06689811
_cell_formula_units_Z   1
loop_
 _symmetry_equiv_pos_site_id
 _symmetry_equiv_pos_as_xyz
  1  'x, y, z'
loop_
 _atom_site_type_symbol
 _atom_site_label
 _atom_site_symmetry_multiplicity
 _atom_site_fract_x
 _atom_site_fract_y
 _atom_site_fract_z
 _atom_site_occupancy
  Tb  Tb0  1  0.376583  0.840718  0.879573  1
  Tb  Tb1  1  0.877221  0.658859  0.620468  1
  Tb  Tb2  1  0.623132  0.159189  0.379609  1
  Tb  Tb3  1  0.123185  0.340840  0.120195  1
  Tb  Tb4  1  0.623132  0.159189  0.120391  1
  Tb  Tb5  1  0.123185  0.340840  0.379805  1
  Tb  Tb6  1  0.376583  0.840718  0.620427  1
  Tb  Tb7  1  0.877221  0.658859  0.879532  1
  Tb  Tb8  1  0.533651  0.323407  0.899754  1
  Tb  Tb9  1  0.034039  0.177141  0.600216  1
  Tb  Tb10  1  0.466182  0.676810  0.399871  1
  Tb  Tb11  1  0.966143  0.823188  0.100271  1
  Tb  Tb12  1  0.466182  0.676810  0.100129  1
  Tb  Tb13  1  0.966143  0.823188  0.399729  1
  Tb  Tb14  1  0.533651  0.323407  0.600246  1
  Tb  Tb15  1  0.034039  0.177141  0.899784  1
  Tm  Tm16  1  0.708764  0.996373  0.750000  1
  Tm  Tm17  1  0.791159  0.496384  0.250000  1
  Tm  Tm18  1  0.291164  0.003740  0.250000  1
  Lu  Lu19  1  0.209071  0.503999  0.750000  1
  Pb  Pb20  1  0.281184  0.033060  0.043092  1
  Pb  Pb21  1  0.781119  0.466805  0.456930  1
  Pb  Pb22  1  0.718905  0.966902  0.543190  1
  Pb  Pb23  1  0.218819  0.532825  0.956344  1
  Pb  Pb24  1  0.718905  0.966902  0.956810  1
  Pb  Pb25  1  0.218819  0.532825  0.543656  1
  Pb  Pb26  1  0.281184  0.033060  0.456908  1
  Pb  Pb27  1  0.781119  0.466805  0.043070  1
  Pb  Pb28  1  0.571353  0.625830  0.750000  1
  Pb  Pb29  1  0.072518  0.873093  0.750000  1
  Pb  Pb30  1  0.427628  0.373597  0.250000  1
  Pb  Pb31  1  0.927683  0.126541  0.250000  1
  Pb  Pb32  1  0.345075  0.153671  0.750000  1
  Pb  Pb33  1  0.845554  0.347643  0.750000  1
  Pb  Pb34  1  0.654784  0.847322  0.250000  1
  Pb  Pb35  1  0.154929  0.652322  0.250000  1
