# generated using pymatgen
data_Tb3Lu5Tc(B8Os)3
_symmetry_space_group_name_H-M   'P 1'
_cell_length_a   3.62672800
_cell_length_b   9.07920596
_cell_length_c   11.47196809
_cell_angle_alpha   89.96094558
_cell_angle_beta   90.00000000
_cell_angle_gamma   90.00000000
_symmetry_Int_Tables_number   1
_chemical_formula_structural   Tb3Lu5Tc(B8Os)3
_chemical_formula_sum   'Tb3 Lu5 Tc1 B24 Os3'
_cell_volume   377.74670351
_cell_formula_units_Z   1
loop_
 _symmetry_equiv_pos_site_id
 _symmetry_equiv_pos_as_xyz
  1  'x, y, z'
loop_
 _atom_site_type_symbol
 _atom_site_label
 _atom_site_symmetry_multiplicity
 _atom_site_fract_x
 _atom_site_fract_y
 _atom_site_fract_z
 _atom_site_occupancy
  Tb  Tb0  1  0.000000  0.323089  0.413056  1
  Tb  Tb1  1  0.000000  0.677987  0.583922  1
  Tb  Tb2  1  0.000000  0.819799  0.087769  1
  Lu  Lu3  1  0.000000  0.178670  0.915158  1
  Lu  Lu4  1  0.000000  0.943053  0.372388  1
  Lu  Lu5  1  0.000000  0.056783  0.627638  1
  Lu  Lu6  1  0.000000  0.444449  0.127689  1
  Lu  Lu7  1  0.000000  0.556094  0.872494  1
  Tc  Tc8  1  0.000000  0.638380  0.320063  1
  B  B9  1  0.500000  0.553500  0.432502  1
  B  B10  1  0.500000  0.445631  0.568063  1
  B  B11  1  0.500000  0.054604  0.066325  1
  B  B12  1  0.500000  0.946963  0.932978  1
  B  B13  1  0.500000  0.749984  0.418694  1
  B  B14  1  0.500000  0.250135  0.581637  1
  B  B15  1  0.500000  0.249625  0.079542  1
  B  B16  1  0.500000  0.750482  0.918901  1
  B  B17  1  0.500000  0.791993  0.265901  1
  B  B18  1  0.500000  0.207643  0.735182  1
  B  B19  1  0.500000  0.291497  0.232751  1
  B  B20  1  0.500000  0.708974  0.766214  1
  B  B21  1  0.500000  0.630167  0.184913  1
  B  B22  1  0.500000  0.368387  0.816301  1
  B  B23  1  0.500000  0.130377  0.314474  1
  B  B24  1  0.500000  0.870455  0.685103  1
  B  B25  1  0.500000  0.982670  0.213105  1
  B  B26  1  0.500000  0.018867  0.787576  1
  B  B27  1  0.500000  0.481859  0.286163  1
  B  B28  1  0.500000  0.516827  0.714062  1
  B  B29  1  0.500000  0.602916  0.027844  1
  B  B30  1  0.500000  0.394768  0.970835  1
  B  B31  1  0.500000  0.103278  0.471778  1
  B  B32  1  0.500000  0.898046  0.528720  1
  Os  Os33  1  0.000000  0.360656  0.681245  1
  Os  Os34  1  0.000000  0.138189  0.178306  1
  Os  Os35  1  0.000000  0.863196  0.820707  1
