# generated using pymatgen
data_Dy5Si5Tc3P7Ir16
_symmetry_space_group_name_H-M   'P 1'
_cell_length_a   12.75775878
_cell_length_b   12.76715350
_cell_length_c   3.95723800
_cell_angle_alpha   90.00000000
_cell_angle_beta   90.00000000
_cell_angle_gamma   120.11011756
_symmetry_Int_Tables_number   1
_chemical_formula_structural   Dy5Si5Tc3P7Ir16
_chemical_formula_sum   'Dy5 Si5 Tc3 P7 Ir16'
_cell_volume   557.58142577
_cell_formula_units_Z   1
loop_
 _symmetry_equiv_pos_site_id
 _symmetry_equiv_pos_as_xyz
  1  'x, y, z'
loop_
 _atom_site_type_symbol
 _atom_site_label
 _atom_site_symmetry_multiplicity
 _atom_site_fract_x
 _atom_site_fract_y
 _atom_site_fract_z
 _atom_site_occupancy
  Dy  Dy0  1  0.333620  0.666884  0.500000  1
  Dy  Dy1  1  0.666278  0.333543  0.500000  1
  Dy  Dy2  1  0.001040  0.812640  0.000000  1
  Dy  Dy3  1  0.186309  0.186586  0.000000  1
  Dy  Dy4  1  0.812576  0.999101  0.000000  1
  Si  Si5  1  0.000993  0.633881  0.500000  1
  Si  Si6  1  0.365673  0.366938  0.500000  1
  Si  Si7  1  0.632284  0.998618  0.500000  1
  Si  Si8  1  0.519212  0.683582  0.000000  1
  Si  Si9  1  0.317603  0.835953  0.000000  1
  Tc  Tc10  1  0.998001  0.446035  0.500000  1
  Tc  Tc11  1  0.552718  0.553353  0.500000  1
  Tc  Tc12  1  0.446747  0.001186  0.500000  1
  P  P13  1  0.166655  0.481900  0.000000  1
  P  P14  1  0.481529  0.167255  0.000000  1
  P  P15  1  0.685201  0.517950  0.000000  1
  P  P16  1  0.832678  0.315024  0.000000  1
  P  P17  1  0.998678  0.177836  0.500000  1
  P  P18  1  0.821992  0.820660  0.500000  1
  P  P19  1  0.178106  0.999531  0.500000  1
  Ir  Ir20  1  0.516452  0.873913  0.000000  1
  Ir  Ir21  1  0.129421  0.639012  0.000000  1
  Ir  Ir22  1  0.355212  0.485298  0.000000  1
  Ir  Ir23  1  0.491269  0.359421  0.000000  1
  Ir  Ir24  1  0.867605  0.508220  0.000000  1
  Ir  Ir25  1  0.641358  0.133766  0.000000  1
  Ir  Ir26  1  0.998608  0.281707  0.000000  1
  Ir  Ir27  1  0.722303  0.717900  0.000000  1
  Ir  Ir28  1  0.280901  0.003065  0.000000  1
  Ir  Ir29  1  0.627847  0.803989  0.500000  1
  Ir  Ir30  1  0.195918  0.821829  0.500000  1
  Ir  Ir31  1  0.175711  0.374331  0.500000  1
  Ir  Ir32  1  0.375937  0.179909  0.500000  1
  Ir  Ir33  1  0.803075  0.622618  0.500000  1
  Ir  Ir34  1  0.820660  0.196147  0.500000  1
  Ir  Ir35  1  0.999832  0.000416  0.500000  1
