# generated using pymatgen
data_Be8TcMo3
_symmetry_space_group_name_H-M   'P 1'
_cell_length_a   4.42543500
_cell_length_b   4.42543513
_cell_length_c   7.25709400
_cell_angle_alpha   90.00000000
_cell_angle_beta   90.00000000
_cell_angle_gamma   120.00000647
_symmetry_Int_Tables_number   1
_chemical_formula_structural   Be8TcMo3
_chemical_formula_sum   'Be8 Tc1 Mo3'
_cell_volume   123.08504753
_cell_formula_units_Z   1
loop_
 _symmetry_equiv_pos_site_id
 _symmetry_equiv_pos_as_xyz
  1  'x, y, z'
loop_
 _atom_site_type_symbol
 _atom_site_label
 _atom_site_symmetry_multiplicity
 _atom_site_fract_x
 _atom_site_fract_y
 _atom_site_fract_z
 _atom_site_occupancy
  Be  Be0  1  0.000000  0.000000  0.499996  1
  Be  Be1  1  0.000000  0.000000  0.000902  1
  Be  Be2  1  0.830880  0.169120  0.250772  1
  Be  Be3  1  0.830880  0.661759  0.250772  1
  Be  Be4  1  0.338241  0.169120  0.250772  1
  Be  Be5  1  0.169207  0.830793  0.749415  1
  Be  Be6  1  0.169207  0.338416  0.749415  1
  Be  Be7  1  0.661584  0.830793  0.749415  1
  Tc  Tc8  1  0.333333  0.666667  0.437223  1
  Mo  Mo9  1  0.666667  0.333333  0.560181  1
  Mo  Mo10  1  0.666667  0.333333  0.936787  1
  Mo  Mo11  1  0.333333  0.666667  0.064350  1
