# generated using pymatgen
data_RbLuMnS3
_symmetry_space_group_name_H-M   'P 1'
_cell_length_a   7.73922945
_cell_length_b   7.73922899
_cell_length_c   10.48675500
_cell_angle_alpha   90.00000000
_cell_angle_beta   90.00000000
_cell_angle_gamma   149.99515989
_symmetry_Int_Tables_number   1
_chemical_formula_structural   RbLuMnS3
_chemical_formula_sum   'Rb2 Lu2 Mn2 S6'
_cell_volume   314.10155323
_cell_formula_units_Z   2
loop_
 _symmetry_equiv_pos_site_id
 _symmetry_equiv_pos_as_xyz
  1  'x, y, z'
loop_
 _atom_site_type_symbol
 _atom_site_label
 _atom_site_symmetry_multiplicity
 _atom_site_fract_x
 _atom_site_fract_y
 _atom_site_fract_z
 _atom_site_occupancy
  Rb  Rb0  1  0.241918  0.758081  0.250000  1
  Rb  Rb1  1  0.758081  0.241918  0.750000  1
  Lu  Lu2  1  0.499999  0.499999  0.000000  1
  Lu  Lu3  1  0.499999  0.499999  0.500000  1
  Mn  Mn4  1  0.961496  0.038503  0.250000  1
  Mn  Mn5  1  0.038503  0.961496  0.750000  1
  S  S6  1  0.884141  0.115858  0.056077  1
  S  S7  1  0.554844  0.445155  0.250000  1
  S  S8  1  0.884141  0.115858  0.443923  1
  S  S9  1  0.115858  0.884141  0.556077  1
  S  S10  1  0.445155  0.554844  0.750000  1
  S  S11  1  0.115858  0.884141  0.943924  1
