# generated using pymatgen
data_DyTm3Ir4F28
_symmetry_space_group_name_H-M   'P 1'
_cell_length_a   5.52339627
_cell_length_b   8.85144456
_cell_length_c   11.87035100
_cell_angle_alpha   62.74072710
_cell_angle_beta   90.03413398
_cell_angle_gamma   90.00573664
_symmetry_Int_Tables_number   1
_chemical_formula_structural   DyTm3Ir4F28
_chemical_formula_sum   'Dy1 Tm3 Ir4 F28'
_cell_volume   515.89077129
_cell_formula_units_Z   1
loop_
 _symmetry_equiv_pos_site_id
 _symmetry_equiv_pos_as_xyz
  1  'x, y, z'
loop_
 _atom_site_type_symbol
 _atom_site_label
 _atom_site_symmetry_multiplicity
 _atom_site_fract_x
 _atom_site_fract_y
 _atom_site_fract_z
 _atom_site_occupancy
  Dy  Dy0  1  0.740392  0.814942  0.265739  1
  Tm  Tm1  1  0.759558  0.815149  0.765631  1
  Tm  Tm2  1  0.259783  0.184974  0.734482  1
  Tm  Tm3  1  0.239531  0.187766  0.233968  1
  Ir  Ir4  1  0.757884  0.274476  0.954971  1
  Ir  Ir5  1  0.257166  0.726327  0.545869  1
  Ir  Ir6  1  0.243405  0.726437  0.042420  1
  Ir  Ir7  1  0.742446  0.271668  0.456707  1
  F  F8  1  0.445712  0.704698  0.914420  1
  F  F9  1  0.946696  0.294196  0.583908  1
  F  F10  1  0.553865  0.295415  0.082724  1
  F  F11  1  0.056071  0.704670  0.417509  1
  F  F12  1  0.444683  0.278768  0.547451  1
  F  F13  1  0.943551  0.720271  0.952786  1
  F  F14  1  0.554916  0.718906  0.456369  1
  F  F15  1  0.055321  0.280768  0.045961  1
  F  F16  1  0.768881  0.520995  0.857748  1
  F  F17  1  0.267745  0.479457  0.642856  1
  F  F18  1  0.231794  0.479251  0.140782  1
  F  F19  1  0.730152  0.518228  0.358965  1
  F  F20  1  0.757403  0.027923  0.049505  1
  F  F21  1  0.257109  0.972765  0.450407  1
  F  F22  1  0.243903  0.973651  0.947979  1
  F  F23  1  0.743311  0.024749  0.551707  1
  F  F24  1  0.967009  0.729881  0.641184  1
  F  F25  1  0.469262  0.270463  0.858684  1
  F  F26  1  0.032278  0.270004  0.360170  1
  F  F27  1  0.534230  0.728567  0.137580  1
  F  F28  1  0.047575  0.746236  0.173610  1
  F  F29  1  0.542473  0.251087  0.326565  1
  F  F30  1  0.957986  0.253435  0.825312  1
  F  F31  1  0.455812  0.747257  0.675899  1
  F  F32  1  0.415802  0.974625  0.232082  1
  F  F33  1  0.921259  0.031775  0.267939  1
  F  F34  1  0.577734  0.026923  0.767453  1
  F  F35  1  0.077302  0.973296  0.732655  1
