# generated using pymatgen
data_Pr3NdTlIn(CuRh)2
_symmetry_space_group_name_H-M   'P 1'
_cell_length_a   7.78846800
_cell_length_b   7.75668209
_cell_length_c   3.90686200
_cell_angle_alpha   90.00000000
_cell_angle_beta   90.00000000
_cell_angle_gamma   89.99125422
_symmetry_Int_Tables_number   1
_chemical_formula_structural   Pr3NdTlIn(CuRh)2
_chemical_formula_sum   'Pr3 Nd1 Tl1 In1 Cu2 Rh2'
_cell_volume   236.02396296
_cell_formula_units_Z   1
loop_
 _symmetry_equiv_pos_site_id
 _symmetry_equiv_pos_as_xyz
  1  'x, y, z'
loop_
 _atom_site_type_symbol
 _atom_site_label
 _atom_site_symmetry_multiplicity
 _atom_site_fract_x
 _atom_site_fract_y
 _atom_site_fract_z
 _atom_site_occupancy
  Pr  Pr0  1  0.689904  0.172413  0.500000  1
  Pr  Pr1  1  0.335955  0.822978  0.500000  1
  Pr  Pr2  1  0.812416  0.675470  0.500000  1
  Nd  Nd3  1  0.161193  0.320269  0.500000  1
  Tl  Tl4  1  0.494680  0.495756  0.000000  1
  In  In5  1  0.004145  0.997204  0.000000  1
  Cu  Cu6  1  0.380778  0.122419  0.000000  1
  Cu  Cu7  1  0.112280  0.629157  0.000000  1
  Rh  Rh8  1  0.888347  0.378779  0.000000  1
  Rh  Rh9  1  0.620302  0.885555  0.000000  1
