# generated using pymatgen
data_Yb2MgWN4
_symmetry_space_group_name_H-M   'P 1'
_cell_length_a   7.44554322
_cell_length_b   6.15041710
_cell_length_c   5.28850500
_cell_angle_alpha   90.00000000
_cell_angle_beta   90.00000000
_cell_angle_gamma   89.34609310
_symmetry_Int_Tables_number   1
_chemical_formula_structural   Yb2MgWN4
_chemical_formula_sum   'Yb4 Mg2 W2 N8'
_cell_volume   242.16177572
_cell_formula_units_Z   2
loop_
 _symmetry_equiv_pos_site_id
 _symmetry_equiv_pos_as_xyz
  1  'x, y, z'
loop_
 _atom_site_type_symbol
 _atom_site_label
 _atom_site_symmetry_multiplicity
 _atom_site_fract_x
 _atom_site_fract_y
 _atom_site_fract_z
 _atom_site_occupancy
  Yb  Yb0  1  0.738919  0.819332  0.698791  1
  Yb  Yb1  1  0.761081  0.180668  0.198791  1
  Yb  Yb2  1  0.024647  0.336983  0.699098  1
  Yb  Yb3  1  0.475353  0.663017  0.199098  1
  Mg  Mg4  1  0.249394  0.832989  0.716086  1
  Mg  Mg5  1  0.250606  0.167011  0.216086  1
  W  W6  1  0.005878  0.682396  0.229408  1
  W  W7  1  0.494122  0.317604  0.729408  1
  N  N8  1  0.773863  0.797547  0.153603  1
  N  N9  1  0.726137  0.202453  0.653603  1
  N  N10  1  0.200858  0.847378  0.106193  1
  N  N11  1  0.299142  0.152622  0.606193  1
  N  N12  1  0.028706  0.380637  0.155712  1
  N  N13  1  0.471294  0.619363  0.655712  1
  N  N14  1  0.017107  0.695879  0.580371  1
  N  N15  1  0.482893  0.304121  0.080371  1
