# generated using pymatgen
data_Tb5Dy5(Bi3C)2
_symmetry_space_group_name_H-M   'P 1'
_cell_length_a   9.17935905
_cell_length_b   9.18106206
_cell_length_c   6.51751100
_cell_angle_alpha   90.00000000
_cell_angle_beta   90.00000000
_cell_angle_gamma   120.00612922
_symmetry_Int_Tables_number   1
_chemical_formula_structural   Tb5Dy5(Bi3C)2
_chemical_formula_sum   'Tb5 Dy5 Bi6 C2'
_cell_volume   475.65367793
_cell_formula_units_Z   1
loop_
 _symmetry_equiv_pos_site_id
 _symmetry_equiv_pos_as_xyz
  1  'x, y, z'
loop_
 _atom_site_type_symbol
 _atom_site_label
 _atom_site_symmetry_multiplicity
 _atom_site_fract_x
 _atom_site_fract_y
 _atom_site_fract_z
 _atom_site_occupancy
  Tb  Tb0  1  0.666668  0.333328  0.000052  1
  Tb  Tb1  1  0.333332  0.666661  0.000052  1
  Tb  Tb2  1  0.333332  0.666661  0.499948  1
  Tb  Tb3  1  0.666668  0.333328  0.499948  1
  Tb  Tb4  1  0.000000  0.791085  0.250000  1
  Dy  Dy5  1  0.792550  0.792729  0.750000  1
  Dy  Dy6  1  0.207450  0.000179  0.750000  1
  Dy  Dy7  1  0.000000  0.207533  0.750000  1
  Dy  Dy8  1  0.207437  0.207495  0.250000  1
  Dy  Dy9  1  0.792563  0.000058  0.250000  1
  Bi  Bi10  1  0.401620  0.401585  0.750000  1
  Bi  Bi11  1  0.598380  0.999965  0.750000  1
  Bi  Bi12  1  0.000000  0.598445  0.750000  1
  Bi  Bi13  1  0.598044  0.598332  0.250000  1
  Bi  Bi14  1  0.401956  0.000288  0.250000  1
  Bi  Bi15  1  0.000000  0.401328  0.250000  1
  C  C16  1  0.000000  0.000501  0.999488  1
  C  C17  1  0.000000  0.000501  0.500512  1
