# generated using pymatgen
data_Ta6Si6Tc5W
_symmetry_space_group_name_H-M   'P 1'
_cell_length_a   7.56787801
_cell_length_b   7.55469884
_cell_length_c   7.55469883
_cell_angle_alpha   126.84907242
_cell_angle_beta   125.40830210
_cell_angle_gamma   79.64155211
_symmetry_Int_Tables_number   1
_chemical_formula_structural   Ta6Si6Tc5W
_chemical_formula_sum   'Ta6 Si6 Tc5 W1'
_cell_volume   272.23956893
_cell_formula_units_Z   1
loop_
 _symmetry_equiv_pos_site_id
 _symmetry_equiv_pos_as_xyz
  1  'x, y, z'
loop_
 _atom_site_type_symbol
 _atom_site_label
 _atom_site_symmetry_multiplicity
 _atom_site_fract_x
 _atom_site_fract_y
 _atom_site_fract_z
 _atom_site_occupancy
  Ta  Ta0  1  0.557630  0.097088  0.041867  1
  Ta  Ta1  1  0.442370  0.484237  0.539458  1
  Ta  Ta2  1  0.962578  0.494594  0.037055  1
  Ta  Ta3  1  0.037422  0.074477  0.532016  1
  Ta  Ta4  1  0.754759  0.911954  0.660187  1
  Ta  Ta5  1  0.245241  0.905427  0.157196  1
  Si  Si6  1  0.336139  0.824770  0.497158  1
  Si  Si7  1  0.663861  0.161017  0.488629  1
  Si  Si8  1  0.826258  0.820783  0.985899  1
  Si  Si9  1  0.173742  0.159640  0.994525  1
  Si  Si10  1  0.772063  0.535131  0.260759  1
  Si  Si11  1  0.227937  0.488696  0.763069  1
  Tc  Tc12  1  0.159495  0.751948  0.655928  1
  Tc  Tc13  1  0.840505  0.496432  0.592453  1
  Tc  Tc14  1  0.597225  0.750128  0.092422  1
  Tc  Tc15  1  0.402775  0.495196  0.152903  1
  Tc  Tc16  1  0.500000  0.245361  0.745361  1
  W  W17  1  0.000000  0.245118  0.245118  1
