# generated using pymatgen
data_YbDyPd2Pb
_symmetry_space_group_name_H-M   'P 1'
_cell_length_a   7.88625100
_cell_length_b   7.88049700
_cell_length_c   3.66530000
_cell_angle_alpha   90.00000000
_cell_angle_beta   90.00000000
_cell_angle_gamma   90.00000000
_symmetry_Int_Tables_number   1
_chemical_formula_structural   YbDyPd2Pb
_chemical_formula_sum   'Yb2 Dy2 Pd4 Pb2'
_cell_volume   227.78951525
_cell_formula_units_Z   2
loop_
 _symmetry_equiv_pos_site_id
 _symmetry_equiv_pos_as_xyz
  1  'x, y, z'
loop_
 _atom_site_type_symbol
 _atom_site_label
 _atom_site_symmetry_multiplicity
 _atom_site_fract_x
 _atom_site_fract_y
 _atom_site_fract_z
 _atom_site_occupancy
  Yb  Yb0  1  0.671377  0.172401  0.500000  1
  Yb  Yb1  1  0.171377  0.327599  0.500000  1
  Dy  Dy2  1  0.828663  0.670600  0.500000  1
  Dy  Dy3  1  0.328663  0.829400  0.500000  1
  Pd  Pd4  1  0.374228  0.124366  0.000000  1
  Pd  Pd5  1  0.126243  0.626015  0.000000  1
  Pd  Pd6  1  0.626243  0.873985  0.000000  1
  Pd  Pd7  1  0.874228  0.375634  0.000000  1
  Pb  Pb8  1  0.999489  0.001586  0.000000  1
  Pb  Pb9  1  0.499489  0.498414  0.000000  1
