# generated using pymatgen
data_Ce4Pr7Y5(CdIr)4
_symmetry_space_group_name_H-M   'P 1'
_cell_length_a   9.83430748
_cell_length_b   9.83430651
_cell_length_c   9.77257200
_cell_angle_alpha   60.20744051
_cell_angle_beta   60.20744372
_cell_angle_gamma   60.15669638
_symmetry_Int_Tables_number   1
_chemical_formula_structural   Ce4Pr7Y5(CdIr)4
_chemical_formula_sum   'Ce4 Pr7 Y5 Cd4 Ir4'
_cell_volume   671.19839921
_cell_formula_units_Z   1
loop_
 _symmetry_equiv_pos_site_id
 _symmetry_equiv_pos_as_xyz
  1  'x, y, z'
loop_
 _atom_site_type_symbol
 _atom_site_label
 _atom_site_symmetry_multiplicity
 _atom_site_fract_x
 _atom_site_fract_y
 _atom_site_fract_z
 _atom_site_occupancy
  Ce  Ce0  1  0.348102  0.348102  0.346703  1
  Ce  Ce1  1  0.348102  0.348102  0.957092  1
  Ce  Ce2  1  0.344848  0.956330  0.349410  1
  Ce  Ce3  1  0.956330  0.344848  0.349410  1
  Pr  Pr4  1  0.813591  0.813591  0.186409  1
  Pr  Pr5  1  0.943895  0.556832  0.559075  1
  Pr  Pr6  1  0.556832  0.943895  0.940198  1
  Pr  Pr7  1  0.556832  0.943895  0.559075  1
  Pr  Pr8  1  0.943895  0.556832  0.940198  1
  Pr  Pr9  1  0.559664  0.559664  0.940336  1
  Pr  Pr10  1  0.940339  0.940339  0.559661  1
  Y  Y11  1  0.812364  0.189854  0.186524  1
  Y  Y12  1  0.189854  0.812364  0.811259  1
  Y  Y13  1  0.189854  0.812364  0.186524  1
  Y  Y14  1  0.812364  0.189854  0.811259  1
  Y  Y15  1  0.185869  0.185869  0.814131  1
  Cd  Cd16  1  0.578187  0.578187  0.581110  1
  Cd  Cd17  1  0.578187  0.578187  0.262516  1
  Cd  Cd18  1  0.579712  0.262034  0.579126  1
  Cd  Cd19  1  0.262034  0.579712  0.579126  1
  Ir  Ir20  1  0.142630  0.142630  0.144633  1
  Ir  Ir21  1  0.142630  0.142630  0.570109  1
  Ir  Ir22  1  0.147403  0.566482  0.143058  1
  Ir  Ir23  1  0.566482  0.147403  0.143058  1
