# generated using pymatgen
data_TbY3HoSb3
_symmetry_space_group_name_H-M   'P 1'
_cell_length_a   9.02012300
_cell_length_b   9.02012304
_cell_length_c   6.27911300
_cell_angle_alpha   90.00000000
_cell_angle_beta   90.00000000
_cell_angle_gamma   119.99999618
_symmetry_Int_Tables_number   1
_chemical_formula_structural   TbY3HoSb3
_chemical_formula_sum   'Tb2 Y6 Ho2 Sb6'
_cell_volume   442.43947527
_cell_formula_units_Z   2
loop_
 _symmetry_equiv_pos_site_id
 _symmetry_equiv_pos_as_xyz
  1  'x, y, z'
loop_
 _atom_site_type_symbol
 _atom_site_label
 _atom_site_symmetry_multiplicity
 _atom_site_fract_x
 _atom_site_fract_y
 _atom_site_fract_z
 _atom_site_occupancy
  Tb  Tb0  1  0.666667  0.333333  0.500000  1
  Tb  Tb1  1  0.333333  0.666667  0.000000  1
  Y  Y2  1  0.000000  0.752734  0.750000  1
  Y  Y3  1  0.000000  0.247266  0.250000  1
  Y  Y4  1  0.752734  0.752734  0.250000  1
  Y  Y5  1  0.752734  0.000000  0.750000  1
  Y  Y6  1  0.247266  0.247266  0.750000  1
  Y  Y7  1  0.247266  0.000000  0.250000  1
  Ho  Ho8  1  0.333333  0.666667  0.500000  1
  Ho  Ho9  1  0.666667  0.333333  0.000000  1
  Sb  Sb10  1  0.387903  0.000000  0.750000  1
  Sb  Sb11  1  0.387903  0.387903  0.250000  1
  Sb  Sb12  1  0.000000  0.612097  0.250000  1
  Sb  Sb13  1  0.000000  0.387903  0.750000  1
  Sb  Sb14  1  0.612097  0.612097  0.750000  1
  Sb  Sb15  1  0.612097  0.000000  0.250000  1
