# generated using pymatgen
data_Ca4CdSi6Ni
_symmetry_space_group_name_H-M   'P 1'
_cell_length_a   8.34710391
_cell_length_b   8.20814903
_cell_length_c   5.99376240
_cell_angle_alpha   70.01763752
_cell_angle_beta   67.54097215
_cell_angle_gamma   42.44139373
_symmetry_Int_Tables_number   1
_chemical_formula_structural   Ca4CdSi6Ni
_chemical_formula_sum   'Ca4 Cd1 Si6 Ni1'
_cell_volume   254.92712069
_cell_formula_units_Z   1
loop_
 _symmetry_equiv_pos_site_id
 _symmetry_equiv_pos_as_xyz
  1  'x, y, z'
loop_
 _atom_site_type_symbol
 _atom_site_label
 _atom_site_symmetry_multiplicity
 _atom_site_fract_x
 _atom_site_fract_y
 _atom_site_fract_z
 _atom_site_occupancy
  Ca  Ca0  1  0.745237  0.745237  0.754763  1
  Ca  Ca1  1  0.756144  0.253074  0.746926  1
  Ca  Ca2  1  0.245237  0.245237  0.254763  1
  Ca  Ca3  1  0.253074  0.756144  0.243856  1
  Cd  Cd4  1  0.334108  0.334108  0.665892  1
  Si  Si5  1  0.824518  0.348767  0.175482  1
  Si  Si6  1  0.687372  0.156478  0.312628  1
  Si  Si7  1  0.156478  0.687372  0.843522  1
  Si  Si8  1  0.348767  0.824518  0.651233  1
  Si  Si9  1  0.156812  0.156812  0.843188  1
  Si  Si10  1  0.825909  0.825909  0.174091  1
  Ni  Ni11  1  0.666344  0.666344  0.333656  1
