# generated using pymatgen
data_NaAcB4Ir5
_symmetry_space_group_name_H-M   'P 1'
_cell_length_a   7.54225092
_cell_length_b   6.30028642
_cell_length_c   5.71771600
_cell_angle_alpha   77.57603204
_cell_angle_beta   54.66367371
_cell_angle_gamma   47.76027766
_symmetry_Int_Tables_number   1
_chemical_formula_structural   NaAcB4Ir5
_chemical_formula_sum   'Na1 Ac1 B4 Ir5'
_cell_volume   157.16038791
_cell_formula_units_Z   1
loop_
 _symmetry_equiv_pos_site_id
 _symmetry_equiv_pos_as_xyz
  1  'x, y, z'
loop_
 _atom_site_type_symbol
 _atom_site_label
 _atom_site_symmetry_multiplicity
 _atom_site_fract_x
 _atom_site_fract_y
 _atom_site_fract_z
 _atom_site_occupancy
  Na  Na0  1  0.650811  0.650812  0.349189  1
  Ac  Ac1  1  0.366612  0.366612  0.633388  1
  B  B2  1  0.287662  0.968069  0.031932  1
  B  B3  1  0.026750  0.705911  0.294089  1
  B  B4  1  0.968068  0.287662  0.712338  1
  B  B5  1  0.705911  0.026750  0.973250  1
  Ir  Ir6  1  0.001294  0.001294  0.998706  1
  Ir  Ir7  1  0.500347  0.500347  0.999653  1
  Ir  Ir8  1  0.246098  0.246098  0.253902  1
  Ir  Ir9  1  0.000347  0.000347  0.499653  1
  Ir  Ir10  1  0.746098  0.746098  0.753902  1
