# generated using pymatgen
data_Pr11Dy(Hg2Ir)4
_symmetry_space_group_name_H-M   'P 1'
_cell_length_a   13.52498118
_cell_length_b   13.52498057
_cell_length_c   3.88297200
_cell_angle_alpha   90.00000000
_cell_angle_beta   90.00000000
_cell_angle_gamma   113.46712281
_symmetry_Int_Tables_number   1
_chemical_formula_structural   Pr11Dy(Hg2Ir)4
_chemical_formula_sum   'Pr11 Dy1 Hg8 Ir4'
_cell_volume   651.54383005
_cell_formula_units_Z   1
loop_
 _symmetry_equiv_pos_site_id
 _symmetry_equiv_pos_as_xyz
  1  'x, y, z'
loop_
 _atom_site_type_symbol
 _atom_site_label
 _atom_site_symmetry_multiplicity
 _atom_site_fract_x
 _atom_site_fract_y
 _atom_site_fract_z
 _atom_site_occupancy
  Pr  Pr0  1  0.500000  0.500000  0.500000  1
  Pr  Pr1  1  0.786811  0.786811  0.500000  1
  Pr  Pr2  1  0.213189  0.213189  0.500000  1
  Pr  Pr3  1  0.592413  0.921907  0.500000  1
  Pr  Pr4  1  0.407587  0.078093  0.500000  1
  Pr  Pr5  1  0.921907  0.592413  0.500000  1
  Pr  Pr6  1  0.078093  0.407587  0.500000  1
  Pr  Pr7  1  0.139779  0.860221  0.500000  1
  Pr  Pr8  1  0.860221  0.139779  0.500000  1
  Pr  Pr9  1  0.334714  0.665286  0.500000  1
  Pr  Pr10  1  0.665286  0.334714  0.500000  1
  Dy  Dy11  1  0.000000  0.000000  0.000000  1
  Hg  Hg12  1  0.353009  0.862716  0.000000  1
  Hg  Hg13  1  0.646991  0.137284  0.000000  1
  Hg  Hg14  1  0.862716  0.353009  0.000000  1
  Hg  Hg15  1  0.137284  0.646991  0.000000  1
  Hg  Hg16  1  0.549783  0.711377  0.000000  1
  Hg  Hg17  1  0.450217  0.288623  0.000000  1
  Hg  Hg18  1  0.711377  0.549783  0.000000  1
  Hg  Hg19  1  0.288623  0.450217  0.000000  1
  Ir  Ir20  1  0.767143  0.951128  0.000000  1
  Ir  Ir21  1  0.232857  0.048872  0.000000  1
  Ir  Ir22  1  0.951128  0.767143  0.000000  1
  Ir  Ir23  1  0.048872  0.232857  0.000000  1
