# generated using pymatgen
data_SrYb7Sb12
_symmetry_space_group_name_H-M   'P 1'
_cell_length_a   6.32689100
_cell_length_b   6.61822760
_cell_length_c   14.59775400
_cell_angle_alpha   90.21957486
_cell_angle_beta   90.00000000
_cell_angle_gamma   90.00000000
_symmetry_Int_Tables_number   1
_chemical_formula_structural   SrYb7Sb12
_chemical_formula_sum   'Sr1 Yb7 Sb12'
_cell_volume   611.24441278
_cell_formula_units_Z   1
loop_
 _symmetry_equiv_pos_site_id
 _symmetry_equiv_pos_as_xyz
  1  'x, y, z'
loop_
 _atom_site_type_symbol
 _atom_site_label
 _atom_site_symmetry_multiplicity
 _atom_site_fract_x
 _atom_site_fract_y
 _atom_site_fract_z
 _atom_site_occupancy
  Sr  Sr0  1  0.438810  0.500000  0.750000  1
  Yb  Yb1  1  0.939396  0.000000  0.250000  1
  Yb  Yb2  1  0.560363  0.500000  0.250000  1
  Yb  Yb3  1  0.059195  0.000000  0.750000  1
  Yb  Yb4  1  0.749593  0.749118  0.000832  1
  Yb  Yb5  1  0.749593  0.250882  0.499168  1
  Yb  Yb6  1  0.250189  0.249828  0.000984  1
  Yb  Yb7  1  0.250189  0.750172  0.499016  1
  Sb  Sb8  1  0.750037  0.750176  0.433799  1
  Sb  Sb9  1  0.750037  0.249824  0.066201  1
  Sb  Sb10  1  0.246175  0.246620  0.562665  1
  Sb  Sb11  1  0.246175  0.753380  0.937335  1
  Sb  Sb12  1  0.421775  0.934412  0.150120  1
  Sb  Sb13  1  0.421775  0.065588  0.349880  1
  Sb  Sb14  1  0.078328  0.434220  0.349651  1
  Sb  Sb15  1  0.078328  0.565780  0.150349  1
  Sb  Sb16  1  0.580461  0.058702  0.851516  1
  Sb  Sb17  1  0.580461  0.941298  0.648484  1
  Sb  Sb18  1  0.924559  0.566953  0.648884  1
  Sb  Sb19  1  0.924559  0.433047  0.851116  1
