# generated using pymatgen
data_Eu2Th(Co3P2)3
_symmetry_space_group_name_H-M   'P 1'
_cell_length_a   3.77525500
_cell_length_b   10.68412500
_cell_length_c   12.36427100
_cell_angle_alpha   90.00000000
_cell_angle_beta   90.00000000
_cell_angle_gamma   90.00000000
_symmetry_Int_Tables_number   1
_chemical_formula_structural   Eu2Th(Co3P2)3
_chemical_formula_sum   'Eu4 Th2 Co18 P12'
_cell_volume   498.71653465
_cell_formula_units_Z   2
loop_
 _symmetry_equiv_pos_site_id
 _symmetry_equiv_pos_as_xyz
  1  'x, y, z'
loop_
 _atom_site_type_symbol
 _atom_site_label
 _atom_site_symmetry_multiplicity
 _atom_site_fract_x
 _atom_site_fract_y
 _atom_site_fract_z
 _atom_site_occupancy
  Eu  Eu0  1  0.500000  0.819155  0.205328  1
  Eu  Eu1  1  0.500000  0.180845  0.205328  1
  Eu  Eu2  1  0.000000  0.680845  0.794672  1
  Eu  Eu3  1  0.000000  0.319155  0.794672  1
  Th  Th4  1  0.000000  0.500000  0.524323  1
  Th  Th5  1  0.500000  0.000000  0.475677  1
  Co  Co6  1  0.500000  0.500000  0.155073  1
  Co  Co7  1  0.000000  0.000000  0.844927  1
  Co  Co8  1  0.500000  0.500000  0.699865  1
  Co  Co9  1  0.000000  0.000000  0.300135  1
  Co  Co10  1  0.000000  0.500000  0.990303  1
  Co  Co11  1  0.500000  0.000000  0.009697  1
  Co  Co12  1  0.500000  0.333213  0.996565  1
  Co  Co13  1  0.500000  0.666787  0.996565  1
  Co  Co14  1  0.000000  0.166787  0.003435  1
  Co  Co15  1  0.000000  0.833213  0.003435  1
  Co  Co16  1  0.500000  0.299362  0.430775  1
  Co  Co17  1  0.500000  0.700638  0.430775  1
  Co  Co18  1  0.000000  0.200638  0.569225  1
  Co  Co19  1  0.000000  0.799362  0.569225  1
  Co  Co20  1  0.500000  0.882156  0.711415  1
  Co  Co21  1  0.500000  0.117844  0.711415  1
  Co  Co22  1  0.000000  0.617844  0.288585  1
  Co  Co23  1  0.000000  0.382156  0.288585  1
  P  P24  1  0.500000  0.500000  0.887241  1
  P  P25  1  0.000000  0.000000  0.112759  1
  P  P26  1  0.500000  0.500000  0.337279  1
  P  P27  1  0.000000  0.000000  0.662721  1
  P  P28  1  0.500000  0.303119  0.616200  1
  P  P29  1  0.500000  0.696881  0.616200  1
  P  P30  1  0.000000  0.196881  0.383800  1
  P  P31  1  0.000000  0.803119  0.383800  1
  P  P32  1  0.500000  0.846010  0.894867  1
  P  P33  1  0.500000  0.153990  0.894867  1
  P  P34  1  0.000000  0.653990  0.105133  1
  P  P35  1  0.000000  0.346010  0.105133  1
