# generated using pymatgen
data_TbTm2Pa(Ga3Ir)6
_symmetry_space_group_name_H-M   'P 1'
_cell_length_a   7.61359202
_cell_length_b   7.60525113
_cell_length_c   9.43224600
_cell_angle_alpha   90.00000000
_cell_angle_beta   90.00000000
_cell_angle_gamma   119.93489392
_symmetry_Int_Tables_number   1
_chemical_formula_structural   TbTm2Pa(Ga3Ir)6
_chemical_formula_sum   'Tb1 Tm2 Pa1 Ga18 Ir6'
_cell_volume   473.29667906
_cell_formula_units_Z   1
loop_
 _symmetry_equiv_pos_site_id
 _symmetry_equiv_pos_as_xyz
  1  'x, y, z'
loop_
 _atom_site_type_symbol
 _atom_site_label
 _atom_site_symmetry_multiplicity
 _atom_site_fract_x
 _atom_site_fract_y
 _atom_site_fract_z
 _atom_site_occupancy
  Tb  Tb0  1  0.003803  0.331411  0.250000  1
  Tm  Tm1  1  0.669316  0.996586  0.750000  1
  Tm  Tm2  1  0.331203  0.002984  0.250000  1
  Pa  Pa3  1  0.997275  0.668700  0.750000  1
  Ga  Ga4  1  0.129562  0.129833  0.750000  1
  Ga  Ga5  1  0.873384  0.874113  0.250000  1
  Ga  Ga6  1  0.997913  0.330196  0.580409  1
  Ga  Ga7  1  0.002052  0.666361  0.416044  1
  Ga  Ga8  1  0.002052  0.666361  0.083956  1
  Ga  Ga9  1  0.338418  0.002073  0.919921  1
  Ga  Ga10  1  0.997913  0.330196  0.919591  1
  Ga  Ga11  1  0.665251  0.001752  0.081596  1
  Ga  Ga12  1  0.665251  0.001752  0.418404  1
  Ga  Ga13  1  0.338418  0.002073  0.580079  1
  Ga  Ga14  1  0.331573  0.330991  0.068608  1
  Ga  Ga15  1  0.664422  0.668456  0.933729  1
  Ga  Ga16  1  0.664422  0.668456  0.566271  1
  Ga  Ga17  1  0.331573  0.330991  0.431392  1
  Ga  Ga18  1  0.339606  0.545256  0.750000  1
  Ga  Ga19  1  0.660046  0.452056  0.250000  1
  Ga  Ga20  1  0.543925  0.339002  0.750000  1
  Ga  Ga21  1  0.452859  0.661513  0.250000  1
  Ir  Ir22  1  0.673709  0.331146  0.501985  1
  Ir  Ir23  1  0.326442  0.671505  0.502073  1
  Ir  Ir24  1  0.326442  0.671505  0.997927  1
  Ir  Ir25  1  0.673709  0.331146  0.998015  1
  Ir  Ir26  1  0.999732  0.996795  0.502300  1
  Ir  Ir27  1  0.999732  0.996795  0.997700  1
