# generated using pymatgen
data_Sr11Yb(GeAu)12
_symmetry_space_group_name_H-M   'P 1'
_cell_length_a   4.67564200
_cell_length_b   7.98129810
_cell_length_c   23.13014222
_cell_angle_alpha   89.98316842
_cell_angle_beta   90.00000000
_cell_angle_gamma   90.00000000
_symmetry_Int_Tables_number   1
_chemical_formula_structural   Sr11Yb(GeAu)12
_chemical_formula_sum   'Sr11 Yb1 Ge12 Au12'
_cell_volume   863.16349984
_cell_formula_units_Z   1
loop_
 _symmetry_equiv_pos_site_id
 _symmetry_equiv_pos_as_xyz
  1  'x, y, z'
loop_
 _atom_site_type_symbol
 _atom_site_label
 _atom_site_symmetry_multiplicity
 _atom_site_fract_x
 _atom_site_fract_y
 _atom_site_fract_z
 _atom_site_occupancy
  Sr  Sr0  1  0.250000  0.795834  0.166128  1
  Sr  Sr1  1  0.250000  0.784428  0.501583  1
  Sr  Sr2  1  0.250000  0.704986  0.332419  1
  Sr  Sr3  1  0.750000  0.216049  0.499100  1
  Sr  Sr4  1  0.750000  0.292473  0.668911  1
  Sr  Sr5  1  0.750000  0.280569  0.997371  1
  Sr  Sr6  1  0.250000  0.794485  0.831979  1
  Sr  Sr7  1  0.250000  0.718895  0.999482  1
  Sr  Sr8  1  0.750000  0.205799  0.167428  1
  Sr  Sr9  1  0.750000  0.295745  0.333531  1
  Sr  Sr10  1  0.250000  0.705225  0.667940  1
  Yb  Yb11  1  0.750000  0.212757  0.833986  1
  Ge  Ge12  1  0.250000  0.410658  0.892061  1
  Ge  Ge13  1  0.750000  0.919664  0.728393  1
  Ge  Ge14  1  0.750000  0.582069  0.225211  1
  Ge  Ge15  1  0.250000  0.090964  0.067787  1
  Ge  Ge16  1  0.750000  0.913121  0.928385  1
  Ge  Ge17  1  0.750000  0.916983  0.607855  1
  Ge  Ge18  1  0.250000  0.410164  0.567771  1
  Ge  Ge19  1  0.250000  0.083377  0.393344  1
  Ge  Ge20  1  0.250000  0.081655  0.274747  1
  Ge  Ge21  1  0.750000  0.590212  0.432952  1
  Ge  Ge22  1  0.250000  0.411945  0.776426  1
  Ge  Ge23  1  0.750000  0.583556  0.106026  1
  Au  Au24  1  0.750000  0.580886  0.902420  1
  Au  Au25  1  0.250000  0.417850  0.431139  1
  Au  Au26  1  0.750000  0.582364  0.569866  1
  Au  Au27  1  0.750000  0.914981  0.404479  1
  Au  Au28  1  0.250000  0.415823  0.094672  1
  Au  Au29  1  0.250000  0.415085  0.237149  1
  Au  Au30  1  0.750000  0.914940  0.262764  1
  Au  Au31  1  0.250000  0.088670  0.742296  1
  Au  Au32  1  0.250000  0.085385  0.924890  1
  Au  Au33  1  0.750000  0.918042  0.068858  1
  Au  Au34  1  0.250000  0.085104  0.595848  1
  Au  Au35  1  0.750000  0.579258  0.764800  1
