# generated using pymatgen
data_Nb6Co15Si7Rh
_symmetry_space_group_name_H-M   'P 1'
_cell_length_a   7.96566916
_cell_length_b   7.96566967
_cell_length_c   7.96566960
_cell_angle_alpha   59.89496001
_cell_angle_beta   59.89496041
_cell_angle_gamma   59.89496696
_symmetry_Int_Tables_number   1
_chemical_formula_structural   Nb6Co15Si7Rh
_chemical_formula_sum   'Nb6 Co15 Si7 Rh1'
_cell_volume   356.54608745
_cell_formula_units_Z   1
loop_
 _symmetry_equiv_pos_site_id
 _symmetry_equiv_pos_as_xyz
  1  'x, y, z'
loop_
 _atom_site_type_symbol
 _atom_site_label
 _atom_site_symmetry_multiplicity
 _atom_site_fract_x
 _atom_site_fract_y
 _atom_site_fract_z
 _atom_site_occupancy
  Nb  Nb0  1  0.201686  0.796479  0.796479  1
  Nb  Nb1  1  0.200529  0.801964  0.200529  1
  Nb  Nb2  1  0.801964  0.200529  0.200529  1
  Nb  Nb3  1  0.796479  0.201686  0.796479  1
  Nb  Nb4  1  0.796479  0.796479  0.201686  1
  Nb  Nb5  1  0.200529  0.200529  0.801964  1
  Co  Co6  1  0.498968  0.834034  0.834034  1
  Co  Co7  1  0.621029  0.621029  0.142607  1
  Co  Co8  1  0.163247  0.163247  0.504458  1
  Co  Co9  1  0.834034  0.834034  0.498968  1
  Co  Co10  1  0.167055  0.167055  0.167055  1
  Co  Co11  1  0.833406  0.833406  0.833406  1
  Co  Co12  1  0.380774  0.380774  0.857173  1
  Co  Co13  1  0.834034  0.498968  0.834034  1
  Co  Co14  1  0.619871  0.619871  0.619871  1
  Co  Co15  1  0.380774  0.857173  0.380774  1
  Co  Co16  1  0.142607  0.621029  0.621029  1
  Co  Co17  1  0.621029  0.142607  0.621029  1
  Co  Co18  1  0.163247  0.504458  0.163247  1
  Co  Co19  1  0.857173  0.380774  0.380774  1
  Co  Co20  1  0.504458  0.163247  0.163247  1
  Si  Si21  1  0.999695  0.999695  0.499205  1
  Si  Si22  1  0.500894  0.993354  0.500894  1
  Si  Si23  1  0.504193  0.504193  0.504193  1
  Si  Si24  1  0.999695  0.499205  0.999695  1
  Si  Si25  1  0.500894  0.500894  0.993354  1
  Si  Si26  1  0.499205  0.999695  0.999695  1
  Si  Si27  1  0.993354  0.500894  0.500894  1
  Rh  Rh28  1  0.382699  0.382699  0.382699  1
