# generated using pymatgen
data_La3Nd9(Si7Br3)2
_symmetry_space_group_name_H-M   'P 1'
_cell_length_a   4.09054400
_cell_length_b   11.81814037
_cell_length_c   16.62471313
_cell_angle_alpha   90.23817256
_cell_angle_beta   90.00000000
_cell_angle_gamma   90.00000000
_symmetry_Int_Tables_number   1
_chemical_formula_structural   La3Nd9(Si7Br3)2
_chemical_formula_sum   'La3 Nd9 Si14 Br6'
_cell_volume   803.67529864
_cell_formula_units_Z   1
loop_
 _symmetry_equiv_pos_site_id
 _symmetry_equiv_pos_as_xyz
  1  'x, y, z'
loop_
 _atom_site_type_symbol
 _atom_site_label
 _atom_site_symmetry_multiplicity
 _atom_site_fract_x
 _atom_site_fract_y
 _atom_site_fract_z
 _atom_site_occupancy
  La  La0  1  0.000000  0.935665  0.621691  1
  La  La1  1  0.500000  0.064006  0.119760  1
  La  La2  1  0.000000  0.935334  0.379704  1
  Nd  Nd3  1  0.500000  0.343777  0.499560  1
  Nd  Nd4  1  0.000000  0.656824  0.000091  1
  Nd  Nd5  1  0.500000  0.360732  0.757207  1
  Nd  Nd6  1  0.000000  0.639566  0.743102  1
  Nd  Nd7  1  0.500000  0.361146  0.241727  1
  Nd  Nd8  1  0.000000  0.638337  0.257761  1
  Nd  Nd9  1  0.500000  0.067137  0.880375  1
  Nd  Nd10  1  0.500000  0.356927  0.999252  1
  Nd  Nd11  1  0.000000  0.641771  0.500176  1
  Si  Si12  1  0.000000  0.153563  0.999168  1
  Si  Si13  1  0.500000  0.844579  0.500271  1
  Si  Si14  1  0.500000  0.567721  0.876393  1
  Si  Si15  1  0.000000  0.431897  0.623892  1
  Si  Si16  1  0.500000  0.568210  0.123424  1
  Si  Si17  1  0.000000  0.431338  0.375987  1
  Si  Si18  1  0.000000  0.254232  0.873073  1
  Si  Si19  1  0.500000  0.744168  0.626258  1
  Si  Si20  1  0.000000  0.255020  0.125014  1
  Si  Si21  1  0.500000  0.744265  0.374159  1
  Si  Si22  1  0.000000  0.458368  0.876932  1
  Si  Si23  1  0.500000  0.541102  0.623055  1
  Si  Si24  1  0.500000  0.540675  0.377268  1
  Si  Si25  1  0.000000  0.458957  0.122229  1
  Br  Br26  1  0.500000  0.112804  0.694851  1
  Br  Br27  1  0.000000  0.890633  0.809106  1
  Br  Br28  1  0.000000  0.142557  0.500798  1
  Br  Br29  1  0.500000  0.859150  0.997920  1
  Br  Br30  1  0.500000  0.114134  0.307492  1
  Br  Br31  1  0.000000  0.885402  0.192304  1
