# generated using pymatgen
data_Ac2Zn19Ni3
_symmetry_space_group_name_H-M   'P 1'
_cell_length_a   8.26856869
_cell_length_b   8.31664026
_cell_length_c   8.31655972
_cell_angle_alpha   100.13416395
_cell_angle_beta   99.60386024
_cell_angle_gamma   131.48746243
_symmetry_Int_Tables_number   1
_chemical_formula_structural   Ac2Zn19Ni3
_chemical_formula_sum   'Ac2 Zn19 Ni3'
_cell_volume   389.34126897
_cell_formula_units_Z   1
loop_
 _symmetry_equiv_pos_site_id
 _symmetry_equiv_pos_as_xyz
  1  'x, y, z'
loop_
 _atom_site_type_symbol
 _atom_site_label
 _atom_site_symmetry_multiplicity
 _atom_site_fract_x
 _atom_site_fract_y
 _atom_site_fract_z
 _atom_site_occupancy
  Ac  Ac0  1  0.246833  0.748849  0.498068  1
  Ac  Ac1  1  0.003167  0.001151  0.001932  1
  Zn  Zn2  1  0.888580  0.562626  0.074046  1
  Zn  Zn3  1  0.434703  0.524679  0.330392  1
  Zn  Zn4  1  0.479540  0.560074  0.672616  1
  Zn  Zn5  1  0.434780  0.104383  0.910032  1
  Zn  Zn6  1  0.770460  0.189926  0.827384  1
  Zn  Zn7  1  0.479562  0.806925  0.919457  1
  Zn  Zn8  1  0.500754  0.507284  0.993542  1
  Zn  Zn9  1  0.770438  0.943075  0.580543  1
  Zn  Zn10  1  0.749246  0.242716  0.506458  1
  Zn  Zn11  1  0.056192  0.633764  0.824213  1
  Zn  Zn12  1  0.361420  0.187374  0.425954  1
  Zn  Zn13  1  0.815220  0.645617  0.589968  1
  Zn  Zn14  1  0.888620  0.814649  0.325962  1
  Zn  Zn15  1  0.193808  0.116236  0.675787  1
  Zn  Zn16  1  0.056196  0.232014  0.422416  1
  Zn  Zn17  1  0.361380  0.935351  0.174038  1
  Zn  Zn18  1  0.815297  0.225321  0.169608  1
  Zn  Zn19  1  0.193804  0.517986  0.077584  1
  Zn  Zn20  1  0.625000  0.375000  0.250000  1
  Ni  Ni21  1  0.625000  0.875000  0.250000  1
  Ni  Ni22  1  0.125000  0.375000  0.750000  1
  Ni  Ni23  1  0.625000  0.375000  0.750000  1
