# generated using pymatgen
data_Tm3LuTh6(Ge3C)2
_symmetry_space_group_name_H-M   'P 1'
_cell_length_a   8.78526900
_cell_length_b   8.78520180
_cell_length_c   6.37125901
_cell_angle_alpha   89.99991382
_cell_angle_beta   90.00025245
_cell_angle_gamma   119.99967294
_symmetry_Int_Tables_number   1
_chemical_formula_structural   Tm3LuTh6(Ge3C)2
_chemical_formula_sum   'Tm3 Lu1 Th6 Ge6 C2'
_cell_volume   425.85733245
_cell_formula_units_Z   1
loop_
 _symmetry_equiv_pos_site_id
 _symmetry_equiv_pos_as_xyz
  1  'x, y, z'
loop_
 _atom_site_type_symbol
 _atom_site_label
 _atom_site_symmetry_multiplicity
 _atom_site_fract_x
 _atom_site_fract_y
 _atom_site_fract_z
 _atom_site_occupancy
  Tm  Tm0  1  0.666670  0.333336  0.500002  1
  Tm  Tm1  1  0.333334  0.666663  0.500004  1
  Tm  Tm2  1  0.333328  0.666667  0.999997  1
  Lu  Lu3  1  0.666669  0.333329  0.999996  1
  Th  Th4  1  0.767728  0.767630  0.249878  1
  Th  Th5  1  0.232363  0.000082  0.249880  1
  Th  Th6  1  0.999911  0.232277  0.249879  1
  Th  Th7  1  0.232362  0.232280  0.750126  1
  Th  Th8  1  0.767731  0.000099  0.750121  1
  Th  Th9  1  0.999911  0.767639  0.750125  1
  Ge  Ge10  1  0.403760  0.403440  0.249741  1
  Ge  Ge11  1  0.596555  0.000315  0.249741  1
  Ge  Ge12  1  0.999683  0.596221  0.249749  1
  Ge  Ge13  1  0.596563  0.596241  0.750263  1
  Ge  Ge14  1  0.403752  0.000317  0.750264  1
  Ge  Ge15  1  0.999682  0.403463  0.750247  1
  C  C16  1  0.999998  0.000002  0.499966  1
  C  C17  1  0.000000  0.999998  0.000021  1
