# generated using pymatgen
data_TbCo3P3RuRh
_symmetry_space_group_name_H-M   'P 1'
_cell_length_a   3.75710700
_cell_length_b   10.47165500
_cell_length_c   12.04152900
_cell_angle_alpha   90.00000000
_cell_angle_beta   90.00000000
_cell_angle_gamma   90.00000000
_symmetry_Int_Tables_number   1
_chemical_formula_structural   TbCo3P3RuRh
_chemical_formula_sum   'Tb4 Co12 P12 Ru4 Rh4'
_cell_volume   473.75142040
_cell_formula_units_Z   4
loop_
 _symmetry_equiv_pos_site_id
 _symmetry_equiv_pos_as_xyz
  1  'x, y, z'
loop_
 _atom_site_type_symbol
 _atom_site_label
 _atom_site_symmetry_multiplicity
 _atom_site_fract_x
 _atom_site_fract_y
 _atom_site_fract_z
 _atom_site_occupancy
  Tb  Tb0  1  0.250000  0.585702  0.709971  1
  Tb  Tb1  1  0.250000  0.914298  0.209971  1
  Tb  Tb2  1  0.750000  0.414298  0.290029  1
  Tb  Tb3  1  0.750000  0.085702  0.790029  1
  Co  Co4  1  0.250000  0.222994  0.177845  1
  Co  Co5  1  0.250000  0.277006  0.677845  1
  Co  Co6  1  0.750000  0.777006  0.822155  1
  Co  Co7  1  0.750000  0.722994  0.322155  1
  Co  Co8  1  0.250000  0.883976  0.698617  1
  Co  Co9  1  0.250000  0.616024  0.198617  1
  Co  Co10  1  0.750000  0.116024  0.301383  1
  Co  Co11  1  0.750000  0.383976  0.801383  1
  Co  Co12  1  0.250000  0.463572  0.933164  1
  Co  Co13  1  0.250000  0.036428  0.433164  1
  Co  Co14  1  0.750000  0.536428  0.066836  1
  Co  Co15  1  0.750000  0.963572  0.566836  1
  P  P16  1  0.250000  0.421682  0.111045  1
  P  P17  1  0.250000  0.078318  0.611045  1
  P  P18  1  0.750000  0.578318  0.888955  1
  P  P19  1  0.750000  0.921682  0.388955  1
  P  P20  1  0.250000  0.275326  0.862895  1
  P  P21  1  0.250000  0.224674  0.362895  1
  P  P22  1  0.750000  0.724674  0.137105  1
  P  P23  1  0.750000  0.775326  0.637105  1
  P  P24  1  0.250000  0.605017  0.381331  1
  P  P25  1  0.250000  0.894983  0.881331  1
  P  P26  1  0.750000  0.394983  0.618669  1
  P  P27  1  0.750000  0.105017  0.118669  1
  Ru  Ru28  1  0.250000  0.708942  0.985271  1
  Ru  Ru29  1  0.250000  0.791058  0.485271  1
  Ru  Ru30  1  0.750000  0.291058  0.014729  1
  Ru  Ru31  1  0.750000  0.208942  0.514729  1
  Rh  Rh32  1  0.250000  0.404993  0.483175  1
  Rh  Rh33  1  0.250000  0.095007  0.983175  1
  Rh  Rh34  1  0.750000  0.595007  0.516825  1
  Rh  Rh35  1  0.750000  0.904993  0.016825  1
