# generated using pymatgen
data_Ba3(BSe3)2
_symmetry_space_group_name_H-M   'P 1'
_cell_length_a   6.70789303
_cell_length_b   6.70789264
_cell_length_c   17.00173719
_cell_angle_alpha   80.68483139
_cell_angle_beta   80.68483202
_cell_angle_gamma   65.19658546
_symmetry_Int_Tables_number   1
_chemical_formula_structural   Ba3(BSe3)2
_chemical_formula_sum   'Ba6 B4 Se12'
_cell_volume   681.49921200
_cell_formula_units_Z   2
loop_
 _symmetry_equiv_pos_site_id
 _symmetry_equiv_pos_as_xyz
  1  'x, y, z'
loop_
 _atom_site_type_symbol
 _atom_site_label
 _atom_site_symmetry_multiplicity
 _atom_site_fract_x
 _atom_site_fract_y
 _atom_site_fract_z
 _atom_site_occupancy
  Ba  Ba0  1  0.351540  0.323673  0.086890  1
  Ba  Ba1  1  0.676327  0.648460  0.413110  1
  Ba  Ba2  1  0.648460  0.676327  0.913110  1
  Ba  Ba3  1  0.323673  0.351540  0.586890  1
  Ba  Ba4  1  0.019206  0.980794  0.250000  1
  Ba  Ba5  1  0.980794  0.019206  0.750000  1
  B  B6  1  0.743264  0.533407  0.135075  1
  B  B7  1  0.466593  0.256736  0.364925  1
  B  B8  1  0.256736  0.466593  0.864925  1
  B  B9  1  0.533407  0.743264  0.635075  1
  Se  Se10  1  0.872682  0.277831  0.070608  1
  Se  Se11  1  0.722169  0.127318  0.429392  1
  Se  Se12  1  0.527842  0.914777  0.719520  1
  Se  Se13  1  0.085223  0.472158  0.780480  1
  Se  Se14  1  0.472158  0.085223  0.280480  1
  Se  Se15  1  0.914777  0.527842  0.219520  1
  Se  Se16  1  0.766987  0.455416  0.607974  1
  Se  Se17  1  0.544584  0.233013  0.892026  1
  Se  Se18  1  0.233013  0.544584  0.392026  1
  Se  Se19  1  0.455416  0.766987  0.107974  1
  Se  Se20  1  0.277831  0.872682  0.570608  1
  Se  Se21  1  0.127318  0.722169  0.929392  1
