# generated using pymatgen
data_Lu3Sc7(In2Au)4
_symmetry_space_group_name_H-M   'P 1'
_cell_length_a   3.52606300
_cell_length_b   7.87038501
_cell_length_c   17.79623149
_cell_angle_alpha   89.93567753
_cell_angle_beta   90.00000000
_cell_angle_gamma   90.00000000
_symmetry_Int_Tables_number   1
_chemical_formula_structural   Lu3Sc7(In2Au)4
_chemical_formula_sum   'Lu3 Sc7 In8 Au4'
_cell_volume   493.87133295
_cell_formula_units_Z   1
loop_
 _symmetry_equiv_pos_site_id
 _symmetry_equiv_pos_as_xyz
  1  'x, y, z'
loop_
 _atom_site_type_symbol
 _atom_site_label
 _atom_site_symmetry_multiplicity
 _atom_site_fract_x
 _atom_site_fract_y
 _atom_site_fract_z
 _atom_site_occupancy
  Lu  Lu0  1  0.000000  0.756668  0.784711  1
  Lu  Lu1  1  0.000000  0.244816  0.216552  1
  Lu  Lu2  1  0.000000  0.256158  0.715261  1
  Sc  Sc3  1  0.000000  0.999716  0.001029  1
  Sc  Sc4  1  0.000000  0.500893  0.499386  1
  Sc  Sc5  1  0.000000  0.743844  0.283987  1
  Sc  Sc6  1  0.000000  0.875496  0.576901  1
  Sc  Sc7  1  0.000000  0.124818  0.420332  1
  Sc  Sc8  1  0.000000  0.375168  0.922182  1
  Sc  Sc9  1  0.000000  0.623616  0.079656  1
  In  In10  1  0.500000  0.793351  0.435722  1
  In  In11  1  0.500000  0.205376  0.560194  1
  In  In12  1  0.500000  0.294465  0.061985  1
  In  In13  1  0.500000  0.704797  0.940009  1
  In  In14  1  0.500000  0.919067  0.146102  1
  In  In15  1  0.500000  0.078044  0.856298  1
  In  In16  1  0.500000  0.426707  0.355266  1
  In  In17  1  0.500000  0.578580  0.643594  1
  Au  Au18  1  0.500000  0.963090  0.693329  1
  Au  Au19  1  0.500000  0.031477  0.305204  1
  Au  Au20  1  0.500000  0.463327  0.805986  1
  Au  Au21  1  0.500000  0.540527  0.196312  1
