# generated using pymatgen
data_AcSm(BiTe)2
_symmetry_space_group_name_H-M   'P 1'
_cell_length_a   4.46158100
_cell_length_b   4.46158100
_cell_length_c   9.84445200
_cell_angle_alpha   90.00000000
_cell_angle_beta   90.00000000
_cell_angle_gamma   90.00000000
_symmetry_Int_Tables_number   1
_chemical_formula_structural   AcSm(BiTe)2
_chemical_formula_sum   'Ac1 Sm1 Bi2 Te2'
_cell_volume   195.96075759
_cell_formula_units_Z   1
loop_
 _symmetry_equiv_pos_site_id
 _symmetry_equiv_pos_as_xyz
  1  'x, y, z'
loop_
 _atom_site_type_symbol
 _atom_site_label
 _atom_site_symmetry_multiplicity
 _atom_site_fract_x
 _atom_site_fract_y
 _atom_site_fract_z
 _atom_site_occupancy
  Ac  Ac0  1  0.000000  0.500000  0.716006  1
  Sm  Sm1  1  0.500000  0.000000  0.283044  1
  Bi  Bi2  1  0.000000  0.000000  0.010301  1
  Bi  Bi3  1  0.500000  0.500000  0.010301  1
  Te  Te4  1  0.000000  0.500000  0.366883  1
  Te  Te5  1  0.500000  0.000000  0.613464  1
