# generated using pymatgen
data_Yb2DyTh5(Pt2Pb)4
_symmetry_space_group_name_H-M   'P 1'
_cell_length_a   8.08755887
_cell_length_b   8.09446479
_cell_length_c   7.36135700
_cell_angle_alpha   90.00000000
_cell_angle_beta   90.00000000
_cell_angle_gamma   90.24937540
_symmetry_Int_Tables_number   1
_chemical_formula_structural   Yb2DyTh5(Pt2Pb)4
_chemical_formula_sum   'Yb2 Dy1 Th5 Pt8 Pb4'
_cell_volume   481.90269997
_cell_formula_units_Z   1
loop_
 _symmetry_equiv_pos_site_id
 _symmetry_equiv_pos_as_xyz
  1  'x, y, z'
loop_
 _atom_site_type_symbol
 _atom_site_label
 _atom_site_symmetry_multiplicity
 _atom_site_fract_x
 _atom_site_fract_y
 _atom_site_fract_z
 _atom_site_occupancy
  Yb  Yb0  1  0.663707  0.663942  0.500000  1
  Yb  Yb1  1  0.160052  0.838805  0.000000  1
  Dy  Dy2  1  0.840838  0.157170  0.000000  1
  Th  Th3  1  0.676512  0.676850  0.000000  1
  Th  Th4  1  0.341152  0.341330  0.500000  1
  Th  Th5  1  0.824409  0.173475  0.500000  1
  Th  Th6  1  0.324829  0.325597  0.000000  1
  Th  Th7  1  0.173377  0.824905  0.500000  1
  Pt  Pt8  1  0.872608  0.875833  0.737082  1
  Pt  Pt9  1  0.130157  0.131588  0.736447  1
  Pt  Pt10  1  0.629577  0.367506  0.768444  1
  Pt  Pt11  1  0.629577  0.367506  0.231556  1
  Pt  Pt12  1  0.370827  0.624980  0.235107  1
  Pt  Pt13  1  0.130157  0.131588  0.263553  1
  Pt  Pt14  1  0.872608  0.875833  0.262918  1
  Pt  Pt15  1  0.370827  0.624980  0.764893  1
  Pb  Pb16  1  0.499619  0.993711  0.752298  1
  Pb  Pb17  1  0.499619  0.993711  0.247702  1
  Pb  Pb18  1  0.994776  0.505345  0.751096  1
  Pb  Pb19  1  0.994776  0.505345  0.248904  1
