# generated using pymatgen
data_PrTmPa2(Al8Pt3)3
_symmetry_space_group_name_H-M   'P 1'
_cell_length_a   7.57663924
_cell_length_b   7.58335323
_cell_length_c   13.14173927
_cell_angle_alpha   84.49757636
_cell_angle_beta   78.91651490
_cell_angle_gamma   59.91137590
_symmetry_Int_Tables_number   1
_chemical_formula_structural   PrTmPa2(Al8Pt3)3
_chemical_formula_sum   'Pr1 Tm1 Pa2 Al24 Pt9'
_cell_volume   641.14441067
_cell_formula_units_Z   1
loop_
 _symmetry_equiv_pos_site_id
 _symmetry_equiv_pos_as_xyz
  1  'x, y, z'
loop_
 _atom_site_type_symbol
 _atom_site_label
 _atom_site_symmetry_multiplicity
 _atom_site_fract_x
 _atom_site_fract_y
 _atom_site_fract_z
 _atom_site_occupancy
  Pr  Pr0  1  0.732934  0.498230  0.810286  1
  Tm  Tm1  1  0.265428  0.501244  0.193633  1
  Pa  Pa2  1  0.395690  0.167997  0.804033  1
  Pa  Pa3  1  0.604077  0.832322  0.196057  1
  Al  Al4  1  0.683302  0.835878  0.947434  1
  Al  Al5  1  0.316141  0.166955  0.056288  1
  Al  Al6  1  0.146027  0.832612  0.560042  1
  Al  Al7  1  0.854865  0.166898  0.437971  1
  Al  Al8  1  0.480909  0.167898  0.557004  1
  Al  Al9  1  0.519399  0.832272  0.441460  1
  Al  Al10  1  0.214227  0.168612  0.330405  1
  Al  Al11  1  0.786993  0.832024  0.665890  1
  Al  Al12  1  0.437742  0.509558  0.667059  1
  Al  Al13  1  0.562796  0.490196  0.329395  1
  Al  Al14  1  0.109474  0.158800  0.665094  1
  Al  Al15  1  0.892932  0.840256  0.331344  1
  Al  Al16  1  0.349815  0.499678  0.946395  1
  Al  Al17  1  0.644284  0.501427  0.059775  1
  Al  Al18  1  0.016482  0.166069  0.955438  1
  Al  Al19  1  0.983894  0.831522  0.049651  1
  Al  Al20  1  0.186139  0.500307  0.440349  1
  Al  Al21  1  0.814925  0.499568  0.557538  1
  Al  Al22  1  0.736462  0.161938  0.183139  1
  Al  Al23  1  0.260200  0.841574  0.817060  1
  Al  Al24  1  0.066149  0.630247  0.815807  1
  Al  Al25  1  0.938357  0.368801  0.184184  1
  Al  Al26  1  0.854283  0.036566  0.816777  1
  Al  Al27  1  0.145184  0.959518  0.183221  1
  Pt  Pt28  1  0.122377  0.491034  0.638398  1
  Pt  Pt29  1  0.879975  0.509560  0.359580  1
  Pt  Pt30  1  0.656411  0.172723  0.001160  1
  Pt  Pt31  1  0.342228  0.827772  0.000995  1
  Pt  Pt32  1  0.537008  0.166409  0.359788  1
  Pt  Pt33  1  0.461755  0.835129  0.638247  1
  Pt  Pt34  1  0.778564  0.173630  0.637215  1
  Pt  Pt35  1  0.222916  0.823962  0.360571  1
  Pt  Pt36  1  0.999658  0.500815  0.001319  1
