# generated using pymatgen
data_Yb8Re3Si16Mo9
_symmetry_space_group_name_H-M   'P 1'
_cell_length_a   6.70418001
_cell_length_b   6.89445811
_cell_length_c   12.96971600
_cell_angle_alpha   90.00000000
_cell_angle_beta   90.00000000
_cell_angle_gamma   89.99352553
_symmetry_Int_Tables_number   1
_chemical_formula_structural   Yb8Re3Si16Mo9
_chemical_formula_sum   'Yb8 Re3 Si16 Mo9'
_cell_volume   599.48216566
_cell_formula_units_Z   1
loop_
 _symmetry_equiv_pos_site_id
 _symmetry_equiv_pos_as_xyz
  1  'x, y, z'
loop_
 _atom_site_type_symbol
 _atom_site_label
 _atom_site_symmetry_multiplicity
 _atom_site_fract_x
 _atom_site_fract_y
 _atom_site_fract_z
 _atom_site_occupancy
  Yb  Yb0  1  0.497916  0.333880  0.090130  1
  Yb  Yb1  1  0.997430  0.166541  0.409732  1
  Yb  Yb2  1  0.503029  0.665258  0.590675  1
  Yb  Yb3  1  0.002856  0.835250  0.909402  1
  Yb  Yb4  1  0.503029  0.665258  0.909325  1
  Yb  Yb5  1  0.002856  0.835250  0.590598  1
  Yb  Yb6  1  0.497916  0.333880  0.409870  1
  Yb  Yb7  1  0.997430  0.166541  0.090268  1
  Re  Re8  1  0.663368  0.002630  0.750000  1
  Re  Re9  1  0.163842  0.497729  0.750000  1
  Re  Re10  1  0.337153  0.993749  0.250000  1
  Si  Si11  1  0.658421  0.042818  0.547390  1
  Si  Si12  1  0.157855  0.457395  0.952050  1
  Si  Si13  1  0.340865  0.955945  0.046117  1
  Si  Si14  1  0.841715  0.543348  0.455288  1
  Si  Si15  1  0.340865  0.955945  0.453883  1
  Si  Si16  1  0.841715  0.543348  0.044712  1
  Si  Si17  1  0.658421  0.042818  0.952610  1
  Si  Si18  1  0.157855  0.457395  0.547950  1
  Si  Si19  1  0.531963  0.369455  0.750000  1
  Si  Si20  1  0.032254  0.130490  0.750000  1
  Si  Si21  1  0.465478  0.628579  0.250000  1
  Si  Si22  1  0.968621  0.874059  0.250000  1
  Si  Si23  1  0.805220  0.635024  0.750000  1
  Si  Si24  1  0.305064  0.865290  0.750000  1
  Si  Si25  1  0.199066  0.365017  0.250000  1
  Si  Si26  1  0.695365  0.131524  0.250000  1
  Mo  Mo27  1  0.831719  0.333562  0.628260  1
  Mo  Mo28  1  0.331505  0.166008  0.872430  1
  Mo  Mo29  1  0.166935  0.667056  0.127288  1
  Mo  Mo30  1  0.666756  0.832391  0.372903  1
  Mo  Mo31  1  0.166935  0.667056  0.372712  1
  Mo  Mo32  1  0.666756  0.832391  0.127097  1
  Mo  Mo33  1  0.831719  0.333562  0.871740  1
  Mo  Mo34  1  0.331505  0.166008  0.627570  1
  Mo  Mo35  1  0.838602  0.507552  0.250000  1
