# generated using pymatgen
data_Tb4Er8GaNi4Sn
_symmetry_space_group_name_H-M   'P 1'
_cell_length_a   8.31618931
_cell_length_b   8.33027836
_cell_length_c   8.31618882
_cell_angle_alpha   105.90886157
_cell_angle_beta   109.66716185
_cell_angle_gamma   112.84341988
_symmetry_Int_Tables_number   1
_chemical_formula_structural   Tb4Er8GaNi4Sn
_chemical_formula_sum   'Tb4 Er8 Ga1 Ni4 Sn1'
_cell_volume   442.24280116
_cell_formula_units_Z   1
loop_
 _symmetry_equiv_pos_site_id
 _symmetry_equiv_pos_as_xyz
  1  'x, y, z'
loop_
 _atom_site_type_symbol
 _atom_site_label
 _atom_site_symmetry_multiplicity
 _atom_site_fract_x
 _atom_site_fract_y
 _atom_site_fract_z
 _atom_site_occupancy
  Tb  Tb0  1  0.607365  0.789483  0.818484  1
  Tb  Tb1  1  0.970998  0.789483  0.182118  1
  Tb  Tb2  1  0.029002  0.210517  0.817882  1
  Tb  Tb3  1  0.392635  0.210517  0.181516  1
  Er  Er4  1  0.697741  0.272177  0.969826  1
  Er  Er5  1  0.302259  0.727823  0.030174  1
  Er  Er6  1  0.697648  0.727823  0.425565  1
  Er  Er7  1  0.302352  0.272177  0.574435  1
  Er  Er8  1  0.810290  0.133901  0.323612  1
  Er  Er9  1  0.809754  0.485604  0.675849  1
  Er  Er10  1  0.189710  0.866099  0.676388  1
  Er  Er11  1  0.190246  0.514396  0.324151  1
  Ga  Ga12  1  0.500000  0.500000  0.000000  1
  Ni  Ni13  1  0.851908  0.500000  0.351908  1
  Ni  Ni14  1  0.148092  0.500000  0.648092  1
  Ni  Ni15  1  0.002109  0.127166  0.125057  1
  Ni  Ni16  1  0.997891  0.872834  0.874943  1
  Sn  Sn17  1  0.500000  0.000000  0.500000  1
