# generated using pymatgen
data_LaScP7Ru11Rh
_symmetry_space_group_name_H-M   'P 1'
_cell_length_a   9.42500608
_cell_length_b   9.47359858
_cell_length_c   3.93768600
_cell_angle_alpha   90.00000000
_cell_angle_beta   90.00000000
_cell_angle_gamma   119.72356295
_symmetry_Int_Tables_number   1
_chemical_formula_structural   LaScP7Ru11Rh
_chemical_formula_sum   'La1 Sc1 P7 Ru11 Rh1'
_cell_volume   305.33132210
_cell_formula_units_Z   1
loop_
 _symmetry_equiv_pos_site_id
 _symmetry_equiv_pos_as_xyz
  1  'x, y, z'
loop_
 _atom_site_type_symbol
 _atom_site_label
 _atom_site_symmetry_multiplicity
 _atom_site_fract_x
 _atom_site_fract_y
 _atom_site_fract_z
 _atom_site_occupancy
  La  La0  1  0.331951  0.663370  0.000000  1
  Sc  Sc1  1  0.669000  0.334861  0.500000  1
  P  P2  1  0.606001  0.713041  0.500000  1
  P  P3  1  0.997783  0.999473  0.000000  1
  P  P4  1  0.278070  0.886102  0.500000  1
  P  P5  1  0.112027  0.394031  0.500000  1
  P  P6  1  0.886072  0.572368  0.000000  1
  P  P7  1  0.430647  0.313665  0.000000  1
  P  P8  1  0.690931  0.120072  0.000000  1
  Ru  Ru9  1  0.395906  0.436772  0.500000  1
  Ru  Ru10  1  0.911845  0.121237  0.500000  1
  Ru  Ru11  1  0.206743  0.086660  0.500000  1
  Ru  Ru12  1  0.880966  0.797038  0.500000  1
  Ru  Ru13  1  0.724946  0.891740  0.000000  1
  Ru  Ru14  1  0.109416  0.838099  0.000000  1
  Ru  Ru15  1  0.162910  0.269884  0.000000  1
  Ru  Ru16  1  0.428214  0.072821  0.000000  1
  Ru  Ru17  1  0.929629  0.355634  0.000000  1
  Ru  Ru18  1  0.647393  0.575416  0.000000  1
  Ru  Ru19  1  0.043014  0.604165  0.500000  1
  Rh  Rh20  1  0.556537  0.953550  0.500000  1
