# generated using pymatgen
data_Cs2Ce3OF12
_symmetry_space_group_name_H-M   'P 1'
_cell_length_a   11.46150046
_cell_length_b   11.46150089
_cell_length_c   11.46150000
_cell_angle_alpha   42.65142448
_cell_angle_beta   42.65142214
_cell_angle_gamma   42.65141735
_symmetry_Int_Tables_number   1
_chemical_formula_structural   Cs2Ce3OF12
_chemical_formula_sum   'Cs4 Ce6 O2 F24'
_cell_volume   626.04008835
_cell_formula_units_Z   2
loop_
 _symmetry_equiv_pos_site_id
 _symmetry_equiv_pos_as_xyz
  1  'x, y, z'
loop_
 _atom_site_type_symbol
 _atom_site_label
 _atom_site_symmetry_multiplicity
 _atom_site_fract_x
 _atom_site_fract_y
 _atom_site_fract_z
 _atom_site_occupancy
  Cs  Cs0  1  0.000000  0.000000  0.000000  1
  Cs  Cs1  1  0.500000  0.500000  0.500000  1
  Cs  Cs2  1  0.135378  0.135378  0.135378  1
  Cs  Cs3  1  0.864622  0.864622  0.864622  1
  Ce  Ce4  1  0.577358  0.577358  0.032460  1
  Ce  Ce5  1  0.032460  0.577358  0.577358  1
  Ce  Ce6  1  0.577358  0.032460  0.577358  1
  Ce  Ce7  1  0.422642  0.967540  0.422642  1
  Ce  Ce8  1  0.967540  0.422642  0.422642  1
  Ce  Ce9  1  0.422642  0.422642  0.967540  1
  O  O10  1  0.284938  0.284938  0.284938  1
  O  O11  1  0.715062  0.715062  0.715062  1
  F  F12  1  0.369007  0.702539  0.702539  1
  F  F13  1  0.702539  0.369007  0.702539  1
  F  F14  1  0.702539  0.702539  0.369007  1
  F  F15  1  0.630993  0.297461  0.297461  1
  F  F16  1  0.297461  0.630993  0.297461  1
  F  F17  1  0.297461  0.297461  0.630993  1
  F  F18  1  0.088865  0.592348  0.088865  1
  F  F19  1  0.088865  0.088865  0.592348  1
  F  F20  1  0.000000  0.352069  0.647931  1
  F  F21  1  0.352069  0.647931  0.000000  1
  F  F22  1  0.647931  0.000000  0.352069  1
  F  F23  1  0.000000  0.647931  0.352069  1
  F  F24  1  0.647931  0.352069  0.000000  1
  F  F25  1  0.352069  0.000000  0.647931  1
  F  F26  1  0.083007  0.654479  0.654479  1
  F  F27  1  0.654479  0.654479  0.083007  1
  F  F28  1  0.654479  0.083007  0.654479  1
  F  F29  1  0.345521  0.916993  0.345521  1
  F  F30  1  0.916993  0.345521  0.345521  1
  F  F31  1  0.345521  0.345521  0.916993  1
  F  F32  1  0.911135  0.407652  0.911135  1
  F  F33  1  0.407652  0.911135  0.911135  1
  F  F34  1  0.911135  0.911135  0.407652  1
  F  F35  1  0.592348  0.088865  0.088865  1
