# generated using pymatgen
data_Cd6IrIO12
_symmetry_space_group_name_H-M   'P 1'
_cell_length_a   5.73182408
_cell_length_b   5.60975010
_cell_length_c   9.90221467
_cell_angle_alpha   55.74109506
_cell_angle_beta   90.66463177
_cell_angle_gamma   90.87810425
_symmetry_Int_Tables_number   1
_chemical_formula_structural   Cd6IrIO12
_chemical_formula_sum   'Cd6 Ir1 I1 O12'
_cell_volume   263.12307676
_cell_formula_units_Z   1
loop_
 _symmetry_equiv_pos_site_id
 _symmetry_equiv_pos_as_xyz
  1  'x, y, z'
loop_
 _atom_site_type_symbol
 _atom_site_label
 _atom_site_symmetry_multiplicity
 _atom_site_fract_x
 _atom_site_fract_y
 _atom_site_fract_z
 _atom_site_occupancy
  Cd  Cd0  1  0.957685  0.265782  0.227950  1
  Cd  Cd1  1  0.451420  0.767980  0.244981  1
  Cd  Cd2  1  0.042315  0.734218  0.772050  1
  Cd  Cd3  1  0.548580  0.232020  0.755019  1
  Cd  Cd4  1  0.000000  0.500000  0.500000  1
  Cd  Cd5  1  0.500000  0.500000  0.000000  1
  Ir  Ir6  1  0.000000  0.000000  0.000000  1
  I  I7  1  0.500000  0.000000  0.500000  1
  O  O8  1  0.275987  0.911464  0.917589  1
  O  O9  1  0.775647  0.077522  0.583117  1
  O  O10  1  0.724013  0.088536  0.082411  1
  O  O11  1  0.224353  0.922478  0.416883  1
  O  O12  1  0.179871  0.246873  0.047825  1
  O  O13  1  0.670782  0.770861  0.447682  1
  O  O14  1  0.820129  0.753127  0.952175  1
  O  O15  1  0.329218  0.229139  0.552318  1
  O  O16  1  0.425328  0.663354  0.714233  1
  O  O17  1  0.924587  0.342387  0.773073  1
  O  O18  1  0.574672  0.336646  0.285767  1
  O  O19  1  0.075413  0.657613  0.226927  1
