# generated using pymatgen
data_DyTm4Tc6P12Ir13
_symmetry_space_group_name_H-M   'P 1'
_cell_length_a   12.63380746
_cell_length_b   12.62718256
_cell_length_c   3.98626400
_cell_angle_alpha   90.00000000
_cell_angle_beta   90.00000000
_cell_angle_gamma   119.98625383
_symmetry_Int_Tables_number   1
_chemical_formula_structural   DyTm4Tc6P12Ir13
_chemical_formula_sum   'Dy1 Tm4 Tc6 P12 Ir13'
_cell_volume   550.80457976
_cell_formula_units_Z   1
loop_
 _symmetry_equiv_pos_site_id
 _symmetry_equiv_pos_as_xyz
  1  'x, y, z'
loop_
 _atom_site_type_symbol
 _atom_site_label
 _atom_site_symmetry_multiplicity
 _atom_site_fract_x
 _atom_site_fract_y
 _atom_site_fract_z
 _atom_site_occupancy
  Dy  Dy0  1  0.810784  0.999219  0.000000  1
  Tm  Tm1  1  0.333319  0.666793  0.500000  1
  Tm  Tm2  1  0.666414  0.333161  0.500000  1
  Tm  Tm3  1  0.000577  0.811262  0.000000  1
  Tm  Tm4  1  0.188700  0.189265  0.000000  1
  Tc  Tc5  1  0.991025  0.447519  0.500000  1
  Tc  Tc6  1  0.553155  0.543091  0.500000  1
  Tc  Tc7  1  0.456157  0.009687  0.500000  1
  Tc  Tc8  1  0.619381  0.798163  0.500000  1
  Tc  Tc9  1  0.200983  0.820977  0.500000  1
  Tc  Tc10  1  0.179340  0.380339  0.500000  1
  P  P11  1  0.007549  0.639743  0.500000  1
  P  P12  1  0.360445  0.368008  0.500000  1
  P  P13  1  0.631331  0.992627  0.500000  1
  P  P14  1  0.520456  0.693829  0.000000  1
  P  P15  1  0.306039  0.826590  0.000000  1
  P  P16  1  0.173733  0.479872  0.000000  1
  P  P17  1  0.483030  0.169464  0.000000  1
  P  P18  1  0.686261  0.516286  0.000000  1
  P  P19  1  0.830121  0.313192  0.000000  1
  P  P20  1  0.004500  0.183003  0.500000  1
  P  P21  1  0.817572  0.820850  0.500000  1
  P  P22  1  0.178668  0.995975  0.500000  1
  Ir  Ir23  1  0.506197  0.873945  0.000000  1
  Ir  Ir24  1  0.126069  0.632559  0.000000  1
  Ir  Ir25  1  0.367702  0.493634  0.000000  1
  Ir  Ir26  1  0.493556  0.358142  0.000000  1
  Ir  Ir27  1  0.864513  0.505896  0.000000  1
  Ir  Ir28  1  0.641254  0.135086  0.000000  1
  Ir  Ir29  1  0.995148  0.281871  0.000000  1
  Ir  Ir30  1  0.718635  0.712775  0.000000  1
  Ir  Ir31  1  0.286540  0.005430  0.000000  1
  Ir  Ir32  1  0.372686  0.185552  0.500000  1
  Ir  Ir33  1  0.812798  0.626910  0.500000  1
  Ir  Ir34  1  0.814744  0.189284  0.500000  1
  Ir  Ir35  1  0.000615  0.000002  0.500000  1
