# generated using pymatgen
data_TbZr7Ti9Si16W3
_symmetry_space_group_name_H-M   'P 1'
_cell_length_a   6.82835275
_cell_length_b   6.83298690
_cell_length_c   12.57446566
_cell_angle_alpha   89.94473864
_cell_angle_beta   89.99985451
_cell_angle_gamma   89.90299819
_symmetry_Int_Tables_number   1
_chemical_formula_structural   TbZr7Ti9Si16W3
_chemical_formula_sum   'Tb1 Zr7 Ti9 Si16 W3'
_cell_volume   586.69886946
_cell_formula_units_Z   1
loop_
 _symmetry_equiv_pos_site_id
 _symmetry_equiv_pos_as_xyz
  1  'x, y, z'
loop_
 _atom_site_type_symbol
 _atom_site_label
 _atom_site_symmetry_multiplicity
 _atom_site_fract_x
 _atom_site_fract_y
 _atom_site_fract_z
 _atom_site_occupancy
  Tb  Tb0  1  0.996973  0.660580  0.030425  1
  Zr  Zr1  1  0.342045  0.999870  0.469482  1
  Zr  Zr2  1  0.500139  0.842224  0.718577  1
  Zr  Zr3  1  0.498784  0.157849  0.221261  1
  Zr  Zr4  1  0.841524  0.499870  0.281715  1
  Zr  Zr5  1  0.158342  0.498267  0.780041  1
  Zr  Zr6  1  0.655874  0.002605  0.969081  1
  Zr  Zr7  1  0.000332  0.342914  0.530662  1
  Ti  Ti8  1  0.671309  0.670692  0.500065  1
  Ti  Ti9  1  0.154276  0.004728  0.871964  1
  Ti  Ti10  1  0.495424  0.651660  0.124421  1
  Ti  Ti11  1  0.504139  0.347057  0.624172  1
  Ti  Ti12  1  0.652083  0.491753  0.875002  1
  Ti  Ti13  1  0.346926  0.503729  0.376702  1
  Ti  Ti14  1  0.848030  0.996597  0.374806  1
  Ti  Ti15  1  0.006244  0.151994  0.127172  1
  Ti  Ti16  1  0.995112  0.848950  0.625300  1
  Si  Si17  1  0.205142  0.134031  0.676836  1
  Si  Si18  1  0.370351  0.705407  0.926358  1
  Si  Si19  1  0.634325  0.294707  0.428704  1
  Si  Si20  1  0.701630  0.362414  0.072262  1
  Si  Si21  1  0.294368  0.634588  0.571661  1
  Si  Si22  1  0.791260  0.869524  0.181783  1
  Si  Si23  1  0.134332  0.205332  0.323326  1
  Si  Si24  1  0.864067  0.797246  0.818282  1
  Si  Si25  1  0.297197  0.957012  0.064987  1
  Si  Si26  1  0.544310  0.794268  0.316529  1
  Si  Si27  1  0.454443  0.205237  0.813353  1
  Si  Si28  1  0.794545  0.544990  0.683952  1
  Si  Si29  1  0.207438  0.453305  0.187052  1
  Si  Si30  1  0.704770  0.046213  0.564268  1
  Si  Si31  1  0.955022  0.289959  0.934443  1
  Si  Si32  1  0.045921  0.705553  0.435484  1
  W  W33  1  0.331203  0.326816  0.999764  1
  W  W34  1  0.172584  0.831197  0.250885  1
  W  W35  1  0.829533  0.170858  0.749225  1
