# generated using pymatgen
data_Tb2Dy2Mn(Ga8Co)2
_symmetry_space_group_name_H-M   'P 1'
_cell_length_a   6.05368400
_cell_length_b   6.05368400
_cell_length_c   11.15726300
_cell_angle_alpha   90.00000000
_cell_angle_beta   90.00000000
_cell_angle_gamma   90.00000000
_symmetry_Int_Tables_number   1
_chemical_formula_structural   Tb2Dy2Mn(Ga8Co)2
_chemical_formula_sum   'Tb2 Dy2 Mn1 Ga16 Co2'
_cell_volume   408.88122100
_cell_formula_units_Z   1
loop_
 _symmetry_equiv_pos_site_id
 _symmetry_equiv_pos_as_xyz
  1  'x, y, z'
loop_
 _atom_site_type_symbol
 _atom_site_label
 _atom_site_symmetry_multiplicity
 _atom_site_fract_x
 _atom_site_fract_y
 _atom_site_fract_z
 _atom_site_occupancy
  Tb  Tb0  1  0.500000  0.000000  0.192865  1
  Tb  Tb1  1  0.000000  0.500000  0.192865  1
  Dy  Dy2  1  0.500000  0.000000  0.806805  1
  Dy  Dy3  1  0.000000  0.500000  0.806805  1
  Mn  Mn4  1  0.000000  0.000000  0.000097  1
  Ga  Ga5  1  0.249396  0.249396  0.615063  1
  Ga  Ga6  1  0.750604  0.750604  0.615063  1
  Ga  Ga7  1  0.750604  0.249396  0.615063  1
  Ga  Ga8  1  0.249396  0.750604  0.615063  1
  Ga  Ga9  1  0.750438  0.750438  0.385459  1
  Ga  Ga10  1  0.249562  0.249562  0.385459  1
  Ga  Ga11  1  0.249562  0.750438  0.385459  1
  Ga  Ga12  1  0.750438  0.249562  0.385459  1
  Ga  Ga13  1  0.283593  0.283593  0.999460  1
  Ga  Ga14  1  0.716407  0.716407  0.999460  1
  Ga  Ga15  1  0.716407  0.283593  0.999460  1
  Ga  Ga16  1  0.283593  0.716407  0.999460  1
  Ga  Ga17  1  0.500000  0.500000  0.802210  1
  Ga  Ga18  1  0.500000  0.500000  0.197589  1
  Ga  Ga19  1  0.000000  0.000000  0.779362  1
  Ga  Ga20  1  0.000000  0.000000  0.220889  1
  Co  Co21  1  0.500000  0.000000  0.500291  1
  Co  Co22  1  0.000000  0.500000  0.500291  1
