# generated using pymatgen
data_Y2Er3Co19(Si2P)4
_symmetry_space_group_name_H-M   'P 1'
_cell_length_a   12.09849100
_cell_length_b   12.09457271
_cell_length_c   3.68741900
_cell_angle_alpha   90.00000000
_cell_angle_beta   90.00000000
_cell_angle_gamma   119.96632657
_symmetry_Int_Tables_number   1
_chemical_formula_structural   Y2Er3Co19(Si2P)4
_chemical_formula_sum   'Y2 Er3 Co19 Si8 P4'
_cell_volume   467.43595966
_cell_formula_units_Z   1
loop_
 _symmetry_equiv_pos_site_id
 _symmetry_equiv_pos_as_xyz
  1  'x, y, z'
loop_
 _atom_site_type_symbol
 _atom_site_label
 _atom_site_symmetry_multiplicity
 _atom_site_fract_x
 _atom_site_fract_y
 _atom_site_fract_z
 _atom_site_occupancy
  Y  Y0  1  0.332925  0.666261  0.000000  1
  Y  Y1  1  0.667173  0.332071  0.000000  1
  Er  Er2  1  0.001210  0.183161  0.500000  1
  Er  Er3  1  0.816398  0.817349  0.500000  1
  Er  Er4  1  0.183895  0.999852  0.500000  1
  Co  Co5  1  0.628398  0.825892  0.000000  1
  Co  Co6  1  0.175318  0.803014  0.000000  1
  Co  Co7  1  0.196409  0.371290  0.000000  1
  Co  Co8  1  0.373876  0.196603  0.000000  1
  Co  Co9  1  0.824479  0.627743  0.000000  1
  Co  Co10  1  0.798089  0.175189  0.000000  1
  Co  Co11  1  0.999183  0.556320  0.000000  1
  Co  Co12  1  0.442433  0.442606  0.000000  1
  Co  Co13  1  0.554736  0.997132  0.000000  1
  Co  Co14  1  0.522014  0.645953  0.500000  1
  Co  Co15  1  0.353927  0.876103  0.500000  1
  Co  Co16  1  0.122585  0.476937  0.500000  1
  Co  Co17  1  0.485018  0.123977  0.500000  1
  Co  Co18  1  0.645359  0.521705  0.500000  1
  Co  Co19  1  0.874648  0.352518  0.500000  1
  Co  Co20  1  0.999783  0.723163  0.500000  1
  Co  Co21  1  0.277615  0.276468  0.500000  1
  Co  Co22  1  0.721800  0.004704  0.500000  1
  Co  Co23  1  0.999252  0.000252  0.000000  1
  Si  Si24  1  0.999520  0.368004  0.000000  1
  Si  Si25  1  0.631261  0.631431  0.000000  1
  Si  Si26  1  0.368812  0.000262  0.000000  1
  Si  Si27  1  0.522088  0.841182  0.500000  1
  Si  Si28  1  0.157726  0.680235  0.500000  1
  Si  Si29  1  0.318823  0.477087  0.500000  1
  Si  Si30  1  0.478313  0.318450  0.500000  1
  Si  Si31  1  0.841177  0.522433  0.500000  1
  P  P32  1  0.685310  0.163994  0.500000  1
  P  P33  1  0.999782  0.819768  0.000000  1
  P  P34  1  0.181261  0.179808  0.000000  1
  P  P35  1  0.819403  0.001083  0.000000  1
