# generated using pymatgen
data_ErTmFe4(PRu)6
_symmetry_space_group_name_H-M   'P 1'
_cell_length_a   3.78474200
_cell_length_b   10.53481500
_cell_length_c   12.12862300
_cell_angle_alpha   90.00000000
_cell_angle_beta   90.00000000
_cell_angle_gamma   90.00000000
_symmetry_Int_Tables_number   1
_chemical_formula_structural   ErTmFe4(PRu)6
_chemical_formula_sum   'Er2 Tm2 Fe8 P12 Ru12'
_cell_volume   483.58708076
_cell_formula_units_Z   2
loop_
 _symmetry_equiv_pos_site_id
 _symmetry_equiv_pos_as_xyz
  1  'x, y, z'
loop_
 _atom_site_type_symbol
 _atom_site_label
 _atom_site_symmetry_multiplicity
 _atom_site_fract_x
 _atom_site_fract_y
 _atom_site_fract_z
 _atom_site_occupancy
  Er  Er0  1  0.750000  0.417466  0.291681  1
  Er  Er1  1  0.750000  0.082534  0.791681  1
  Tm  Tm2  1  0.250000  0.582307  0.708410  1
  Tm  Tm3  1  0.250000  0.917693  0.208410  1
  Fe  Fe4  1  0.250000  0.882315  0.698204  1
  Fe  Fe5  1  0.250000  0.617685  0.198204  1
  Fe  Fe6  1  0.750000  0.117287  0.301515  1
  Fe  Fe7  1  0.750000  0.382713  0.801515  1
  Fe  Fe8  1  0.250000  0.463318  0.934998  1
  Fe  Fe9  1  0.250000  0.036682  0.434998  1
  Fe  Fe10  1  0.750000  0.536788  0.064766  1
  Fe  Fe11  1  0.750000  0.963212  0.564766  1
  P  P12  1  0.250000  0.430784  0.112451  1
  P  P13  1  0.250000  0.069216  0.612451  1
  P  P14  1  0.750000  0.569026  0.887117  1
  P  P15  1  0.750000  0.930974  0.387117  1
  P  P16  1  0.250000  0.272170  0.868837  1
  P  P17  1  0.250000  0.227830  0.368837  1
  P  P18  1  0.750000  0.727948  0.131309  1
  P  P19  1  0.750000  0.772052  0.631309  1
  P  P20  1  0.250000  0.603403  0.387649  1
  P  P21  1  0.250000  0.896597  0.887649  1
  P  P22  1  0.750000  0.396970  0.612620  1
  P  P23  1  0.750000  0.103030  0.112620  1
  Ru  Ru24  1  0.250000  0.703865  0.988965  1
  Ru  Ru25  1  0.250000  0.796135  0.488965  1
  Ru  Ru26  1  0.750000  0.296050  0.011003  1
  Ru  Ru27  1  0.750000  0.203950  0.511003  1
  Ru  Ru28  1  0.250000  0.405300  0.484340  1
  Ru  Ru29  1  0.250000  0.094701  0.984340  1
  Ru  Ru30  1  0.750000  0.594992  0.516158  1
  Ru  Ru31  1  0.750000  0.905008  0.016158  1
  Ru  Ru32  1  0.250000  0.226306  0.178002  1
  Ru  Ru33  1  0.250000  0.273694  0.678002  1
  Ru  Ru34  1  0.750000  0.773505  0.821976  1
  Ru  Ru35  1  0.750000  0.726495  0.321976  1
