# generated using pymatgen
data_Ho13Tm3(InRu)4
_symmetry_space_group_name_H-M   'P 1'
_cell_length_a   9.61667021
_cell_length_b   9.62470970
_cell_length_c   9.62432008
_cell_angle_alpha   59.48534918
_cell_angle_beta   59.47353852
_cell_angle_gamma   59.46112897
_symmetry_Int_Tables_number   1
_chemical_formula_structural   Ho13Tm3(InRu)4
_chemical_formula_sum   'Ho13 Tm3 In4 Ru4'
_cell_volume   622.34798066
_cell_formula_units_Z   1
loop_
 _symmetry_equiv_pos_site_id
 _symmetry_equiv_pos_as_xyz
  1  'x, y, z'
loop_
 _atom_site_type_symbol
 _atom_site_label
 _atom_site_symmetry_multiplicity
 _atom_site_fract_x
 _atom_site_fract_y
 _atom_site_fract_z
 _atom_site_occupancy
  Ho  Ho0  1  0.059408  0.059078  0.441724  1
  Ho  Ho1  1  0.441518  0.059480  0.442324  1
  Ho  Ho2  1  0.058998  0.442250  0.058758  1
  Ho  Ho3  1  0.043197  0.652134  0.652028  1
  Ho  Ho4  1  0.441718  0.442775  0.059201  1
  Ho  Ho5  1  0.651923  0.042998  0.651576  1
  Ho  Ho6  1  0.191804  0.811612  0.191119  1
  Ho  Ho7  1  0.191328  0.190982  0.811929  1
  Ho  Ho8  1  0.809225  0.808661  0.191052  1
  Ho  Ho9  1  0.441977  0.058977  0.059047  1
  Ho  Ho10  1  0.811692  0.191840  0.191511  1
  Ho  Ho11  1  0.059415  0.442203  0.442010  1
  Ho  Ho12  1  0.809317  0.190941  0.808918  1
  Tm  Tm13  1  0.191354  0.808912  0.809038  1
  Tm  Tm14  1  0.652068  0.651862  0.042709  1
  Tm  Tm15  1  0.649908  0.650649  0.650903  1
  In  In16  1  0.418409  0.417600  0.417136  1
  In  In17  1  0.746802  0.418263  0.417829  1
  In  In18  1  0.417948  0.747083  0.417908  1
  In  In19  1  0.417909  0.418449  0.747008  1
  Ru  Ru20  1  0.856909  0.856645  0.420209  1
  Ru  Ru21  1  0.860180  0.859755  0.861357  1
  Ru  Ru22  1  0.420857  0.855864  0.857371  1
  Ru  Ru23  1  0.856135  0.420987  0.857333  1
