# generated using pymatgen
data_ErMgZnCu3
_symmetry_space_group_name_H-M   'P 1'
_cell_length_a   5.16247878
_cell_length_b   5.12187417
_cell_length_c   5.16248000
_cell_angle_alpha   59.73741094
_cell_angle_beta   60.00000502
_cell_angle_gamma   59.73740177
_symmetry_Int_Tables_number   1
_chemical_formula_structural   ErMgZnCu3
_chemical_formula_sum   'Er1 Mg1 Zn1 Cu3'
_cell_volume   96.13806453
_cell_formula_units_Z   1
loop_
 _symmetry_equiv_pos_site_id
 _symmetry_equiv_pos_as_xyz
  1  'x, y, z'
loop_
 _atom_site_type_symbol
 _atom_site_label
 _atom_site_symmetry_multiplicity
 _atom_site_fract_x
 _atom_site_fract_y
 _atom_site_fract_z
 _atom_site_occupancy
  Er  Er0  1  0.751683  0.744953  0.751683  1
  Mg  Mg1  1  0.000318  0.999045  0.000318  1
  Zn  Zn2  1  0.373271  0.880186  0.373271  1
  Cu  Cu3  1  0.373922  0.375272  0.373922  1
  Cu  Cu4  1  0.876884  0.375272  0.373922  1
  Cu  Cu5  1  0.373922  0.375272  0.876884  1
