# generated using pymatgen
data_TbY5Al24(CuRu3)2
_symmetry_space_group_name_H-M   'P 1'
_cell_length_a   8.83207826
_cell_length_b   8.82991548
_cell_length_c   9.47376100
_cell_angle_alpha   89.99880327
_cell_angle_beta   89.99936180
_cell_angle_gamma   119.54500212
_symmetry_Int_Tables_number   1
_chemical_formula_structural   TbY5Al24(CuRu3)2
_chemical_formula_sum   'Tb1 Y5 Al24 Cu2 Ru6'
_cell_volume   642.75503497
_cell_formula_units_Z   1
loop_
 _symmetry_equiv_pos_site_id
 _symmetry_equiv_pos_as_xyz
  1  'x, y, z'
loop_
 _atom_site_type_symbol
 _atom_site_label
 _atom_site_symmetry_multiplicity
 _atom_site_fract_x
 _atom_site_fract_y
 _atom_site_fract_z
 _atom_site_occupancy
  Tb  Tb0  1  0.188463  0.383150  0.749932  1
  Y  Y1  1  0.383609  0.188869  0.250059  1
  Y  Y2  1  0.806297  0.193767  0.250076  1
  Y  Y3  1  0.811095  0.616412  0.250066  1
  Y  Y4  1  0.616733  0.811446  0.749943  1
  Y  Y5  1  0.193564  0.806397  0.749924  1
  Al  Al6  1  0.439932  0.878285  0.250049  1
  Al  Al7  1  0.121659  0.560016  0.250020  1
  Al  Al8  1  0.439186  0.560810  0.250037  1
  Al  Al9  1  0.560250  0.121851  0.749950  1
  Al  Al10  1  0.877981  0.439796  0.749982  1
  Al  Al11  1  0.560994  0.439149  0.749961  1
  Al  Al12  1  0.163700  0.836355  0.423256  1
  Al  Al13  1  0.157165  0.324041  0.422066  1
  Al  Al14  1  0.675988  0.842922  0.422083  1
  Al  Al15  1  0.836270  0.163641  0.576944  1
  Al  Al16  1  0.842882  0.675916  0.577950  1
  Al  Al17  1  0.324079  0.157135  0.577911  1
  Al  Al18  1  0.836336  0.163629  0.923033  1
  Al  Al19  1  0.842953  0.675984  0.922033  1
  Al  Al20  1  0.323984  0.157079  0.922044  1
  Al  Al21  1  0.163635  0.836369  0.076768  1
  Al  Al22  1  0.157098  0.323972  0.077951  1
  Al  Al23  1  0.676079  0.842978  0.077965  1
  Al  Al24  1  0.332043  0.668050  0.519201  1
  Al  Al25  1  0.667982  0.332010  0.480650  1
  Al  Al26  1  0.667972  0.332071  0.019249  1
  Al  Al27  1  0.332054  0.667985  0.980895  1
  Al  Al28  1  0.001882  0.998213  0.249959  1
  Al  Al29  1  0.998176  0.002013  0.750042  1
  Cu  Cu30  1  0.499967  0.499968  0.500009  1
  Cu  Cu31  1  0.499967  0.499968  0.999993  1
  Ru  Ru32  1  0.999929  0.999923  0.499786  1
  Ru  Ru33  1  0.999928  0.999920  0.000214  1
  Ru  Ru34  1  0.500009  0.999939  0.499890  1
  Ru  Ru35  1  0.000077  0.500019  0.499934  1
  Ru  Ru36  1  0.500005  0.999937  0.000111  1
  Ru  Ru37  1  0.000076  0.500016  0.000065  1
