# generated using pymatgen
data_Tm4V3PdF28
_symmetry_space_group_name_H-M   'P 1'
_cell_length_a   5.44059305
_cell_length_b   8.74664461
_cell_length_c   11.71844800
_cell_angle_alpha   63.02951814
_cell_angle_beta   90.11013498
_cell_angle_gamma   90.05943491
_symmetry_Int_Tables_number   1
_chemical_formula_structural   Tm4V3PdF28
_chemical_formula_sum   'Tm4 V3 Pd1 F28'
_cell_volume   496.99477744
_cell_formula_units_Z   1
loop_
 _symmetry_equiv_pos_site_id
 _symmetry_equiv_pos_as_xyz
  1  'x, y, z'
loop_
 _atom_site_type_symbol
 _atom_site_label
 _atom_site_symmetry_multiplicity
 _atom_site_fract_x
 _atom_site_fract_y
 _atom_site_fract_z
 _atom_site_occupancy
  Tm  Tm0  1  0.259460  0.813227  0.264428  1
  Tm  Tm1  1  0.742075  0.192052  0.730183  1
  Tm  Tm2  1  0.758908  0.187886  0.232858  1
  Tm  Tm3  1  0.239584  0.813584  0.768782  1
  V  V4  1  0.755454  0.726024  0.044108  1
  V  V5  1  0.244394  0.273952  0.955436  1
  V  V6  1  0.257009  0.274890  0.454180  1
  Pd  Pd7  1  0.741278  0.728598  0.543531  1
  F  F8  1  0.935291  0.699784  0.415476  1
  F  F9  1  0.054314  0.291852  0.578745  1
  F  F10  1  0.448238  0.290924  0.080222  1
  F  F11  1  0.549480  0.708174  0.920398  1
  F  F12  1  0.476595  0.731733  0.139389  1
  F  F13  1  0.523087  0.265440  0.862031  1
  F  F14  1  0.979260  0.273325  0.356390  1
  F  F15  1  0.038887  0.728041  0.636711  1
  F  F16  1  0.959427  0.746240  0.170120  1
  F  F17  1  0.042745  0.250262  0.830590  1
  F  F18  1  0.458515  0.256370  0.327201  1
  F  F19  1  0.550208  0.746703  0.677828  1
  F  F20  1  0.769910  0.491267  0.135986  1
  F  F21  1  0.229866  0.509212  0.862698  1
  F  F22  1  0.272504  0.511478  0.362696  1
  F  F23  1  0.727240  0.480296  0.644206  1
  F  F24  1  0.955408  0.279528  0.047102  1
  F  F25  1  0.045213  0.719457  0.953069  1
  F  F26  1  0.437162  0.718829  0.458190  1
  F  F27  1  0.546947  0.278993  0.545382  1
  F  F28  1  0.742530  0.976978  0.451060  1
  F  F29  1  0.258352  0.041021  0.546694  1
  F  F30  1  0.240804  0.038926  0.049168  1
  F  F31  1  0.758750  0.959217  0.952588  1
  F  F32  1  0.583223  0.969510  0.232289  1
  F  F33  1  0.418551  0.028334  0.769732  1
  F  F34  1  0.081249  0.025373  0.269962  1
  F  F35  1  0.918089  0.972518  0.730566  1
