# generated using pymatgen
data_Li12PrSm11(TeO6)8
_symmetry_space_group_name_H-M   'P 1'
_cell_length_a   10.90322118
_cell_length_b   10.91401020
_cell_length_c   10.91401447
_cell_angle_alpha   109.57490845
_cell_angle_beta   109.43941846
_cell_angle_gamma   109.43956140
_symmetry_Int_Tables_number   1
_chemical_formula_structural   Li12PrSm11(TeO6)8
_chemical_formula_sum   'Li12 Pr1 Sm11 Te8 O48'
_cell_volume   999.27589970
_cell_formula_units_Z   1
loop_
 _symmetry_equiv_pos_site_id
 _symmetry_equiv_pos_as_xyz
  1  'x, y, z'
loop_
 _atom_site_type_symbol
 _atom_site_label
 _atom_site_symmetry_multiplicity
 _atom_site_fract_x
 _atom_site_fract_y
 _atom_site_fract_z
 _atom_site_occupancy
  Li  Li0  1  0.750001  0.375000  0.125000  1
  Li  Li1  1  0.874446  0.749814  0.125013  1
  Li  Li2  1  0.124992  0.374991  0.250036  1
  Li  Li3  1  0.625555  0.874987  0.250187  1
  Li  Li4  1  0.625552  0.250569  0.375367  1
  Li  Li5  1  0.250001  0.125811  0.375811  1
  Li  Li6  1  0.749998  0.874999  0.624998  1
  Li  Li7  1  0.375008  0.749964  0.625010  1
  Li  Li8  1  0.375006  0.125042  0.749997  1
  Li  Li9  1  0.874452  0.624637  0.749437  1
  Li  Li10  1  0.249999  0.624178  0.874179  1
  Li  Li11  1  0.124994  0.250002  0.874958  1
  Pr  Pr12  1  0.250000  0.875000  0.124999  1
  Sm  Sm13  1  0.375190  0.250797  0.124752  1
  Sm  Sm14  1  0.375190  0.624393  0.250438  1
  Sm  Sm15  1  0.875038  0.124975  0.250056  1
  Sm  Sm16  1  0.750001  0.625000  0.375000  1
  Sm  Sm17  1  0.124809  0.749562  0.375607  1
  Sm  Sm18  1  0.875038  0.250062  0.624982  1
  Sm  Sm19  1  0.250000  0.375000  0.625000  1
  Sm  Sm20  1  0.124809  0.875247  0.749203  1
  Sm  Sm21  1  0.624962  0.375018  0.749938  1
  Sm  Sm22  1  0.750000  0.125000  0.875000  1
  Sm  Sm23  1  0.624962  0.749944  0.875025  1
  Te  Te24  1  0.999222  0.000954  0.999411  1
  Te  Te25  1  0.500777  0.000589  0.999046  1
  Te  Te26  1  0.999222  0.498268  0.999811  1
  Te  Te27  1  0.500078  0.499990  0.999925  1
  Te  Te28  1  0.999925  0.000079  0.500011  1
  Te  Te29  1  0.500077  0.500089  0.500154  1
  Te  Te30  1  0.500779  0.000189  0.501732  1
  Te  Te31  1  0.999922  0.499846  0.499911  1
  O  O32  1  0.194879  0.613552  0.022833  1
  O  O33  1  0.329064  0.406226  0.024683  1
  O  O34  1  0.696723  0.171548  0.077440  1
  O  O35  1  0.881852  0.906571  0.077250  1
  O  O36  1  0.618148  0.922750  0.093429  1
  O  O37  1  0.974210  0.171599  0.093239  1
  O  O38  1  0.022307  0.693028  0.118162  1
  O  O39  1  0.593743  0.422703  0.118286  1
  O  O40  1  0.194879  0.081328  0.172046  1
  O  O41  1  0.477695  0.095857  0.170722  1
  O  O42  1  0.118314  0.524473  0.196146  1
  O  O43  1  0.577533  0.671094  0.195768  1
  O  O44  1  0.477693  0.881837  0.306971  1
  O  O45  1  0.329065  0.422838  0.304380  1
  O  O46  1  0.906255  0.524541  0.328958  1
  O  O47  1  0.922468  0.804236  0.328909  1
  O  O48  1  0.305120  0.977168  0.386449  1
  O  O49  1  0.577533  0.406441  0.381768  1
  O  O50  1  0.828977  0.024821  0.406432  1
  O  O51  1  0.077568  0.381622  0.406377  1
  O  O52  1  0.828978  0.304156  0.422545  1
  O  O53  1  0.093535  0.118271  0.422612  1
  O  O54  1  0.381686  0.803854  0.475527  1
  O  O55  1  0.593744  0.671041  0.475459  1
  O  O56  1  0.618148  0.195398  0.524719  1
  O  O57  1  0.406465  0.329077  0.524734  1
  O  O58  1  0.170933  0.695619  0.577161  1
  O  O59  1  0.906257  0.881714  0.577296  1
  O  O60  1  0.170936  0.975317  0.593775  1
  O  O61  1  0.922466  0.618233  0.593560  1
  O  O62  1  0.422431  0.593622  0.618378  1
  O  O63  1  0.696722  0.025174  0.619282  1
  O  O64  1  0.077568  0.195946  0.671191  1
  O  O65  1  0.093535  0.475265  0.670923  1
  O  O66  1  0.671020  0.577454  0.695844  1
  O  O67  1  0.525791  0.119030  0.697391  1
  O  O68  1  0.881851  0.475281  0.804601  1
  O  O69  1  0.422432  0.328809  0.804054  1
  O  O70  1  0.803278  0.922560  0.828453  1
  O  O71  1  0.525789  0.906761  0.828401  1
  O  O72  1  0.974209  0.302611  0.880971  1
  O  O73  1  0.406467  0.577388  0.881731  1
  O  O74  1  0.381686  0.077832  0.906159  1
  O  O75  1  0.022305  0.829278  0.904143  1
  O  O76  1  0.118313  0.093841  0.922168  1
  O  O77  1  0.305120  0.827953  0.918672  1
  O  O78  1  0.803277  0.380718  0.974825  1
  O  O79  1  0.671023  0.593569  0.975180  1
