# generated using pymatgen
data_NdTh(Co5P3)2
_symmetry_space_group_name_H-M   'P 1'
_cell_length_a   5.98194502
_cell_length_b   5.98194622
_cell_length_c   11.39272100
_cell_angle_alpha   90.00000000
_cell_angle_beta   90.00000000
_cell_angle_gamma   144.77248009
_symmetry_Int_Tables_number   1
_chemical_formula_structural   NdTh(Co5P3)2
_chemical_formula_sum   'Nd1 Th1 Co10 P6'
_cell_volume   235.15610531
_cell_formula_units_Z   1
loop_
 _symmetry_equiv_pos_site_id
 _symmetry_equiv_pos_as_xyz
  1  'x, y, z'
loop_
 _atom_site_type_symbol
 _atom_site_label
 _atom_site_symmetry_multiplicity
 _atom_site_fract_x
 _atom_site_fract_y
 _atom_site_fract_z
 _atom_site_occupancy
  Nd  Nd0  1  0.661521  0.338479  0.750000  1
  Th  Th1  1  0.339102  0.660898  0.250000  1
  Co  Co2  1  0.052978  0.947022  0.142417  1
  Co  Co3  1  0.052978  0.947022  0.357583  1
  Co  Co4  1  0.699340  0.300660  0.427544  1
  Co  Co5  1  0.301372  0.698628  0.568146  1
  Co  Co6  1  0.301372  0.698628  0.931854  1
  Co  Co7  1  0.699340  0.300660  0.072456  1
  Co  Co8  1  0.500659  0.499341  0.499237  1
  Co  Co9  1  0.500659  0.499341  0.000763  1
  Co  Co10  1  0.945816  0.054184  0.642420  1
  Co  Co11  1  0.945816  0.054184  0.857580  1
  P  P12  1  0.609318  0.390682  0.250000  1
  P  P13  1  0.390201  0.609799  0.750000  1
  P  P14  1  0.116651  0.883349  0.539420  1
  P  P15  1  0.883112  0.116888  0.461706  1
  P  P16  1  0.883112  0.116888  0.038294  1
  P  P17  1  0.116651  0.883349  0.960580  1
