# generated using pymatgen
data_K2Zr(IO3)6
_symmetry_space_group_name_H-M   'P 1'
_cell_length_a   7.84002072
_cell_length_b   7.84002093
_cell_length_c   7.84002078
_cell_angle_alpha   97.10404273
_cell_angle_beta   97.10403266
_cell_angle_gamma   97.10403697
_symmetry_Int_Tables_number   1
_chemical_formula_structural   K2Zr(IO3)6
_chemical_formula_sum   'K2 Zr1 I6 O18'
_cell_volume   469.77465614
_cell_formula_units_Z   1
loop_
 _symmetry_equiv_pos_site_id
 _symmetry_equiv_pos_as_xyz
  1  'x, y, z'
loop_
 _atom_site_type_symbol
 _atom_site_label
 _atom_site_symmetry_multiplicity
 _atom_site_fract_x
 _atom_site_fract_y
 _atom_site_fract_z
 _atom_site_occupancy
  K  K0  1  0.173796  0.173796  0.173796  1
  K  K1  1  0.826204  0.826204  0.826204  1
  Zr  Zr2  1  0.500000  0.500000  0.500000  1
  I  I3  1  0.325119  0.707422  0.124821  1
  I  I4  1  0.124821  0.325119  0.707422  1
  I  I5  1  0.875179  0.674881  0.292578  1
  I  I6  1  0.674881  0.292578  0.875179  1
  I  I7  1  0.707422  0.124821  0.325119  1
  I  I8  1  0.292578  0.875179  0.674881  1
  O  O9  1  0.905170  0.281310  0.383873  1
  O  O10  1  0.088818  0.693346  0.083590  1
  O  O11  1  0.094830  0.718690  0.616127  1
  O  O12  1  0.447323  0.708345  0.673375  1
  O  O13  1  0.552678  0.291655  0.326625  1
  O  O14  1  0.326625  0.552678  0.291655  1
  O  O15  1  0.281310  0.383873  0.905170  1
  O  O16  1  0.673375  0.447322  0.708345  1
  O  O17  1  0.718690  0.616127  0.094830  1
  O  O18  1  0.083590  0.088818  0.693346  1
  O  O19  1  0.383873  0.905170  0.281310  1
  O  O20  1  0.616127  0.094830  0.718690  1
  O  O21  1  0.693346  0.083590  0.088818  1
  O  O22  1  0.708345  0.673375  0.447322  1
  O  O23  1  0.916410  0.911182  0.306654  1
  O  O24  1  0.291655  0.326625  0.552678  1
  O  O25  1  0.911182  0.306654  0.916410  1
  O  O26  1  0.306654  0.916410  0.911182  1
