# generated using pymatgen
data_Li3Eu4ZnAu4
_symmetry_space_group_name_H-M   'P 1'
_cell_length_a   4.60292800
_cell_length_b   7.50601674
_cell_length_c   8.10553934
_cell_angle_alpha   90.21739834
_cell_angle_beta   90.00000000
_cell_angle_gamma   90.00000000
_symmetry_Int_Tables_number   1
_chemical_formula_structural   Li3Eu4ZnAu4
_chemical_formula_sum   'Li3 Eu4 Zn1 Au4'
_cell_volume   280.04156878
_cell_formula_units_Z   1
loop_
 _symmetry_equiv_pos_site_id
 _symmetry_equiv_pos_as_xyz
  1  'x, y, z'
loop_
 _atom_site_type_symbol
 _atom_site_label
 _atom_site_symmetry_multiplicity
 _atom_site_fract_x
 _atom_site_fract_y
 _atom_site_fract_z
 _atom_site_occupancy
  Li  Li0  1  0.250000  0.668463  0.582096  1
  Li  Li1  1  0.250000  0.169061  0.918463  1
  Li  Li2  1  0.750000  0.333752  0.420462  1
  Eu  Eu3  1  0.250000  0.001633  0.296817  1
  Eu  Eu4  1  0.250000  0.511814  0.195043  1
  Eu  Eu5  1  0.750000  0.990630  0.705735  1
  Eu  Eu6  1  0.750000  0.502651  0.802358  1
  Zn  Zn7  1  0.750000  0.824599  0.076487  1
  Au  Au8  1  0.250000  0.288821  0.592343  1
  Au  Au9  1  0.250000  0.791074  0.907178  1
  Au  Au10  1  0.750000  0.712015  0.408018  1
  Au  Au11  1  0.750000  0.205486  0.095000  1
