# generated using pymatgen
data_Ba4NaAuO6
_symmetry_space_group_name_H-M   'P 1'
_cell_length_a   7.44956283
_cell_length_b   7.44956324
_cell_length_c   11.48547100
_cell_angle_alpha   90.00000000
_cell_angle_beta   90.00000000
_cell_angle_gamma   133.39222703
_symmetry_Int_Tables_number   1
_chemical_formula_structural   Ba4NaAuO6
_chemical_formula_sum   'Ba8 Na2 Au2 O12'
_cell_volume   463.17634410
_cell_formula_units_Z   2
loop_
 _symmetry_equiv_pos_site_id
 _symmetry_equiv_pos_as_xyz
  1  'x, y, z'
loop_
 _atom_site_type_symbol
 _atom_site_label
 _atom_site_symmetry_multiplicity
 _atom_site_fract_x
 _atom_site_fract_y
 _atom_site_fract_z
 _atom_site_occupancy
  Ba  Ba0  1  0.196583  0.898447  0.750000  1
  Ba  Ba1  1  0.649211  0.350789  0.500000  1
  Ba  Ba2  1  0.803417  0.101553  0.250000  1
  Ba  Ba3  1  0.898447  0.196583  0.750000  1
  Ba  Ba4  1  0.101553  0.803417  0.250000  1
  Ba  Ba5  1  0.350789  0.649211  0.000000  1
  Ba  Ba6  1  0.350789  0.649211  0.500000  1
  Ba  Ba7  1  0.649211  0.350789  0.000000  1
  Na  Na8  1  0.476290  0.476290  0.250000  1
  Na  Na9  1  0.523710  0.523710  0.750000  1
  Au  Au10  1  0.000000  0.000000  0.000000  1
  Au  Au11  1  0.000000  0.000000  0.500000  1
  O  O12  1  0.233531  0.566441  0.250000  1
  O  O13  1  0.151638  0.848362  0.500000  1
  O  O14  1  0.566441  0.233531  0.250000  1
  O  O15  1  0.723436  0.723436  0.396054  1
  O  O16  1  0.151638  0.848362  0.000000  1
  O  O17  1  0.848362  0.151638  0.000000  1
  O  O18  1  0.433559  0.766469  0.750000  1
  O  O19  1  0.766469  0.433559  0.750000  1
  O  O20  1  0.723436  0.723436  0.103946  1
  O  O21  1  0.848362  0.151638  0.500000  1
  O  O22  1  0.276564  0.276564  0.603946  1
  O  O23  1  0.276564  0.276564  0.896054  1
