# generated using pymatgen
data_La2Er4ZnRh17
_symmetry_space_group_name_H-M   'P 1'
_cell_length_a   5.33311300
_cell_length_b   5.33311246
_cell_length_c   17.30620500
_cell_angle_alpha   90.00000000
_cell_angle_beta   90.00000000
_cell_angle_gamma   119.99999717
_symmetry_Int_Tables_number   1
_chemical_formula_structural   La2Er4ZnRh17
_chemical_formula_sum   'La2 Er4 Zn1 Rh17'
_cell_volume   426.27907545
_cell_formula_units_Z   1
loop_
 _symmetry_equiv_pos_site_id
 _symmetry_equiv_pos_as_xyz
  1  'x, y, z'
loop_
 _atom_site_type_symbol
 _atom_site_label
 _atom_site_symmetry_multiplicity
 _atom_site_fract_x
 _atom_site_fract_y
 _atom_site_fract_z
 _atom_site_occupancy
  La  La0  1  0.333333  0.666667  0.750000  1
  La  La1  1  0.666667  0.333333  0.250000  1
  Er  Er2  1  0.333333  0.666667  0.538808  1
  Er  Er3  1  0.666667  0.333333  0.041065  1
  Er  Er4  1  0.666667  0.333333  0.458935  1
  Er  Er5  1  0.333333  0.666667  0.961192  1
  Zn  Zn6  1  0.000000  0.000000  0.250000  1
  Rh  Rh7  1  0.168156  0.336313  0.124271  1
  Rh  Rh8  1  0.831993  0.663986  0.622992  1
  Rh  Rh9  1  0.663687  0.831844  0.124271  1
  Rh  Rh10  1  0.168156  0.831844  0.124271  1
  Rh  Rh11  1  0.831993  0.168007  0.622992  1
  Rh  Rh12  1  0.336014  0.168007  0.622992  1
  Rh  Rh13  1  0.831993  0.663986  0.877008  1
  Rh  Rh14  1  0.831993  0.168007  0.877008  1
  Rh  Rh15  1  0.336014  0.168007  0.877008  1
  Rh  Rh16  1  0.663687  0.831844  0.375729  1
  Rh  Rh17  1  0.168156  0.831844  0.375729  1
  Rh  Rh18  1  0.168156  0.336313  0.375729  1
  Rh  Rh19  1  0.000000  0.000000  0.750000  1
  Rh  Rh20  1  0.333333  0.666667  0.250000  1
  Rh  Rh21  1  0.666667  0.333333  0.750000  1
  Rh  Rh22  1  0.000000  0.000000  0.001990  1
  Rh  Rh23  1  0.000000  0.000000  0.498010  1
