# generated using pymatgen
data_AcAl2ZnGa
_symmetry_space_group_name_H-M   'P 1'
_cell_length_a   4.40930072
_cell_length_b   4.40930111
_cell_length_c   6.35676649
_cell_angle_alpha   69.70709759
_cell_angle_beta   69.70708058
_cell_angle_gamma   90.00000552
_symmetry_Int_Tables_number   1
_chemical_formula_structural   AcAl2ZnGa
_chemical_formula_sum   'Ac1 Al2 Zn1 Ga1'
_cell_volume   107.70113178
_cell_formula_units_Z   1
loop_
 _symmetry_equiv_pos_site_id
 _symmetry_equiv_pos_as_xyz
  1  'x, y, z'
loop_
 _atom_site_type_symbol
 _atom_site_label
 _atom_site_symmetry_multiplicity
 _atom_site_fract_x
 _atom_site_fract_y
 _atom_site_fract_z
 _atom_site_occupancy
  Ac  Ac0  1  0.998749  0.998749  0.002503  1
  Al  Al1  1  0.748142  0.248142  0.503715  1
  Al  Al2  1  0.248142  0.748142  0.503715  1
  Zn  Zn3  1  0.619158  0.619158  0.761683  1
  Ga  Ga4  1  0.385808  0.385808  0.228386  1
