# generated using pymatgen
data_Tb8Y2In8CoNi3
_symmetry_space_group_name_H-M   'P 1'
_cell_length_a   3.58480500
_cell_length_b   8.04587900
_cell_length_c   17.97419101
_cell_angle_alpha   89.99684832
_cell_angle_beta   89.99999362
_cell_angle_gamma   90.00000712
_symmetry_Int_Tables_number   1
_chemical_formula_structural   Tb8Y2In8CoNi3
_chemical_formula_sum   'Tb8 Y2 In8 Co1 Ni3'
_cell_volume   518.42792387
_cell_formula_units_Z   1
loop_
 _symmetry_equiv_pos_site_id
 _symmetry_equiv_pos_as_xyz
  1  'x, y, z'
loop_
 _atom_site_type_symbol
 _atom_site_label
 _atom_site_symmetry_multiplicity
 _atom_site_fract_x
 _atom_site_fract_y
 _atom_site_fract_z
 _atom_site_occupancy
  Tb  Tb0  1  0.000000  0.739775  0.277363  1
  Tb  Tb1  1  0.000000  0.254391  0.721626  1
  Tb  Tb2  1  0.000000  0.753974  0.778076  1
  Tb  Tb3  1  0.000000  0.254672  0.221300  1
  Tb  Tb4  1  0.000000  0.615289  0.090004  1
  Tb  Tb5  1  0.000000  0.382983  0.911899  1
  Tb  Tb6  1  0.000000  0.883148  0.587915  1
  Tb  Tb7  1  0.000000  0.117345  0.411105  1
  Y  Y8  1  0.000000  0.500143  0.499805  1
  Y  Y9  1  0.000000  0.000310  0.000441  1
  In  In10  1  0.500000  0.706042  0.930991  1
  In  In11  1  0.500000  0.294748  0.070084  1
  In  In12  1  0.500000  0.794369  0.430677  1
  In  In13  1  0.500000  0.205907  0.568956  1
  In  In14  1  0.500000  0.571229  0.651623  1
  In  In15  1  0.500000  0.430668  0.348174  1
  In  In16  1  0.500000  0.928922  0.152389  1
  In  In17  1  0.500000  0.070867  0.848387  1
  Co  Co18  1  0.500000  0.519825  0.195219  1
  Ni  Ni19  1  0.500000  0.477379  0.803927  1
  Ni  Ni20  1  0.500000  0.977500  0.695973  1
  Ni  Ni21  1  0.500000  0.020512  0.304066  1
