# generated using pymatgen
data_DyHo11(SiPd)12
_symmetry_space_group_name_H-M   'P 1'
_cell_length_a   4.35033500
_cell_length_b   7.41935200
_cell_length_c   20.91568400
_cell_angle_alpha   90.00089581
_cell_angle_beta   90.00000000
_cell_angle_gamma   90.00000000
_symmetry_Int_Tables_number   1
_chemical_formula_structural   DyHo11(SiPd)12
_chemical_formula_sum   'Dy1 Ho11 Si12 Pd12'
_cell_volume   675.08856091
_cell_formula_units_Z   1
loop_
 _symmetry_equiv_pos_site_id
 _symmetry_equiv_pos_as_xyz
  1  'x, y, z'
loop_
 _atom_site_type_symbol
 _atom_site_label
 _atom_site_symmetry_multiplicity
 _atom_site_fract_x
 _atom_site_fract_y
 _atom_site_fract_z
 _atom_site_occupancy
  Dy  Dy0  1  0.250000  0.789945  0.501060  1
  Ho  Ho1  1  0.250000  0.705532  0.332709  1
  Ho  Ho2  1  0.750000  0.294159  0.667237  1
  Ho  Ho3  1  0.750000  0.205756  0.167153  1
  Ho  Ho4  1  0.250000  0.794198  0.832861  1
  Ho  Ho5  1  0.250000  0.792288  0.166540  1
  Ho  Ho6  1  0.750000  0.207705  0.833465  1
  Ho  Ho7  1  0.750000  0.292321  0.333342  1
  Ho  Ho8  1  0.250000  0.707427  0.666746  1
  Ho  Ho9  1  0.250000  0.711027  0.001050  1
  Ho  Ho10  1  0.750000  0.288942  0.998905  1
  Ho  Ho11  1  0.750000  0.211617  0.498873  1
  Si  Si12  1  0.250000  0.088841  0.071487  1
  Si  Si13  1  0.750000  0.911145  0.928484  1
  Si  Si14  1  0.750000  0.588317  0.428174  1
  Si  Si15  1  0.250000  0.410901  0.571563  1
  Si  Si16  1  0.250000  0.084771  0.271363  1
  Si  Si17  1  0.750000  0.915251  0.728724  1
  Si  Si18  1  0.750000  0.584819  0.228610  1
  Si  Si19  1  0.250000  0.415289  0.771412  1
  Si  Si20  1  0.250000  0.086739  0.395221  1
  Si  Si21  1  0.750000  0.913519  0.604764  1
  Si  Si22  1  0.750000  0.586591  0.104463  1
  Si  Si23  1  0.250000  0.413439  0.895558  1
  Pd  Pd24  1  0.250000  0.416661  0.236963  1
  Pd  Pd25  1  0.750000  0.583260  0.762996  1
  Pd  Pd26  1  0.750000  0.916694  0.262791  1
  Pd  Pd27  1  0.250000  0.083319  0.737232  1
  Pd  Pd28  1  0.250000  0.416542  0.437394  1
  Pd  Pd29  1  0.750000  0.582578  0.562878  1
  Pd  Pd30  1  0.750000  0.916920  0.062452  1
  Pd  Pd31  1  0.250000  0.083104  0.937507  1
  Pd  Pd32  1  0.250000  0.419623  0.093306  1
  Pd  Pd33  1  0.750000  0.580319  0.906601  1
  Pd  Pd34  1  0.750000  0.919753  0.406356  1
  Pd  Pd35  1  0.250000  0.080690  0.593761  1
