# generated using pymatgen
data_Tb6Ga7Pd16S
_symmetry_space_group_name_H-M   'P 1'
_cell_length_a   9.06498985
_cell_length_b   9.06535799
_cell_length_c   9.06504200
_cell_angle_alpha   59.99935042
_cell_angle_beta   59.99769315
_cell_angle_gamma   59.99679172
_symmetry_Int_Tables_number   1
_chemical_formula_structural   Tb6Ga7Pd16S
_chemical_formula_sum   'Tb6 Ga7 Pd16 S1'
_cell_volume   526.72856221
_cell_formula_units_Z   1
loop_
 _symmetry_equiv_pos_site_id
 _symmetry_equiv_pos_as_xyz
  1  'x, y, z'
loop_
 _atom_site_type_symbol
 _atom_site_label
 _atom_site_symmetry_multiplicity
 _atom_site_fract_x
 _atom_site_fract_y
 _atom_site_fract_z
 _atom_site_occupancy
  Tb  Tb0  1  0.716262  0.283759  0.283741  1
  Tb  Tb1  1  0.283738  0.716241  0.716259  1
  Tb  Tb2  1  0.283742  0.716231  0.283769  1
  Tb  Tb3  1  0.716258  0.283769  0.716231  1
  Tb  Tb4  1  0.283729  0.283759  0.716239  1
  Tb  Tb5  1  0.716271  0.716241  0.283761  1
  Ga  Ga6  1  0.000000  0.000000  0.000000  1
  Ga  Ga7  1  0.500000  0.000000  0.000000  1
  Ga  Ga8  1  0.000000  0.500000  0.500000  1
  Ga  Ga9  1  0.000000  0.500000  0.000000  1
  Ga  Ga10  1  0.500000  0.000000  0.500000  1
  Ga  Ga11  1  0.000000  0.000000  0.500000  1
  Ga  Ga12  1  0.500000  0.500000  0.000000  1
  Pd  Pd13  1  0.119245  0.119216  0.119193  1
  Pd  Pd14  1  0.880755  0.880784  0.880807  1
  Pd  Pd15  1  0.119209  0.119187  0.642392  1
  Pd  Pd16  1  0.119222  0.642389  0.119179  1
  Pd  Pd17  1  0.880791  0.880813  0.357608  1
  Pd  Pd18  1  0.880778  0.357611  0.880821  1
  Pd  Pd19  1  0.642394  0.119212  0.119177  1
  Pd  Pd20  1  0.357606  0.880788  0.880823  1
  Pd  Pd21  1  0.333078  0.333084  0.333093  1
  Pd  Pd22  1  0.666922  0.666916  0.666907  1
  Pd  Pd23  1  0.333062  0.333069  0.000793  1
  Pd  Pd24  1  0.333074  0.000774  0.333084  1
  Pd  Pd25  1  0.666938  0.666931  0.999207  1
  Pd  Pd26  1  0.666926  0.999226  0.666916  1
  Pd  Pd27  1  0.000726  0.333101  0.333097  1
  Pd  Pd28  1  0.999274  0.666899  0.666903  1
  S  S29  1  0.500000  0.500000  0.500000  1
