# generated using pymatgen
data_SmSiTc2C
_symmetry_space_group_name_H-M   'P 1'
_cell_length_a   5.83847773
_cell_length_b   5.83847779
_cell_length_c   7.32038600
_cell_angle_alpha   90.00000000
_cell_angle_beta   90.00000000
_cell_angle_gamma   140.38183700
_symmetry_Int_Tables_number   1
_chemical_formula_structural   SmSiTc2C
_chemical_formula_sum   'Sm2 Si2 Tc4 C2'
_cell_volume   159.12118728
_cell_formula_units_Z   2
loop_
 _symmetry_equiv_pos_site_id
 _symmetry_equiv_pos_as_xyz
  1  'x, y, z'
loop_
 _atom_site_type_symbol
 _atom_site_label
 _atom_site_symmetry_multiplicity
 _atom_site_fract_x
 _atom_site_fract_y
 _atom_site_fract_z
 _atom_site_occupancy
  Sm  Sm0  1  0.544458  0.455542  0.250000  1
  Sm  Sm1  1  0.455542  0.544458  0.750000  1
  Si  Si2  1  0.267353  0.732647  0.250000  1
  Si  Si3  1  0.732647  0.267353  0.750000  1
  Tc  Tc4  1  0.827600  0.172400  0.060658  1
  Tc  Tc5  1  0.172400  0.827600  0.939342  1
  Tc  Tc6  1  0.172400  0.827600  0.560658  1
  Tc  Tc7  1  0.827600  0.172400  0.439342  1
  C  C8  1  0.000000  0.000000  0.000000  1
  C  C9  1  0.000000  0.000000  0.500000  1
