# generated using pymatgen
data_Ho16Al6FePt
_symmetry_space_group_name_H-M   'P 1'
_cell_length_a   10.20289500
_cell_length_b   10.20289676
_cell_length_c   6.83133600
_cell_angle_alpha   90.00000000
_cell_angle_beta   90.00000000
_cell_angle_gamma   119.99999755
_symmetry_Int_Tables_number   1
_chemical_formula_structural   Ho16Al6FePt
_chemical_formula_sum   'Ho16 Al6 Fe1 Pt1'
_cell_volume   615.86170264
_cell_formula_units_Z   1
loop_
 _symmetry_equiv_pos_site_id
 _symmetry_equiv_pos_as_xyz
  1  'x, y, z'
loop_
 _atom_site_type_symbol
 _atom_site_label
 _atom_site_symmetry_multiplicity
 _atom_site_fract_x
 _atom_site_fract_y
 _atom_site_fract_z
 _atom_site_occupancy
  Ho  Ho0  1  0.528233  0.056465  0.509085  1
  Ho  Ho1  1  0.943535  0.471767  0.509085  1
  Ho  Ho2  1  0.528233  0.471767  0.509085  1
  Ho  Ho3  1  0.465017  0.930034  0.007958  1
  Ho  Ho4  1  0.069966  0.534983  0.007958  1
  Ho  Ho5  1  0.465017  0.534983  0.007958  1
  Ho  Ho6  1  0.174720  0.349439  0.718473  1
  Ho  Ho7  1  0.650561  0.825280  0.718473  1
  Ho  Ho8  1  0.174720  0.825280  0.718473  1
  Ho  Ho9  1  0.827660  0.655320  0.214112  1
  Ho  Ho10  1  0.344680  0.172340  0.214112  1
  Ho  Ho11  1  0.827660  0.172340  0.214112  1
  Ho  Ho12  1  0.666667  0.333333  0.875851  1
  Ho  Ho13  1  0.333333  0.666667  0.387456  1
  Ho  Ho14  1  0.000000  0.000000  0.493109  1
  Ho  Ho15  1  0.000000  0.000000  0.991675  1
  Al  Al16  1  0.837421  0.674843  0.748637  1
  Al  Al17  1  0.325157  0.162579  0.748637  1
  Al  Al18  1  0.837421  0.162579  0.748637  1
  Al  Al19  1  0.163353  0.326705  0.251556  1
  Al  Al20  1  0.673295  0.836647  0.251556  1
  Al  Al21  1  0.163353  0.836647  0.251556  1
  Fe  Fe22  1  0.333333  0.666667  0.778737  1
  Pt  Pt23  1  0.666667  0.333333  0.281745  1
