# generated using pymatgen
data_Sm6TiCo16ReP12
_symmetry_space_group_name_H-M   'P 1'
_cell_length_a   3.74848900
_cell_length_b   10.65491300
_cell_length_c   12.36728500
_cell_angle_alpha   90.00000000
_cell_angle_beta   90.00000000
_cell_angle_gamma   90.00000000
_symmetry_Int_Tables_number   1
_chemical_formula_structural   Sm6TiCo16ReP12
_chemical_formula_sum   'Sm6 Ti1 Co16 Re1 P12'
_cell_volume   493.94718844
_cell_formula_units_Z   1
loop_
 _symmetry_equiv_pos_site_id
 _symmetry_equiv_pos_as_xyz
  1  'x, y, z'
loop_
 _atom_site_type_symbol
 _atom_site_label
 _atom_site_symmetry_multiplicity
 _atom_site_fract_x
 _atom_site_fract_y
 _atom_site_fract_z
 _atom_site_occupancy
  Sm  Sm0  1  0.000000  0.500000  0.523856  1
  Sm  Sm1  1  0.500000  0.000000  0.476166  1
  Sm  Sm2  1  0.500000  0.818822  0.205419  1
  Sm  Sm3  1  0.500000  0.181178  0.205419  1
  Sm  Sm4  1  0.000000  0.681733  0.795402  1
  Sm  Sm5  1  0.000000  0.318267  0.795402  1
  Ti  Ti6  1  0.500000  0.500000  0.150428  1
  Co  Co7  1  0.500000  0.500000  0.702937  1
  Co  Co8  1  0.000000  0.000000  0.297421  1
  Co  Co9  1  0.000000  0.500000  0.986626  1
  Co  Co10  1  0.500000  0.000000  0.011002  1
  Co  Co11  1  0.500000  0.330496  0.992539  1
  Co  Co12  1  0.500000  0.669504  0.992539  1
  Co  Co13  1  0.000000  0.165348  0.007279  1
  Co  Co14  1  0.000000  0.834652  0.007279  1
  Co  Co15  1  0.500000  0.295378  0.431718  1
  Co  Co16  1  0.500000  0.704622  0.431718  1
  Co  Co17  1  0.000000  0.203487  0.569734  1
  Co  Co18  1  0.000000  0.796513  0.569734  1
  Co  Co19  1  0.500000  0.881022  0.709065  1
  Co  Co20  1  0.500000  0.118978  0.709065  1
  Co  Co21  1  0.000000  0.620661  0.292186  1
  Co  Co22  1  0.000000  0.379339  0.292186  1
  Re  Re23  1  0.000000  0.000000  0.844388  1
  P  P24  1  0.500000  0.500000  0.884386  1
  P  P25  1  0.000000  0.000000  0.116944  1
  P  P26  1  0.500000  0.500000  0.349663  1
  P  P27  1  0.000000  0.000000  0.653947  1
  P  P28  1  0.500000  0.308546  0.615279  1
  P  P29  1  0.500000  0.691454  0.615279  1
  P  P30  1  0.000000  0.191215  0.385636  1
  P  P31  1  0.000000  0.808785  0.385636  1
  P  P32  1  0.500000  0.847173  0.893030  1
  P  P33  1  0.500000  0.152827  0.893030  1
  P  P34  1  0.000000  0.656358  0.103831  1
  P  P35  1  0.000000  0.343642  0.103831  1
