# generated using pymatgen
data_Ca4HgSb3Pt4
_symmetry_space_group_name_H-M   'P 1'
_cell_length_a   4.65538600
_cell_length_b   7.40123536
_cell_length_c   8.00402691
_cell_angle_alpha   90.86157890
_cell_angle_beta   90.00000000
_cell_angle_gamma   90.00000000
_symmetry_Int_Tables_number   1
_chemical_formula_structural   Ca4HgSb3Pt4
_chemical_formula_sum   'Ca4 Hg1 Sb3 Pt4'
_cell_volume   275.75242951
_cell_formula_units_Z   1
loop_
 _symmetry_equiv_pos_site_id
 _symmetry_equiv_pos_as_xyz
  1  'x, y, z'
loop_
 _atom_site_type_symbol
 _atom_site_label
 _atom_site_symmetry_multiplicity
 _atom_site_fract_x
 _atom_site_fract_y
 _atom_site_fract_z
 _atom_site_occupancy
  Ca  Ca0  1  0.750000  0.991676  0.694414  1
  Ca  Ca1  1  0.250000  0.013438  0.305195  1
  Ca  Ca2  1  0.750000  0.492385  0.799881  1
  Ca  Ca3  1  0.250000  0.505504  0.202614  1
  Hg  Hg4  1  0.750000  0.307689  0.408069  1
  Sb  Sb5  1  0.250000  0.180121  0.913800  1
  Sb  Sb6  1  0.250000  0.683768  0.584047  1
  Sb  Sb7  1  0.750000  0.809815  0.089062  1
  Pt  Pt8  1  0.250000  0.798269  0.911590  1
  Pt  Pt9  1  0.250000  0.309109  0.606082  1
  Pt  Pt10  1  0.750000  0.720390  0.413899  1
  Pt  Pt11  1  0.750000  0.187837  0.071347  1
