# generated using pymatgen
data_K3Sr3GaP4
_symmetry_space_group_name_H-M   'P 1'
_cell_length_a   9.99691200
_cell_length_b   9.99691308
_cell_length_c   7.46437700
_cell_angle_alpha   90.00000000
_cell_angle_beta   90.00000000
_cell_angle_gamma   119.99999642
_symmetry_Int_Tables_number   1
_chemical_formula_structural   K3Sr3GaP4
_chemical_formula_sum   'K6 Sr6 Ga2 P8'
_cell_volume   646.03492771
_cell_formula_units_Z   2
loop_
 _symmetry_equiv_pos_site_id
 _symmetry_equiv_pos_as_xyz
  1  'x, y, z'
loop_
 _atom_site_type_symbol
 _atom_site_label
 _atom_site_symmetry_multiplicity
 _atom_site_fract_x
 _atom_site_fract_y
 _atom_site_fract_z
 _atom_site_occupancy
  K  K0  1  0.729967  0.864984  0.174186  1
  K  K1  1  0.864984  0.135016  0.674186  1
  K  K2  1  0.864984  0.729967  0.674186  1
  K  K3  1  0.135016  0.270033  0.174186  1
  K  K4  1  0.135016  0.864984  0.174186  1
  K  K5  1  0.270033  0.135016  0.674186  1
  Sr  Sr6  1  0.051692  0.525847  0.498907  1
  Sr  Sr7  1  0.474153  0.948308  0.498907  1
  Sr  Sr8  1  0.474153  0.525847  0.498907  1
  Sr  Sr9  1  0.525847  0.474153  0.998907  1
  Sr  Sr10  1  0.525847  0.051692  0.998907  1
  Sr  Sr11  1  0.948308  0.474153  0.998907  1
  Ga  Ga12  1  0.333333  0.666667  0.879823  1
  Ga  Ga13  1  0.666667  0.333333  0.379823  1
  P  P14  1  0.666667  0.333333  0.717393  1
  P  P15  1  0.598018  0.799009  0.770902  1
  P  P16  1  0.799009  0.200991  0.270902  1
  P  P17  1  0.799009  0.598018  0.270902  1
  P  P18  1  0.333333  0.666667  0.217393  1
  P  P19  1  0.200991  0.401982  0.770902  1
  P  P20  1  0.200991  0.799009  0.770902  1
  P  P21  1  0.401982  0.200991  0.270902  1
