# generated using pymatgen
data_Th2Cu3P4Pd
_symmetry_space_group_name_H-M   'P 1'
_cell_length_a   3.87552700
_cell_length_b   9.12064072
_cell_length_c   9.94176870
_cell_angle_alpha   90.64948510
_cell_angle_beta   90.00000000
_cell_angle_gamma   90.00000000
_symmetry_Int_Tables_number   1
_chemical_formula_structural   Th2Cu3P4Pd
_chemical_formula_sum   'Th4 Cu6 P8 Pd2'
_cell_volume   351.39199741
_cell_formula_units_Z   2
loop_
 _symmetry_equiv_pos_site_id
 _symmetry_equiv_pos_as_xyz
  1  'x, y, z'
loop_
 _atom_site_type_symbol
 _atom_site_label
 _atom_site_symmetry_multiplicity
 _atom_site_fract_x
 _atom_site_fract_y
 _atom_site_fract_z
 _atom_site_occupancy
  Th  Th0  1  0.250000  0.249574  0.688925  1
  Th  Th1  1  0.750000  0.750426  0.311075  1
  Th  Th2  1  0.250000  0.748138  0.810625  1
  Th  Th3  1  0.750000  0.251862  0.189375  1
  Cu  Cu4  1  0.750000  0.067901  0.449892  1
  Cu  Cu5  1  0.250000  0.932099  0.550108  1
  Cu  Cu6  1  0.750000  0.576320  0.043088  1
  Cu  Cu7  1  0.250000  0.423680  0.956912  1
  Cu  Cu8  1  0.250000  0.945899  0.096591  1
  Cu  Cu9  1  0.750000  0.054101  0.903409  1
  P  P10  1  0.250000  0.171323  0.974701  1
  P  P11  1  0.750000  0.828677  0.025299  1
  P  P12  1  0.250000  0.681848  0.525417  1
  P  P13  1  0.750000  0.318152  0.474583  1
  P  P14  1  0.250000  0.532278  0.174853  1
  P  P15  1  0.750000  0.467722  0.825147  1
  P  P16  1  0.250000  0.023557  0.319251  1
  P  P17  1  0.750000  0.976443  0.680749  1
  Pd  Pd18  1  0.250000  0.442402  0.399015  1
  Pd  Pd19  1  0.750000  0.557598  0.600985  1
