# generated using pymatgen
data_SmZnCuNi3
_symmetry_space_group_name_H-M   'P 1'
_cell_length_a   4.99232650
_cell_length_b   5.05679822
_cell_length_c   4.04680500
_cell_angle_alpha   90.00000000
_cell_angle_beta   90.00000000
_cell_angle_gamma   120.42811901
_symmetry_Int_Tables_number   1
_chemical_formula_structural   SmZnCuNi3
_chemical_formula_sum   'Sm1 Zn1 Cu1 Ni3'
_cell_volume   88.09104287
_cell_formula_units_Z   1
loop_
 _symmetry_equiv_pos_site_id
 _symmetry_equiv_pos_as_xyz
  1  'x, y, z'
loop_
 _atom_site_type_symbol
 _atom_site_label
 _atom_site_symmetry_multiplicity
 _atom_site_fract_x
 _atom_site_fract_y
 _atom_site_fract_z
 _atom_site_occupancy
  Sm  Sm0  1  0.333444  0.666722  0.000000  1
  Zn  Zn1  1  0.332175  0.166088  0.500000  1
  Cu  Cu2  1  0.677873  0.338935  0.000000  1
  Ni  Ni3  1  0.989248  0.994624  0.000000  1
  Ni  Ni4  1  0.833630  0.164622  0.500000  1
  Ni  Ni5  1  0.833630  0.669008  0.500000  1
