# generated using pymatgen
data_Tb8Tm9Sc3Pb16
_symmetry_space_group_name_H-M   'P 1'
_cell_length_a   8.06171952
_cell_length_b   15.43790800
_cell_length_c   8.16142900
_cell_angle_alpha   90.00000000
_cell_angle_beta   90.02057517
_cell_angle_gamma   90.00000000
_symmetry_Int_Tables_number   1
_chemical_formula_structural   Tb8Tm9Sc3Pb16
_chemical_formula_sum   'Tb8 Tm9 Sc3 Pb16'
_cell_volume   1015.73942988
_cell_formula_units_Z   1
loop_
 _symmetry_equiv_pos_site_id
 _symmetry_equiv_pos_as_xyz
  1  'x, y, z'
loop_
 _atom_site_type_symbol
 _atom_site_label
 _atom_site_symmetry_multiplicity
 _atom_site_fract_x
 _atom_site_fract_y
 _atom_site_fract_z
 _atom_site_occupancy
  Tb  Tb0  1  0.471026  0.596140  0.677758  1
  Tb  Tb1  1  0.972045  0.903962  0.823432  1
  Tb  Tb2  1  0.528567  0.096747  0.322806  1
  Tb  Tb3  1  0.028455  0.403530  0.177346  1
  Tb  Tb4  1  0.528567  0.403253  0.322806  1
  Tb  Tb5  1  0.028455  0.096470  0.177346  1
  Tb  Tb6  1  0.471026  0.903860  0.677758  1
  Tb  Tb7  1  0.972045  0.596038  0.823432  1
  Tm  Tm8  1  0.631546  0.623151  0.155087  1
  Tm  Tm9  1  0.132760  0.877043  0.344020  1
  Tm  Tm10  1  0.368155  0.123596  0.844607  1
  Tm  Tm11  1  0.868008  0.376204  0.655162  1
  Tm  Tm12  1  0.368155  0.376404  0.844607  1
  Tm  Tm13  1  0.868008  0.123796  0.655162  1
  Tm  Tm14  1  0.631546  0.876849  0.155087  1
  Tm  Tm15  1  0.132760  0.622957  0.344020  1
  Tm  Tm16  1  0.799438  0.750000  0.495028  1
  Sc  Sc17  1  0.299072  0.750000  0.005471  1
  Sc  Sc18  1  0.200875  0.250000  0.505582  1
  Sc  Sc19  1  0.700870  0.250000  0.994485  1
  Pb  Pb20  1  0.709364  0.455413  0.960425  1
  Pb  Pb21  1  0.209525  0.044597  0.539479  1
  Pb  Pb22  1  0.290747  0.955786  0.039418  1
  Pb  Pb23  1  0.790725  0.542651  0.459872  1
  Pb  Pb24  1  0.290747  0.544214  0.039418  1
  Pb  Pb25  1  0.790725  0.957349  0.459872  1
  Pb  Pb26  1  0.709364  0.044587  0.960425  1
  Pb  Pb27  1  0.209525  0.455403  0.539479  1
  Pb  Pb28  1  0.436261  0.750000  0.371104  1
  Pb  Pb29  1  0.941792  0.750000  0.123670  1
  Pb  Pb30  1  0.559714  0.250000  0.626267  1
  Pb  Pb31  1  0.059746  0.250000  0.873937  1
  Pb  Pb32  1  0.655459  0.750000  0.845003  1
  Pb  Pb33  1  0.160840  0.750000  0.661018  1
  Pb  Pb34  1  0.341841  0.250000  0.159026  1
  Pb  Pb35  1  0.842246  0.250000  0.340583  1
