# generated using pymatgen
data_La7DyMg2(SnAu4)2
_symmetry_space_group_name_H-M   'P 1'
_cell_length_a   8.22279912
_cell_length_b   8.22279912
_cell_length_c   7.90356064
_cell_angle_alpha   89.90945451
_cell_angle_beta   89.90945451
_cell_angle_gamma   89.72652704
_symmetry_Int_Tables_number   1
_chemical_formula_structural   La7DyMg2(SnAu4)2
_chemical_formula_sum   'La7 Dy1 Mg2 Sn2 Au8'
_cell_volume   534.38729592
_cell_formula_units_Z   1
loop_
 _symmetry_equiv_pos_site_id
 _symmetry_equiv_pos_as_xyz
  1  'x, y, z'
loop_
 _atom_site_type_symbol
 _atom_site_label
 _atom_site_symmetry_multiplicity
 _atom_site_fract_x
 _atom_site_fract_y
 _atom_site_fract_z
 _atom_site_occupancy
  La  La0  1  0.828757  0.171243  0.500000  1
  La  La1  1  0.166430  0.833570  0.500000  1
  La  La2  1  0.332034  0.330042  0.000363  1
  La  La3  1  0.669958  0.667966  0.999637  1
  La  La4  1  0.678262  0.675279  0.499846  1
  La  La5  1  0.324721  0.321738  0.500154  1
  La  La6  1  0.176114  0.823886  0.000000  1
  Dy  Dy7  1  0.826075  0.173925  0.000000  1
  Mg  Mg8  1  0.504131  0.999910  0.242993  1
  Mg  Mg9  1  0.000090  0.495869  0.757007  1
  Sn  Sn10  1  0.502993  0.002235  0.754355  1
  Sn  Sn11  1  0.997765  0.497007  0.245645  1
  Au  Au12  1  0.623033  0.359631  0.247859  1
  Au  Au13  1  0.382470  0.635589  0.260178  1
  Au  Au14  1  0.111914  0.140115  0.763682  1
  Au  Au15  1  0.878652  0.868065  0.761968  1
  Au  Au16  1  0.364411  0.617530  0.739822  1
  Au  Au17  1  0.640369  0.376967  0.752141  1
  Au  Au18  1  0.859885  0.888086  0.236318  1
  Au  Au19  1  0.131935  0.121348  0.238032  1
