# generated using pymatgen
data_ErMgZn3Ir
_symmetry_space_group_name_H-M   'P 1'
_cell_length_a   5.29801070
_cell_length_b   5.29801100
_cell_length_c   5.29801177
_cell_angle_alpha   59.29807411
_cell_angle_beta   59.29807097
_cell_angle_gamma   59.29808121
_symmetry_Int_Tables_number   1
_chemical_formula_structural   ErMgZn3Ir
_chemical_formula_sum   'Er1 Mg1 Zn3 Ir1'
_cell_volume   103.47279505
_cell_formula_units_Z   1
loop_
 _symmetry_equiv_pos_site_id
 _symmetry_equiv_pos_as_xyz
  1  'x, y, z'
loop_
 _atom_site_type_symbol
 _atom_site_label
 _atom_site_symmetry_multiplicity
 _atom_site_fract_x
 _atom_site_fract_y
 _atom_site_fract_z
 _atom_site_occupancy
  Er  Er0  1  0.253419  0.253419  0.253419  1
  Mg  Mg1  1  0.997868  0.997868  0.997868  1
  Zn  Zn2  1  0.625829  0.625829  0.122407  1
  Zn  Zn3  1  0.625829  0.122407  0.625829  1
  Zn  Zn4  1  0.122407  0.625829  0.625829  1
  Ir  Ir5  1  0.624647  0.624647  0.624647  1
