# generated using pymatgen
data_Ho9Cd(SiB4)4
_symmetry_space_group_name_H-M   'P 1'
_cell_length_a   7.17061100
_cell_length_b   7.17061100
_cell_length_c   7.95933700
_cell_angle_alpha   90.00000000
_cell_angle_beta   90.00000000
_cell_angle_gamma   90.00000000
_symmetry_Int_Tables_number   1
_chemical_formula_structural   Ho9Cd(SiB4)4
_chemical_formula_sum   'Ho9 Cd1 Si4 B16'
_cell_volume   409.25050051
_cell_formula_units_Z   1
loop_
 _symmetry_equiv_pos_site_id
 _symmetry_equiv_pos_as_xyz
  1  'x, y, z'
loop_
 _atom_site_type_symbol
 _atom_site_label
 _atom_site_symmetry_multiplicity
 _atom_site_fract_x
 _atom_site_fract_y
 _atom_site_fract_z
 _atom_site_occupancy
  Ho  Ho0  1  0.681667  0.180173  0.228347  1
  Ho  Ho1  1  0.318333  0.819827  0.771653  1
  Ho  Ho2  1  0.318333  0.819827  0.228347  1
  Ho  Ho3  1  0.819827  0.681667  0.228347  1
  Ho  Ho4  1  0.819827  0.681667  0.771653  1
  Ho  Ho5  1  0.681667  0.180173  0.771653  1
  Ho  Ho6  1  0.180173  0.318333  0.771653  1
  Ho  Ho7  1  0.180173  0.318333  0.228347  1
  Ho  Ho8  1  0.500000  0.500000  0.500000  1
  Cd  Cd9  1  0.000000  0.000000  0.500000  1
  Si  Si10  1  0.117473  0.613161  0.500000  1
  Si  Si11  1  0.882527  0.386839  0.500000  1
  Si  Si12  1  0.386839  0.117473  0.500000  1
  Si  Si13  1  0.613161  0.882527  0.500000  1
  B  B14  1  0.175491  0.038618  0.000000  1
  B  B15  1  0.824509  0.961382  0.000000  1
  B  B16  1  0.961382  0.175491  0.000000  1
  B  B17  1  0.327045  0.539725  0.000000  1
  B  B18  1  0.038618  0.824509  0.000000  1
  B  B19  1  0.672955  0.460275  0.000000  1
  B  B20  1  0.539725  0.672955  0.000000  1
  B  B21  1  0.460275  0.327045  0.000000  1
  B  B22  1  0.089441  0.588153  0.000000  1
  B  B23  1  0.910559  0.411847  0.000000  1
  B  B24  1  0.411847  0.089441  0.000000  1
  B  B25  1  0.588153  0.910559  0.000000  1
  B  B26  1  0.000000  0.000000  0.156954  1
  B  B27  1  0.000000  0.000000  0.843046  1
  B  B28  1  0.500000  0.500000  0.836094  1
  B  B29  1  0.500000  0.500000  0.163906  1
