# generated using pymatgen
data_Sc4MnAl7
_symmetry_space_group_name_H-M   'P 1'
_cell_length_a   5.36141900
_cell_length_b   5.36141920
_cell_length_c   8.56025300
_cell_angle_alpha   90.00000000
_cell_angle_beta   90.00000000
_cell_angle_gamma   120.00000492
_symmetry_Int_Tables_number   1
_chemical_formula_structural   Sc4MnAl7
_chemical_formula_sum   'Sc4 Mn1 Al7'
_cell_volume   213.09670048
_cell_formula_units_Z   1
loop_
 _symmetry_equiv_pos_site_id
 _symmetry_equiv_pos_as_xyz
  1  'x, y, z'
loop_
 _atom_site_type_symbol
 _atom_site_label
 _atom_site_symmetry_multiplicity
 _atom_site_fract_x
 _atom_site_fract_y
 _atom_site_fract_z
 _atom_site_occupancy
  Sc  Sc0  1  0.333333  0.666667  0.056917  1
  Sc  Sc1  1  0.666667  0.333333  0.562132  1
  Sc  Sc2  1  0.666667  0.333333  0.943083  1
  Sc  Sc3  1  0.333333  0.666667  0.437868  1
  Mn  Mn4  1  0.000000  0.000000  0.500000  1
  Al  Al5  1  0.000000  0.000000  0.000000  1
  Al  Al6  1  0.831572  0.663145  0.259583  1
  Al  Al7  1  0.168428  0.831572  0.740417  1
  Al  Al8  1  0.663145  0.831572  0.740417  1
  Al  Al9  1  0.336855  0.168428  0.259583  1
  Al  Al10  1  0.831572  0.168428  0.259583  1
  Al  Al11  1  0.168428  0.336855  0.740417  1
