# generated using pymatgen
data_Mn21CrMoC6
_symmetry_space_group_name_H-M   'P 1'
_cell_length_a   7.38055105
_cell_length_b   7.38004759
_cell_length_c   7.38027301
_cell_angle_alpha   59.99756013
_cell_angle_beta   60.00072669
_cell_angle_gamma   59.99758145
_symmetry_Int_Tables_number   1
_chemical_formula_structural   Mn21CrMoC6
_chemical_formula_sum   'Mn21 Cr1 Mo1 C6'
_cell_volume   284.24433522
_cell_formula_units_Z   1
loop_
 _symmetry_equiv_pos_site_id
 _symmetry_equiv_pos_as_xyz
  1  'x, y, z'
loop_
 _atom_site_type_symbol
 _atom_site_label
 _atom_site_symmetry_multiplicity
 _atom_site_fract_x
 _atom_site_fract_y
 _atom_site_fract_z
 _atom_site_occupancy
  Mn  Mn0  1  0.615009  0.615028  0.154958  1
  Mn  Mn1  1  0.380177  0.380152  0.380098  1
  Mn  Mn2  1  0.662416  0.000479  0.336595  1
  Mn  Mn3  1  0.000511  0.000505  0.336588  1
  Mn  Mn4  1  0.336631  0.000440  0.662442  1
  Mn  Mn5  1  0.336633  0.000451  0.000498  1
  Mn  Mn6  1  0.000457  0.336615  0.000499  1
  Mn  Mn7  1  0.662410  0.000482  0.000507  1
  Mn  Mn8  1  0.000445  0.336623  0.662442  1
  Mn  Mn9  1  0.336682  0.662429  0.000441  1
  Mn  Mn10  1  0.615023  0.154956  0.615021  1
  Mn  Mn11  1  0.000465  0.662420  0.000489  1
  Mn  Mn12  1  0.615009  0.615011  0.615010  1
  Mn  Mn13  1  0.154981  0.615022  0.614998  1
  Mn  Mn14  1  0.000033  0.000060  0.999980  1
  Mn  Mn15  1  0.000499  0.000494  0.662415  1
  Mn  Mn16  1  0.380191  0.859539  0.380120  1
  Mn  Mn17  1  0.859485  0.380184  0.380162  1
  Mn  Mn18  1  0.662426  0.336640  0.000462  1
  Mn  Mn19  1  0.000464  0.662417  0.336625  1
  Mn  Mn20  1  0.380178  0.380133  0.859582  1
  Cr  Cr21  1  0.249872  0.249927  0.250079  1
  Mo  Mo22  1  0.749953  0.749982  0.750037  1
  C  C23  1  0.274260  0.725780  0.274190  1
  C  C24  1  0.274219  0.274209  0.725790  1
  C  C25  1  0.274274  0.725754  0.725754  1
  C  C26  1  0.725773  0.274264  0.274201  1
  C  C27  1  0.725753  0.725746  0.274246  1
  C  C28  1  0.725773  0.274255  0.725771  1
