# generated using pymatgen
data_Y6Sc4(BiPb)3
_symmetry_space_group_name_H-M   'P 1'
_cell_length_a   8.96315700
_cell_length_b   8.96315791
_cell_length_c   6.28737400
_cell_angle_alpha   90.00000000
_cell_angle_beta   90.00000000
_cell_angle_gamma   119.99999295
_symmetry_Int_Tables_number   1
_chemical_formula_structural   Y6Sc4(BiPb)3
_chemical_formula_sum   'Y6 Sc4 Bi3 Pb3'
_cell_volume   437.44354139
_cell_formula_units_Z   1
loop_
 _symmetry_equiv_pos_site_id
 _symmetry_equiv_pos_as_xyz
  1  'x, y, z'
loop_
 _atom_site_type_symbol
 _atom_site_label
 _atom_site_symmetry_multiplicity
 _atom_site_fract_x
 _atom_site_fract_y
 _atom_site_fract_z
 _atom_site_occupancy
  Y  Y0  1  0.760258  0.760258  0.750000  1
  Y  Y1  1  0.239742  0.000000  0.750000  1
  Y  Y2  1  0.000000  0.239742  0.750000  1
  Y  Y3  1  0.240177  0.240177  0.250000  1
  Y  Y4  1  0.759823  0.000000  0.250000  1
  Y  Y5  1  0.000000  0.759823  0.250000  1
  Sc  Sc6  1  0.666667  0.333333  0.002258  1
  Sc  Sc7  1  0.333333  0.666667  0.002258  1
  Sc  Sc8  1  0.333333  0.666667  0.497742  1
  Sc  Sc9  1  0.666667  0.333333  0.497742  1
  Bi  Bi10  1  0.398592  0.398592  0.750000  1
  Bi  Bi11  1  0.601408  0.000000  0.750000  1
  Bi  Bi12  1  0.000000  0.601408  0.750000  1
  Pb  Pb13  1  0.601766  0.601766  0.250000  1
  Pb  Pb14  1  0.398234  0.000000  0.250000  1
  Pb  Pb15  1  0.000000  0.398234  0.250000  1
