# generated using pymatgen
data_Ti2Al(Co10B3)2
_symmetry_space_group_name_H-M   'P 1'
_cell_length_a   7.40326067
_cell_length_b   7.40326151
_cell_length_c   7.40326200
_cell_angle_alpha   60.00000674
_cell_angle_beta   60.00000298
_cell_angle_gamma   60.00000059
_symmetry_Int_Tables_number   1
_chemical_formula_structural   Ti2Al(Co10B3)2
_chemical_formula_sum   'Ti2 Al1 Co20 B6'
_cell_volume   286.91568236
_cell_formula_units_Z   1
loop_
 _symmetry_equiv_pos_site_id
 _symmetry_equiv_pos_as_xyz
  1  'x, y, z'
loop_
 _atom_site_type_symbol
 _atom_site_label
 _atom_site_symmetry_multiplicity
 _atom_site_fract_x
 _atom_site_fract_y
 _atom_site_fract_z
 _atom_site_occupancy
  Ti  Ti0  1  0.250000  0.250000  0.250000  1
  Ti  Ti1  1  0.750000  0.750000  0.750000  1
  Al  Al2  1  0.000000  0.000000  0.000000  1
  Co  Co3  1  0.852388  0.382538  0.382538  1
  Co  Co4  1  0.382538  0.852388  0.382538  1
  Co  Co5  1  0.382538  0.382538  0.852388  1
  Co  Co6  1  0.382538  0.382538  0.382538  1
  Co  Co7  1  0.147612  0.617462  0.617462  1
  Co  Co8  1  0.617462  0.147612  0.617462  1
  Co  Co9  1  0.617462  0.617462  0.147612  1
  Co  Co10  1  0.617462  0.617462  0.617462  1
  Co  Co11  1  0.658747  0.000000  0.000000  1
  Co  Co12  1  0.658747  0.000000  0.341253  1
  Co  Co13  1  0.658747  0.341253  0.000000  1
  Co  Co14  1  0.000000  0.658747  0.341253  1
  Co  Co15  1  0.000000  0.658747  0.000000  1
  Co  Co16  1  0.341253  0.658747  0.000000  1
  Co  Co17  1  0.000000  0.341253  0.658747  1
  Co  Co18  1  0.341253  0.000000  0.658747  1
  Co  Co19  1  0.000000  0.000000  0.658747  1
  Co  Co20  1  0.341253  0.000000  0.000000  1
  Co  Co21  1  0.000000  0.341253  0.000000  1
  Co  Co22  1  0.000000  0.000000  0.341253  1
  B  B23  1  0.725424  0.274576  0.274576  1
  B  B24  1  0.725424  0.274576  0.725424  1
  B  B25  1  0.725424  0.725424  0.274576  1
  B  B26  1  0.274576  0.725424  0.725424  1
  B  B27  1  0.274576  0.725424  0.274576  1
  B  B28  1  0.274576  0.274576  0.725424  1
