# generated using pymatgen
data_Ho6Er14Co3Bi8Os
_symmetry_space_group_name_H-M   'P 1'
_cell_length_a   7.91148307
_cell_length_b   8.89904100
_cell_length_c   12.34423114
_cell_angle_alpha   90.00000000
_cell_angle_beta   89.73214055
_cell_angle_gamma   90.00000000
_symmetry_Int_Tables_number   1
_chemical_formula_structural   Ho6Er14Co3Bi8Os
_chemical_formula_sum   'Ho6 Er14 Co3 Bi8 Os1'
_cell_volume   869.08130891
_cell_formula_units_Z   1
loop_
 _symmetry_equiv_pos_site_id
 _symmetry_equiv_pos_as_xyz
  1  'x, y, z'
loop_
 _atom_site_type_symbol
 _atom_site_label
 _atom_site_symmetry_multiplicity
 _atom_site_fract_x
 _atom_site_fract_y
 _atom_site_fract_z
 _atom_site_occupancy
  Ho  Ho0  1  0.652691  0.250000  0.300876  1
  Ho  Ho1  1  0.847707  0.250000  0.799784  1
  Ho  Ho2  1  0.114606  0.250000  0.188939  1
  Ho  Ho3  1  0.385077  0.250000  0.687715  1
  Ho  Ho4  1  0.946767  0.250000  0.502547  1
  Ho  Ho5  1  0.555285  0.250000  0.002989  1
  Er  Er6  1  0.346103  0.750000  0.700895  1
  Er  Er7  1  0.155062  0.750000  0.206629  1
  Er  Er8  1  0.881280  0.750000  0.805724  1
  Er  Er9  1  0.614359  0.750000  0.313423  1
  Er  Er10  1  0.673964  0.538162  0.563095  1
  Er  Er11  1  0.325193  0.462129  0.437011  1
  Er  Er12  1  0.175589  0.457814  0.935388  1
  Er  Er13  1  0.325193  0.037871  0.437011  1
  Er  Er14  1  0.825360  0.538792  0.063718  1
  Er  Er15  1  0.673964  0.961838  0.563095  1
  Er  Er16  1  0.825360  0.961208  0.063718  1
  Er  Er17  1  0.175589  0.042186  0.935388  1
  Er  Er18  1  0.053600  0.750000  0.498016  1
  Er  Er19  1  0.443241  0.750000  0.996581  1
  Co  Co20  1  0.930966  0.250000  0.008732  1
  Co  Co21  1  0.564733  0.250000  0.507720  1
  Co  Co22  1  0.433750  0.750000  0.492502  1
  Bi  Bi23  1  0.571352  0.509326  0.826297  1
  Bi  Bi24  1  0.429737  0.491353  0.173324  1
  Bi  Bi25  1  0.071767  0.490861  0.672200  1
  Bi  Bi26  1  0.429737  0.008647  0.173324  1
  Bi  Bi27  1  0.928238  0.509543  0.327412  1
  Bi  Bi28  1  0.571352  0.990674  0.826297  1
  Bi  Bi29  1  0.928238  0.990457  0.327412  1
  Bi  Bi30  1  0.071767  0.009139  0.672200  1
  Os  Os31  1  0.072372  0.750000  0.990037  1
