# generated using pymatgen
data_La5PrCd23P
_symmetry_space_group_name_H-M   'P 1'
_cell_length_a   10.15713464
_cell_length_b   10.16200728
_cell_length_c   10.16204017
_cell_angle_alpha   59.96816582
_cell_angle_beta   60.01575415
_cell_angle_gamma   60.01560249
_symmetry_Int_Tables_number   1
_chemical_formula_structural   La5PrCd23P
_chemical_formula_sum   'La5 Pr1 Cd23 P1'
_cell_volume   741.67707332
_cell_formula_units_Z   1
loop_
 _symmetry_equiv_pos_site_id
 _symmetry_equiv_pos_as_xyz
  1  'x, y, z'
loop_
 _atom_site_type_symbol
 _atom_site_label
 _atom_site_symmetry_multiplicity
 _atom_site_fract_x
 _atom_site_fract_y
 _atom_site_fract_z
 _atom_site_occupancy
  La  La0  1  0.796454  0.796226  0.203548  1
  La  La1  1  0.203768  0.796232  0.203543  1
  La  La2  1  0.796387  0.203613  0.203612  1
  La  La3  1  0.203774  0.203546  0.796228  1
  La  La4  1  0.796459  0.203541  0.796227  1
  Pr  Pr5  1  0.203370  0.796630  0.796631  1
  Cd  Cd6  1  0.832616  0.832485  0.502282  1
  Cd  Cd7  1  0.832617  0.502282  0.832485  1
  Cd  Cd8  1  0.501872  0.832591  0.832592  1
  Cd  Cd9  1  0.832944  0.832591  0.832592  1
  Cd  Cd10  1  0.167409  0.167056  0.498128  1
  Cd  Cd11  1  0.167409  0.498128  0.167056  1
  Cd  Cd12  1  0.497718  0.167383  0.167384  1
  Cd  Cd13  1  0.167515  0.167384  0.167384  1
  Cd  Cd14  1  0.621398  0.621410  0.135794  1
  Cd  Cd15  1  0.621398  0.135795  0.621408  1
  Cd  Cd16  1  0.135840  0.621584  0.621585  1
  Cd  Cd17  1  0.620990  0.621584  0.621585  1
  Cd  Cd18  1  0.378416  0.379010  0.864159  1
  Cd  Cd19  1  0.378416  0.864160  0.379010  1
  Cd  Cd20  1  0.864205  0.378602  0.378601  1
  Cd  Cd21  1  0.378590  0.378602  0.378602  1
  Cd  Cd22  1  0.000140  0.999860  0.500083  1
  Cd  Cd23  1  0.499917  0.999860  0.500082  1
  Cd  Cd24  1  0.000030  0.499971  0.499970  1
  Cd  Cd25  1  0.499916  0.500084  0.999859  1
  Cd  Cd26  1  0.000140  0.500083  0.999859  1
  Cd  Cd27  1  0.500029  0.999970  0.999971  1
  Cd  Cd28  1  0.500001  0.499999  0.499999  1
  P  P29  1  0.000262  0.999738  0.999740  1
