# generated using pymatgen
data_LiLa16Cd(HgOs2)2
_symmetry_space_group_name_H-M   'P 1'
_cell_length_a   10.06831874
_cell_length_b   10.08005898
_cell_length_c   10.09893700
_cell_angle_alpha   59.93803193
_cell_angle_beta   59.89935507
_cell_angle_gamma   59.97571969
_symmetry_Int_Tables_number   1
_chemical_formula_structural   LiLa16Cd(HgOs2)2
_chemical_formula_sum   'Li1 La16 Cd1 Hg2 Os4'
_cell_volume   723.71273744
_cell_formula_units_Z   1
loop_
 _symmetry_equiv_pos_site_id
 _symmetry_equiv_pos_as_xyz
  1  'x, y, z'
loop_
 _atom_site_type_symbol
 _atom_site_label
 _atom_site_symmetry_multiplicity
 _atom_site_fract_x
 _atom_site_fract_y
 _atom_site_fract_z
 _atom_site_occupancy
  Li  Li0  1  0.202370  0.930629  0.933500  1
  La  La1  1  0.943272  0.942250  0.557239  1
  La  La2  1  0.559167  0.942192  0.557187  1
  La  La3  1  0.559167  0.942192  0.941455  1
  La  La4  1  0.693261  0.691834  0.307453  1
  La  La5  1  0.154507  0.154634  0.535913  1
  La  La6  1  0.313541  0.686770  0.686219  1
  La  La7  1  0.154507  0.154634  0.154946  1
  La  La8  1  0.540705  0.153109  0.153093  1
  La  La9  1  0.313541  0.686770  0.313471  1
  La  La10  1  0.313049  0.315154  0.685899  1
  La  La11  1  0.691373  0.309130  0.690175  1
  La  La12  1  0.943096  0.558056  0.556643  1
  La  La13  1  0.558866  0.557090  0.942022  1
  La  La14  1  0.153420  0.538180  0.154200  1
  La  La15  1  0.691373  0.309130  0.309323  1
  La  La16  1  0.943096  0.558056  0.942203  1
  Cd  Cd17  1  0.921771  0.237313  0.920457  1
  Hg  Hg18  1  0.921265  0.917404  0.914296  1
  Hg  Hg19  1  0.921265  0.917404  0.247034  1
  Os  Os20  1  0.917194  0.360763  0.361021  1
  Os  Os21  1  0.363307  0.361790  0.913288  1
  Os  Os22  1  0.363584  0.913726  0.361345  1
  Os  Os23  1  0.363307  0.361790  0.361615  1
