# generated using pymatgen
data_PrMnSe2F
_symmetry_space_group_name_H-M   'P 1'
_cell_length_a   6.69301719
_cell_length_b   6.69301634
_cell_length_c   8.40735112
_cell_angle_alpha   91.59946899
_cell_angle_beta   91.59946881
_cell_angle_gamma   34.57013355
_symmetry_Int_Tables_number   1
_chemical_formula_structural   PrMnSe2F
_chemical_formula_sum   'Pr2 Mn2 Se4 F2'
_cell_volume   213.60817590
_cell_formula_units_Z   2
loop_
 _symmetry_equiv_pos_site_id
 _symmetry_equiv_pos_as_xyz
  1  'x, y, z'
loop_
 _atom_site_type_symbol
 _atom_site_label
 _atom_site_symmetry_multiplicity
 _atom_site_fract_x
 _atom_site_fract_y
 _atom_site_fract_z
 _atom_site_occupancy
  Pr  Pr0  1  0.750178  0.750178  0.228688  1
  Pr  Pr1  1  0.249821  0.249821  0.771312  1
  Mn  Mn2  1  0.500000  0.500000  0.000000  1
  Mn  Mn3  1  0.000000  0.000000  0.500001  1
  Se  Se4  1  0.064267  0.064267  0.195962  1
  Se  Se5  1  0.356513  0.356513  0.446519  1
  Se  Se6  1  0.643487  0.643487  0.553481  1
  Se  Se7  1  0.935733  0.935733  0.804038  1
  F  F8  1  0.315165  0.315165  0.068083  1
  F  F9  1  0.684836  0.684836  0.931917  1
