# generated using pymatgen
data_PrInBPtRh2
_symmetry_space_group_name_H-M   'P 1'
_cell_length_a   5.66851500
_cell_length_b   5.69169145
_cell_length_c   7.38400700
_cell_angle_alpha   90.00000000
_cell_angle_beta   90.00000000
_cell_angle_gamma   119.86538537
_symmetry_Int_Tables_number   1
_chemical_formula_structural   PrInBPtRh2
_chemical_formula_sum   'Pr2 In2 B2 Pt2 Rh4'
_cell_volume   206.59551508
_cell_formula_units_Z   2
loop_
 _symmetry_equiv_pos_site_id
 _symmetry_equiv_pos_as_xyz
  1  'x, y, z'
loop_
 _atom_site_type_symbol
 _atom_site_label
 _atom_site_symmetry_multiplicity
 _atom_site_fract_x
 _atom_site_fract_y
 _atom_site_fract_z
 _atom_site_occupancy
  Pr  Pr0  1  0.000000  0.000000  0.500000  1
  Pr  Pr1  1  0.000000  0.000000  0.000000  1
  In  In2  1  0.665074  0.330146  0.000000  1
  In  In3  1  0.334926  0.669854  0.000000  1
  B  B4  1  0.663217  0.326433  0.500000  1
  B  B5  1  0.336783  0.673567  0.500000  1
  Pt  Pt6  1  0.500000  0.500000  0.695712  1
  Pt  Pt7  1  0.000000  0.500000  0.304288  1
  Rh  Rh8  1  0.500000  0.500000  0.305705  1
  Rh  Rh9  1  0.500000  0.000000  0.304931  1
  Rh  Rh10  1  0.500000  0.000000  0.695069  1
  Rh  Rh11  1  0.000000  0.500000  0.694295  1
