# generated using pymatgen
data_La2Sm3P12Pd3Ru16
_symmetry_space_group_name_H-M   'P 1'
_cell_length_a   12.70656490
_cell_length_b   12.72587968
_cell_length_c   4.01466300
_cell_angle_alpha   90.00000000
_cell_angle_beta   90.00000000
_cell_angle_gamma   120.05029586
_symmetry_Int_Tables_number   1
_chemical_formula_structural   La2Sm3P12Pd3Ru16
_chemical_formula_sum   'La2 Sm3 P12 Pd3 Ru16'
_cell_volume   561.92113745
_cell_formula_units_Z   1
loop_
 _symmetry_equiv_pos_site_id
 _symmetry_equiv_pos_as_xyz
  1  'x, y, z'
loop_
 _atom_site_type_symbol
 _atom_site_label
 _atom_site_symmetry_multiplicity
 _atom_site_fract_x
 _atom_site_fract_y
 _atom_site_fract_z
 _atom_site_occupancy
  La  La0  1  0.181271  0.180777  0.500000  1
  La  La1  1  0.818729  0.999506  0.500000  1
  Sm  Sm2  1  0.000000  0.817038  0.500000  1
  Sm  Sm3  1  0.333861  0.667818  0.000000  1
  Sm  Sm4  1  0.666139  0.333956  0.000000  1
  P  P5  1  0.811921  0.809246  0.000000  1
  P  P6  1  0.188079  0.997325  0.000000  1
  P  P7  1  0.000000  0.191574  0.000000  1
  P  P8  1  0.180868  0.480435  0.500000  1
  P  P9  1  0.521541  0.701430  0.500000  1
  P  P10  1  0.299307  0.819810  0.500000  1
  P  P11  1  0.700693  0.520504  0.500000  1
  P  P12  1  0.819132  0.299569  0.500000  1
  P  P13  1  0.478459  0.179890  0.500000  1
  P  P14  1  0.370528  0.370239  0.000000  1
  P  P15  1  0.629472  0.999711  0.000000  1
  P  P16  1  0.000000  0.631293  0.000000  1
  Pd  Pd17  1  0.554760  0.553170  0.000000  1
  Pd  Pd18  1  0.445240  0.998409  0.000000  1
  Pd  Pd19  1  0.000000  0.447271  0.000000  1
  Ru  Ru20  1  0.710978  0.709551  0.500000  1
  Ru  Ru21  1  0.289022  0.998573  0.500000  1
  Ru  Ru22  1  0.000000  0.291526  0.500000  1
  Ru  Ru23  1  0.186970  0.382178  0.000000  1
  Ru  Ru24  1  0.619556  0.804799  0.000000  1
  Ru  Ru25  1  0.193095  0.812970  0.000000  1
  Ru  Ru26  1  0.806905  0.619875  0.000000  1
  Ru  Ru27  1  0.813030  0.195208  0.000000  1
  Ru  Ru28  1  0.380444  0.185243  0.000000  1
  Ru  Ru29  1  0.371177  0.494726  0.500000  1
  Ru  Ru30  1  0.507274  0.877155  0.500000  1
  Ru  Ru31  1  0.123302  0.630145  0.500000  1
  Ru  Ru32  1  0.876698  0.506842  0.500000  1
  Ru  Ru33  1  0.628823  0.123549  0.500000  1
  Ru  Ru34  1  0.492726  0.369881  0.500000  1
  Ru  Ru35  1  0.000000  0.998808  0.000000  1
