# generated using pymatgen
data_NdMg2NiIr8
_symmetry_space_group_name_H-M   'P 1'
_cell_length_a   5.09765600
_cell_length_b   8.77724000
_cell_length_c   8.77724000
_cell_angle_alpha   90.00000000
_cell_angle_beta   90.00000000
_cell_angle_gamma   90.00000000
_symmetry_Int_Tables_number   1
_chemical_formula_structural   NdMg2NiIr8
_chemical_formula_sum   'Nd2 Mg4 Ni2 Ir16'
_cell_volume   392.72312267
_cell_formula_units_Z   2
loop_
 _symmetry_equiv_pos_site_id
 _symmetry_equiv_pos_as_xyz
  1  'x, y, z'
loop_
 _atom_site_type_symbol
 _atom_site_label
 _atom_site_symmetry_multiplicity
 _atom_site_fract_x
 _atom_site_fract_y
 _atom_site_fract_z
 _atom_site_occupancy
  Nd  Nd0  1  0.000000  0.500000  0.500000  1
  Nd  Nd1  1  0.000000  0.000000  0.000000  1
  Mg  Mg2  1  0.000000  0.621039  0.121039  1
  Mg  Mg3  1  0.000000  0.378961  0.878961  1
  Mg  Mg4  1  0.000000  0.878961  0.621039  1
  Mg  Mg5  1  0.000000  0.121039  0.378961  1
  Ni  Ni6  1  0.500000  0.000000  0.500000  1
  Ni  Ni7  1  0.500000  0.500000  0.000000  1
  Ir  Ir8  1  0.761115  0.174683  0.674683  1
  Ir  Ir9  1  0.761115  0.825317  0.325317  1
  Ir  Ir10  1  0.761115  0.325317  0.174683  1
  Ir  Ir11  1  0.761115  0.674683  0.825317  1
  Ir  Ir12  1  0.238885  0.825317  0.325317  1
  Ir  Ir13  1  0.238885  0.174683  0.674683  1
  Ir  Ir14  1  0.238885  0.674683  0.825317  1
  Ir  Ir15  1  0.238885  0.325317  0.174683  1
  Ir  Ir16  1  0.500000  0.708708  0.563625  1
  Ir  Ir17  1  0.500000  0.291292  0.436375  1
  Ir  Ir18  1  0.500000  0.791292  0.063625  1
  Ir  Ir19  1  0.500000  0.208708  0.936375  1
  Ir  Ir20  1  0.500000  0.563625  0.291292  1
  Ir  Ir21  1  0.500000  0.436375  0.708708  1
  Ir  Ir22  1  0.500000  0.063625  0.208708  1
  Ir  Ir23  1  0.500000  0.936375  0.791292  1
