# generated using pymatgen
data_Ba4Tm(TcO6)2
_symmetry_space_group_name_H-M   'P 1'
_cell_length_a   10.06455706
_cell_length_b   10.06455781
_cell_length_c   10.06455843
_cell_angle_alpha   33.92582431
_cell_angle_beta   33.92581878
_cell_angle_gamma   33.92582217
_symmetry_Int_Tables_number   1
_chemical_formula_structural   Ba4Tm(TcO6)2
_chemical_formula_sum   'Ba4 Tm1 Tc2 O12'
_cell_volume   283.03837853
_cell_formula_units_Z   1
loop_
 _symmetry_equiv_pos_site_id
 _symmetry_equiv_pos_as_xyz
  1  'x, y, z'
loop_
 _atom_site_type_symbol
 _atom_site_label
 _atom_site_symmetry_multiplicity
 _atom_site_fract_x
 _atom_site_fract_y
 _atom_site_fract_z
 _atom_site_occupancy
  Ba  Ba0  1  0.710031  0.710031  0.710031  1
  Ba  Ba1  1  0.289969  0.289969  0.289969  1
  Ba  Ba2  1  0.867988  0.867988  0.867988  1
  Ba  Ba3  1  0.132012  0.132012  0.132012  1
  Tm  Tm4  1  0.000000  0.000000  0.000000  1
  Tc  Tc5  1  0.578213  0.578213  0.578213  1
  Tc  Tc6  1  0.421787  0.421787  0.421787  1
  O  O7  1  0.221934  0.690427  0.221934  1
  O  O8  1  0.221934  0.221934  0.690427  1
  O  O9  1  0.690427  0.221934  0.221934  1
  O  O10  1  0.778066  0.309573  0.778066  1
  O  O11  1  0.778066  0.778066  0.309573  1
  O  O12  1  0.309573  0.778066  0.778066  1
  O  O13  1  0.388721  0.857519  0.388721  1
  O  O14  1  0.388721  0.388721  0.857519  1
  O  O15  1  0.857519  0.388721  0.388721  1
  O  O16  1  0.611279  0.142481  0.611279  1
  O  O17  1  0.611279  0.611279  0.142481  1
  O  O18  1  0.142481  0.611279  0.611279  1
