# generated using pymatgen
data_Tb3Ce(Lu3Sn4)2
_symmetry_space_group_name_H-M   'P 1'
_cell_length_a   8.15540200
_cell_length_b   8.15291994
_cell_length_c   14.92811800
_cell_angle_alpha   90.00000000
_cell_angle_beta   90.00000000
_cell_angle_gamma   90.06308713
_symmetry_Int_Tables_number   1
_chemical_formula_structural   Tb3Ce(Lu3Sn4)2
_chemical_formula_sum   'Tb6 Ce2 Lu12 Sn16'
_cell_volume   992.57503376
_cell_formula_units_Z   2
loop_
 _symmetry_equiv_pos_site_id
 _symmetry_equiv_pos_as_xyz
  1  'x, y, z'
loop_
 _atom_site_type_symbol
 _atom_site_label
 _atom_site_symmetry_multiplicity
 _atom_site_fract_x
 _atom_site_fract_y
 _atom_site_fract_z
 _atom_site_occupancy
  Tb  Tb0  1  0.154661  0.506753  0.470003  1
  Tb  Tb1  1  0.493667  0.846701  0.030797  1
  Tb  Tb2  1  0.845339  0.493247  0.970003  1
  Tb  Tb3  1  0.506333  0.153299  0.530797  1
  Tb  Tb4  1  0.347701  0.005005  0.781926  1
  Tb  Tb5  1  0.652299  0.994995  0.281926  1
  Ce  Ce6  1  0.001508  0.347462  0.217357  1
  Ce  Ce7  1  0.998492  0.652538  0.717357  1
  Lu  Lu8  1  0.169862  0.167575  0.000045  1
  Lu  Lu9  1  0.830138  0.832425  0.500045  1
  Lu  Lu10  1  0.330389  0.670843  0.249874  1
  Lu  Lu11  1  0.669611  0.329157  0.749874  1
  Lu  Lu12  1  0.164407  0.002339  0.380422  1
  Lu  Lu13  1  0.835593  0.997661  0.880422  1
  Lu  Lu14  1  0.501040  0.663481  0.629775  1
  Lu  Lu15  1  0.336996  0.498827  0.869604  1
  Lu  Lu16  1  0.498960  0.336519  0.129775  1
  Lu  Lu17  1  0.663004  0.501173  0.369604  1
  Lu  Lu18  1  0.999989  0.163823  0.620463  1
  Lu  Lu19  1  0.000011  0.836177  0.120463  1
  Sn  Sn20  1  0.362907  0.304923  0.330406  1
  Sn  Sn21  1  0.637093  0.695077  0.830406  1
  Sn  Sn22  1  0.200119  0.867557  0.579437  1
  Sn  Sn23  1  0.136145  0.801186  0.920265  1
  Sn  Sn24  1  0.799881  0.132443  0.079437  1
  Sn  Sn25  1  0.863855  0.198814  0.420265  1
  Sn  Sn26  1  0.303573  0.363065  0.669412  1
  Sn  Sn27  1  0.696427  0.636935  0.169412  1
  Sn  Sn28  1  0.294596  0.032574  0.181303  1
  Sn  Sn29  1  0.705404  0.967426  0.681303  1
  Sn  Sn30  1  0.467499  0.795157  0.430958  1
  Sn  Sn31  1  0.206818  0.534418  0.067802  1
  Sn  Sn32  1  0.532501  0.204843  0.930958  1
  Sn  Sn33  1  0.793182  0.465582  0.567802  1
  Sn  Sn34  1  0.032395  0.293148  0.820149  1
  Sn  Sn35  1  0.967605  0.706852  0.320149  1
