# generated using pymatgen
data_Ba2PaFeS5
_symmetry_space_group_name_H-M   'P 1'
_cell_length_a   9.04742000
_cell_length_b   8.49440900
_cell_length_c   11.94271200
_cell_angle_alpha   90.00000000
_cell_angle_beta   90.00000000
_cell_angle_gamma   90.00000000
_symmetry_Int_Tables_number   1
_chemical_formula_structural   Ba2PaFeS5
_chemical_formula_sum   'Ba8 Pa4 Fe4 S20'
_cell_volume   917.82710529
_cell_formula_units_Z   4
loop_
 _symmetry_equiv_pos_site_id
 _symmetry_equiv_pos_as_xyz
  1  'x, y, z'
loop_
 _atom_site_type_symbol
 _atom_site_label
 _atom_site_symmetry_multiplicity
 _atom_site_fract_x
 _atom_site_fract_y
 _atom_site_fract_z
 _atom_site_occupancy
  Ba  Ba0  1  0.612312  0.506430  0.327502  1
  Ba  Ba1  1  0.887688  0.993570  0.827502  1
  Ba  Ba2  1  0.387688  0.006430  0.672498  1
  Ba  Ba3  1  0.112312  0.493570  0.172498  1
  Ba  Ba4  1  0.387688  0.493570  0.672498  1
  Ba  Ba5  1  0.112312  0.006430  0.172498  1
  Ba  Ba6  1  0.612312  0.993570  0.327502  1
  Ba  Ba7  1  0.887688  0.506430  0.827502  1
  Pa  Pa8  1  0.482007  0.750000  0.994036  1
  Pa  Pa9  1  0.017993  0.750000  0.494036  1
  Pa  Pa10  1  0.517993  0.250000  0.005964  1
  Pa  Pa11  1  0.982007  0.250000  0.505964  1
  Fe  Fe12  1  0.798890  0.750000  0.100064  1
  Fe  Fe13  1  0.701110  0.750000  0.600064  1
  Fe  Fe14  1  0.201110  0.250000  0.899936  1
  Fe  Fe15  1  0.298890  0.250000  0.399936  1
  S  S16  1  0.672235  0.521069  0.060477  1
  S  S17  1  0.827765  0.978931  0.560477  1
  S  S18  1  0.327765  0.021069  0.939523  1
  S  S19  1  0.172235  0.478931  0.439523  1
  S  S20  1  0.327765  0.478931  0.939523  1
  S  S21  1  0.172235  0.021069  0.439523  1
  S  S22  1  0.672235  0.978931  0.060477  1
  S  S23  1  0.827765  0.521069  0.560477  1
  S  S24  1  0.374984  0.750000  0.195038  1
  S  S25  1  0.125016  0.750000  0.695038  1
  S  S26  1  0.625016  0.250000  0.804962  1
  S  S27  1  0.874984  0.250000  0.304962  1
  S  S28  1  0.886005  0.750000  0.288234  1
  S  S29  1  0.613995  0.750000  0.788234  1
  S  S30  1  0.113995  0.250000  0.711766  1
  S  S31  1  0.386005  0.250000  0.211766  1
  S  S32  1  0.492489  0.750000  0.500016  1
  S  S33  1  0.007511  0.750000  0.000016  1
  S  S34  1  0.507511  0.250000  0.499984  1
  S  S35  1  0.992489  0.250000  0.999984  1
