# generated using pymatgen
data_La2Tb4RuBr10
_symmetry_space_group_name_H-M   'P 1'
_cell_length_a   7.54290456
_cell_length_b   9.48626246
_cell_length_c   9.36396694
_cell_angle_alpha   107.71576753
_cell_angle_beta   95.45347646
_cell_angle_gamma   106.86212253
_symmetry_Int_Tables_number   1
_chemical_formula_structural   La2Tb4RuBr10
_chemical_formula_sum   'La2 Tb4 Ru1 Br10'
_cell_volume   598.33803590
_cell_formula_units_Z   1
loop_
 _symmetry_equiv_pos_site_id
 _symmetry_equiv_pos_as_xyz
  1  'x, y, z'
loop_
 _atom_site_type_symbol
 _atom_site_label
 _atom_site_symmetry_multiplicity
 _atom_site_fract_x
 _atom_site_fract_y
 _atom_site_fract_z
 _atom_site_occupancy
  La  La0  1  0.123681  0.046722  0.762992  1
  La  La1  1  0.876319  0.953278  0.237008  1
  Tb  Tb2  1  0.976822  0.304497  0.097721  1
  Tb  Tb3  1  0.023178  0.695503  0.902279  1
  Tb  Tb4  1  0.367843  0.141165  0.180762  1
  Tb  Tb5  1  0.632157  0.858835  0.819238  1
  Ru  Ru6  1  0.000000  0.000000  0.000000  1
  Br  Br7  1  0.553466  0.175239  0.920729  1
  Br  Br8  1  0.446534  0.824761  0.079271  1
  Br  Br9  1  0.354722  0.452396  0.271815  1
  Br  Br10  1  0.645278  0.547604  0.728185  1
  Br  Br11  1  0.265937  0.088076  0.451251  1
  Br  Br12  1  0.734063  0.911924  0.548749  1
  Br  Br13  1  0.788849  0.265315  0.344286  1
  Br  Br14  1  0.211151  0.734685  0.655714  1
  Br  Br15  1  0.085628  0.376787  0.834292  1
  Br  Br16  1  0.914372  0.623213  0.165708  1
