# generated using pymatgen
data_TeP4RuO14
_symmetry_space_group_name_H-M   'P 1'
_cell_length_a   8.40895047
_cell_length_b   4.94864829
_cell_length_c   7.12210900
_cell_angle_alpha   74.22848152
_cell_angle_beta   90.57772690
_cell_angle_gamma   89.74397407
_symmetry_Int_Tables_number   1
_chemical_formula_structural   TeP4RuO14
_chemical_formula_sum   'Te1 P4 Ru1 O14'
_cell_volume   285.19193504
_cell_formula_units_Z   1
loop_
 _symmetry_equiv_pos_site_id
 _symmetry_equiv_pos_as_xyz
  1  'x, y, z'
loop_
 _atom_site_type_symbol
 _atom_site_label
 _atom_site_symmetry_multiplicity
 _atom_site_fract_x
 _atom_site_fract_y
 _atom_site_fract_z
 _atom_site_occupancy
  Te  Te0  1  0.007031  0.780526  0.730127  1
  P  P1  1  0.255109  0.228591  0.893842  1
  P  P2  1  0.815434  0.385523  0.475992  1
  P  P3  1  0.711170  0.773057  0.107076  1
  P  P4  1  0.324364  0.614625  0.516136  1
  Ru  Ru5  1  0.500588  0.219556  0.282251  1
  O  O6  1  0.832953  0.566042  0.620702  1
  O  O7  1  0.793022  0.863049  0.913389  1
  O  O8  1  0.098680  0.389690  0.906951  1
  O  O9  1  0.366684  0.441647  0.736967  1
  O  O10  1  0.224195  0.972719  0.818195  1
  O  O11  1  0.840957  0.583312  0.258995  1
  O  O12  1  0.943479  0.157817  0.502057  1
  O  O13  1  0.325771  0.412733  0.386307  1
  O  O14  1  0.676045  0.031085  0.183139  1
  O  O15  1  0.643146  0.277388  0.493438  1
  O  O16  1  0.345859  0.145318  0.085842  1
  O  O17  1  0.148855  0.720791  0.512285  1
  O  O18  1  0.562268  0.590114  0.106486  1
  O  O19  1  0.446995  0.846415  0.469823  1
