# generated using pymatgen
data_Er2TmZn3Si2Ag
_symmetry_space_group_name_H-M   'P 1'
_cell_length_a   6.82218749
_cell_length_b   6.82218889
_cell_length_c   4.26722000
_cell_angle_alpha   90.00000000
_cell_angle_beta   90.00000000
_cell_angle_gamma   119.95651226
_symmetry_Int_Tables_number   1
_chemical_formula_structural   Er2TmZn3Si2Ag
_chemical_formula_sum   'Er2 Tm1 Zn3 Si2 Ag1'
_cell_volume   172.07318695
_cell_formula_units_Z   1
loop_
 _symmetry_equiv_pos_site_id
 _symmetry_equiv_pos_as_xyz
  1  'x, y, z'
loop_
 _atom_site_type_symbol
 _atom_site_label
 _atom_site_symmetry_multiplicity
 _atom_site_fract_x
 _atom_site_fract_y
 _atom_site_fract_z
 _atom_site_occupancy
  Er  Er0  1  0.573637  0.999840  0.000000  1
  Er  Er1  1  0.999840  0.573637  0.000000  1
  Tm  Tm2  1  0.426074  0.426074  0.000000  1
  Zn  Zn3  1  0.249392  0.000175  0.500000  1
  Zn  Zn4  1  0.000175  0.249392  0.500000  1
  Zn  Zn5  1  0.750342  0.750342  0.500000  1
  Si  Si6  1  0.333586  0.666290  0.500000  1
  Si  Si7  1  0.666290  0.333586  0.500000  1
  Ag  Ag8  1  0.000664  0.000664  0.000000  1
