# generated using pymatgen
data_Mn17Cr3Ni(WC3)2
_symmetry_space_group_name_H-M   'P 1'
_cell_length_a   7.41091655
_cell_length_b   7.41091657
_cell_length_c   7.41091739
_cell_angle_alpha   60.05854328
_cell_angle_beta   60.05854226
_cell_angle_gamma   60.05854212
_symmetry_Int_Tables_number   1
_chemical_formula_structural   Mn17Cr3Ni(WC3)2
_chemical_formula_sum   'Mn17 Cr3 Ni1 W2 C6'
_cell_volume   288.18851407
_cell_formula_units_Z   1
loop_
 _symmetry_equiv_pos_site_id
 _symmetry_equiv_pos_as_xyz
  1  'x, y, z'
loop_
 _atom_site_type_symbol
 _atom_site_label
 _atom_site_symmetry_multiplicity
 _atom_site_fract_x
 _atom_site_fract_y
 _atom_site_fract_z
 _atom_site_occupancy
  Mn  Mn0  1  0.615658  0.615658  0.152449  1
  Mn  Mn1  1  0.615658  0.152448  0.615658  1
  Mn  Mn2  1  0.152449  0.615658  0.615658  1
  Mn  Mn3  1  0.615625  0.615625  0.615625  1
  Mn  Mn4  1  0.383384  0.383384  0.848558  1
  Mn  Mn5  1  0.383384  0.848558  0.383384  1
  Mn  Mn6  1  0.848558  0.383384  0.383384  1
  Mn  Mn7  1  0.383937  0.383937  0.383937  1
  Mn  Mn8  1  0.000412  0.000412  0.337372  1
  Mn  Mn9  1  0.662827  0.999368  0.338067  1
  Mn  Mn10  1  0.999368  0.662827  0.338067  1
  Mn  Mn11  1  0.662827  0.338067  0.999368  1
  Mn  Mn12  1  0.000412  0.337372  0.000412  1
  Mn  Mn13  1  0.999368  0.338067  0.662827  1
  Mn  Mn14  1  0.338067  0.662827  0.999368  1
  Mn  Mn15  1  0.338067  0.999368  0.662827  1
  Mn  Mn16  1  0.337372  0.000412  0.000412  1
  Cr  Cr17  1  0.000222  0.000222  0.662818  1
  Cr  Cr18  1  0.000222  0.662818  0.000222  1
  Cr  Cr19  1  0.662818  0.000222  0.000222  1
  Ni  Ni20  1  0.000102  0.000102  0.000102  1
  W  W21  1  0.749675  0.749675  0.749675  1
  W  W22  1  0.249922  0.249922  0.249922  1
  C  C23  1  0.722303  0.722303  0.280382  1
  C  C24  1  0.274630  0.725420  0.274630  1
  C  C25  1  0.725420  0.274630  0.274630  1
  C  C26  1  0.274630  0.274630  0.725420  1
  C  C27  1  0.722303  0.280382  0.722303  1
  C  C28  1  0.280382  0.722303  0.722303  1
