# generated using pymatgen
data_Tb3Ga3(CuNi5)2
_symmetry_space_group_name_H-M   'P 1'
_cell_length_a   8.55609170
_cell_length_b   8.55609066
_cell_length_c   4.03822400
_cell_angle_alpha   90.00000000
_cell_angle_beta   90.00000000
_cell_angle_gamma   119.33717311
_symmetry_Int_Tables_number   1
_chemical_formula_structural   Tb3Ga3(CuNi5)2
_chemical_formula_sum   'Tb3 Ga3 Cu2 Ni10'
_cell_volume   257.71159421
_cell_formula_units_Z   1
loop_
 _symmetry_equiv_pos_site_id
 _symmetry_equiv_pos_as_xyz
  1  'x, y, z'
loop_
 _atom_site_type_symbol
 _atom_site_label
 _atom_site_symmetry_multiplicity
 _atom_site_fract_x
 _atom_site_fract_y
 _atom_site_fract_z
 _atom_site_occupancy
  Tb  Tb0  1  0.334196  0.665804  0.000000  1
  Tb  Tb1  1  0.665804  0.334196  0.000000  1
  Tb  Tb2  1  0.000000  0.000000  0.000000  1
  Ga  Ga3  1  0.500000  0.000000  0.500000  1
  Ga  Ga4  1  0.000000  0.500000  0.500000  1
  Ga  Ga5  1  0.500000  0.500000  0.500000  1
  Cu  Cu6  1  0.163805  0.836195  0.500000  1
  Cu  Cu7  1  0.836195  0.163805  0.500000  1
  Ni  Ni8  1  0.333645  0.003082  0.000000  1
  Ni  Ni9  1  0.666355  0.996918  0.000000  1
  Ni  Ni10  1  0.003082  0.333645  0.000000  1
  Ni  Ni11  1  0.996918  0.666355  0.000000  1
  Ni  Ni12  1  0.672324  0.672324  0.000000  1
  Ni  Ni13  1  0.327676  0.327676  0.000000  1
  Ni  Ni14  1  0.171069  0.338926  0.500000  1
  Ni  Ni15  1  0.828931  0.661074  0.500000  1
  Ni  Ni16  1  0.661074  0.828931  0.500000  1
  Ni  Ni17  1  0.338926  0.171069  0.500000  1
