# generated using pymatgen
data_LaNd11(GeI3)4
_symmetry_space_group_name_H-M   'P 1'
_cell_length_a   10.85751013
_cell_length_b   10.85750922
_cell_length_c   10.89322002
_cell_angle_alpha   109.41985913
_cell_angle_beta   109.41986605
_cell_angle_gamma   109.51549486
_symmetry_Int_Tables_number   1
_chemical_formula_structural   LaNd11(GeI3)4
_chemical_formula_sum   'La1 Nd11 Ge4 I12'
_cell_volume   989.25299251
_cell_formula_units_Z   1
loop_
 _symmetry_equiv_pos_site_id
 _symmetry_equiv_pos_as_xyz
  1  'x, y, z'
loop_
 _atom_site_type_symbol
 _atom_site_label
 _atom_site_symmetry_multiplicity
 _atom_site_fract_x
 _atom_site_fract_y
 _atom_site_fract_z
 _atom_site_occupancy
  La  La0  1  0.236931  0.263069  0.750000  1
  Nd  Nd1  1  0.466303  0.483811  0.234222  1
  Nd  Nd2  1  0.749536  0.233067  0.267054  1
  Nd  Nd3  1  0.748480  0.016327  0.481862  1
  Nd  Nd4  1  0.232700  0.466165  0.481657  1
  Nd  Nd5  1  0.266933  0.750464  0.232946  1
  Nd  Nd6  1  0.033835  0.267300  0.018343  1
  Nd  Nd7  1  0.016189  0.033697  0.265778  1
  Nd  Nd8  1  0.483673  0.751520  0.018138  1
  Nd  Nd9  1  0.482701  0.233549  0.465723  1
  Nd  Nd10  1  0.017156  0.482844  0.750000  1
  Nd  Nd11  1  0.266451  0.017299  0.034277  1
  Ge  Ge12  1  0.249812  0.250188  0.250000  1
  Ge  Ge13  1  0.499545  0.000455  0.250000  1
  Ge  Ge14  1  0.000076  0.249779  0.499715  1
  Ge  Ge15  1  0.250221  0.499924  0.000285  1
  I  I16  1  0.250226  0.756887  0.744127  1
  I  I17  1  0.516917  0.512723  0.755361  1
  I  I18  1  0.986974  0.743252  0.993657  1
  I  I19  1  0.743113  0.249774  0.755873  1
  I  I20  1  0.987277  0.983083  0.744639  1
  I  I21  1  0.248624  0.988999  0.502044  1
  I  I22  1  0.756748  0.513026  0.506343  1
  I  I23  1  0.511001  0.251376  0.997956  1
  I  I24  1  0.756270  0.743730  0.250000  1
  I  I25  1  0.743137  0.994176  0.987456  1
  I  I26  1  0.993343  0.506657  0.250000  1
  I  I27  1  0.505824  0.756863  0.512544  1
