# generated using pymatgen
data_Dy12Y4Cd4RuPt3
_symmetry_space_group_name_H-M   'P 1'
_cell_length_a   9.70933327
_cell_length_b   9.71071904
_cell_length_c   9.71071935
_cell_angle_alpha   59.66702083
_cell_angle_beta   59.66521015
_cell_angle_gamma   59.66520512
_symmetry_Int_Tables_number   1
_chemical_formula_structural   Dy12Y4Cd4RuPt3
_chemical_formula_sum   'Dy12 Y4 Cd4 Ru1 Pt3'
_cell_volume   642.49119161
_cell_formula_units_Z   1
loop_
 _symmetry_equiv_pos_site_id
 _symmetry_equiv_pos_as_xyz
  1  'x, y, z'
loop_
 _atom_site_type_symbol
 _atom_site_label
 _atom_site_symmetry_multiplicity
 _atom_site_fract_x
 _atom_site_fract_y
 _atom_site_fract_z
 _atom_site_occupancy
  Dy  Dy0  1  0.351643  0.351936  0.351936  1
  Dy  Dy1  1  0.349657  0.349481  0.948234  1
  Dy  Dy2  1  0.349657  0.948234  0.349481  1
  Dy  Dy3  1  0.948310  0.349616  0.349616  1
  Dy  Dy4  1  0.814863  0.188875  0.188875  1
  Dy  Dy5  1  0.189001  0.809758  0.809758  1
  Dy  Dy6  1  0.188886  0.814816  0.188902  1
  Dy  Dy7  1  0.809780  0.189054  0.809769  1
  Dy  Dy8  1  0.188886  0.188902  0.814816  1
  Dy  Dy9  1  0.809780  0.809769  0.189054  1
  Dy  Dy10  1  0.936303  0.564760  0.564760  1
  Dy  Dy11  1  0.560203  0.936907  0.936907  1
  Y  Y12  1  0.565073  0.935862  0.565046  1
  Y  Y13  1  0.936520  0.560625  0.936523  1
  Y  Y14  1  0.565073  0.565046  0.935862  1
  Y  Y15  1  0.936520  0.936523  0.560625  1
  Cd  Cd16  1  0.580411  0.580451  0.580451  1
  Cd  Cd17  1  0.581287  0.581330  0.254487  1
  Cd  Cd18  1  0.581287  0.254487  0.581330  1
  Cd  Cd19  1  0.254509  0.581299  0.581299  1
  Ru  Ru20  1  0.143114  0.142922  0.142922  1
  Pt  Pt21  1  0.143699  0.143784  0.571832  1
  Pt  Pt22  1  0.143699  0.571832  0.143784  1
  Pt  Pt23  1  0.571837  0.143730  0.143730  1
