# generated using pymatgen
data_Dy2YEr17(Cd3Ni)2
_symmetry_space_group_name_H-M   'P 1'
_cell_length_a   9.53791700
_cell_length_b   9.53762241
_cell_length_c   9.69176100
_cell_angle_alpha   90.00000000
_cell_angle_beta   90.00000000
_cell_angle_gamma   119.99897041
_symmetry_Int_Tables_number   1
_chemical_formula_structural   Dy2YEr17(Cd3Ni)2
_chemical_formula_sum   'Dy2 Y1 Er17 Cd6 Ni2'
_cell_volume   763.53947892
_cell_formula_units_Z   1
loop_
 _symmetry_equiv_pos_site_id
 _symmetry_equiv_pos_as_xyz
  1  'x, y, z'
loop_
 _atom_site_type_symbol
 _atom_site_label
 _atom_site_symmetry_multiplicity
 _atom_site_fract_x
 _atom_site_fract_y
 _atom_site_fract_z
 _atom_site_occupancy
  Dy  Dy0  1  0.457012  0.543061  0.750000  1
  Dy  Dy1  1  0.457012  0.913951  0.750000  1
  Y  Y2  1  0.086165  0.543083  0.750000  1
  Er  Er3  1  0.999947  0.999974  0.499946  1
  Er  Er4  1  0.999947  0.999974  0.000054  1
  Er  Er5  1  0.543549  0.456477  0.250000  1
  Er  Er6  1  0.543549  0.087072  0.250000  1
  Er  Er7  1  0.912942  0.456471  0.250000  1
  Er  Er8  1  0.210632  0.789542  0.436508  1
  Er  Er9  1  0.210632  0.421090  0.436508  1
  Er  Er10  1  0.578804  0.789402  0.436613  1
  Er  Er11  1  0.789108  0.210684  0.561741  1
  Er  Er12  1  0.789108  0.578423  0.561741  1
  Er  Er13  1  0.421596  0.210797  0.561803  1
  Er  Er14  1  0.789108  0.210684  0.938259  1
  Er  Er15  1  0.789108  0.578423  0.938259  1
  Er  Er16  1  0.421596  0.210797  0.938197  1
  Er  Er17  1  0.210632  0.789542  0.063492  1
  Er  Er18  1  0.210632  0.421090  0.063492  1
  Er  Er19  1  0.578804  0.789402  0.063387  1
  Cd  Cd20  1  0.884389  0.115648  0.250000  1
  Cd  Cd21  1  0.884389  0.768742  0.250000  1
  Cd  Cd22  1  0.231227  0.115614  0.250000  1
  Cd  Cd23  1  0.114679  0.885427  0.750000  1
  Cd  Cd24  1  0.114679  0.229253  0.750000  1
  Cd  Cd25  1  0.770635  0.885318  0.750000  1
  Ni  Ni26  1  0.333401  0.666701  0.250000  1
  Ni  Ni27  1  0.666718  0.333359  0.750000  1
