# generated using pymatgen
data_Y4HfMg3Ir4
_symmetry_space_group_name_H-M   'P 1'
_cell_length_a   4.19738000
_cell_length_b   7.12308001
_cell_length_c   8.54993930
_cell_angle_alpha   91.72863415
_cell_angle_beta   90.00000000
_cell_angle_gamma   90.00000000
_symmetry_Int_Tables_number   1
_chemical_formula_structural   Y4HfMg3Ir4
_chemical_formula_sum   'Y4 Hf1 Mg3 Ir4'
_cell_volume   255.51209024
_cell_formula_units_Z   1
loop_
 _symmetry_equiv_pos_site_id
 _symmetry_equiv_pos_as_xyz
  1  'x, y, z'
loop_
 _atom_site_type_symbol
 _atom_site_label
 _atom_site_symmetry_multiplicity
 _atom_site_fract_x
 _atom_site_fract_y
 _atom_site_fract_z
 _atom_site_occupancy
  Y  Y0  1  0.250000  0.958779  0.322933  1
  Y  Y1  1  0.250000  0.478194  0.169675  1
  Y  Y2  1  0.750000  0.023417  0.681487  1
  Y  Y3  1  0.750000  0.539772  0.830535  1
  Hf  Hf4  1  0.250000  0.364449  0.559830  1
  Mg  Mg5  1  0.250000  0.866063  0.939724  1
  Mg  Mg6  1  0.750000  0.641023  0.432715  1
  Mg  Mg7  1  0.750000  0.142131  0.061150  1
  Ir  Ir8  1  0.250000  0.247555  0.860889  1
  Ir  Ir9  1  0.250000  0.731018  0.623498  1
  Ir  Ir10  1  0.750000  0.760056  0.125960  1
  Ir  Ir11  1  0.750000  0.247541  0.391605  1
