# generated using pymatgen
data_Ho3Zr(Co5As3)4
_symmetry_space_group_name_H-M   'P 1'
_cell_length_a   3.78159500
_cell_length_b   12.17663222
_cell_length_c   10.69837506
_cell_angle_alpha   89.99505835
_cell_angle_beta   90.00000000
_cell_angle_gamma   90.00000000
_symmetry_Int_Tables_number   1
_chemical_formula_structural   Ho3Zr(Co5As3)4
_chemical_formula_sum   'Ho3 Zr1 Co20 As12'
_cell_volume   492.62905359
_cell_formula_units_Z   1
loop_
 _symmetry_equiv_pos_site_id
 _symmetry_equiv_pos_as_xyz
  1  'x, y, z'
loop_
 _atom_site_type_symbol
 _atom_site_label
 _atom_site_symmetry_multiplicity
 _atom_site_fract_x
 _atom_site_fract_y
 _atom_site_fract_z
 _atom_site_occupancy
  Ho  Ho0  1  0.750000  0.701544  0.081336  1
  Ho  Ho1  1  0.250000  0.298560  0.918275  1
  Ho  Ho2  1  0.250000  0.797670  0.581814  1
  Zr  Zr3  1  0.750000  0.199182  0.420862  1
  Co  Co4  1  0.750000  0.696496  0.384915  1
  Co  Co5  1  0.250000  0.300833  0.612632  1
  Co  Co6  1  0.250000  0.803735  0.884045  1
  Co  Co7  1  0.750000  0.197757  0.117604  1
  Co  Co8  1  0.750000  0.993297  0.215076  1
  Co  Co9  1  0.250000  0.009633  0.786475  1
  Co  Co10  1  0.250000  0.507034  0.712886  1
  Co  Co11  1  0.750000  0.492665  0.286514  1
  Co  Co12  1  0.750000  0.678443  0.782907  1
  Co  Co13  1  0.250000  0.321575  0.217527  1
  Co  Co14  1  0.250000  0.822670  0.284511  1
  Co  Co15  1  0.750000  0.178297  0.715763  1
  Co  Co16  1  0.750000  0.932588  0.969942  1
  Co  Co17  1  0.250000  0.068935  0.032503  1
  Co  Co18  1  0.250000  0.565477  0.468861  1
  Co  Co19  1  0.750000  0.428065  0.527974  1
  Co  Co20  1  0.750000  0.990173  0.590318  1
  Co  Co21  1  0.250000  0.015760  0.407087  1
  Co  Co22  1  0.250000  0.512237  0.092683  1
  Co  Co23  1  0.750000  0.487964  0.906820  1
  As  As24  1  0.750000  0.611737  0.584534  1
  As  As25  1  0.250000  0.382222  0.414669  1
  As  As26  1  0.250000  0.886421  0.085126  1
  As  As27  1  0.750000  0.114540  0.915937  1
  As  As28  1  0.750000  0.890189  0.399661  1
  As  As29  1  0.250000  0.110384  0.599441  1
  As  As30  1  0.250000  0.609983  0.898831  1
  As  As31  1  0.750000  0.390753  0.100630  1
  As  As32  1  0.750000  0.871810  0.768649  1
  As  As33  1  0.250000  0.131318  0.233675  1
  As  As34  1  0.250000  0.629581  0.269330  1
  As  As35  1  0.750000  0.370468  0.730184  1
