# generated using pymatgen
data_SmGaNi4
_symmetry_space_group_name_H-M   'P 1'
_cell_length_a   4.95607711
_cell_length_b   4.95607705
_cell_length_c   4.03676300
_cell_angle_alpha   90.00000000
_cell_angle_beta   90.00000000
_cell_angle_gamma   118.49189754
_symmetry_Int_Tables_number   1
_chemical_formula_structural   SmGaNi4
_chemical_formula_sum   'Sm1 Ga1 Ni4'
_cell_volume   87.14474467
_cell_formula_units_Z   1
loop_
 _symmetry_equiv_pos_site_id
 _symmetry_equiv_pos_as_xyz
  1  'x, y, z'
loop_
 _atom_site_type_symbol
 _atom_site_label
 _atom_site_symmetry_multiplicity
 _atom_site_fract_x
 _atom_site_fract_y
 _atom_site_fract_z
 _atom_site_occupancy
  Sm  Sm0  1  0.500000  0.500000  0.000000  1
  Ga  Ga1  1  0.000000  0.000000  0.500000  1
  Ni  Ni2  1  0.167511  0.832489  0.000000  1
  Ni  Ni3  1  0.832489  0.167511  0.000000  1
  Ni  Ni4  1  0.000000  0.500000  0.500000  1
  Ni  Ni5  1  0.500000  0.000000  0.500000  1
