# generated using pymatgen
data_TbY15Cd4TcNi3
_symmetry_space_group_name_H-M   'P 1'
_cell_length_a   9.65503152
_cell_length_b   9.65503231
_cell_length_c   9.65503129
_cell_angle_alpha   59.35034576
_cell_angle_beta   59.35034341
_cell_angle_gamma   59.35034026
_symmetry_Int_Tables_number   1
_chemical_formula_structural   TbY15Cd4TcNi3
_chemical_formula_sum   'Tb1 Y15 Cd4 Tc1 Ni3'
_cell_volume   627.01175522
_cell_formula_units_Z   1
loop_
 _symmetry_equiv_pos_site_id
 _symmetry_equiv_pos_as_xyz
  1  'x, y, z'
loop_
 _atom_site_type_symbol
 _atom_site_label
 _atom_site_symmetry_multiplicity
 _atom_site_fract_x
 _atom_site_fract_y
 _atom_site_fract_z
 _atom_site_occupancy
  Tb  Tb0  1  0.597025  0.597025  0.597025  1
  Y  Y1  1  0.602026  0.602026  0.202729  1
  Y  Y2  1  0.602026  0.202729  0.602026  1
  Y  Y3  1  0.202729  0.602026  0.602026  1
  Y  Y4  1  0.061168  0.437803  0.437803  1
  Y  Y5  1  0.437619  0.060687  0.060687  1
  Y  Y6  1  0.437803  0.061168  0.437803  1
  Y  Y7  1  0.060687  0.437619  0.060687  1
  Y  Y8  1  0.437803  0.437803  0.061168  1
  Y  Y9  1  0.060687  0.060687  0.437619  1
  Y  Y10  1  0.186756  0.814854  0.814854  1
  Y  Y11  1  0.805703  0.188975  0.188975  1
  Y  Y12  1  0.814854  0.186756  0.814854  1
  Y  Y13  1  0.188975  0.805703  0.188975  1
  Y  Y14  1  0.814854  0.814854  0.186756  1
  Y  Y15  1  0.188975  0.188975  0.805703  1
  Cd  Cd16  1  0.829673  0.829673  0.829673  1
  Cd  Cd17  1  0.829720  0.829720  0.506036  1
  Cd  Cd18  1  0.829720  0.506036  0.829720  1
  Cd  Cd19  1  0.506036  0.829720  0.829720  1
  Tc  Tc20  1  0.394065  0.394065  0.394065  1
  Ni  Ni21  1  0.393056  0.393056  0.824982  1
  Ni  Ni22  1  0.393056  0.824982  0.393056  1
  Ni  Ni23  1  0.824982  0.393056  0.393056  1
