# generated using pymatgen
data_Sm8HfSi16W11
_symmetry_space_group_name_H-M   'P 1'
_cell_length_a   6.96729254
_cell_length_b   6.96729369
_cell_length_c   13.00848003
_cell_angle_alpha   89.97999575
_cell_angle_beta   89.97999302
_cell_angle_gamma   89.87100851
_symmetry_Int_Tables_number   1
_chemical_formula_structural   Sm8HfSi16W11
_chemical_formula_sum   'Sm8 Hf1 Si16 W11'
_cell_volume   631.47122329
_cell_formula_units_Z   1
loop_
 _symmetry_equiv_pos_site_id
 _symmetry_equiv_pos_as_xyz
  1  'x, y, z'
loop_
 _atom_site_type_symbol
 _atom_site_label
 _atom_site_symmetry_multiplicity
 _atom_site_fract_x
 _atom_site_fract_y
 _atom_site_fract_z
 _atom_site_occupancy
  Sm  Sm0  1  0.000968  0.335709  0.219292  1
  Sm  Sm1  1  0.001581  0.666097  0.718965  1
  Sm  Sm2  1  0.164197  0.502142  0.467805  1
  Sm  Sm3  1  0.497858  0.835803  0.032195  1
  Sm  Sm4  1  0.837882  0.501542  0.970342  1
  Sm  Sm5  1  0.498458  0.162118  0.529658  1
  Sm  Sm6  1  0.333903  0.998419  0.781035  1
  Sm  Sm7  1  0.664291  0.999032  0.280708  1
  Hf  Hf8  1  0.668028  0.331972  0.750000  1
  Si  Si9  1  0.377680  0.300425  0.314506  1
  Si  Si10  1  0.624753  0.706915  0.815711  1
  Si  Si11  1  0.198268  0.877419  0.564306  1
  Si  Si12  1  0.122581  0.801732  0.935694  1
  Si  Si13  1  0.799447  0.122608  0.064333  1
  Si  Si14  1  0.877392  0.200553  0.435667  1
  Si  Si15  1  0.293085  0.375247  0.684289  1
  Si  Si16  1  0.699575  0.622320  0.185494  1
  Si  Si17  1  0.285204  0.033395  0.187677  1
  Si  Si18  1  0.711439  0.957517  0.683187  1
  Si  Si19  1  0.466109  0.786305  0.436662  1
  Si  Si20  1  0.213695  0.533891  0.063338  1
  Si  Si21  1  0.530404  0.211187  0.940628  1
  Si  Si22  1  0.788813  0.469596  0.559372  1
  Si  Si23  1  0.042483  0.288561  0.816813  1
  Si  Si24  1  0.966605  0.714796  0.312323  1
  W  W25  1  0.165753  0.164038  0.003226  1
  W  W26  1  0.835962  0.834247  0.496774  1
  W  W27  1  0.332396  0.667604  0.250000  1
  W  W28  1  0.166591  0.999304  0.376597  1
  W  W29  1  0.833225  0.004282  0.875105  1
  W  W30  1  0.502105  0.661585  0.625710  1
  W  W31  1  0.338415  0.497895  0.874290  1
  W  W32  1  0.496869  0.332425  0.126957  1
  W  W33  1  0.667575  0.503131  0.373043  1
  W  W34  1  0.995718  0.166775  0.624895  1
  W  W35  1  0.000696  0.833409  0.123403  1
