# generated using pymatgen
data_Ti15Si16MoW4
_symmetry_space_group_name_H-M   'P 1'
_cell_length_a   6.64004765
_cell_length_b   6.64463131
_cell_length_c   12.18174911
_cell_angle_alpha   89.99484124
_cell_angle_beta   90.14159916
_cell_angle_gamma   90.01750779
_symmetry_Int_Tables_number   1
_chemical_formula_structural   Ti15Si16MoW4
_chemical_formula_sum   'Ti15 Si16 Mo1 W4'
_cell_volume   537.46524639
_cell_formula_units_Z   1
loop_
 _symmetry_equiv_pos_site_id
 _symmetry_equiv_pos_as_xyz
  1  'x, y, z'
loop_
 _atom_site_type_symbol
 _atom_site_label
 _atom_site_symmetry_multiplicity
 _atom_site_fract_x
 _atom_site_fract_y
 _atom_site_fract_z
 _atom_site_occupancy
  Ti  Ti0  1  0.349568  0.494815  0.871977  1
  Ti  Ti1  1  0.650756  0.504405  0.371954  1
  Ti  Ti2  1  0.494804  0.349782  0.127449  1
  Ti  Ti3  1  0.505604  0.650008  0.627958  1
  Ti  Ti4  1  0.004695  0.849638  0.121859  1
  Ti  Ti5  1  0.150034  0.995919  0.377882  1
  Ti  Ti6  1  0.850622  0.004927  0.877990  1
  Ti  Ti7  1  0.002287  0.340279  0.222191  1
  Ti  Ti8  1  0.161054  0.501765  0.471142  1
  Ti  Ti9  1  0.839391  0.497612  0.972130  1
  Ti  Ti10  1  0.503236  0.161557  0.528479  1
  Ti  Ti11  1  0.497799  0.839772  0.028005  1
  Ti  Ti12  1  0.997826  0.660596  0.722060  1
  Ti  Ti13  1  0.339322  0.000496  0.778345  1
  Ti  Ti14  1  0.660421  0.996716  0.278583  1
  Si  Si15  1  0.041898  0.304151  0.814330  1
  Si  Si16  1  0.196966  0.542471  0.064111  1
  Si  Si17  1  0.802085  0.456011  0.563525  1
  Si  Si18  1  0.543274  0.196707  0.935790  1
  Si  Si19  1  0.457474  0.802837  0.435827  1
  Si  Si20  1  0.957387  0.697788  0.314009  1
  Si  Si21  1  0.303219  0.042216  0.185974  1
  Si  Si22  1  0.696661  0.958371  0.686467  1
  Si  Si23  1  0.292538  0.361053  0.673214  1
  Si  Si24  1  0.140635  0.793068  0.922958  1
  Si  Si25  1  0.859687  0.206750  0.422101  1
  Si  Si26  1  0.793718  0.140804  0.077469  1
  Si  Si27  1  0.206066  0.858559  0.576661  1
  Si  Si28  1  0.706312  0.640460  0.172593  1
  Si  Si29  1  0.359586  0.293623  0.326717  1
  Si  Si30  1  0.640367  0.706858  0.827976  1
  Mo  Mo31  1  0.996938  0.150839  0.621771  1
  W  W32  1  0.170269  0.169674  0.999916  1
  W  W33  1  0.329890  0.669673  0.250117  1
  W  W34  1  0.668483  0.332066  0.750492  1
  W  W35  1  0.829124  0.827732  0.499983  1
