# generated using pymatgen
data_Er5V3(Co4As3)4
_symmetry_space_group_name_H-M   'P 1'
_cell_length_a   12.47767100
_cell_length_b   12.47767069
_cell_length_c   3.77679700
_cell_angle_alpha   90.00000000
_cell_angle_beta   90.00000000
_cell_angle_gamma   119.99999816
_symmetry_Int_Tables_number   1
_chemical_formula_structural   Er5V3(Co4As3)4
_chemical_formula_sum   'Er5 V3 Co16 As12'
_cell_volume   509.23861959
_cell_formula_units_Z   1
loop_
 _symmetry_equiv_pos_site_id
 _symmetry_equiv_pos_as_xyz
  1  'x, y, z'
loop_
 _atom_site_type_symbol
 _atom_site_label
 _atom_site_symmetry_multiplicity
 _atom_site_fract_x
 _atom_site_fract_y
 _atom_site_fract_z
 _atom_site_occupancy
  Er  Er0  1  0.814463  0.000000  0.500000  1
  Er  Er1  1  0.000000  0.814463  0.500000  1
  Er  Er2  1  0.185537  0.185537  0.500000  1
  Er  Er3  1  0.333333  0.666667  0.000000  1
  Er  Er4  1  0.666667  0.333333  0.000000  1
  V  V5  1  0.441760  0.000000  0.000000  1
  V  V6  1  0.000000  0.441760  0.000000  1
  V  V7  1  0.558240  0.558240  0.000000  1
  Co  Co8  1  0.283789  0.000000  0.500000  1
  Co  Co9  1  0.000000  0.283789  0.500000  1
  Co  Co10  1  0.716211  0.716211  0.500000  1
  Co  Co11  1  0.623345  0.799719  0.000000  1
  Co  Co12  1  0.200281  0.823625  0.000000  1
  Co  Co13  1  0.176375  0.376655  0.000000  1
  Co  Co14  1  0.376655  0.176375  0.000000  1
  Co  Co15  1  0.799719  0.623345  0.000000  1
  Co  Co16  1  0.823625  0.200281  0.000000  1
  Co  Co17  1  0.521045  0.874756  0.500000  1
  Co  Co18  1  0.125244  0.646289  0.500000  1
  Co  Co19  1  0.353711  0.478955  0.500000  1
  Co  Co20  1  0.478955  0.353711  0.500000  1
  Co  Co21  1  0.874756  0.521045  0.500000  1
  Co  Co22  1  0.646289  0.125244  0.500000  1
  Co  Co23  1  0.000000  0.000000  0.000000  1
  As  As24  1  0.178353  0.000000  0.000000  1
  As  As25  1  0.000000  0.178353  0.000000  1
  As  As26  1  0.821647  0.821647  0.000000  1
  As  As27  1  0.516322  0.681851  0.500000  1
  As  As28  1  0.318149  0.834472  0.500000  1
  As  As29  1  0.165528  0.483678  0.500000  1
  As  As30  1  0.483678  0.165528  0.500000  1
  As  As31  1  0.681851  0.516322  0.500000  1
  As  As32  1  0.834472  0.318149  0.500000  1
  As  As33  1  0.639441  0.000000  0.000000  1
  As  As34  1  0.000000  0.639441  0.000000  1
  As  As35  1  0.360559  0.360559  0.000000  1
