# generated using pymatgen
data_Tb3YIr2(RhO7)2
_symmetry_space_group_name_H-M   'P 1'
_cell_length_a   7.26928617
_cell_length_b   7.26358011
_cell_length_c   7.25777665
_cell_angle_alpha   59.90539518
_cell_angle_beta   59.94752394
_cell_angle_gamma   59.97400430
_symmetry_Int_Tables_number   1
_chemical_formula_structural   Tb3YIr2(RhO7)2
_chemical_formula_sum   'Tb3 Y1 Ir2 Rh2 O14'
_cell_volume   270.62139872
_cell_formula_units_Z   1
loop_
 _symmetry_equiv_pos_site_id
 _symmetry_equiv_pos_as_xyz
  1  'x, y, z'
loop_
 _atom_site_type_symbol
 _atom_site_label
 _atom_site_symmetry_multiplicity
 _atom_site_fract_x
 _atom_site_fract_y
 _atom_site_fract_z
 _atom_site_occupancy
  Tb  Tb0  1  0.625000  0.125000  0.125000  1
  Tb  Tb1  1  0.125000  0.625000  0.125000  1
  Tb  Tb2  1  0.125000  0.125000  0.125000  1
  Y  Y3  1  0.125000  0.125000  0.625000  1
  Ir  Ir4  1  0.125000  0.625000  0.625000  1
  Ir  Ir5  1  0.625000  0.625000  0.625000  1
  Rh  Rh6  1  0.625000  0.125000  0.625000  1
  Rh  Rh7  1  0.625000  0.625000  0.125000  1
  O  O8  1  0.714744  0.708292  0.290750  1
  O  O9  1  0.286098  0.291053  0.707945  1
  O  O10  1  0.714905  0.291053  0.707945  1
  O  O11  1  0.286214  0.708292  0.290750  1
  O  O12  1  0.291590  0.708584  0.708237  1
  O  O13  1  0.715296  0.284857  0.284550  1
  O  O14  1  0.535256  0.541708  0.959250  1
  O  O15  1  0.963902  0.958947  0.542055  1
  O  O16  1  0.535095  0.958947  0.542055  1
  O  O17  1  0.963786  0.541708  0.959250  1
  O  O18  1  0.958410  0.541416  0.541763  1
  O  O19  1  0.534704  0.965143  0.965450  1
  O  O20  1  0.248568  0.250700  0.252164  1
  O  O21  1  0.001432  0.999300  0.997836  1
