# generated using pymatgen
data_Tb3DySc2CoTe2
_symmetry_space_group_name_H-M   'P 1'
_cell_length_a   3.93314400
_cell_length_b   8.21946978
_cell_length_c   8.21946994
_cell_angle_alpha   121.01241793
_cell_angle_beta   90.00000000
_cell_angle_gamma   90.00000000
_symmetry_Int_Tables_number   1
_chemical_formula_structural   Tb3DySc2CoTe2
_chemical_formula_sum   'Tb3 Dy1 Sc2 Co1 Te2'
_cell_volume   227.73851587
_cell_formula_units_Z   1
loop_
 _symmetry_equiv_pos_site_id
 _symmetry_equiv_pos_as_xyz
  1  'x, y, z'
loop_
 _atom_site_type_symbol
 _atom_site_label
 _atom_site_symmetry_multiplicity
 _atom_site_fract_x
 _atom_site_fract_y
 _atom_site_fract_z
 _atom_site_occupancy
  Tb  Tb0  1  0.000000  0.384359  0.384359  1
  Tb  Tb1  1  0.000000  0.000956  0.599459  1
  Tb  Tb2  1  0.000000  0.599459  0.000956  1
  Dy  Dy3  1  0.500000  0.768277  0.768277  1
  Sc  Sc4  1  0.500000  0.993660  0.224694  1
  Sc  Sc5  1  0.500000  0.224694  0.993660  1
  Co  Co6  1  0.000000  0.035166  0.035166  1
  Te  Te7  1  0.500000  0.665376  0.328053  1
  Te  Te8  1  0.500000  0.328053  0.665376  1
