# generated using pymatgen
data_DyY(VB4)2
_symmetry_space_group_name_H-M   'P 1'
_cell_length_a   3.44590400
_cell_length_b   6.00472800
_cell_length_c   11.62722900
_cell_angle_alpha   90.00221558
_cell_angle_beta   90.00000000
_cell_angle_gamma   90.00000000
_symmetry_Int_Tables_number   1
_chemical_formula_structural   DyY(VB4)2
_chemical_formula_sum   'Dy2 Y2 V4 B16'
_cell_volume   240.58732297
_cell_formula_units_Z   2
loop_
 _symmetry_equiv_pos_site_id
 _symmetry_equiv_pos_as_xyz
  1  'x, y, z'
loop_
 _atom_site_type_symbol
 _atom_site_label
 _atom_site_symmetry_multiplicity
 _atom_site_fract_x
 _atom_site_fract_y
 _atom_site_fract_z
 _atom_site_occupancy
  Dy  Dy0  1  0.000000  0.624427  0.348435  1
  Dy  Dy1  1  0.000000  0.375573  0.651565  1
  Y  Y2  1  0.000000  0.124364  0.151637  1
  Y  Y3  1  0.000000  0.875636  0.848363  1
  V  V4  1  0.000000  0.626999  0.082717  1
  V  V5  1  0.000000  0.373001  0.917283  1
  V  V6  1  0.000000  0.127189  0.417360  1
  V  V7  1  0.000000  0.872811  0.582640  1
  B  B8  1  0.500000  0.786095  0.185658  1
  B  B9  1  0.500000  0.213905  0.814342  1
  B  B10  1  0.500000  0.286406  0.314500  1
  B  B11  1  0.500000  0.713594  0.685500  1
  B  B12  1  0.500000  0.863948  0.032615  1
  B  B13  1  0.500000  0.136052  0.967385  1
  B  B14  1  0.500000  0.364020  0.467388  1
  B  B15  1  0.500000  0.635980  0.532612  1
  B  B16  1  0.500000  0.885605  0.452603  1
  B  B17  1  0.500000  0.114395  0.547397  1
  B  B18  1  0.500000  0.385767  0.047355  1
  B  B19  1  0.500000  0.614233  0.952645  1
  B  B20  1  0.500000  0.977076  0.307926  1
  B  B21  1  0.500000  0.022924  0.692074  1
  B  B22  1  0.500000  0.477393  0.192199  1
  B  B23  1  0.500000  0.522607  0.807801  1
