# generated using pymatgen
data_Tb5Dy(Lu2Si3)2
_symmetry_space_group_name_H-M   'P 1'
_cell_length_a   8.39457453
_cell_length_b   8.39973980
_cell_length_c   6.25965000
_cell_angle_alpha   90.00000000
_cell_angle_beta   90.00000000
_cell_angle_gamma   120.02035392
_symmetry_Int_Tables_number   1
_chemical_formula_structural   Tb5Dy(Lu2Si3)2
_chemical_formula_sum   'Tb5 Dy1 Lu4 Si6'
_cell_volume   382.16956238
_cell_formula_units_Z   1
loop_
 _symmetry_equiv_pos_site_id
 _symmetry_equiv_pos_as_xyz
  1  'x, y, z'
loop_
 _atom_site_type_symbol
 _atom_site_label
 _atom_site_symmetry_multiplicity
 _atom_site_fract_x
 _atom_site_fract_y
 _atom_site_fract_z
 _atom_site_occupancy
  Tb  Tb0  1  0.000000  0.244931  0.250000  1
  Tb  Tb1  1  0.755365  0.755240  0.250000  1
  Tb  Tb2  1  0.755264  0.999918  0.750000  1
  Tb  Tb3  1  0.244736  0.244654  0.750000  1
  Tb  Tb4  1  0.244635  0.999875  0.250000  1
  Dy  Dy5  1  0.000000  0.755087  0.750000  1
  Lu  Lu6  1  0.333234  0.666681  0.500051  1
  Lu  Lu7  1  0.666766  0.333446  0.999949  1
  Lu  Lu8  1  0.666766  0.333446  0.500051  1
  Lu  Lu9  1  0.333234  0.666681  0.999949  1
  Si  Si10  1  0.395313  0.999707  0.750000  1
  Si  Si11  1  0.395752  0.395708  0.250000  1
  Si  Si12  1  0.000000  0.604204  0.250000  1
  Si  Si13  1  0.000000  0.396072  0.750000  1
  Si  Si14  1  0.604687  0.604394  0.750000  1
  Si  Si15  1  0.604248  0.999956  0.250000  1
