# generated using pymatgen
data_TiO4F5
_symmetry_space_group_name_H-M   'P 1'
_cell_length_a   3.95496837
_cell_length_b   6.01739049
_cell_length_c   7.64137875
_cell_angle_alpha   94.43782577
_cell_angle_beta   94.06359059
_cell_angle_gamma   72.61985583
_symmetry_Int_Tables_number   1
_chemical_formula_structural   TiO4F5
_chemical_formula_sum   'Ti1 O4 F5'
_cell_volume   172.81293058
_cell_formula_units_Z   1
loop_
 _symmetry_equiv_pos_site_id
 _symmetry_equiv_pos_as_xyz
  1  'x, y, z'
loop_
 _atom_site_type_symbol
 _atom_site_label
 _atom_site_symmetry_multiplicity
 _atom_site_fract_x
 _atom_site_fract_y
 _atom_site_fract_z
 _atom_site_occupancy
  Ti  Ti0  1  0.027842  0.514201  0.912300  1
  O  O1  1  0.819572  0.954944  0.606088  1
  O  O2  1  0.697457  0.220403  0.265772  1
  O  O3  1  0.930805  0.805659  0.493992  1
  O  O4  1  0.546890  0.309802  0.397917  1
  F  F5  1  0.995696  0.651753  0.135388  1
  F  F6  1  0.870917  0.845145  0.846178  1
  F  F7  1  0.030098  0.439495  0.671960  1
  F  F8  1  0.525253  0.520915  0.906427  1
  F  F9  1  0.173245  0.221685  0.980955  1
