# generated using pymatgen
data_Zr10Ge2(BiPb)3
_symmetry_space_group_name_H-M   'P 1'
_cell_length_a   8.85578900
_cell_length_b   8.85579027
_cell_length_c   5.97348400
_cell_angle_alpha   90.00000000
_cell_angle_beta   90.00000000
_cell_angle_gamma   119.99999152
_symmetry_Int_Tables_number   1
_chemical_formula_structural   Zr10Ge2(BiPb)3
_chemical_formula_sum   'Zr10 Ge2 Bi3 Pb3'
_cell_volume   405.70742566
_cell_formula_units_Z   1
loop_
 _symmetry_equiv_pos_site_id
 _symmetry_equiv_pos_as_xyz
  1  'x, y, z'
loop_
 _atom_site_type_symbol
 _atom_site_label
 _atom_site_symmetry_multiplicity
 _atom_site_fract_x
 _atom_site_fract_y
 _atom_site_fract_z
 _atom_site_occupancy
  Zr  Zr0  1  0.666667  0.333333  0.505256  1
  Zr  Zr1  1  0.333333  0.666667  0.505256  1
  Zr  Zr2  1  0.333333  0.666667  0.994744  1
  Zr  Zr3  1  0.666667  0.333333  0.994744  1
  Zr  Zr4  1  0.742986  0.742986  0.250000  1
  Zr  Zr5  1  0.257014  0.000000  0.250000  1
  Zr  Zr6  1  0.000000  0.257014  0.250000  1
  Zr  Zr7  1  0.264313  0.264313  0.750000  1
  Zr  Zr8  1  0.735687  0.000000  0.750000  1
  Zr  Zr9  1  0.000000  0.735687  0.750000  1
  Ge  Ge10  1  0.000000  0.000000  0.501761  1
  Ge  Ge11  1  0.000000  0.000000  0.998239  1
  Bi  Bi12  1  0.397211  0.397211  0.250000  1
  Bi  Bi13  1  0.602789  0.000000  0.250000  1
  Bi  Bi14  1  0.000000  0.602789  0.250000  1
  Pb  Pb15  1  0.612492  0.612492  0.750000  1
  Pb  Pb16  1  0.387508  0.000000  0.750000  1
  Pb  Pb17  1  0.000000  0.387508  0.750000  1
