# generated using pymatgen
data_K3RbTh4(SbSe3)8
_symmetry_space_group_name_H-M   'P 1'
_cell_length_a   4.29223296
_cell_length_b   15.34561186
_cell_length_c   17.36515712
_cell_angle_alpha   89.88416400
_cell_angle_beta   92.76090516
_cell_angle_gamma   90.04701298
_symmetry_Int_Tables_number   1
_chemical_formula_structural   K3RbTh4(SbSe3)8
_chemical_formula_sum   'K3 Rb1 Th4 Sb8 Se24'
_cell_volume   1142.45947808
_cell_formula_units_Z   1
loop_
 _symmetry_equiv_pos_site_id
 _symmetry_equiv_pos_as_xyz
  1  'x, y, z'
loop_
 _atom_site_type_symbol
 _atom_site_label
 _atom_site_symmetry_multiplicity
 _atom_site_fract_x
 _atom_site_fract_y
 _atom_site_fract_z
 _atom_site_occupancy
  K  K0  1  0.264629  0.785624  0.172353  1
  K  K1  1  0.735649  0.285603  0.327631  1
  K  K2  1  0.735550  0.214465  0.827658  1
  Rb  Rb3  1  0.261862  0.713914  0.672400  1
  Th  Th4  1  0.701865  0.129359  0.091042  1
  Th  Th5  1  0.298327  0.871536  0.910079  1
  Th  Th6  1  0.702333  0.370207  0.590804  1
  Th  Th7  1  0.296560  0.628740  0.408052  1
  Sb  Sb8  1  0.268359  0.125133  0.526092  1
  Sb  Sb9  1  0.268480  0.374541  0.026110  1
  Sb  Sb10  1  0.731939  0.625339  0.974319  1
  Sb  Sb11  1  0.245087  0.024981  0.296061  1
  Sb  Sb12  1  0.754486  0.525079  0.203747  1
  Sb  Sb13  1  0.755032  0.975985  0.704193  1
  Sb  Sb14  1  0.731945  0.875219  0.473108  1
  Sb  Sb15  1  0.246052  0.473753  0.796220  1
  Se  Se16  1  0.335554  0.469938  0.302911  1
  Se  Se17  1  0.664359  0.970307  0.197102  1
  Se  Se18  1  0.334820  0.030404  0.802929  1
  Se  Se19  1  0.265714  0.830189  0.373260  1
  Se  Se20  1  0.733562  0.170007  0.626310  1
  Se  Se21  1  0.682678  0.078461  0.408816  1
  Se  Se22  1  0.317574  0.923811  0.590215  1
  Se  Se23  1  0.209624  0.205834  0.985552  1
  Se  Se24  1  0.266368  0.670496  0.874769  1
  Se  Se25  1  0.209901  0.294280  0.485425  1
  Se  Se26  1  0.733704  0.329492  0.126304  1
  Se  Se27  1  0.317114  0.578504  0.091496  1
  Se  Se28  1  0.180871  0.987247  0.059247  1
  Se  Se29  1  0.785615  0.829763  0.791558  1
  Se  Se30  1  0.669780  0.526777  0.697425  1
  Se  Se31  1  0.785506  0.672431  0.288572  1
  Se  Se32  1  0.684059  0.421170  0.909176  1
  Se  Se33  1  0.213812  0.172358  0.210603  1
  Se  Se34  1  0.213900  0.326911  0.710878  1
  Se  Se35  1  0.790719  0.794095  0.015166  1
  Se  Se36  1  0.819626  0.013558  0.941360  1
  Se  Se37  1  0.180645  0.512263  0.558465  1
  Se  Se38  1  0.818253  0.486764  0.440815  1
  Se  Se39  1  0.788086  0.705463  0.511775  1
