# generated using pymatgen
data_Nd8Zr12Si15Ir
_symmetry_space_group_name_H-M   'P 1'
_cell_length_a   7.39009227
_cell_length_b   7.40831182
_cell_length_c   13.64387000
_cell_angle_alpha   89.96165489
_cell_angle_beta   89.91963958
_cell_angle_gamma   89.95619510
_symmetry_Int_Tables_number   1
_chemical_formula_structural   Nd8Zr12Si15Ir
_chemical_formula_sum   'Nd8 Zr12 Si15 Ir1'
_cell_volume   746.97494713
_cell_formula_units_Z   1
loop_
 _symmetry_equiv_pos_site_id
 _symmetry_equiv_pos_as_xyz
  1  'x, y, z'
loop_
 _atom_site_type_symbol
 _atom_site_label
 _atom_site_symmetry_multiplicity
 _atom_site_fract_x
 _atom_site_fract_y
 _atom_site_fract_z
 _atom_site_occupancy
  Nd  Nd0  1  0.994589  0.346830  0.213281  1
  Nd  Nd1  1  0.006209  0.655014  0.713717  1
  Nd  Nd2  1  0.158558  0.493062  0.462327  1
  Nd  Nd3  1  0.505426  0.842814  0.035301  1
  Nd  Nd4  1  0.844602  0.503388  0.964041  1
  Nd  Nd5  1  0.495085  0.158260  0.536758  1
  Nd  Nd6  1  0.344052  0.995821  0.786201  1
  Nd  Nd7  1  0.654876  0.004601  0.285311  1
  Zr  Zr8  1  0.175688  0.175786  0.998727  1
  Zr  Zr9  1  0.826303  0.824894  0.500378  1
  Zr  Zr10  1  0.326004  0.672850  0.252288  1
  Zr  Zr11  1  0.674553  0.325412  0.750168  1
  Zr  Zr12  1  0.153929  0.002640  0.372969  1
  Zr  Zr13  1  0.850875  0.005159  0.873620  1
  Zr  Zr14  1  0.504870  0.649819  0.625297  1
  Zr  Zr15  1  0.351503  0.494535  0.874497  1
  Zr  Zr16  1  0.492902  0.346511  0.126055  1
  Zr  Zr17  1  0.646101  0.503319  0.379857  1
  Zr  Zr18  1  0.996616  0.147712  0.626609  1
  Zr  Zr19  1  0.000827  0.847378  0.124953  1
  Si  Si20  1  0.637136  0.706517  0.815470  1
  Si  Si21  1  0.206624  0.863569  0.563723  1
  Si  Si22  1  0.136481  0.793954  0.935598  1
  Si  Si23  1  0.795300  0.134637  0.062679  1
  Si  Si24  1  0.863175  0.201115  0.438248  1
  Si  Si25  1  0.294159  0.363786  0.686270  1
  Si  Si26  1  0.703030  0.638520  0.187024  1
  Si  Si27  1  0.286017  0.047157  0.183182  1
  Si  Si28  1  0.708396  0.948320  0.686501  1
  Si  Si29  1  0.449579  0.795453  0.439296  1
  Si  Si30  1  0.208367  0.552956  0.061212  1
  Si  Si31  1  0.551344  0.206831  0.936096  1
  Si  Si32  1  0.793097  0.447916  0.565345  1
  Si  Si33  1  0.051726  0.292236  0.813265  1
  Si  Si34  1  0.945852  0.711755  0.313387  1
  Ir  Ir35  1  0.366149  0.299470  0.310352  1
