# generated using pymatgen
data_YLu2Sc2(In2Pd)2
_symmetry_space_group_name_H-M   'P 1'
_cell_length_a   3.55588500
_cell_length_b   7.91022200
_cell_length_c   17.82712400
_cell_angle_alpha   90.00000000
_cell_angle_beta   90.00000000
_cell_angle_gamma   90.00000000
_symmetry_Int_Tables_number   1
_chemical_formula_structural   YLu2Sc2(In2Pd)2
_chemical_formula_sum   'Y2 Lu4 Sc4 In8 Pd4'
_cell_volume   501.43848719
_cell_formula_units_Z   2
loop_
 _symmetry_equiv_pos_site_id
 _symmetry_equiv_pos_as_xyz
  1  'x, y, z'
loop_
 _atom_site_type_symbol
 _atom_site_label
 _atom_site_symmetry_multiplicity
 _atom_site_fract_x
 _atom_site_fract_y
 _atom_site_fract_z
 _atom_site_occupancy
  Y  Y0  1  0.000000  0.000000  0.000000  1
  Y  Y1  1  0.000000  0.500000  0.500000  1
  Lu  Lu2  1  0.000000  0.243025  0.218349  1
  Lu  Lu3  1  0.000000  0.756975  0.781651  1
  Lu  Lu4  1  0.000000  0.256975  0.718349  1
  Lu  Lu5  1  0.000000  0.743025  0.281651  1
  Sc  Sc6  1  0.000000  0.119640  0.415181  1
  Sc  Sc7  1  0.000000  0.880360  0.584819  1
  Sc  Sc8  1  0.000000  0.380360  0.915181  1
  Sc  Sc9  1  0.000000  0.619640  0.084819  1
  In  In10  1  0.500000  0.416488  0.350322  1
  In  In11  1  0.500000  0.583512  0.649678  1
  In  In12  1  0.500000  0.083512  0.850322  1
  In  In13  1  0.500000  0.916488  0.149678  1
  In  In14  1  0.500000  0.305931  0.063181  1
  In  In15  1  0.500000  0.694069  0.936819  1
  In  In16  1  0.500000  0.194069  0.563181  1
  In  In17  1  0.500000  0.805931  0.436819  1
  Pd  Pd18  1  0.500000  0.029463  0.305514  1
  Pd  Pd19  1  0.500000  0.970537  0.694486  1
  Pd  Pd20  1  0.500000  0.470537  0.805514  1
  Pd  Pd21  1  0.500000  0.529463  0.194486  1
