# generated using pymatgen
data_Pm2SeO2
_symmetry_space_group_name_H-M   'P 1'
_cell_length_a   3.97871801
_cell_length_b   3.97873658
_cell_length_c   7.01293101
_cell_angle_alpha   89.99999967
_cell_angle_beta   90.00044022
_cell_angle_gamma   120.00015700
_symmetry_Int_Tables_number   1
_chemical_formula_structural   Pm2SeO2
_chemical_formula_sum   'Pm2 Se1 O2'
_cell_volume   96.14304164
_cell_formula_units_Z   1
loop_
 _symmetry_equiv_pos_site_id
 _symmetry_equiv_pos_as_xyz
  1  'x, y, z'
loop_
 _atom_site_type_symbol
 _atom_site_label
 _atom_site_symmetry_multiplicity
 _atom_site_fract_x
 _atom_site_fract_y
 _atom_site_fract_z
 _atom_site_occupancy
  Pm  Pm0  1  0.333331  0.666666  0.289087  1
  Pm  Pm1  1  0.666669  0.333336  0.710914  1
  Se  Se2  1  0.000000  0.000000  0.000000  1
  O  O3  1  0.666664  0.333332  0.374408  1
  O  O4  1  0.333336  0.666667  0.625593  1
