# generated using pymatgen
data_Dy4Ho(TcO6)2
_symmetry_space_group_name_H-M   'P 1'
_cell_length_a   6.82487198
_cell_length_b   6.82487219
_cell_length_c   7.52749000
_cell_angle_alpha   73.75007769
_cell_angle_beta   73.75007991
_cell_angle_gamma   49.09319728
_symmetry_Int_Tables_number   1
_chemical_formula_structural   Dy4Ho(TcO6)2
_chemical_formula_sum   'Dy4 Ho1 Tc2 O12'
_cell_volume   252.14112886
_cell_formula_units_Z   1
loop_
 _symmetry_equiv_pos_site_id
 _symmetry_equiv_pos_as_xyz
  1  'x, y, z'
loop_
 _atom_site_type_symbol
 _atom_site_label
 _atom_site_symmetry_multiplicity
 _atom_site_fract_x
 _atom_site_fract_y
 _atom_site_fract_z
 _atom_site_occupancy
  Dy  Dy0  1  0.315816  0.315816  0.823967  1
  Dy  Dy1  1  0.684184  0.684184  0.176033  1
  Dy  Dy2  1  0.695465  0.695465  0.642284  1
  Dy  Dy3  1  0.304535  0.304535  0.357716  1
  Ho  Ho4  1  0.000000  0.000000  0.500000  1
  Tc  Tc5  1  0.213783  0.786217  0.000000  1
  Tc  Tc6  1  0.786217  0.213783  0.000000  1
  O  O7  1  0.498816  0.498816  0.177932  1
  O  O8  1  0.501184  0.501184  0.822068  1
  O  O9  1  0.001366  0.001366  0.204672  1
  O  O10  1  0.998634  0.998634  0.795328  1
  O  O11  1  0.913505  0.415971  0.915809  1
  O  O12  1  0.584029  0.086495  0.084191  1
  O  O13  1  0.086495  0.584029  0.084191  1
  O  O14  1  0.595276  0.098019  0.573515  1
  O  O15  1  0.901981  0.404724  0.426485  1
  O  O16  1  0.404724  0.901981  0.426485  1
  O  O17  1  0.098019  0.595276  0.573515  1
  O  O18  1  0.415971  0.913505  0.915809  1
