# generated using pymatgen
data_Cu(IrO3)2
_symmetry_space_group_name_H-M   'P 1'
_cell_length_a   4.56661292
_cell_length_b   4.49210000
_cell_length_c   9.43808664
_cell_angle_alpha   90.00000000
_cell_angle_beta   90.11604658
_cell_angle_gamma   90.00000000
_symmetry_Int_Tables_number   1
_chemical_formula_structural   Cu(IrO3)2
_chemical_formula_sum   'Cu2 Ir4 O12'
_cell_volume   193.60951016
_cell_formula_units_Z   2
loop_
 _symmetry_equiv_pos_site_id
 _symmetry_equiv_pos_as_xyz
  1  'x, y, z'
loop_
 _atom_site_type_symbol
 _atom_site_label
 _atom_site_symmetry_multiplicity
 _atom_site_fract_x
 _atom_site_fract_y
 _atom_site_fract_z
 _atom_site_occupancy
  Cu  Cu0  1  0.500000  0.500000  0.500000  1
  Cu  Cu1  1  0.000000  0.000000  0.000000  1
  Ir  Ir2  1  0.499655  0.503597  0.167669  1
  Ir  Ir3  1  0.999655  0.996403  0.667669  1
  Ir  Ir4  1  0.500345  0.496403  0.832331  1
  Ir  Ir5  1  0.000345  0.003597  0.332331  1
  O  O6  1  0.689096  0.701814  0.669759  1
  O  O7  1  0.189096  0.798186  0.169759  1
  O  O8  1  0.310904  0.298186  0.330241  1
  O  O9  1  0.810904  0.201814  0.830241  1
  O  O10  1  0.188368  0.788377  0.829506  1
  O  O11  1  0.688368  0.711623  0.329506  1
  O  O12  1  0.811632  0.211623  0.170494  1
  O  O13  1  0.311632  0.288377  0.670494  1
  O  O14  1  0.181675  0.801049  0.499535  1
  O  O15  1  0.681675  0.698951  0.999535  1
  O  O16  1  0.818325  0.198951  0.500465  1
  O  O17  1  0.318325  0.301049  0.000465  1
