# generated using pymatgen
data_TiV2(O2F)2
_symmetry_space_group_name_H-M   'P 1'
_cell_length_a   5.10346100
_cell_length_b   9.08465000
_cell_length_c   9.70836100
_cell_angle_alpha   90.00000000
_cell_angle_beta   90.00000000
_cell_angle_gamma   90.00000000
_symmetry_Int_Tables_number   1
_chemical_formula_structural   TiV2(O2F)2
_chemical_formula_sum   'Ti4 V8 O16 F8'
_cell_volume   450.11026500
_cell_formula_units_Z   4
loop_
 _symmetry_equiv_pos_site_id
 _symmetry_equiv_pos_as_xyz
  1  'x, y, z'
loop_
 _atom_site_type_symbol
 _atom_site_label
 _atom_site_symmetry_multiplicity
 _atom_site_fract_x
 _atom_site_fract_y
 _atom_site_fract_z
 _atom_site_occupancy
  Ti  Ti0  1  0.600599  0.750000  0.437975  1
  Ti  Ti1  1  0.899401  0.750000  0.937975  1
  Ti  Ti2  1  0.100599  0.250000  0.062025  1
  Ti  Ti3  1  0.399401  0.250000  0.562025  1
  V  V4  1  0.403913  0.917023  0.130009  1
  V  V5  1  0.596087  0.082977  0.869991  1
  V  V6  1  0.903913  0.417023  0.369991  1
  V  V7  1  0.096087  0.582977  0.630009  1
  V  V8  1  0.403913  0.582977  0.130009  1
  V  V9  1  0.903913  0.082977  0.369991  1
  V  V10  1  0.096087  0.917023  0.630009  1
  V  V11  1  0.596087  0.417023  0.869991  1
  O  O12  1  0.710345  0.912767  0.989058  1
  O  O13  1  0.789655  0.912767  0.489058  1
  O  O14  1  0.789655  0.587233  0.489058  1
  O  O15  1  0.215475  0.750000  0.029438  1
  O  O16  1  0.289655  0.087233  0.010942  1
  O  O17  1  0.289655  0.412767  0.010942  1
  O  O18  1  0.960637  0.750000  0.748024  1
  O  O19  1  0.284525  0.750000  0.529438  1
  O  O20  1  0.210345  0.087233  0.510942  1
  O  O21  1  0.539363  0.750000  0.248024  1
  O  O22  1  0.784525  0.250000  0.970562  1
  O  O23  1  0.210345  0.412767  0.510942  1
  O  O24  1  0.710345  0.587233  0.989058  1
  O  O25  1  0.715475  0.250000  0.470562  1
  O  O26  1  0.039363  0.250000  0.251976  1
  O  O27  1  0.460637  0.250000  0.751976  1
  F  F28  1  0.087426  0.939140  0.250151  1
  F  F29  1  0.087426  0.560860  0.250151  1
  F  F30  1  0.912574  0.439140  0.749849  1
  F  F31  1  0.412574  0.939140  0.750151  1
  F  F32  1  0.587426  0.060860  0.249849  1
  F  F33  1  0.587426  0.439140  0.249849  1
  F  F34  1  0.412574  0.560860  0.750151  1
  F  F35  1  0.912574  0.060860  0.749849  1
