# generated using pymatgen
data_LaSi(NiPt)2
_symmetry_space_group_name_H-M   'P 1'
_cell_length_a   5.11071492
_cell_length_b   5.11071478
_cell_length_c   4.04853600
_cell_angle_alpha   90.00000000
_cell_angle_beta   90.00000000
_cell_angle_gamma   113.66738927
_symmetry_Int_Tables_number   1
_chemical_formula_structural   LaSi(NiPt)2
_chemical_formula_sum   'La1 Si1 Ni2 Pt2'
_cell_volume   96.85124364
_cell_formula_units_Z   1
loop_
 _symmetry_equiv_pos_site_id
 _symmetry_equiv_pos_as_xyz
  1  'x, y, z'
loop_
 _atom_site_type_symbol
 _atom_site_label
 _atom_site_symmetry_multiplicity
 _atom_site_fract_x
 _atom_site_fract_y
 _atom_site_fract_z
 _atom_site_occupancy
  La  La0  1  0.000000  0.000000  0.000000  1
  Si  Si1  1  0.500000  0.500000  0.500000  1
  Ni  Ni2  1  0.354828  0.645172  0.000000  1
  Ni  Ni3  1  0.645172  0.354828  0.000000  1
  Pt  Pt4  1  0.500000  0.000000  0.500000  1
  Pt  Pt5  1  0.000000  0.500000  0.500000  1
