# generated using pymatgen
data_ErHfB6Os
_symmetry_space_group_name_H-M   'P 1'
_cell_length_a   3.54680100
_cell_length_b   8.98992900
_cell_length_c   11.34952400
_cell_angle_alpha   90.00000000
_cell_angle_beta   90.00000000
_cell_angle_gamma   90.00000000
_symmetry_Int_Tables_number   1
_chemical_formula_structural   ErHfB6Os
_chemical_formula_sum   'Er4 Hf4 B24 Os4'
_cell_volume   361.88512455
_cell_formula_units_Z   4
loop_
 _symmetry_equiv_pos_site_id
 _symmetry_equiv_pos_as_xyz
  1  'x, y, z'
loop_
 _atom_site_type_symbol
 _atom_site_label
 _atom_site_symmetry_multiplicity
 _atom_site_fract_x
 _atom_site_fract_y
 _atom_site_fract_z
 _atom_site_occupancy
  Er  Er0  1  0.000000  0.321223  0.413412  1
  Er  Er1  1  0.000000  0.678777  0.586588  1
  Er  Er2  1  0.000000  0.821223  0.086588  1
  Er  Er3  1  0.000000  0.178777  0.913412  1
  Hf  Hf4  1  0.000000  0.944783  0.374599  1
  Hf  Hf5  1  0.000000  0.055217  0.625402  1
  Hf  Hf6  1  0.000000  0.444783  0.125401  1
  Hf  Hf7  1  0.000000  0.555217  0.874598  1
  B  B8  1  0.500000  0.554155  0.434165  1
  B  B9  1  0.500000  0.445845  0.565835  1
  B  B10  1  0.500000  0.054155  0.065835  1
  B  B11  1  0.500000  0.945845  0.934165  1
  B  B12  1  0.500000  0.751906  0.419476  1
  B  B13  1  0.500000  0.248094  0.580524  1
  B  B14  1  0.500000  0.251906  0.080524  1
  B  B15  1  0.500000  0.748094  0.919476  1
  B  B16  1  0.500000  0.794863  0.263916  1
  B  B17  1  0.500000  0.205137  0.736084  1
  B  B18  1  0.500000  0.294862  0.236084  1
  B  B19  1  0.500000  0.705137  0.763916  1
  B  B20  1  0.500000  0.629846  0.182696  1
  B  B21  1  0.500000  0.370154  0.817304  1
  B  B22  1  0.500000  0.129846  0.317304  1
  B  B23  1  0.500000  0.870154  0.682696  1
  B  B24  1  0.500000  0.981085  0.213489  1
  B  B25  1  0.500000  0.018915  0.786511  1
  B  B26  1  0.500000  0.481085  0.286511  1
  B  B27  1  0.500000  0.518915  0.713489  1
  B  B28  1  0.500000  0.601838  0.027654  1
  B  B29  1  0.500000  0.398162  0.972346  1
  B  B30  1  0.500000  0.101838  0.472346  1
  B  B31  1  0.500000  0.898162  0.527654  1
  Os  Os32  1  0.000000  0.640747  0.319625  1
  Os  Os33  1  0.000000  0.359253  0.680375  1
  Os  Os34  1  0.000000  0.140747  0.180375  1
  Os  Os35  1  0.000000  0.859253  0.819625  1
