# generated using pymatgen
data_Er16Mg3HgPd4
_symmetry_space_group_name_H-M   'P 1'
_cell_length_a   9.63295475
_cell_length_b   9.68305090
_cell_length_c   9.68305200
_cell_angle_alpha   60.00000308
_cell_angle_beta   59.82782243
_cell_angle_gamma   59.82782138
_symmetry_Int_Tables_number   1
_chemical_formula_structural   Er16Mg3HgPd4
_chemical_formula_sum   'Er16 Mg3 Hg1 Pd4'
_cell_volume   636.99182199
_cell_formula_units_Z   1
loop_
 _symmetry_equiv_pos_site_id
 _symmetry_equiv_pos_as_xyz
  1  'x, y, z'
loop_
 _atom_site_type_symbol
 _atom_site_label
 _atom_site_symmetry_multiplicity
 _atom_site_fract_x
 _atom_site_fract_y
 _atom_site_fract_z
 _atom_site_occupancy
  Er  Er0  1  0.351632  0.353457  0.353457  1
  Er  Er1  1  0.351632  0.353457  0.941453  1
  Er  Er2  1  0.351632  0.941453  0.353457  1
  Er  Er3  1  0.944864  0.351711  0.351711  1
  Er  Er4  1  0.812858  0.187416  0.187416  1
  Er  Er5  1  0.188830  0.811468  0.811468  1
  Er  Er6  1  0.188830  0.811468  0.188232  1
  Er  Er7  1  0.812858  0.187416  0.812310  1
  Er  Er8  1  0.188830  0.188232  0.811468  1
  Er  Er9  1  0.812858  0.812310  0.187416  1
  Er  Er10  1  0.936582  0.566645  0.566645  1
  Er  Er11  1  0.567418  0.932506  0.932506  1
  Er  Er12  1  0.567418  0.932506  0.567570  1
  Er  Er13  1  0.936582  0.566645  0.930129  1
  Er  Er14  1  0.567418  0.567570  0.932506  1
  Er  Er15  1  0.936582  0.930129  0.566645  1
  Mg  Mg16  1  0.577737  0.580848  0.580848  1
  Mg  Mg17  1  0.577737  0.580848  0.260566  1
  Mg  Mg18  1  0.577737  0.260566  0.580848  1
  Hg  Hg19  1  0.249901  0.583366  0.583366  1
  Pd  Pd20  1  0.144559  0.144140  0.144140  1
  Pd  Pd21  1  0.144559  0.144140  0.567160  1
  Pd  Pd22  1  0.144559  0.567160  0.144140  1
  Pd  Pd23  1  0.566382  0.144539  0.144539  1
