# generated using pymatgen
data_La8Zn8Ir4PtRh3
_symmetry_space_group_name_H-M   'P 1'
_cell_length_a   4.07097000
_cell_length_b   7.46756262
_cell_length_c   16.72363985
_cell_angle_alpha   89.88877638
_cell_angle_beta   90.00000000
_cell_angle_gamma   90.00000000
_symmetry_Int_Tables_number   1
_chemical_formula_structural   La8Zn8Ir4PtRh3
_chemical_formula_sum   'La8 Zn8 Ir4 Pt1 Rh3'
_cell_volume   508.40142967
_cell_formula_units_Z   1
loop_
 _symmetry_equiv_pos_site_id
 _symmetry_equiv_pos_as_xyz
  1  'x, y, z'
loop_
 _atom_site_type_symbol
 _atom_site_label
 _atom_site_symmetry_multiplicity
 _atom_site_fract_x
 _atom_site_fract_y
 _atom_site_fract_z
 _atom_site_occupancy
  La  La0  1  0.750000  0.330440  0.444792  1
  La  La1  1  0.250000  0.048286  0.718437  1
  La  La2  1  0.250000  0.546646  0.783087  1
  La  La3  1  0.250000  0.671492  0.561078  1
  La  La4  1  0.750000  0.828784  0.058192  1
  La  La5  1  0.250000  0.171619  0.938807  1
  La  La6  1  0.750000  0.456188  0.214940  1
  La  La7  1  0.750000  0.945710  0.281550  1
  Zn  Zn8  1  0.250000  0.125924  0.147739  1
  Zn  Zn9  1  0.250000  0.997194  0.441145  1
  Zn  Zn10  1  0.750000  0.873340  0.851375  1
  Zn  Zn11  1  0.750000  0.000968  0.560266  1
  Zn  Zn12  1  0.250000  0.500125  0.058524  1
  Zn  Zn13  1  0.750000  0.372248  0.649755  1
  Zn  Zn14  1  0.750000  0.502335  0.940404  1
  Zn  Zn15  1  0.250000  0.630815  0.350731  1
  Ir  Ir16  1  0.750000  0.257006  0.813697  1
  Ir  Ir17  1  0.250000  0.741064  0.933133  1
  Ir  Ir18  1  0.250000  0.240906  0.565987  1
  Ir  Ir19  1  0.250000  0.743989  0.186483  1
  Pt  Pt20  1  0.250000  0.242104  0.313690  1
  Rh  Rh21  1  0.750000  0.757789  0.435875  1
  Rh  Rh22  1  0.750000  0.260564  0.065527  1
  Rh  Rh23  1  0.750000  0.754465  0.684788  1
