# generated using pymatgen
data_Nd3Sn3IrPdPt
_symmetry_space_group_name_H-M   'P 1'
_cell_length_a   7.64724400
_cell_length_b   7.64724437
_cell_length_c   4.11860800
_cell_angle_alpha   90.00000000
_cell_angle_beta   90.00000000
_cell_angle_gamma   119.99999840
_symmetry_Int_Tables_number   1
_chemical_formula_structural   Nd3Sn3IrPdPt
_chemical_formula_sum   'Nd3 Sn3 Ir1 Pd1 Pt1'
_cell_volume   208.58881326
_cell_formula_units_Z   1
loop_
 _symmetry_equiv_pos_site_id
 _symmetry_equiv_pos_as_xyz
  1  'x, y, z'
loop_
 _atom_site_type_symbol
 _atom_site_label
 _atom_site_symmetry_multiplicity
 _atom_site_fract_x
 _atom_site_fract_y
 _atom_site_fract_z
 _atom_site_occupancy
  Nd  Nd0  1  0.593312  0.002720  0.000000  1
  Nd  Nd1  1  0.997280  0.590592  0.000000  1
  Nd  Nd2  1  0.409408  0.406688  0.000000  1
  Sn  Sn3  1  0.249122  0.998583  0.500000  1
  Sn  Sn4  1  0.001417  0.250539  0.500000  1
  Sn  Sn5  1  0.749461  0.750878  0.500000  1
  Ir  Ir6  1  0.000000  0.000000  0.000000  1
  Pd  Pd7  1  0.333333  0.666667  0.500000  1
  Pt  Pt8  1  0.666667  0.333333  0.500000  1
