# generated using pymatgen
data_Tb9Ho3B2(CCl6)2
_symmetry_space_group_name_H-M   'P 1'
_cell_length_a   9.34273146
_cell_length_b   9.34184014
_cell_length_c   9.41774467
_cell_angle_alpha   109.45459164
_cell_angle_beta   109.52148153
_cell_angle_gamma   109.12016999
_symmetry_Int_Tables_number   1
_chemical_formula_structural   Tb9Ho3B2(CCl6)2
_chemical_formula_sum   'Tb9 Ho3 B2 C2 Cl12'
_cell_volume   635.20869350
_cell_formula_units_Z   1
loop_
 _symmetry_equiv_pos_site_id
 _symmetry_equiv_pos_as_xyz
  1  'x, y, z'
loop_
 _atom_site_type_symbol
 _atom_site_label
 _atom_site_symmetry_multiplicity
 _atom_site_fract_x
 _atom_site_fract_y
 _atom_site_fract_z
 _atom_site_occupancy
  Tb  Tb0  1  0.234812  0.465229  0.479497  1
  Tb  Tb1  1  0.268106  0.756733  0.236042  1
  Tb  Tb2  1  0.034722  0.264866  0.020390  1
  Tb  Tb3  1  0.020991  0.032225  0.264114  1
  Tb  Tb4  1  0.485845  0.755322  0.020404  1
  Tb  Tb5  1  0.481146  0.231392  0.462684  1
  Tb  Tb6  1  0.014309  0.486028  0.750305  1
  Tb  Tb7  1  0.268783  0.018695  0.037498  1
  Tb  Tb8  1  0.235695  0.263756  0.749804  1
  Ho  Ho9  1  0.465446  0.478127  0.234682  1
  Ho  Ho10  1  0.743699  0.230709  0.265435  1
  Ho  Ho11  1  0.744624  0.015708  0.478414  1
  B  B12  1  0.997512  0.248586  0.497982  1
  B  B13  1  0.251497  0.500660  0.001847  1
  C  C14  1  0.251389  0.251759  0.250235  1
  C  C15  1  0.503319  0.001245  0.251502  1
  Cl  Cl16  1  0.252228  0.759295  0.746120  1
  Cl  Cl17  1  0.513192  0.506056  0.753868  1
  Cl  Cl18  1  0.986958  0.745455  0.993445  1
  Cl  Cl19  1  0.740504  0.245700  0.752014  1
  Cl  Cl20  1  0.992640  0.986784  0.745063  1
  Cl  Cl21  1  0.252058  0.993566  0.506560  1
  Cl  Cl22  1  0.752653  0.510917  0.502432  1
  Cl  Cl23  1  0.508709  0.250294  0.997675  1
  Cl  Cl24  1  0.754759  0.744733  0.252362  1
  Cl  Cl25  1  0.743585  0.995694  0.989328  1
  Cl  Cl26  1  0.992649  0.504477  0.249684  1
  Cl  Cl27  1  0.508171  0.755987  0.510615  1
