# generated using pymatgen
data_Yb5Sm2Ho(Cu2Sn5)2
_symmetry_space_group_name_H-M   'P 1'
_cell_length_a   4.45766900
_cell_length_b   8.77882700
_cell_length_c   14.10040300
_cell_angle_alpha   90.00000000
_cell_angle_beta   90.00000000
_cell_angle_gamma   90.00000000
_symmetry_Int_Tables_number   1
_chemical_formula_structural   Yb5Sm2Ho(Cu2Sn5)2
_chemical_formula_sum   'Yb5 Sm2 Ho1 Cu4 Sn10'
_cell_volume   551.79255078
_cell_formula_units_Z   1
loop_
 _symmetry_equiv_pos_site_id
 _symmetry_equiv_pos_as_xyz
  1  'x, y, z'
loop_
 _atom_site_type_symbol
 _atom_site_label
 _atom_site_symmetry_multiplicity
 _atom_site_fract_x
 _atom_site_fract_y
 _atom_site_fract_z
 _atom_site_occupancy
  Yb  Yb0  1  0.500000  0.791711  0.741317  1
  Yb  Yb1  1  0.000000  0.204306  0.752757  1
  Yb  Yb2  1  0.000000  0.204306  0.247243  1
  Yb  Yb3  1  0.000000  0.866230  0.500000  1
  Yb  Yb4  1  0.500000  0.791711  0.258683  1
  Sm  Sm5  1  0.500000  0.696194  0.000000  1
  Sm  Sm6  1  0.500000  0.142022  0.000000  1
  Ho  Ho7  1  0.000000  0.296191  0.500000  1
  Cu  Cu8  1  0.500000  0.377723  0.641339  1
  Cu  Cu9  1  0.000000  0.624334  0.850970  1
  Cu  Cu10  1  0.000000  0.624334  0.149030  1
  Cu  Cu11  1  0.500000  0.377723  0.358661  1
  Sn  Sn12  1  0.500000  0.083055  0.396325  1
  Sn  Sn13  1  0.000000  0.551978  0.661428  1
  Sn  Sn14  1  0.000000  0.412962  0.000000  1
  Sn  Sn15  1  0.500000  0.442635  0.166388  1
  Sn  Sn16  1  0.500000  0.595505  0.500000  1
  Sn  Sn17  1  0.500000  0.442635  0.833612  1
  Sn  Sn18  1  0.000000  0.919707  0.895902  1
  Sn  Sn19  1  0.000000  0.551978  0.338572  1
  Sn  Sn20  1  0.500000  0.083055  0.603675  1
  Sn  Sn21  1  0.000000  0.919707  0.104098  1
