# generated using pymatgen
data_Zr6Si5PRu6
_symmetry_space_group_name_H-M   'P 1'
_cell_length_a   7.63898447
_cell_length_b   7.63981102
_cell_length_c   7.64326306
_cell_angle_alpha   128.07051042
_cell_angle_beta   121.33254269
_cell_angle_gamma   82.16999876
_symmetry_Int_Tables_number   1
_chemical_formula_structural   Zr6Si5PRu6
_chemical_formula_sum   'Zr6 Si5 P1 Ru6'
_cell_volume   288.45176542
_cell_formula_units_Z   1
loop_
 _symmetry_equiv_pos_site_id
 _symmetry_equiv_pos_as_xyz
  1  'x, y, z'
loop_
 _atom_site_type_symbol
 _atom_site_label
 _atom_site_symmetry_multiplicity
 _atom_site_fract_x
 _atom_site_fract_y
 _atom_site_fract_z
 _atom_site_occupancy
  Zr  Zr0  1  0.474373  0.698663  0.730449  1
  Zr  Zr1  1  0.532877  0.260569  0.234105  1
  Zr  Zr2  1  0.749765  0.829641  0.585247  1
  Zr  Zr3  1  0.249072  0.832457  0.079789  1
  Zr  Zr4  1  0.049862  0.258337  0.705543  1
  Zr  Zr5  1  0.948847  0.654118  0.203341  1
  Si  Si6  1  0.273135  0.269104  0.494129  1
  Si  Si7  1  0.724149  0.219998  0.992850  1
  Si  Si8  1  0.328695  0.587476  0.250880  1
  Si  Si9  1  0.672063  0.921097  0.261566  1
  Si  Si10  1  0.164180  0.923885  0.750089  1
  P  P11  1  0.839524  0.587809  0.761485  1
  Ru  Ru12  1  0.499571  0.497127  0.996457  1
  Ru  Ru13  1  0.996387  0.495639  0.494595  1
  Ru  Ru14  1  0.096578  0.253903  0.105928  1
  Ru  Ru15  1  0.900946  0.005908  0.153244  1
  Ru  Ru16  1  0.351809  0.008503  0.604314  1
  Ru  Ru17  1  0.648166  0.255367  0.655588  1
