# generated using pymatgen
data_Dy5Ir2Os
_symmetry_space_group_name_H-M   'P 1'
_cell_length_a   10.86024100
_cell_length_b   10.86024100
_cell_length_c   6.41726800
_cell_angle_alpha   90.00000000
_cell_angle_beta   90.00000000
_cell_angle_gamma   90.00000000
_symmetry_Int_Tables_number   1
_chemical_formula_structural   Dy5Ir2Os
_chemical_formula_sum   'Dy20 Ir8 Os4'
_cell_volume   756.88361270
_cell_formula_units_Z   4
loop_
 _symmetry_equiv_pos_site_id
 _symmetry_equiv_pos_as_xyz
  1  'x, y, z'
loop_
 _atom_site_type_symbol
 _atom_site_label
 _atom_site_symmetry_multiplicity
 _atom_site_fract_x
 _atom_site_fract_y
 _atom_site_fract_z
 _atom_site_occupancy
  Dy  Dy0  1  0.293760  0.086781  0.377904  1
  Dy  Dy1  1  0.293760  0.913219  0.877904  1
  Dy  Dy2  1  0.706240  0.086781  0.877904  1
  Dy  Dy3  1  0.706240  0.913219  0.377904  1
  Dy  Dy4  1  0.586781  0.793760  0.877904  1
  Dy  Dy5  1  0.586781  0.206240  0.377904  1
  Dy  Dy6  1  0.413219  0.793760  0.377904  1
  Dy  Dy7  1  0.413219  0.206240  0.877904  1
  Dy  Dy8  1  0.206240  0.413219  0.622096  1
  Dy  Dy9  1  0.206240  0.586781  0.122096  1
  Dy  Dy10  1  0.793760  0.413219  0.122096  1
  Dy  Dy11  1  0.793760  0.586781  0.622096  1
  Dy  Dy12  1  0.913219  0.706240  0.122096  1
  Dy  Dy13  1  0.913219  0.293760  0.622096  1
  Dy  Dy14  1  0.086781  0.706240  0.622096  1
  Dy  Dy15  1  0.086781  0.293760  0.122096  1
  Dy  Dy16  1  0.000000  0.000000  0.500000  1
  Dy  Dy17  1  0.000000  0.000000  0.000000  1
  Dy  Dy18  1  0.500000  0.500000  0.000000  1
  Dy  Dy19  1  0.500000  0.500000  0.500000  1
  Ir  Ir20  1  0.847817  0.152183  0.250000  1
  Ir  Ir21  1  0.847817  0.847817  0.750000  1
  Ir  Ir22  1  0.152183  0.152183  0.750000  1
  Ir  Ir23  1  0.152183  0.847817  0.250000  1
  Ir  Ir24  1  0.652183  0.347817  0.750000  1
  Ir  Ir25  1  0.652183  0.652183  0.250000  1
  Ir  Ir26  1  0.347817  0.347817  0.250000  1
  Ir  Ir27  1  0.347817  0.652183  0.750000  1
  Os  Os28  1  0.500000  0.000000  0.123823  1
  Os  Os29  1  0.500000  0.000000  0.623823  1
  Os  Os30  1  0.000000  0.500000  0.876177  1
  Os  Os31  1  0.000000  0.500000  0.376177  1
