# generated using pymatgen
data_HoTmAl6
_symmetry_space_group_name_H-M   'P 1'
_cell_length_a   6.06663500
_cell_length_b   6.06663473
_cell_length_c   9.58681900
_cell_angle_alpha   90.00000000
_cell_angle_beta   90.00000000
_cell_angle_gamma   119.99999603
_symmetry_Int_Tables_number   1
_chemical_formula_structural   HoTmAl6
_chemical_formula_sum   'Ho2 Tm2 Al12'
_cell_volume   305.56308791
_cell_formula_units_Z   2
loop_
 _symmetry_equiv_pos_site_id
 _symmetry_equiv_pos_as_xyz
  1  'x, y, z'
loop_
 _atom_site_type_symbol
 _atom_site_label
 _atom_site_symmetry_multiplicity
 _atom_site_fract_x
 _atom_site_fract_y
 _atom_site_fract_z
 _atom_site_occupancy
  Ho  Ho0  1  0.000000  0.000000  0.000000  1
  Ho  Ho1  1  0.000000  0.000000  0.500000  1
  Tm  Tm2  1  0.333333  0.666667  0.750000  1
  Tm  Tm3  1  0.666667  0.333333  0.250000  1
  Al  Al4  1  0.816324  0.632647  0.750000  1
  Al  Al5  1  0.367353  0.183676  0.750000  1
  Al  Al6  1  0.816324  0.183676  0.750000  1
  Al  Al7  1  0.183676  0.367353  0.250000  1
  Al  Al8  1  0.632647  0.816324  0.250000  1
  Al  Al9  1  0.183676  0.816324  0.250000  1
  Al  Al10  1  0.500000  0.500000  0.000000  1
  Al  Al11  1  0.500000  0.000000  0.000000  1
  Al  Al12  1  0.000000  0.500000  0.000000  1
  Al  Al13  1  0.500000  0.500000  0.500000  1
  Al  Al14  1  0.500000  0.000000  0.500000  1
  Al  Al15  1  0.000000  0.500000  0.500000  1
