# generated using pymatgen
data_Pr3S2NO
_symmetry_space_group_name_H-M   'P 1'
_cell_length_a   8.15566448
_cell_length_b   8.15566462
_cell_length_c   9.98288788
_cell_angle_alpha   98.68126765
_cell_angle_beta   98.68126746
_cell_angle_gamma   28.74701718
_symmetry_Int_Tables_number   1
_chemical_formula_structural   Pr3S2NO
_chemical_formula_sum   'Pr6 S4 N2 O2'
_cell_volume   315.45078087
_cell_formula_units_Z   2
loop_
 _symmetry_equiv_pos_site_id
 _symmetry_equiv_pos_as_xyz
  1  'x, y, z'
loop_
 _atom_site_type_symbol
 _atom_site_label
 _atom_site_symmetry_multiplicity
 _atom_site_fract_x
 _atom_site_fract_y
 _atom_site_fract_z
 _atom_site_occupancy
  Pr  Pr0  1  0.386436  0.386436  0.051335  1
  Pr  Pr1  1  0.048934  0.048934  0.268160  1
  Pr  Pr2  1  0.799816  0.799816  0.329633  1
  Pr  Pr3  1  0.200185  0.200185  0.670367  1
  Pr  Pr4  1  0.951066  0.951066  0.731840  1
  Pr  Pr5  1  0.613565  0.613565  0.948665  1
  S  S6  1  0.212759  0.212759  0.154692  1
  S  S7  1  0.632120  0.632120  0.475356  1
  S  S8  1  0.367880  0.367880  0.524645  1
  S  S9  1  0.787241  0.787241  0.845308  1
  N  N10  1  0.901122  0.901122  0.190745  1
  N  N11  1  0.098878  0.098878  0.809255  1
  O  O12  1  0.537292  0.537292  0.142320  1
  O  O13  1  0.462707  0.462707  0.857680  1
