# generated using pymatgen
data_CaLa7Sm2Si8O3
_symmetry_space_group_name_H-M   'P 1'
_cell_length_a   10.82006605
_cell_length_b   10.82006710
_cell_length_c   4.61846100
_cell_angle_alpha   90.00000000
_cell_angle_beta   90.00000000
_cell_angle_gamma   120.05060281
_symmetry_Int_Tables_number   1
_chemical_formula_structural   CaLa7Sm2Si8O3
_chemical_formula_sum   'Ca1 La7 Sm2 Si8 O3'
_cell_volume   468.02182142
_cell_formula_units_Z   1
loop_
 _symmetry_equiv_pos_site_id
 _symmetry_equiv_pos_as_xyz
  1  'x, y, z'
loop_
 _atom_site_type_symbol
 _atom_site_label
 _atom_site_symmetry_multiplicity
 _atom_site_fract_x
 _atom_site_fract_y
 _atom_site_fract_z
 _atom_site_occupancy
  Ca  Ca0  1  0.500000  0.500000  0.500000  1
  La  La1  1  0.211482  0.788518  0.000000  1
  La  La2  1  0.575480  0.782423  0.000000  1
  La  La3  1  0.782423  0.575480  0.000000  1
  La  La4  1  0.000000  0.000000  0.000000  1
  La  La5  1  0.217577  0.424520  0.000000  1
  La  La6  1  0.424520  0.217577  0.000000  1
  La  La7  1  0.788518  0.211482  0.000000  1
  Sm  Sm8  1  0.000000  0.500000  0.500000  1
  Sm  Sm9  1  0.500000  0.000000  0.500000  1
  Si  Si10  1  0.999518  0.778543  0.500000  1
  Si  Si11  1  0.000482  0.221457  0.500000  1
  Si  Si12  1  0.218764  0.218764  0.500000  1
  Si  Si13  1  0.778543  0.999518  0.500000  1
  Si  Si14  1  0.331634  0.668366  0.500000  1
  Si  Si15  1  0.221457  0.000482  0.500000  1
  Si  Si16  1  0.668366  0.331634  0.500000  1
  Si  Si17  1  0.781236  0.781236  0.500000  1
  O  O18  1  0.000000  0.500000  0.000000  1
  O  O19  1  0.500000  0.500000  0.000000  1
  O  O20  1  0.500000  0.000000  0.000000  1
