# generated using pymatgen
data_YU(TcB4)2
_symmetry_space_group_name_H-M   'P 1'
_cell_length_a   3.61084600
_cell_length_b   5.95659002
_cell_length_c   11.50537413
_cell_angle_alpha   90.01346304
_cell_angle_beta   90.00000000
_cell_angle_gamma   90.00000000
_symmetry_Int_Tables_number   1
_chemical_formula_structural   YU(TcB4)2
_chemical_formula_sum   'Y2 U2 Tc4 B16'
_cell_volume   247.46136809
_cell_formula_units_Z   2
loop_
 _symmetry_equiv_pos_site_id
 _symmetry_equiv_pos_as_xyz
  1  'x, y, z'
loop_
 _atom_site_type_symbol
 _atom_site_label
 _atom_site_symmetry_multiplicity
 _atom_site_fract_x
 _atom_site_fract_y
 _atom_site_fract_z
 _atom_site_occupancy
  Y  Y0  1  0.000000  0.626467  0.351495  1
  Y  Y1  1  0.000000  0.373533  0.648505  1
  U  U2  1  0.000000  0.127247  0.150644  1
  U  U3  1  0.000000  0.872753  0.849356  1
  Tc  Tc4  1  0.000000  0.641110  0.090980  1
  Tc  Tc5  1  0.000000  0.358890  0.909020  1
  Tc  Tc6  1  0.000000  0.134392  0.407689  1
  Tc  Tc7  1  0.000000  0.865608  0.592311  1
  B  B8  1  0.500000  0.791466  0.185340  1
  B  B9  1  0.500000  0.208534  0.814660  1
  B  B10  1  0.500000  0.286811  0.312399  1
  B  B11  1  0.500000  0.713189  0.687601  1
  B  B12  1  0.500000  0.867566  0.031243  1
  B  B13  1  0.500000  0.132434  0.968757  1
  B  B14  1  0.500000  0.363111  0.468577  1
  B  B15  1  0.500000  0.636889  0.531423  1
  B  B16  1  0.500000  0.887003  0.453638  1
  B  B17  1  0.500000  0.112997  0.546362  1
  B  B18  1  0.500000  0.385846  0.047008  1
  B  B19  1  0.500000  0.614154  0.952992  1
  B  B20  1  0.500000  0.978435  0.306682  1
  B  B21  1  0.500000  0.021565  0.693318  1
  B  B22  1  0.500000  0.472028  0.191255  1
  B  B23  1  0.500000  0.527972  0.808745  1
