# generated using pymatgen
data_Ta6IrPt5
_symmetry_space_group_name_H-M   'P 1'
_cell_length_a   13.98070690
_cell_length_b   2.81737500
_cell_length_c   5.00449285
_cell_angle_alpha   90.00000000
_cell_angle_beta   89.69388652
_cell_angle_gamma   90.00000000
_symmetry_Int_Tables_number   1
_chemical_formula_structural   Ta6IrPt5
_chemical_formula_sum   'Ta6 Ir1 Pt5'
_cell_volume   197.11862558
_cell_formula_units_Z   1
loop_
 _symmetry_equiv_pos_site_id
 _symmetry_equiv_pos_as_xyz
  1  'x, y, z'
loop_
 _atom_site_type_symbol
 _atom_site_label
 _atom_site_symmetry_multiplicity
 _atom_site_fract_x
 _atom_site_fract_y
 _atom_site_fract_z
 _atom_site_occupancy
  Ta  Ta0  1  0.249963  0.000000  0.003277  1
  Ta  Ta1  1  0.081963  0.000000  0.339675  1
  Ta  Ta2  1  0.421615  0.000000  0.337092  1
  Ta  Ta3  1  0.581916  0.000000  0.659027  1
  Ta  Ta4  1  0.917914  0.000000  0.660224  1
  Ta  Ta5  1  0.746123  0.000000  0.002509  1
  Ir  Ir6  1  0.584253  0.500001  0.157146  1
  Pt  Pt7  1  0.915963  0.500001  0.158293  1
  Pt  Pt8  1  0.250160  0.500001  0.498265  1
  Pt  Pt9  1  0.750913  0.500001  0.501566  1
  Pt  Pt10  1  0.084144  0.500001  0.841814  1
  Pt  Pt11  1  0.415073  0.500001  0.841120  1
