# generated using pymatgen
data_Ba3Sr3(Si2P3)4
_symmetry_space_group_name_H-M   'P 1'
_cell_length_a   7.26821100
_cell_length_b   7.53285153
_cell_length_c   11.47348175
_cell_angle_alpha   80.39575310
_cell_angle_beta   90.00000000
_cell_angle_gamma   90.00000000
_symmetry_Int_Tables_number   1
_chemical_formula_structural   Ba3Sr3(Si2P3)4
_chemical_formula_sum   'Ba3 Sr3 Si8 P12'
_cell_volume   619.37245441
_cell_formula_units_Z   1
loop_
 _symmetry_equiv_pos_site_id
 _symmetry_equiv_pos_as_xyz
  1  'x, y, z'
loop_
 _atom_site_type_symbol
 _atom_site_label
 _atom_site_symmetry_multiplicity
 _atom_site_fract_x
 _atom_site_fract_y
 _atom_site_fract_z
 _atom_site_occupancy
  Ba  Ba0  1  0.250000  0.085910  0.150942  1
  Ba  Ba1  1  0.750000  0.407143  0.863224  1
  Ba  Ba2  1  0.250000  0.592912  0.137069  1
  Sr  Sr3  1  0.750000  0.502405  0.488219  1
  Sr  Sr4  1  0.250000  0.497153  0.514145  1
  Sr  Sr5  1  0.750000  0.914000  0.844136  1
  Si  Si6  1  0.421900  0.977501  0.591054  1
  Si  Si7  1  0.921356  0.023165  0.409269  1
  Si  Si8  1  0.578644  0.023165  0.409269  1
  Si  Si9  1  0.078100  0.977501  0.591054  1
  Si  Si10  1  0.750000  0.329113  0.201323  1
  Si  Si11  1  0.250000  0.180012  0.795030  1
  Si  Si12  1  0.250000  0.672481  0.795790  1
  Si  Si13  1  0.750000  0.818602  0.205839  1
  P  P14  1  0.996705  0.210444  0.679472  1
  P  P15  1  0.499293  0.785860  0.323973  1
  P  P16  1  0.250000  0.394956  0.914600  1
  P  P17  1  0.750000  0.609936  0.082434  1
  P  P18  1  0.250000  0.898198  0.910985  1
  P  P19  1  0.750000  0.098274  0.086812  1
  P  P20  1  0.503213  0.700003  0.680088  1
  P  P21  1  0.999711  0.302479  0.320869  1
  P  P22  1  0.500289  0.302479  0.320869  1
  P  P23  1  0.996787  0.700003  0.680088  1
  P  P24  1  0.503295  0.210444  0.679472  1
  P  P25  1  0.000707  0.785860  0.323973  1
