# generated using pymatgen
data_Y8Ta12Si15As
_symmetry_space_group_name_H-M   'P 1'
_cell_length_a   6.87771323
_cell_length_b   7.05958213
_cell_length_c   13.39470259
_cell_angle_alpha   89.97470107
_cell_angle_beta   90.21936358
_cell_angle_gamma   90.15019893
_symmetry_Int_Tables_number   1
_chemical_formula_structural   Y8Ta12Si15As
_chemical_formula_sum   'Y8 Ta12 Si15 As1'
_cell_volume   650.35639996
_cell_formula_units_Z   1
loop_
 _symmetry_equiv_pos_site_id
 _symmetry_equiv_pos_as_xyz
  1  'x, y, z'
loop_
 _atom_site_type_symbol
 _atom_site_label
 _atom_site_symmetry_multiplicity
 _atom_site_fract_x
 _atom_site_fract_y
 _atom_site_fract_z
 _atom_site_occupancy
  Y  Y0  1  0.499613  0.673238  0.595350  1
  Y  Y1  1  0.001660  0.828851  0.904412  1
  Y  Y2  1  0.498189  0.328799  0.095090  1
  Y  Y3  1  0.002987  0.173957  0.403241  1
  Y  Y4  1  0.499580  0.327405  0.404546  1
  Y  Y5  1  0.998697  0.170888  0.095169  1
  Y  Y6  1  0.501991  0.671296  0.904826  1
  Y  Y7  1  0.000505  0.826550  0.596887  1
  Ta  Ta8  1  0.659019  0.173853  0.626434  1
  Ta  Ta9  1  0.161519  0.325956  0.874477  1
  Ta  Ta10  1  0.338444  0.826526  0.125777  1
  Ta  Ta11  1  0.842058  0.669214  0.373188  1
  Ta  Ta12  1  0.338392  0.827560  0.375390  1
  Ta  Ta13  1  0.837998  0.674034  0.125511  1
  Ta  Ta14  1  0.661108  0.173798  0.874160  1
  Ta  Ta15  1  0.159121  0.327830  0.626157  1
  Ta  Ta16  1  0.836723  0.489921  0.749667  1
  Ta  Ta17  1  0.336209  0.009860  0.749919  1
  Ta  Ta18  1  0.163320  0.510106  0.250381  1
  Ta  Ta19  1  0.664382  0.989198  0.248265  1
  Si  Si20  1  0.164157  0.537477  0.040892  1
  Si  Si21  1  0.335600  0.037184  0.958563  1
  Si  Si22  1  0.833882  0.461803  0.540992  1
  Si  Si23  1  0.323853  0.041080  0.543289  1
  Si  Si24  1  0.835830  0.462941  0.958718  1
  Si  Si25  1  0.664202  0.962900  0.041133  1
  Si  Si26  1  0.166413  0.538232  0.459485  1
  Si  Si27  1  0.457158  0.378164  0.750329  1
  Si  Si28  1  0.956944  0.121789  0.750187  1
  Si  Si29  1  0.541558  0.622226  0.250232  1
  Si  Si30  1  0.043234  0.877557  0.249818  1
  Si  Si31  1  0.702312  0.871330  0.750537  1
  Si  Si32  1  0.203394  0.628232  0.750801  1
  Si  Si33  1  0.298438  0.128482  0.249480  1
  Si  Si34  1  0.797388  0.371127  0.248927  1
  As  As35  1  0.674121  0.960633  0.457768  1
