# generated using pymatgen
data_Sr2ScPdO6
_symmetry_space_group_name_H-M   'P 1'
_cell_length_a   5.69317500
_cell_length_b   5.72300745
_cell_length_c   9.88487840
_cell_angle_alpha   54.47507074
_cell_angle_beta   90.00000000
_cell_angle_gamma   90.00000000
_symmetry_Int_Tables_number   1
_chemical_formula_structural   Sr2ScPdO6
_chemical_formula_sum   'Sr4 Sc2 Pd2 O12'
_cell_volume   262.12072676
_cell_formula_units_Z   2
loop_
 _symmetry_equiv_pos_site_id
 _symmetry_equiv_pos_as_xyz
  1  'x, y, z'
loop_
 _atom_site_type_symbol
 _atom_site_label
 _atom_site_symmetry_multiplicity
 _atom_site_fract_x
 _atom_site_fract_y
 _atom_site_fract_z
 _atom_site_occupancy
  Sr  Sr0  1  0.481093  0.753466  0.250243  1
  Sr  Sr1  1  0.518907  0.246534  0.749757  1
  Sr  Sr2  1  0.981093  0.246534  0.249757  1
  Sr  Sr3  1  0.018907  0.753466  0.750243  1
  Sc  Sc4  1  0.000000  0.000000  0.000000  1
  Sc  Sc5  1  0.500000  0.000000  0.500000  1
  Pd  Pd6  1  0.000000  0.500000  0.500000  1
  Pd  Pd7  1  0.500000  0.500000  0.000000  1
  O  O8  1  0.720736  0.199866  0.030853  1
  O  O9  1  0.279264  0.800134  0.969147  1
  O  O10  1  0.220736  0.800134  0.469147  1
  O  O11  1  0.779264  0.199866  0.530853  1
  O  O12  1  0.008072  0.685898  0.254907  1
  O  O13  1  0.991928  0.314102  0.745093  1
  O  O14  1  0.508072  0.314102  0.245093  1
  O  O15  1  0.491928  0.685898  0.754907  1
  O  O16  1  0.229569  0.249377  0.031155  1
  O  O17  1  0.770431  0.750623  0.968845  1
  O  O18  1  0.729569  0.750623  0.468845  1
  O  O19  1  0.270431  0.249377  0.531155  1
