# generated using pymatgen
data_Ac5SiTe4
_symmetry_space_group_name_H-M   'P 1'
_cell_length_a   8.18670955
_cell_length_b   8.18670875
_cell_length_c   8.18670869
_cell_angle_alpha   99.52917711
_cell_angle_beta   99.52917839
_cell_angle_gamma   131.98224465
_symmetry_Int_Tables_number   1
_chemical_formula_structural   Ac5SiTe4
_chemical_formula_sum   'Ac5 Si1 Te4'
_cell_volume   372.58285080
_cell_formula_units_Z   1
loop_
 _symmetry_equiv_pos_site_id
 _symmetry_equiv_pos_as_xyz
  1  'x, y, z'
loop_
 _atom_site_type_symbol
 _atom_site_label
 _atom_site_symmetry_multiplicity
 _atom_site_fract_x
 _atom_site_fract_y
 _atom_site_fract_z
 _atom_site_occupancy
  Ac  Ac0  1  0.404254  0.779464  0.183718  1
  Ac  Ac1  1  0.000000  0.000000  0.000000  1
  Ac  Ac2  1  0.595746  0.220536  0.816282  1
  Ac  Ac3  1  0.220536  0.404254  0.624791  1
  Ac  Ac4  1  0.779464  0.595746  0.375209  1
  Si  Si5  1  0.500000  0.500000  0.000000  1
  Te  Te6  1  0.093343  0.695682  0.789025  1
  Te  Te7  1  0.695682  0.906657  0.602339  1
  Te  Te8  1  0.304318  0.093343  0.397661  1
  Te  Te9  1  0.906657  0.304318  0.210975  1
