# generated using pymatgen
data_LiTb3In(AgGe)2
_symmetry_space_group_name_H-M   'P 1'
_cell_length_a   7.33003973
_cell_length_b   7.26855054
_cell_length_c   4.25593700
_cell_angle_alpha   90.00000000
_cell_angle_beta   90.00000000
_cell_angle_gamma   119.72290027
_symmetry_Int_Tables_number   1
_chemical_formula_structural   LiTb3In(AgGe)2
_chemical_formula_sum   'Li1 Tb3 In1 Ag2 Ge2'
_cell_volume   196.91820156
_cell_formula_units_Z   1
loop_
 _symmetry_equiv_pos_site_id
 _symmetry_equiv_pos_as_xyz
  1  'x, y, z'
loop_
 _atom_site_type_symbol
 _atom_site_label
 _atom_site_symmetry_multiplicity
 _atom_site_fract_x
 _atom_site_fract_y
 _atom_site_fract_z
 _atom_site_occupancy
  Li  Li0  1  0.000000  0.247550  0.500000  1
  Tb  Tb1  1  0.437259  0.435997  0.000000  1
  Tb  Tb2  1  0.562741  0.998738  0.000000  1
  Tb  Tb3  1  0.000000  0.566631  0.000000  1
  In  In4  1  0.000000  0.010998  0.000000  1
  Ag  Ag5  1  0.745058  0.745979  0.500000  1
  Ag  Ag6  1  0.254942  0.000921  0.500000  1
  Ge  Ge7  1  0.673112  0.333148  0.500000  1
  Ge  Ge8  1  0.326888  0.660037  0.500000  1
