# generated using pymatgen
data_Sm2Fe11ReP7
_symmetry_space_group_name_H-M   'P 1'
_cell_length_a   9.07248823
_cell_length_b   9.05500673
_cell_length_c   3.68906300
_cell_angle_alpha   90.00000000
_cell_angle_beta   90.00000000
_cell_angle_gamma   120.54278844
_symmetry_Int_Tables_number   1
_chemical_formula_structural   Sm2Fe11ReP7
_chemical_formula_sum   'Sm2 Fe11 Re1 P7'
_cell_volume   261.01198103
_cell_formula_units_Z   1
loop_
 _symmetry_equiv_pos_site_id
 _symmetry_equiv_pos_as_xyz
  1  'x, y, z'
loop_
 _atom_site_type_symbol
 _atom_site_label
 _atom_site_symmetry_multiplicity
 _atom_site_fract_x
 _atom_site_fract_y
 _atom_site_fract_z
 _atom_site_occupancy
  Sm  Sm0  1  0.668315  0.334155  0.000000  1
  Sm  Sm1  1  0.330638  0.667979  0.500000  1
  Fe  Fe2  1  0.424641  0.055610  0.500000  1
  Fe  Fe3  1  0.943654  0.366761  0.500000  1
  Fe  Fe4  1  0.623450  0.571341  0.500000  1
  Fe  Fe5  1  0.155914  0.274709  0.500000  1
  Fe  Fe6  1  0.727796  0.884000  0.500000  1
  Fe  Fe7  1  0.121406  0.849753  0.500000  1
  Fe  Fe8  1  0.384802  0.431039  0.000000  1
  Fe  Fe9  1  0.567927  0.953240  0.000000  1
  Fe  Fe10  1  0.051262  0.616598  0.000000  1
  Fe  Fe11  1  0.215883  0.094492  0.000000  1
  Fe  Fe12  1  0.904352  0.117415  0.000000  1
  Re  Re13  1  0.884404  0.785574  0.000000  1
  P  P14  1  0.106243  0.397773  0.000000  1
  P  P15  1  0.596484  0.715449  0.000000  1
  P  P16  1  0.291832  0.891511  0.000000  1
  P  P17  1  0.001627  0.003012  0.500000  1
  P  P18  1  0.405842  0.291554  0.500000  1
  P  P19  1  0.698123  0.108937  0.500000  1
  P  P20  1  0.895406  0.589099  0.500000  1
