# generated using pymatgen
data_CaDy4Y3(B6Ru)4
_symmetry_space_group_name_H-M   'P 1'
_cell_length_a   3.66928800
_cell_length_b   9.15925092
_cell_length_c   11.54986803
_cell_angle_alpha   89.89099570
_cell_angle_beta   90.00000000
_cell_angle_gamma   90.00000000
_symmetry_Int_Tables_number   1
_chemical_formula_structural   CaDy4Y3(B6Ru)4
_chemical_formula_sum   'Ca1 Dy4 Y3 B24 Ru4'
_cell_volume   388.16644816
_cell_formula_units_Z   1
loop_
 _symmetry_equiv_pos_site_id
 _symmetry_equiv_pos_as_xyz
  1  'x, y, z'
loop_
 _atom_site_type_symbol
 _atom_site_label
 _atom_site_symmetry_multiplicity
 _atom_site_fract_x
 _atom_site_fract_y
 _atom_site_fract_z
 _atom_site_occupancy
  Ca  Ca0  1  0.000000  0.323159  0.413856  1
  Dy  Dy1  1  0.000000  0.944003  0.371016  1
  Dy  Dy2  1  0.000000  0.057893  0.628292  1
  Dy  Dy3  1  0.000000  0.442993  0.129740  1
  Dy  Dy4  1  0.000000  0.556168  0.872133  1
  Y  Y5  1  0.000000  0.675457  0.585007  1
  Y  Y6  1  0.000000  0.822914  0.086322  1
  Y  Y7  1  0.000000  0.177518  0.914518  1
  B  B8  1  0.500000  0.554555  0.432445  1
  B  B9  1  0.500000  0.446009  0.567854  1
  B  B10  1  0.500000  0.053421  0.066699  1
  B  B11  1  0.500000  0.945638  0.932257  1
  B  B12  1  0.500000  0.748246  0.419098  1
  B  B13  1  0.500000  0.252450  0.581393  1
  B  B14  1  0.500000  0.247237  0.080438  1
  B  B15  1  0.500000  0.752099  0.919483  1
  B  B16  1  0.500000  0.791294  0.266213  1
  B  B17  1  0.500000  0.209929  0.734066  1
  B  B18  1  0.500000  0.289571  0.232932  1
  B  B19  1  0.500000  0.709435  0.766587  1
  B  B20  1  0.500000  0.632477  0.186063  1
  B  B21  1  0.500000  0.368153  0.814984  1
  B  B22  1  0.500000  0.131193  0.313443  1
  B  B23  1  0.500000  0.868256  0.685437  1
  B  B24  1  0.500000  0.983802  0.211683  1
  B  B25  1  0.500000  0.015952  0.787348  1
  B  B26  1  0.500000  0.484858  0.287576  1
  B  B27  1  0.500000  0.515909  0.712885  1
  B  B28  1  0.500000  0.609025  0.030377  1
  B  B29  1  0.500000  0.391180  0.970360  1
  B  B30  1  0.500000  0.104796  0.470946  1
  B  B31  1  0.500000  0.893895  0.529317  1
  Ru  Ru32  1  0.000000  0.639997  0.320414  1
  Ru  Ru33  1  0.000000  0.362016  0.680638  1
  Ru  Ru34  1  0.000000  0.136510  0.177091  1
  Ru  Ru35  1  0.000000  0.861992  0.821087  1
