# generated using pymatgen
data_PrCd3P6N13
_symmetry_space_group_name_H-M   'P 1'
_cell_length_a   7.37605689
_cell_length_b   7.34873810
_cell_length_c   7.34873935
_cell_angle_alpha   109.39579185
_cell_angle_beta   109.54654743
_cell_angle_gamma   109.54654914
_symmetry_Int_Tables_number   1
_chemical_formula_structural   PrCd3P6N13
_chemical_formula_sum   'Pr1 Cd3 P6 N13'
_cell_volume   306.35387386
_cell_formula_units_Z   1
loop_
 _symmetry_equiv_pos_site_id
 _symmetry_equiv_pos_as_xyz
  1  'x, y, z'
loop_
 _atom_site_type_symbol
 _atom_site_label
 _atom_site_symmetry_multiplicity
 _atom_site_fract_x
 _atom_site_fract_y
 _atom_site_fract_z
 _atom_site_occupancy
  Pr  Pr0  1  0.699631  0.000000  0.000000  1
  Cd  Cd1  1  0.005572  0.000000  0.701358  1
  Cd  Cd2  1  0.005572  0.701358  0.000000  1
  Cd  Cd3  1  0.304214  0.298642  0.298642  1
  P  P4  1  0.245029  0.748687  0.496109  1
  P  P5  1  0.748920  0.252579  0.503891  1
  P  P6  1  0.748920  0.503891  0.252579  1
  P  P7  1  0.245029  0.496109  0.748687  1
  P  P8  1  0.496342  0.747421  0.251313  1
  P  P9  1  0.496342  0.251313  0.747421  1
  N  N10  1  0.010364  0.000000  0.000000  1
  N  N11  1  0.716483  0.290817  0.290817  1
  N  N12  1  0.278358  0.709409  0.279747  1
  N  N13  1  0.297372  0.578852  0.578852  1
  N  N14  1  0.568949  0.570338  0.290591  1
  N  N15  1  0.425666  0.709183  0.000000  1
  N  N16  1  0.998611  0.720253  0.429662  1
  N  N17  1  0.568949  0.290591  0.570338  1
  N  N18  1  0.718520  0.000000  0.421148  1
  N  N19  1  0.425666  0.000000  0.709183  1
  N  N20  1  0.718520  0.421148  0.000000  1
  N  N21  1  0.278358  0.279747  0.709409  1
  N  N22  1  0.998611  0.429662  0.720253  1
