# generated using pymatgen
data_Lu6Zn16Cu7Se
_symmetry_space_group_name_H-M   'P 1'
_cell_length_a   8.84731341
_cell_length_b   8.84731361
_cell_length_c   8.84731300
_cell_angle_alpha   59.99999855
_cell_angle_beta   59.99999780
_cell_angle_gamma   59.99999496
_symmetry_Int_Tables_number   1
_chemical_formula_structural   Lu6Zn16Cu7Se
_chemical_formula_sum   'Lu6 Zn16 Cu7 Se1'
_cell_volume   489.68770492
_cell_formula_units_Z   1
loop_
 _symmetry_equiv_pos_site_id
 _symmetry_equiv_pos_as_xyz
  1  'x, y, z'
loop_
 _atom_site_type_symbol
 _atom_site_label
 _atom_site_symmetry_multiplicity
 _atom_site_fract_x
 _atom_site_fract_y
 _atom_site_fract_z
 _atom_site_occupancy
  Lu  Lu0  1  0.717242  0.282758  0.282758  1
  Lu  Lu1  1  0.282758  0.717242  0.717242  1
  Lu  Lu2  1  0.282758  0.717242  0.282758  1
  Lu  Lu3  1  0.717242  0.282758  0.717242  1
  Lu  Lu4  1  0.282758  0.282758  0.717242  1
  Lu  Lu5  1  0.717242  0.717242  0.282758  1
  Zn  Zn6  1  0.121775  0.121775  0.121775  1
  Zn  Zn7  1  0.878225  0.878225  0.878225  1
  Zn  Zn8  1  0.121775  0.121775  0.634673  1
  Zn  Zn9  1  0.121775  0.634673  0.121775  1
  Zn  Zn10  1  0.878225  0.878225  0.365327  1
  Zn  Zn11  1  0.878225  0.365327  0.878225  1
  Zn  Zn12  1  0.634673  0.121775  0.121775  1
  Zn  Zn13  1  0.365327  0.878225  0.878225  1
  Zn  Zn14  1  0.330660  0.330660  0.330660  1
  Zn  Zn15  1  0.669340  0.669340  0.669340  1
  Zn  Zn16  1  0.330660  0.330660  0.008021  1
  Zn  Zn17  1  0.330660  0.008021  0.330660  1
  Zn  Zn18  1  0.669340  0.669340  0.991979  1
  Zn  Zn19  1  0.669340  0.991979  0.669340  1
  Zn  Zn20  1  0.008021  0.330660  0.330660  1
  Zn  Zn21  1  0.991979  0.669340  0.669340  1
  Cu  Cu22  1  0.500000  0.000000  0.000000  1
  Cu  Cu23  1  0.000000  0.500000  0.500000  1
  Cu  Cu24  1  0.000000  0.500000  0.000000  1
  Cu  Cu25  1  0.500000  0.000000  0.500000  1
  Cu  Cu26  1  0.000000  0.000000  0.500000  1
  Cu  Cu27  1  0.500000  0.500000  0.000000  1
  Cu  Cu28  1  0.000000  0.000000  0.000000  1
  Se  Se29  1  0.500000  0.500000  0.500000  1
