# generated using pymatgen
data_Dy5Sc5Co3(Si4Ir)5
_symmetry_space_group_name_H-M   'P 1'
_cell_length_a   12.42888395
_cell_length_b   12.37533194
_cell_length_c   4.11703800
_cell_angle_alpha   90.00000000
_cell_angle_beta   90.00000000
_cell_angle_gamma   90.04465067
_symmetry_Int_Tables_number   1
_chemical_formula_structural   Dy5Sc5Co3(Si4Ir)5
_chemical_formula_sum   'Dy5 Sc5 Co3 Si20 Ir5'
_cell_volume   633.24786334
_cell_formula_units_Z   1
loop_
 _symmetry_equiv_pos_site_id
 _symmetry_equiv_pos_as_xyz
  1  'x, y, z'
loop_
 _atom_site_type_symbol
 _atom_site_label
 _atom_site_symmetry_multiplicity
 _atom_site_fract_x
 _atom_site_fract_y
 _atom_site_fract_z
 _atom_site_occupancy
  Dy  Dy0  1  0.006774  0.999564  0.000000  1
  Dy  Dy1  1  0.884640  0.387967  0.500000  1
  Dy  Dy2  1  0.116099  0.613200  0.500000  1
  Dy  Dy3  1  0.385161  0.115491  0.500000  1
  Dy  Dy4  1  0.613835  0.883718  0.500000  1
  Sc  Sc5  1  0.499866  0.500961  0.000000  1
  Sc  Sc6  1  0.674039  0.177232  0.500000  1
  Sc  Sc7  1  0.326214  0.825400  0.500000  1
  Sc  Sc8  1  0.175007  0.326535  0.500000  1
  Sc  Sc9  1  0.822997  0.668311  0.500000  1
  Co  Co10  1  0.742703  0.521596  0.000000  1
  Co  Co11  1  0.257582  0.478992  0.000000  1
  Co  Co12  1  0.247430  0.978041  0.000000  1
  Si  Si13  1  0.565912  0.068529  0.000000  1
  Si  Si14  1  0.427825  0.934100  0.000000  1
  Si  Si15  1  0.074414  0.436455  0.000000  1
  Si  Si16  1  0.927223  0.562971  0.000000  1
  Si  Si17  1  0.665344  0.691170  0.000000  1
  Si  Si18  1  0.333202  0.306540  0.000000  1
  Si  Si19  1  0.168085  0.803203  0.000000  1
  Si  Si20  1  0.834188  0.203368  0.000000  1
  Si  Si21  1  0.300852  0.657508  0.000000  1
  Si  Si22  1  0.698423  0.344676  0.000000  1
  Si  Si23  1  0.202063  0.159270  0.000000  1
  Si  Si24  1  0.799012  0.831699  0.000000  1
  Si  Si25  1  0.660748  0.504346  0.500000  1
  Si  Si26  1  0.339497  0.493051  0.500000  1
  Si  Si27  1  0.169810  0.994944  0.500000  1
  Si  Si28  1  0.845620  0.007282  0.500000  1
  Si  Si29  1  0.489773  0.651185  0.500000  1
  Si  Si30  1  0.506177  0.350308  0.500000  1
  Si  Si31  1  0.999466  0.159390  0.500000  1
  Si  Si32  1  0.982622  0.841641  0.500000  1
  Ir  Ir33  1  0.753683  0.020544  0.000000  1
  Ir  Ir34  1  0.479573  0.743815  0.000000  1
  Ir  Ir35  1  0.520294  0.258051  0.000000  1
  Ir  Ir36  1  0.023234  0.247900  0.000000  1
  Ir  Ir37  1  0.980613  0.751045  0.000000  1
