# generated using pymatgen
data_YbDy2Tm(SiPt2)4
_symmetry_space_group_name_H-M   'P 1'
_cell_length_a   5.53576895
_cell_length_b   6.96029700
_cell_length_c   7.30981101
_cell_angle_alpha   90.00000000
_cell_angle_beta   89.96297455
_cell_angle_gamma   90.00000000
_symmetry_Int_Tables_number   1
_chemical_formula_structural   YbDy2Tm(SiPt2)4
_chemical_formula_sum   'Yb1 Dy2 Tm1 Si4 Pt8'
_cell_volume   281.65131608
_cell_formula_units_Z   1
loop_
 _symmetry_equiv_pos_site_id
 _symmetry_equiv_pos_as_xyz
  1  'x, y, z'
loop_
 _atom_site_type_symbol
 _atom_site_label
 _atom_site_symmetry_multiplicity
 _atom_site_fract_x
 _atom_site_fract_y
 _atom_site_fract_z
 _atom_site_occupancy
  Yb  Yb0  1  0.364126  0.750000  0.023550  1
  Dy  Dy1  1  0.135578  0.750000  0.525260  1
  Dy  Dy2  1  0.634778  0.250000  0.974562  1
  Tm  Tm3  1  0.863541  0.250000  0.475889  1
  Si  Si4  1  0.635453  0.750000  0.377424  1
  Si  Si5  1  0.865135  0.750000  0.881485  1
  Si  Si6  1  0.364229  0.250000  0.620280  1
  Si  Si7  1  0.134626  0.250000  0.121758  1
  Pt  Pt8  1  0.907531  0.549595  0.181196  1
  Pt  Pt9  1  0.596718  0.949531  0.679695  1
  Pt  Pt10  1  0.089730  0.050944  0.817060  1
  Pt  Pt11  1  0.407289  0.448289  0.321944  1
  Pt  Pt12  1  0.089730  0.449056  0.817060  1
  Pt  Pt13  1  0.407289  0.051711  0.321944  1
  Pt  Pt14  1  0.907531  0.950405  0.181196  1
  Pt  Pt15  1  0.596718  0.550469  0.679695  1
