# generated using pymatgen
data_Ca3Ce(Rh2O7)2
_symmetry_space_group_name_H-M   'P 1'
_cell_length_a   7.26448514
_cell_length_b   7.27599273
_cell_length_c   7.26448500
_cell_angle_alpha   60.05230976
_cell_angle_beta   60.00000517
_cell_angle_gamma   60.05231067
_symmetry_Int_Tables_number   1
_chemical_formula_structural   Ca3Ce(Rh2O7)2
_chemical_formula_sum   'Ca3 Ce1 Rh4 O14'
_cell_volume   271.72517509
_cell_formula_units_Z   1
loop_
 _symmetry_equiv_pos_site_id
 _symmetry_equiv_pos_as_xyz
  1  'x, y, z'
loop_
 _atom_site_type_symbol
 _atom_site_label
 _atom_site_symmetry_multiplicity
 _atom_site_fract_x
 _atom_site_fract_y
 _atom_site_fract_z
 _atom_site_occupancy
  Ca  Ca0  1  0.625000  0.625000  0.125000  1
  Ca  Ca1  1  0.125000  0.625000  0.625000  1
  Ca  Ca2  1  0.625000  0.625000  0.625000  1
  Ce  Ce3  1  0.625000  0.125000  0.625000  1
  Rh  Rh4  1  0.625000  0.125000  0.125000  1
  Rh  Rh5  1  0.125000  0.625000  0.125000  1
  Rh  Rh6  1  0.125000  0.125000  0.625000  1
  Rh  Rh7  1  0.125000  0.125000  0.125000  1
  O  O8  1  0.207154  0.203355  0.794745  1
  O  O9  1  0.202376  0.798147  0.202376  1
  O  O10  1  0.455255  0.046645  0.042846  1
  O  O11  1  0.202376  0.798147  0.797102  1
  O  O12  1  0.047624  0.451853  0.452898  1
  O  O13  1  0.797102  0.798147  0.202376  1
  O  O14  1  0.452898  0.451853  0.047624  1
  O  O15  1  0.507729  0.476812  0.507729  1
  O  O16  1  0.042846  0.046645  0.455255  1
  O  O17  1  0.455255  0.046645  0.455255  1
  O  O18  1  0.047624  0.451853  0.047624  1
  O  O19  1  0.742271  0.773188  0.742271  1
  O  O20  1  0.794745  0.203355  0.794745  1
  O  O21  1  0.794745  0.203355  0.207154  1
