# generated using pymatgen
data_Eu6PaO12
_symmetry_space_group_name_H-M   'P 1'
_cell_length_a   6.73410029
_cell_length_b   6.73409991
_cell_length_c   6.73410040
_cell_angle_alpha   99.04409215
_cell_angle_beta   99.04409662
_cell_angle_gamma   99.04408582
_symmetry_Int_Tables_number   1
_chemical_formula_structural   Eu6PaO12
_chemical_formula_sum   'Eu6 Pa1 O12'
_cell_volume   292.60650418
_cell_formula_units_Z   1
loop_
 _symmetry_equiv_pos_site_id
 _symmetry_equiv_pos_as_xyz
  1  'x, y, z'
loop_
 _atom_site_type_symbol
 _atom_site_label
 _atom_site_symmetry_multiplicity
 _atom_site_fract_x
 _atom_site_fract_y
 _atom_site_fract_z
 _atom_site_occupancy
  Eu  Eu0  1  0.139000  0.305383  0.604824  1
  Eu  Eu1  1  0.395176  0.861000  0.694617  1
  Eu  Eu2  1  0.694617  0.395176  0.861000  1
  Eu  Eu3  1  0.305383  0.604824  0.139000  1
  Eu  Eu4  1  0.604824  0.139000  0.305383  1
  Eu  Eu5  1  0.861000  0.694617  0.395176  1
  Pa  Pa6  1  0.000000  0.000000  0.000000  1
  O  O7  1  0.070972  0.311978  0.948320  1
  O  O8  1  0.051680  0.929028  0.688022  1
  O  O9  1  0.410097  0.568594  0.823115  1
  O  O10  1  0.176885  0.589903  0.431406  1
  O  O11  1  0.688022  0.051680  0.929028  1
  O  O12  1  0.431406  0.176885  0.589903  1
  O  O13  1  0.568594  0.823115  0.410097  1
  O  O14  1  0.311978  0.948320  0.070972  1
  O  O15  1  0.823115  0.410097  0.568594  1
  O  O16  1  0.589903  0.431406  0.176885  1
  O  O17  1  0.948320  0.070972  0.311978  1
  O  O18  1  0.929028  0.688022  0.051680  1
