# generated using pymatgen
data_BaCuSnAu5
_symmetry_space_group_name_H-M   'P 1'
_cell_length_a   7.33968200
_cell_length_b   9.37838800
_cell_length_c   10.40479300
_cell_angle_alpha   90.00000000
_cell_angle_beta   90.00000000
_cell_angle_gamma   90.00000000
_symmetry_Int_Tables_number   1
_chemical_formula_structural   BaCuSnAu5
_chemical_formula_sum   'Ba4 Cu4 Sn4 Au20'
_cell_volume   716.20753337
_cell_formula_units_Z   4
loop_
 _symmetry_equiv_pos_site_id
 _symmetry_equiv_pos_as_xyz
  1  'x, y, z'
loop_
 _atom_site_type_symbol
 _atom_site_label
 _atom_site_symmetry_multiplicity
 _atom_site_fract_x
 _atom_site_fract_y
 _atom_site_fract_z
 _atom_site_occupancy
  Ba  Ba0  1  0.250000  0.237570  0.110709  1
  Ba  Ba1  1  0.250000  0.737570  0.389291  1
  Ba  Ba2  1  0.750000  0.762430  0.889291  1
  Ba  Ba3  1  0.750000  0.262430  0.610709  1
  Cu  Cu4  1  0.250000  0.075541  0.612461  1
  Cu  Cu5  1  0.250000  0.575541  0.887539  1
  Cu  Cu6  1  0.750000  0.924459  0.387539  1
  Cu  Cu7  1  0.750000  0.424459  0.112461  1
  Sn  Sn8  1  0.250000  0.343879  0.473669  1
  Sn  Sn9  1  0.250000  0.843879  0.026331  1
  Sn  Sn10  1  0.750000  0.656121  0.526331  1
  Sn  Sn11  1  0.750000  0.156121  0.973669  1
  Au  Au12  1  0.055920  0.087239  0.392793  1
  Au  Au13  1  0.444080  0.587239  0.107207  1
  Au  Au14  1  0.555920  0.912761  0.607207  1
  Au  Au15  1  0.944080  0.412761  0.892793  1
  Au  Au16  1  0.944080  0.912761  0.607207  1
  Au  Au17  1  0.555920  0.412761  0.892793  1
  Au  Au18  1  0.444080  0.087239  0.392793  1
  Au  Au19  1  0.055920  0.587239  0.107207  1
  Au  Au20  1  0.045028  0.081870  0.831264  1
  Au  Au21  1  0.454972  0.581870  0.668736  1
  Au  Au22  1  0.545028  0.918130  0.168736  1
  Au  Au23  1  0.954972  0.418130  0.331264  1
  Au  Au24  1  0.954972  0.918130  0.168736  1
  Au  Au25  1  0.545028  0.418130  0.331264  1
  Au  Au26  1  0.454972  0.081870  0.831264  1
  Au  Au27  1  0.045028  0.581870  0.668736  1
  Au  Au28  1  0.250000  0.327552  0.739224  1
  Au  Au29  1  0.250000  0.827552  0.760776  1
  Au  Au30  1  0.750000  0.672448  0.260776  1
  Au  Au31  1  0.750000  0.172448  0.239224  1
