# generated using pymatgen
data_Sr2Zn2Pt5
_symmetry_space_group_name_H-M   'P 1'
_cell_length_a   13.22053407
_cell_length_b   13.22053381
_cell_length_c   13.22053573
_cell_angle_alpha   24.43248067
_cell_angle_beta   24.43248266
_cell_angle_gamma   24.43248594
_symmetry_Int_Tables_number   1
_chemical_formula_structural   Sr2Zn2Pt5
_chemical_formula_sum   'Sr4 Zn4 Pt10'
_cell_volume   347.54393924
_cell_formula_units_Z   2
loop_
 _symmetry_equiv_pos_site_id
 _symmetry_equiv_pos_as_xyz
  1  'x, y, z'
loop_
 _atom_site_type_symbol
 _atom_site_label
 _atom_site_symmetry_multiplicity
 _atom_site_fract_x
 _atom_site_fract_y
 _atom_site_fract_z
 _atom_site_occupancy
  Sr  Sr0  1  0.948972  0.948972  0.948972  1
  Sr  Sr1  1  0.051028  0.051028  0.051028  1
  Sr  Sr2  1  0.851330  0.851330  0.851330  1
  Sr  Sr3  1  0.148670  0.148670  0.148670  1
  Zn  Zn4  1  0.720826  0.720826  0.720826  1
  Zn  Zn5  1  0.279174  0.279174  0.279174  1
  Zn  Zn6  1  0.612595  0.612595  0.612595  1
  Zn  Zn7  1  0.387405  0.387405  0.387405  1
  Pt  Pt8  1  0.500000  0.500000  0.500000  1
  Pt  Pt9  1  0.500000  0.500000  0.000000  1
  Pt  Pt10  1  0.000000  0.500000  0.500000  1
  Pt  Pt11  1  0.500000  0.000000  0.500000  1
  Pt  Pt12  1  0.392240  0.893510  0.392240  1
  Pt  Pt13  1  0.392240  0.392240  0.893510  1
  Pt  Pt14  1  0.893510  0.392240  0.392240  1
  Pt  Pt15  1  0.607760  0.106490  0.607760  1
  Pt  Pt16  1  0.607760  0.607760  0.106490  1
  Pt  Pt17  1  0.106490  0.607760  0.607760  1
