# generated using pymatgen
data_TlCr(SnSe3)2
_symmetry_space_group_name_H-M   'P 1'
_cell_length_a   9.55560553
_cell_length_b   9.55560441
_cell_length_c   9.55560500
_cell_angle_alpha   40.78360175
_cell_angle_beta   40.78360955
_cell_angle_gamma   40.78360705
_symmetry_Int_Tables_number   1
_chemical_formula_structural   TlCr(SnSe3)2
_chemical_formula_sum   'Tl1 Cr1 Sn2 Se6'
_cell_volume   335.94605019
_cell_formula_units_Z   1
loop_
 _symmetry_equiv_pos_site_id
 _symmetry_equiv_pos_as_xyz
  1  'x, y, z'
loop_
 _atom_site_type_symbol
 _atom_site_label
 _atom_site_symmetry_multiplicity
 _atom_site_fract_x
 _atom_site_fract_y
 _atom_site_fract_z
 _atom_site_occupancy
  Tl  Tl0  1  0.998912  0.998912  0.998912  1
  Cr  Cr1  1  0.167119  0.167119  0.167119  1
  Sn  Sn2  1  0.500923  0.500923  0.500923  1
  Sn  Sn3  1  0.832251  0.832251  0.832251  1
  Se  Se4  1  0.539906  0.221410  0.911844  1
  Se  Se5  1  0.911844  0.539906  0.221410  1
  Se  Se6  1  0.221410  0.911844  0.539906  1
  Se  Se7  1  0.796634  0.111988  0.419015  1
  Se  Se8  1  0.111988  0.419015  0.796634  1
  Se  Se9  1  0.419015  0.796634  0.111988  1
