# generated using pymatgen
data_Tm16MgAg3Rh4
_symmetry_space_group_name_H-M   'P 1'
_cell_length_a   9.43298237
_cell_length_b   9.45470119
_cell_length_c   9.45470000
_cell_angle_alpha   59.99999718
_cell_angle_beta   59.92380399
_cell_angle_gamma   59.92380405
_symmetry_Int_Tables_number   1
_chemical_formula_structural   Tm16MgAg3Rh4
_chemical_formula_sum   'Tm16 Mg1 Ag3 Rh4'
_cell_volume   595.56399971
_cell_formula_units_Z   1
loop_
 _symmetry_equiv_pos_site_id
 _symmetry_equiv_pos_as_xyz
  1  'x, y, z'
loop_
 _atom_site_type_symbol
 _atom_site_label
 _atom_site_symmetry_multiplicity
 _atom_site_fract_x
 _atom_site_fract_y
 _atom_site_fract_z
 _atom_site_occupancy
  Tm  Tm0  1  0.603327  0.601066  0.601066  1
  Tm  Tm1  1  0.603327  0.601066  0.194540  1
  Tm  Tm2  1  0.603327  0.194540  0.601066  1
  Tm  Tm3  1  0.183847  0.605384  0.605384  1
  Tm  Tm4  1  0.062257  0.437134  0.437134  1
  Tm  Tm5  1  0.434846  0.064311  0.064311  1
  Tm  Tm6  1  0.434846  0.064311  0.436533  1
  Tm  Tm7  1  0.062257  0.437134  0.063476  1
  Tm  Tm8  1  0.434846  0.436533  0.064311  1
  Tm  Tm9  1  0.062257  0.063476  0.437134  1
  Tm  Tm10  1  0.181358  0.815534  0.815534  1
  Tm  Tm11  1  0.813481  0.184962  0.184962  1
  Tm  Tm12  1  0.813481  0.184962  0.816594  1
  Tm  Tm13  1  0.181358  0.815534  0.187574  1
  Tm  Tm14  1  0.813481  0.816594  0.184962  1
  Tm  Tm15  1  0.181358  0.187574  0.815534  1
  Mg  Mg16  1  0.535459  0.821514  0.821514  1
  Ag  Ag17  1  0.833295  0.833900  0.833900  1
  Ag  Ag18  1  0.833295  0.833900  0.498906  1
  Ag  Ag19  1  0.833295  0.498906  0.833900  1
  Rh  Rh20  1  0.392522  0.394907  0.394907  1
  Rh  Rh21  1  0.392522  0.394907  0.817662  1
  Rh  Rh22  1  0.392522  0.817662  0.394907  1
  Rh  Rh23  1  0.817432  0.394189  0.394189  1
