# generated using pymatgen
data_Tm12TcOs2Ru
_symmetry_space_group_name_H-M   'P 1'
_cell_length_a   7.34914204
_cell_length_b   8.91346000
_cell_length_c   6.21140600
_cell_angle_alpha   90.00000000
_cell_angle_beta   89.85152634
_cell_angle_gamma   90.00000000
_symmetry_Int_Tables_number   1
_chemical_formula_structural   Tm12TcOs2Ru
_chemical_formula_sum   'Tm12 Tc1 Os2 Ru1'
_cell_volume   406.88475723
_cell_formula_units_Z   1
loop_
 _symmetry_equiv_pos_site_id
 _symmetry_equiv_pos_as_xyz
  1  'x, y, z'
loop_
 _atom_site_type_symbol
 _atom_site_label
 _atom_site_symmetry_multiplicity
 _atom_site_fract_x
 _atom_site_fract_y
 _atom_site_fract_z
 _atom_site_occupancy
  Tm  Tm0  1  0.039920  0.250000  0.627638  1
  Tm  Tm1  1  0.959042  0.750000  0.370998  1
  Tm  Tm2  1  0.460468  0.750000  0.129886  1
  Tm  Tm3  1  0.539360  0.250000  0.874445  1
  Tm  Tm4  1  0.174656  0.062141  0.164509  1
  Tm  Tm5  1  0.825016  0.938543  0.834121  1
  Tm  Tm6  1  0.325109  0.937592  0.664734  1
  Tm  Tm7  1  0.825016  0.561457  0.834121  1
  Tm  Tm8  1  0.675252  0.063017  0.334185  1
  Tm  Tm9  1  0.174656  0.437859  0.164509  1
  Tm  Tm10  1  0.675252  0.436983  0.334185  1
  Tm  Tm11  1  0.325109  0.562408  0.664734  1
  Tc  Tc12  1  0.382810  0.250000  0.464076  1
  Os  Os13  1  0.117943  0.750000  0.962158  1
  Os  Os14  1  0.881620  0.250000  0.037604  1
  Ru  Ru15  1  0.618770  0.750000  0.538094  1
