# generated using pymatgen
data_RbY(SeO4)2
_symmetry_space_group_name_H-M   'P 1'
_cell_length_a   5.43015596
_cell_length_b   5.43015729
_cell_length_c   8.80853692
_cell_angle_alpha   93.77779114
_cell_angle_beta   93.77779494
_cell_angle_gamma   64.84451383
_symmetry_Int_Tables_number   1
_chemical_formula_structural   RbY(SeO4)2
_chemical_formula_sum   'Rb1 Y1 Se2 O8'
_cell_volume   234.38276398
_cell_formula_units_Z   1
loop_
 _symmetry_equiv_pos_site_id
 _symmetry_equiv_pos_as_xyz
  1  'x, y, z'
loop_
 _atom_site_type_symbol
 _atom_site_label
 _atom_site_symmetry_multiplicity
 _atom_site_fract_x
 _atom_site_fract_y
 _atom_site_fract_z
 _atom_site_occupancy
  Rb  Rb0  1  0.000000  0.000000  0.000000  1
  Y  Y1  1  0.000000  0.000000  0.500000  1
  Se  Se2  1  0.627627  0.627627  0.289768  1
  Se  Se3  1  0.372374  0.372374  0.710233  1
  O  O4  1  0.687048  0.687048  0.118715  1
  O  O5  1  0.757572  0.289558  0.312814  1
  O  O6  1  0.289558  0.757572  0.312814  1
  O  O7  1  0.759761  0.759761  0.432310  1
  O  O8  1  0.240239  0.240239  0.567689  1
  O  O9  1  0.710442  0.242428  0.687186  1
  O  O10  1  0.242428  0.710442  0.687186  1
  O  O11  1  0.312951  0.312951  0.881285  1
