# generated using pymatgen
data_RbYbCuH4
_symmetry_space_group_name_H-M   'P 1'
_cell_length_a   7.70858300
_cell_length_b   7.70858300
_cell_length_c   7.70858300
_cell_angle_alpha   90.00000000
_cell_angle_beta   90.00000000
_cell_angle_gamma   90.00000000
_symmetry_Int_Tables_number   1
_chemical_formula_structural   RbYbCuH4
_chemical_formula_sum   'Rb4 Yb4 Cu4 H16'
_cell_volume   458.06136057
_cell_formula_units_Z   4
loop_
 _symmetry_equiv_pos_site_id
 _symmetry_equiv_pos_as_xyz
  1  'x, y, z'
loop_
 _atom_site_type_symbol
 _atom_site_label
 _atom_site_symmetry_multiplicity
 _atom_site_fract_x
 _atom_site_fract_y
 _atom_site_fract_z
 _atom_site_occupancy
  Rb  Rb0  1  0.154254  0.654254  0.845746  1
  Rb  Rb1  1  0.654254  0.845746  0.154254  1
  Rb  Rb2  1  0.845746  0.154254  0.654254  1
  Rb  Rb3  1  0.345746  0.345746  0.345746  1
  Yb  Yb4  1  0.851376  0.351376  0.148624  1
  Yb  Yb5  1  0.351376  0.148624  0.851376  1
  Yb  Yb6  1  0.148624  0.851376  0.351376  1
  Yb  Yb7  1  0.648624  0.648624  0.648624  1
  Cu  Cu8  1  0.431425  0.931425  0.568575  1
  Cu  Cu9  1  0.931425  0.568575  0.431425  1
  Cu  Cu10  1  0.568575  0.431425  0.931425  1
  Cu  Cu11  1  0.068575  0.068575  0.068575  1
  H  H12  1  0.550765  0.050765  0.449235  1
  H  H13  1  0.050765  0.449235  0.550765  1
  H  H14  1  0.449235  0.550765  0.050765  1
  H  H15  1  0.949235  0.949235  0.949235  1
  H  H16  1  0.263651  0.982071  0.096326  1
  H  H17  1  0.903674  0.763651  0.517929  1
  H  H18  1  0.482071  0.403674  0.736349  1
  H  H19  1  0.763651  0.517929  0.903674  1
  H  H20  1  0.403674  0.736349  0.482071  1
  H  H21  1  0.982071  0.096326  0.263651  1
  H  H22  1  0.736349  0.482071  0.403674  1
  H  H23  1  0.096326  0.263651  0.982071  1
  H  H24  1  0.517929  0.903674  0.763651  1
  H  H25  1  0.236349  0.017929  0.596326  1
  H  H26  1  0.596326  0.236349  0.017929  1
  H  H27  1  0.017929  0.596326  0.236349  1
