# generated using pymatgen
data_Ho2U2Ge6Ru7
_symmetry_space_group_name_H-M   'P 1'
_cell_length_a   7.16583535
_cell_length_b   7.25737403
_cell_length_c   7.16583520
_cell_angle_alpha   109.40987320
_cell_angle_beta   109.07843617
_cell_angle_gamma   109.40987404
_symmetry_Int_Tables_number   1
_chemical_formula_structural   Ho2U2Ge6Ru7
_chemical_formula_sum   'Ho2 U2 Ge6 Ru7'
_cell_volume   288.68220861
_cell_formula_units_Z   1
loop_
 _symmetry_equiv_pos_site_id
 _symmetry_equiv_pos_as_xyz
  1  'x, y, z'
loop_
 _atom_site_type_symbol
 _atom_site_label
 _atom_site_symmetry_multiplicity
 _atom_site_fract_x
 _atom_site_fract_y
 _atom_site_fract_z
 _atom_site_occupancy
  Ho  Ho0  1  0.000000  0.000000  0.500000  1
  Ho  Ho1  1  0.500000  0.000000  0.000000  1
  U  U2  1  0.000000  0.500000  0.000000  1
  U  U3  1  0.500000  0.500000  0.500000  1
  Ge  Ge4  1  0.689428  0.692671  0.003243  1
  Ge  Ge5  1  0.313785  0.000000  0.313785  1
  Ge  Ge6  1  0.996757  0.307329  0.310572  1
  Ge  Ge7  1  0.310572  0.307329  0.996757  1
  Ge  Ge8  1  0.686215  0.000000  0.686215  1
  Ge  Ge9  1  0.003243  0.692671  0.689428  1
  Ru  Ru10  1  0.753444  0.266921  0.513477  1
  Ru  Ru11  1  0.750000  0.500000  0.250000  1
  Ru  Ru12  1  0.513477  0.266921  0.753444  1
  Ru  Ru13  1  0.250000  0.500000  0.750000  1
  Ru  Ru14  1  0.246556  0.733079  0.486523  1
  Ru  Ru15  1  0.486523  0.733079  0.246556  1
  Ru  Ru16  1  0.000000  0.000000  0.000000  1
