# generated using pymatgen
data_Y4Ga5Tc3
_symmetry_space_group_name_H-M   'P 1'
_cell_length_a   5.49711363
_cell_length_b   5.56555883
_cell_length_c   8.70106900
_cell_angle_alpha   90.00000000
_cell_angle_beta   90.00000000
_cell_angle_gamma   120.41274630
_symmetry_Int_Tables_number   1
_chemical_formula_structural   Y4Ga5Tc3
_chemical_formula_sum   'Y4 Ga5 Tc3'
_cell_volume   229.57542303
_cell_formula_units_Z   1
loop_
 _symmetry_equiv_pos_site_id
 _symmetry_equiv_pos_as_xyz
  1  'x, y, z'
loop_
 _atom_site_type_symbol
 _atom_site_label
 _atom_site_symmetry_multiplicity
 _atom_site_fract_x
 _atom_site_fract_y
 _atom_site_fract_z
 _atom_site_occupancy
  Y  Y0  1  0.334196  0.667098  0.443062  1
  Y  Y1  1  0.662538  0.331268  0.552826  1
  Y  Y2  1  0.662538  0.331268  0.947174  1
  Y  Y3  1  0.334196  0.667098  0.056938  1
  Ga  Ga4  1  0.836731  0.163833  0.250000  1
  Ga  Ga5  1  0.836731  0.672898  0.250000  1
  Ga  Ga6  1  0.326296  0.163148  0.250000  1
  Ga  Ga7  1  0.187458  0.839767  0.750000  1
  Ga  Ga8  1  0.187458  0.347691  0.750000  1
  Tc  Tc9  1  0.975603  0.987802  0.511135  1
  Tc  Tc10  1  0.975603  0.987802  0.988865  1
  Tc  Tc11  1  0.680651  0.840325  0.750000  1
