# generated using pymatgen
data_LaYb11(CuSi)12
_symmetry_space_group_name_H-M   'P 1'
_cell_length_a   4.28006600
_cell_length_b   7.26581045
_cell_length_c   20.92557200
_cell_angle_alpha   89.90757203
_cell_angle_beta   90.00000000
_cell_angle_gamma   90.00000000
_symmetry_Int_Tables_number   1
_chemical_formula_structural   LaYb11(CuSi)12
_chemical_formula_sum   'La1 Yb11 Cu12 Si12'
_cell_volume   650.74569431
_cell_formula_units_Z   1
loop_
 _symmetry_equiv_pos_site_id
 _symmetry_equiv_pos_as_xyz
  1  'x, y, z'
loop_
 _atom_site_type_symbol
 _atom_site_label
 _atom_site_symmetry_multiplicity
 _atom_site_fract_x
 _atom_site_fract_y
 _atom_site_fract_z
 _atom_site_occupancy
  La  La0  1  0.250000  0.800196  0.833280  1
  Yb  Yb1  1  0.250000  0.712197  0.005200  1
  Yb  Yb2  1  0.750000  0.288960  0.999356  1
  Yb  Yb3  1  0.750000  0.210215  0.496656  1
  Yb  Yb4  1  0.250000  0.790552  0.501838  1
  Yb  Yb5  1  0.250000  0.797462  0.167052  1
  Yb  Yb6  1  0.750000  0.208392  0.833318  1
  Yb  Yb7  1  0.750000  0.298368  0.333591  1
  Yb  Yb8  1  0.250000  0.702816  0.663889  1
  Yb  Yb9  1  0.250000  0.702466  0.333071  1
  Yb  Yb10  1  0.750000  0.294835  0.664664  1
  Yb  Yb11  1  0.750000  0.202683  0.167733  1
  Cu  Cu12  1  0.250000  0.414174  0.097654  1
  Cu  Cu13  1  0.750000  0.579214  0.907488  1
  Cu  Cu14  1  0.750000  0.913631  0.403171  1
  Cu  Cu15  1  0.250000  0.086838  0.595087  1
  Cu  Cu16  1  0.250000  0.412349  0.236550  1
  Cu  Cu17  1  0.750000  0.580471  0.759664  1
  Cu  Cu18  1  0.750000  0.912813  0.264255  1
  Cu  Cu19  1  0.250000  0.091888  0.732885  1
  Cu  Cu20  1  0.250000  0.418061  0.436965  1
  Cu  Cu21  1  0.750000  0.582873  0.562001  1
  Cu  Cu22  1  0.750000  0.919183  0.064811  1
  Cu  Cu23  1  0.250000  0.085500  0.943301  1
  Si  Si24  1  0.250000  0.090983  0.067951  1
  Si  Si25  1  0.750000  0.911196  0.932395  1
  Si  Si26  1  0.750000  0.589046  0.433639  1
  Si  Si27  1  0.250000  0.411373  0.565483  1
  Si  Si28  1  0.250000  0.081232  0.273262  1
  Si  Si29  1  0.750000  0.918063  0.724850  1
  Si  Si30  1  0.750000  0.580471  0.227032  1
  Si  Si31  1  0.250000  0.415217  0.771425  1
  Si  Si32  1  0.250000  0.083022  0.394438  1
  Si  Si33  1  0.750000  0.917087  0.603699  1
  Si  Si34  1  0.750000  0.584408  0.106154  1
  Si  Si35  1  0.250000  0.411763  0.896190  1
