# generated using pymatgen
data_Nd5Y5(GaAs)4
_symmetry_space_group_name_H-M   'P 1'
_cell_length_a   8.81285549
_cell_length_b   8.30518189
_cell_length_c   7.87891600
_cell_angle_alpha   90.14549582
_cell_angle_beta   90.10025793
_cell_angle_gamma   125.44488762
_symmetry_Int_Tables_number   1
_chemical_formula_structural   Nd5Y5(GaAs)4
_chemical_formula_sum   'Nd5 Y5 Ga4 As4'
_cell_volume   469.79801147
_cell_formula_units_Z   1
loop_
 _symmetry_equiv_pos_site_id
 _symmetry_equiv_pos_as_xyz
  1  'x, y, z'
loop_
 _atom_site_type_symbol
 _atom_site_label
 _atom_site_symmetry_multiplicity
 _atom_site_fract_x
 _atom_site_fract_y
 _atom_site_fract_z
 _atom_site_occupancy
  Nd  Nd0  1  0.052489  0.345145  0.325218  1
  Nd  Nd1  1  0.946003  0.652849  0.673967  1
  Nd  Nd2  1  0.447911  0.153910  0.822566  1
  Nd  Nd3  1  0.791369  0.515481  0.162249  1
  Nd  Nd4  1  0.554502  0.849406  0.177088  1
  Y  Y5  1  0.212634  0.487572  0.840561  1
  Y  Y6  1  0.711597  0.982606  0.660295  1
  Y  Y7  1  0.284764  0.013238  0.340154  1
  Y  Y8  1  0.002777  0.002586  0.997764  1
  Y  Y9  1  0.497164  0.498307  0.501825  1
  Ga  Ga10  1  0.377080  0.383727  0.121126  1
  Ga  Ga11  1  0.620180  0.618269  0.878334  1
  Ga  Ga12  1  0.121697  0.118816  0.621096  1
  Ga  Ga13  1  0.878151  0.882643  0.380016  1
  As  As14  1  0.821027  0.216732  0.970212  1
  As  As15  1  0.187571  0.786062  0.023498  1
  As  As16  1  0.676192  0.273181  0.477417  1
  As  As17  1  0.316892  0.719468  0.526611  1
