# generated using pymatgen
data_Pr4Zr3RhF28
_symmetry_space_group_name_H-M   'P 1'
_cell_length_a   5.89175210
_cell_length_b   9.36754547
_cell_length_c   12.51104912
_cell_angle_alpha   62.27651515
_cell_angle_beta   89.83343466
_cell_angle_gamma   89.98643148
_symmetry_Int_Tables_number   1
_chemical_formula_structural   Pr4Zr3RhF28
_chemical_formula_sum   'Pr4 Zr3 Rh1 F28'
_cell_volume   611.23006809
_cell_formula_units_Z   1
loop_
 _symmetry_equiv_pos_site_id
 _symmetry_equiv_pos_as_xyz
  1  'x, y, z'
loop_
 _atom_site_type_symbol
 _atom_site_label
 _atom_site_symmetry_multiplicity
 _atom_site_fract_x
 _atom_site_fract_y
 _atom_site_fract_z
 _atom_site_occupancy
  Pr  Pr0  1  0.757350  0.813779  0.765143  1
  Pr  Pr1  1  0.260194  0.188403  0.729209  1
  Pr  Pr2  1  0.239343  0.188551  0.240045  1
  Pr  Pr3  1  0.742022  0.811624  0.267036  1
  Zr  Zr4  1  0.754508  0.273611  0.956756  1
  Zr  Zr5  1  0.253947  0.725323  0.543244  1
  Zr  Zr6  1  0.245503  0.726414  0.043704  1
  Rh  Rh7  1  0.743040  0.273795  0.455766  1
  F  F8  1  0.457584  0.710289  0.920855  1
  F  F9  1  0.934996  0.289223  0.575850  1
  F  F10  1  0.538437  0.287453  0.079271  1
  F  F11  1  0.045344  0.710702  0.419347  1
  F  F12  1  0.463273  0.283156  0.541887  1
  F  F13  1  0.958286  0.719026  0.953202  1
  F  F14  1  0.543119  0.713775  0.455794  1
  F  F15  1  0.037191  0.280649  0.050221  1
  F  F16  1  0.770050  0.518944  0.860960  1
  F  F17  1  0.261693  0.480311  0.638519  1
  F  F18  1  0.230103  0.481715  0.140424  1
  F  F19  1  0.736953  0.506665  0.362688  1
  F  F20  1  0.758629  0.028668  0.056673  1
  F  F21  1  0.264449  0.969747  0.446991  1
  F  F22  1  0.240484  0.970404  0.941465  1
  F  F23  1  0.742304  0.041027  0.545837  1
  F  F24  1  0.978255  0.733900  0.639314  1
  F  F25  1  0.486031  0.268016  0.855323  1
  F  F26  1  0.017014  0.269541  0.365331  1
  F  F27  1  0.517822  0.730635  0.143130  1
  F  F28  1  0.044874  0.747657  0.169409  1
  F  F29  1  0.554000  0.259241  0.333534  1
  F  F30  1  0.961576  0.253527  0.831835  1
  F  F31  1  0.456350  0.744893  0.669384  1
  F  F32  1  0.419048  0.970271  0.236550  1
  F  F33  1  0.918980  0.028736  0.269936  1
  F  F34  1  0.583218  0.030829  0.767328  1
  F  F35  1  0.084029  0.969502  0.728041  1
