# generated using pymatgen
data_Dy5Ga2BiCl
_symmetry_space_group_name_H-M   'P 1'
_cell_length_a   8.98322743
_cell_length_b   8.98322830
_cell_length_c   6.54347700
_cell_angle_alpha   90.00000000
_cell_angle_beta   90.00000000
_cell_angle_gamma   120.86583746
_symmetry_Int_Tables_number   1
_chemical_formula_structural   Dy5Ga2BiCl
_chemical_formula_sum   'Dy10 Ga4 Bi2 Cl2'
_cell_volume   453.26107472
_cell_formula_units_Z   2
loop_
 _symmetry_equiv_pos_site_id
 _symmetry_equiv_pos_as_xyz
  1  'x, y, z'
loop_
 _atom_site_type_symbol
 _atom_site_label
 _atom_site_symmetry_multiplicity
 _atom_site_fract_x
 _atom_site_fract_y
 _atom_site_fract_z
 _atom_site_occupancy
  Dy  Dy0  1  0.259867  0.985266  0.750000  1
  Dy  Dy1  1  0.740133  0.014734  0.250000  1
  Dy  Dy2  1  0.985266  0.259867  0.750000  1
  Dy  Dy3  1  0.014734  0.740133  0.250000  1
  Dy  Dy4  1  0.747023  0.747023  0.750000  1
  Dy  Dy5  1  0.252977  0.252977  0.250000  1
  Dy  Dy6  1  0.323641  0.676359  0.500000  1
  Dy  Dy7  1  0.676359  0.323641  0.500000  1
  Dy  Dy8  1  0.676359  0.323641  0.000000  1
  Dy  Dy9  1  0.323641  0.676359  0.000000  1
  Ga  Ga10  1  0.607450  0.996114  0.750000  1
  Ga  Ga11  1  0.392550  0.003886  0.250000  1
  Ga  Ga12  1  0.996114  0.607450  0.750000  1
  Ga  Ga13  1  0.003886  0.392550  0.250000  1
  Bi  Bi14  1  0.388117  0.388117  0.750000  1
  Bi  Bi15  1  0.611883  0.611883  0.250000  1
  Cl  Cl16  1  0.000000  0.000000  0.500000  1
  Cl  Cl17  1  0.000000  0.000000  0.000000  1
