# generated using pymatgen
data_La2Er3P12Pd3Ru16
_symmetry_space_group_name_H-M   'P 1'
_cell_length_a   12.66834317
_cell_length_b   12.67775534
_cell_length_c   3.99216400
_cell_angle_alpha   90.00000000
_cell_angle_beta   90.00000000
_cell_angle_gamma   120.02458288
_symmetry_Int_Tables_number   1
_chemical_formula_structural   La2Er3P12Pd3Ru16
_chemical_formula_sum   'La2 Er3 P12 Pd3 Ru16'
_cell_volume   555.12854239
_cell_formula_units_Z   1
loop_
 _symmetry_equiv_pos_site_id
 _symmetry_equiv_pos_as_xyz
  1  'x, y, z'
loop_
 _atom_site_type_symbol
 _atom_site_label
 _atom_site_symmetry_multiplicity
 _atom_site_fract_x
 _atom_site_fract_y
 _atom_site_fract_z
 _atom_site_occupancy
  La  La0  1  0.181693  0.180470  0.500000  1
  La  La1  1  0.818307  0.998777  0.500000  1
  Er  Er2  1  0.000000  0.817872  0.500000  1
  Er  Er3  1  0.333460  0.667520  0.000000  1
  Er  Er4  1  0.666540  0.334058  0.000000  1
  P  P5  1  0.812709  0.809126  0.000000  1
  P  P6  1  0.187291  0.996417  0.000000  1
  P  P7  1  0.000000  0.191114  0.000000  1
  P  P8  1  0.181525  0.482616  0.500000  1
  P  P9  1  0.519550  0.700012  0.500000  1
  P  P10  1  0.300150  0.818656  0.500000  1
  P  P11  1  0.699850  0.518506  0.500000  1
  P  P12  1  0.818475  0.301092  0.500000  1
  P  P13  1  0.480450  0.180464  0.500000  1
  P  P14  1  0.370265  0.370098  0.000000  1
  P  P15  1  0.629735  0.999834  0.000000  1
  P  P16  1  0.000000  0.633027  0.000000  1
  Pd  Pd17  1  0.554381  0.553681  0.000000  1
  Pd  Pd18  1  0.445619  0.999300  0.000000  1
  Pd  Pd19  1  0.000000  0.447955  0.000000  1
  Ru  Ru20  1  0.711643  0.709393  0.500000  1
  Ru  Ru21  1  0.288357  0.997750  0.500000  1
  Ru  Ru22  1  0.000000  0.291723  0.500000  1
  Ru  Ru23  1  0.187169  0.383498  0.000000  1
  Ru  Ru24  1  0.617653  0.803449  0.000000  1
  Ru  Ru25  1  0.192312  0.812395  0.000000  1
  Ru  Ru26  1  0.807688  0.620083  0.000000  1
  Ru  Ru27  1  0.812831  0.196328  0.000000  1
  Ru  Ru28  1  0.382347  0.185796  0.000000  1
  Ru  Ru29  1  0.370749  0.495572  0.500000  1
  Ru  Ru30  1  0.505487  0.875449  0.500000  1
  Ru  Ru31  1  0.124475  0.630718  0.500000  1
  Ru  Ru32  1  0.875525  0.506242  0.500000  1
  Ru  Ru33  1  0.629251  0.124821  0.500000  1
  Ru  Ru34  1  0.494513  0.369961  0.500000  1
  Ru  Ru35  1  0.000000  0.996231  0.000000  1
