# generated using pymatgen
data_Pr2Hf3P7Ir9
_symmetry_space_group_name_H-M   'P 1'
_cell_length_a   9.80546300
_cell_length_b   9.80546270
_cell_length_c   4.02450500
_cell_angle_alpha   90.00000000
_cell_angle_beta   90.00000000
_cell_angle_gamma   119.99999763
_symmetry_Int_Tables_number   1
_chemical_formula_structural   Pr2Hf3P7Ir9
_chemical_formula_sum   'Pr2 Hf3 P7 Ir9'
_cell_volume   335.10376765
_cell_formula_units_Z   1
loop_
 _symmetry_equiv_pos_site_id
 _symmetry_equiv_pos_as_xyz
  1  'x, y, z'
loop_
 _atom_site_type_symbol
 _atom_site_label
 _atom_site_symmetry_multiplicity
 _atom_site_fract_x
 _atom_site_fract_y
 _atom_site_fract_z
 _atom_site_occupancy
  Pr  Pr0  1  0.333333  0.666667  0.000000  1
  Pr  Pr1  1  0.000000  0.000000  0.500000  1
  Hf  Hf2  1  0.790862  0.230797  0.500000  1
  Hf  Hf3  1  0.769203  0.560065  0.500000  1
  Hf  Hf4  1  0.439935  0.209138  0.500000  1
  P  P5  1  0.780041  0.026750  0.000000  1
  P  P6  1  0.973250  0.753291  0.000000  1
  P  P7  1  0.246709  0.219959  0.000000  1
  P  P8  1  0.383160  0.917571  0.500000  1
  P  P9  1  0.082429  0.465589  0.500000  1
  P  P10  1  0.534411  0.616840  0.500000  1
  P  P11  1  0.666667  0.333333  0.000000  1
  Ir  Ir12  1  0.026864  0.255708  0.000000  1
  Ir  Ir13  1  0.744292  0.771156  0.000000  1
  Ir  Ir14  1  0.228844  0.973136  0.000000  1
  Ir  Ir15  1  0.551817  0.055523  0.000000  1
  Ir  Ir16  1  0.944477  0.496295  0.000000  1
  Ir  Ir17  1  0.503705  0.448183  0.000000  1
  Ir  Ir18  1  0.614420  0.887407  0.500000  1
  Ir  Ir19  1  0.112593  0.727011  0.500000  1
  Ir  Ir20  1  0.272989  0.385580  0.500000  1
