# generated using pymatgen
data_ThNbN2
_symmetry_space_group_name_H-M   'P 1'
_cell_length_a   3.41614700
_cell_length_b   5.90656800
_cell_length_c   11.14175800
_cell_angle_alpha   90.00000000
_cell_angle_beta   90.00000000
_cell_angle_gamma   90.00000000
_symmetry_Int_Tables_number   1
_chemical_formula_structural   ThNbN2
_chemical_formula_sum   'Th4 Nb4 N8'
_cell_volume   224.81510113
_cell_formula_units_Z   4
loop_
 _symmetry_equiv_pos_site_id
 _symmetry_equiv_pos_as_xyz
  1  'x, y, z'
loop_
 _atom_site_type_symbol
 _atom_site_label
 _atom_site_symmetry_multiplicity
 _atom_site_fract_x
 _atom_site_fract_y
 _atom_site_fract_z
 _atom_site_occupancy
  Th  Th0  1  0.250000  0.578023  0.856490  1
  Th  Th1  1  0.750000  0.421977  0.143510  1
  Th  Th2  1  0.750000  0.921977  0.356490  1
  Th  Th3  1  0.250000  0.078023  0.643510  1
  Nb  Nb4  1  0.250000  0.928032  0.094216  1
  Nb  Nb5  1  0.750000  0.071968  0.905784  1
  Nb  Nb6  1  0.750000  0.571968  0.594216  1
  Nb  Nb7  1  0.250000  0.428032  0.405784  1
  N  N8  1  0.250000  0.660951  0.248246  1
  N  N9  1  0.750000  0.339049  0.751754  1
  N  N10  1  0.750000  0.839049  0.748246  1
  N  N11  1  0.250000  0.160951  0.251754  1
  N  N12  1  0.250000  0.756478  0.506559  1
  N  N13  1  0.750000  0.243522  0.493441  1
  N  N14  1  0.750000  0.743522  0.006559  1
  N  N15  1  0.250000  0.256478  0.993441  1
