# generated using pymatgen
data_Ho5Mn2Fe10Co7P12
_symmetry_space_group_name_H-M   'P 1'
_cell_length_a   11.98657107
_cell_length_b   11.98877240
_cell_length_c   3.67464400
_cell_angle_alpha   90.00000000
_cell_angle_beta   90.00000000
_cell_angle_gamma   120.00607500
_symmetry_Int_Tables_number   1
_chemical_formula_structural   Ho5Mn2Fe10Co7P12
_chemical_formula_sum   'Ho5 Mn2 Fe10 Co7 P12'
_cell_volume   457.28714603
_cell_formula_units_Z   1
loop_
 _symmetry_equiv_pos_site_id
 _symmetry_equiv_pos_as_xyz
  1  'x, y, z'
loop_
 _atom_site_type_symbol
 _atom_site_label
 _atom_site_symmetry_multiplicity
 _atom_site_fract_x
 _atom_site_fract_y
 _atom_site_fract_z
 _atom_site_occupancy
  Ho  Ho0  1  0.667571  0.334031  0.000000  1
  Ho  Ho1  1  0.332429  0.666461  0.000000  1
  Ho  Ho2  1  0.815863  0.815527  0.500000  1
  Ho  Ho3  1  0.184137  0.999664  0.500000  1
  Ho  Ho4  1  0.000000  0.186442  0.500000  1
  Mn  Mn5  1  0.441505  0.440782  0.000000  1
  Mn  Mn6  1  0.558495  0.999278  0.000000  1
  Fe  Fe7  1  0.877645  0.359987  0.500000  1
  Fe  Fe8  1  0.641781  0.517824  0.500000  1
  Fe  Fe9  1  0.481590  0.121992  0.500000  1
  Fe  Fe10  1  0.358219  0.876043  0.500000  1
  Fe  Fe11  1  0.518410  0.640402  0.500000  1
  Fe  Fe12  1  0.122355  0.482341  0.500000  1
  Fe  Fe13  1  0.000000  0.556400  0.000000  1
  Fe  Fe14  1  0.284576  0.285025  0.500000  1
  Fe  Fe15  1  0.715424  0.000450  0.500000  1
  Fe  Fe16  1  0.000000  0.714872  0.500000  1
  Co  Co17  1  0.803316  0.180880  0.000000  1
  Co  Co18  1  0.821452  0.622960  0.000000  1
  Co  Co19  1  0.376505  0.196463  0.000000  1
  Co  Co20  1  0.178548  0.801509  0.000000  1
  Co  Co21  1  0.623495  0.819959  0.000000  1
  Co  Co22  1  0.196684  0.377565  0.000000  1
  Co  Co23  1  0.000000  0.000253  0.000000  1
  P  P24  1  0.687367  0.167899  0.500000  1
  P  P25  1  0.835193  0.520105  0.500000  1
  P  P26  1  0.480041  0.312266  0.500000  1
  P  P27  1  0.164807  0.684911  0.500000  1
  P  P28  1  0.519959  0.832224  0.500000  1
  P  P29  1  0.312633  0.480531  0.500000  1
  P  P30  1  0.182445  0.183205  0.000000  1
  P  P31  1  0.817555  0.000761  0.000000  1
  P  P32  1  0.000000  0.817130  0.000000  1
  P  P33  1  0.634415  0.633172  0.000000  1
  P  P34  1  0.365585  0.998757  0.000000  1
  P  P35  1  0.000000  0.371929  0.000000  1
