# generated using pymatgen
data_U3Co8P6W
_symmetry_space_group_name_H-M   'P 1'
_cell_length_a   3.72190100
_cell_length_b   10.50290100
_cell_length_c   12.21567500
_cell_angle_alpha   90.00000000
_cell_angle_beta   90.00000000
_cell_angle_gamma   90.00000000
_symmetry_Int_Tables_number   1
_chemical_formula_structural   U3Co8P6W
_chemical_formula_sum   'U6 Co16 P12 W2'
_cell_volume   477.51999199
_cell_formula_units_Z   2
loop_
 _symmetry_equiv_pos_site_id
 _symmetry_equiv_pos_as_xyz
  1  'x, y, z'
loop_
 _atom_site_type_symbol
 _atom_site_label
 _atom_site_symmetry_multiplicity
 _atom_site_fract_x
 _atom_site_fract_y
 _atom_site_fract_z
 _atom_site_occupancy
  U  U0  1  0.000000  0.500000  0.527151  1
  U  U1  1  0.500000  0.000000  0.472849  1
  U  U2  1  0.500000  0.822245  0.206838  1
  U  U3  1  0.500000  0.177755  0.206838  1
  U  U4  1  0.000000  0.677755  0.793162  1
  U  U5  1  0.000000  0.322245  0.793162  1
  Co  Co6  1  0.000000  0.500000  0.988451  1
  Co  Co7  1  0.500000  0.000000  0.011549  1
  Co  Co8  1  0.500000  0.299076  0.429356  1
  Co  Co9  1  0.500000  0.700924  0.429356  1
  Co  Co10  1  0.000000  0.200924  0.570644  1
  Co  Co11  1  0.000000  0.799076  0.570644  1
  Co  Co12  1  0.500000  0.878697  0.708905  1
  Co  Co13  1  0.500000  0.121303  0.708905  1
  Co  Co14  1  0.000000  0.621303  0.291095  1
  Co  Co15  1  0.000000  0.378697  0.291095  1
  Co  Co16  1  0.500000  0.332872  0.992122  1
  Co  Co17  1  0.500000  0.667128  0.992122  1
  Co  Co18  1  0.000000  0.167128  0.007878  1
  Co  Co19  1  0.000000  0.832872  0.007878  1
  Co  Co20  1  0.500000  0.500000  0.700095  1
  Co  Co21  1  0.000000  0.000000  0.299905  1
  P  P22  1  0.500000  0.308905  0.612934  1
  P  P23  1  0.500000  0.691095  0.612934  1
  P  P24  1  0.000000  0.191095  0.387066  1
  P  P25  1  0.000000  0.808905  0.387066  1
  P  P26  1  0.500000  0.500000  0.883018  1
  P  P27  1  0.000000  0.000000  0.116982  1
  P  P28  1  0.500000  0.842294  0.892462  1
  P  P29  1  0.500000  0.157706  0.892462  1
  P  P30  1  0.000000  0.657706  0.107538  1
  P  P31  1  0.000000  0.342294  0.107538  1
  P  P32  1  0.500000  0.500000  0.351024  1
  P  P33  1  0.000000  0.000000  0.648976  1
  W  W34  1  0.500000  0.500000  0.157318  1
  W  W35  1  0.000000  0.000000  0.842682  1
