# generated using pymatgen
data_DyTm2In3GePt2
_symmetry_space_group_name_H-M   'P 1'
_cell_length_a   7.45449357
_cell_length_b   7.47447733
_cell_length_c   4.11384800
_cell_angle_alpha   90.00000000
_cell_angle_beta   90.00000000
_cell_angle_gamma   120.11310025
_symmetry_Int_Tables_number   1
_chemical_formula_structural   DyTm2In3GePt2
_chemical_formula_sum   'Dy1 Tm2 In3 Ge1 Pt2'
_cell_volume   198.28130253
_cell_formula_units_Z   1
loop_
 _symmetry_equiv_pos_site_id
 _symmetry_equiv_pos_as_xyz
  1  'x, y, z'
loop_
 _atom_site_type_symbol
 _atom_site_label
 _atom_site_symmetry_multiplicity
 _atom_site_fract_x
 _atom_site_fract_y
 _atom_site_fract_z
 _atom_site_occupancy
  Dy  Dy0  1  0.403142  0.412349  0.500000  1
  Tm  Tm1  1  0.587596  0.988990  0.500000  1
  Tm  Tm2  1  0.011368  0.599000  0.500000  1
  In  In3  1  0.005472  0.257117  0.000000  1
  In  In4  1  0.742904  0.749188  0.000000  1
  In  In5  1  0.251046  0.993695  0.000000  1
  Ge  Ge6  1  0.667600  0.332899  0.000000  1
  Pt  Pt7  1  0.998152  0.998251  0.500000  1
  Pt  Pt8  1  0.332721  0.668511  0.000000  1
