# generated using pymatgen
data_Li2Sc(Rh2Pb)3
_symmetry_space_group_name_H-M   'P 1'
_cell_length_a   4.57423104
_cell_length_b   6.36636544
_cell_length_c   13.65500563
_cell_angle_alpha   90.07324861
_cell_angle_beta   90.01440419
_cell_angle_gamma   89.99457021
_symmetry_Int_Tables_number   1
_chemical_formula_structural   Li2Sc(Rh2Pb)3
_chemical_formula_sum   'Li4 Sc2 Rh12 Pb6'
_cell_volume   397.65017130
_cell_formula_units_Z   2
loop_
 _symmetry_equiv_pos_site_id
 _symmetry_equiv_pos_as_xyz
  1  'x, y, z'
loop_
 _atom_site_type_symbol
 _atom_site_label
 _atom_site_symmetry_multiplicity
 _atom_site_fract_x
 _atom_site_fract_y
 _atom_site_fract_z
 _atom_site_occupancy
  Li  Li0  1  0.999781  0.000037  0.335312  1
  Li  Li1  1  0.500146  0.499956  0.500901  1
  Li  Li2  1  0.000229  0.999864  0.665773  1
  Li  Li3  1  0.500198  0.499833  0.831361  1
  Sc  Sc4  1  0.000030  0.000059  0.997782  1
  Sc  Sc5  1  0.499969  0.500096  0.168884  1
  Rh  Rh6  1  0.499957  0.246905  0.998946  1
  Rh  Rh7  1  0.499922  0.753053  0.999077  1
  Rh  Rh8  1  0.000128  0.253249  0.167777  1
  Rh  Rh9  1  0.000112  0.746993  0.167659  1
  Rh  Rh10  1  0.499784  0.250799  0.335243  1
  Rh  Rh11  1  0.499766  0.749374  0.335299  1
  Rh  Rh12  1  0.999996  0.244513  0.500848  1
  Rh  Rh13  1  0.000006  0.755543  0.500782  1
  Rh  Rh14  1  0.499971  0.255232  0.665820  1
  Rh  Rh15  1  0.499948  0.744527  0.665838  1
  Rh  Rh16  1  0.000130  0.249288  0.831362  1
  Rh  Rh17  1  0.000113  0.750468  0.831326  1
  Pb  Pb18  1  0.999834  0.500054  0.994755  1
  Pb  Pb19  1  0.500378  0.000186  0.172000  1
  Pb  Pb20  1  0.999768  0.500105  0.341715  1
  Pb  Pb21  1  0.499860  0.000017  0.503532  1
  Pb  Pb22  1  0.999849  0.500036  0.662984  1
  Pb  Pb23  1  0.500124  0.999811  0.825026  1
