# generated using pymatgen
data_Ti12Al3Cu8SiO4
_symmetry_space_group_name_H-M   'P 1'
_cell_length_a   7.99869473
_cell_length_b   7.99869564
_cell_length_c   7.99869510
_cell_angle_alpha   59.91764855
_cell_angle_beta   59.91764177
_cell_angle_gamma   59.91765167
_symmetry_Int_Tables_number   1
_chemical_formula_structural   Ti12Al3Cu8SiO4
_chemical_formula_sum   'Ti12 Al3 Cu8 Si1 O4'
_cell_volume   361.18555365
_cell_formula_units_Z   1
loop_
 _symmetry_equiv_pos_site_id
 _symmetry_equiv_pos_as_xyz
  1  'x, y, z'
loop_
 _atom_site_type_symbol
 _atom_site_label
 _atom_site_symmetry_multiplicity
 _atom_site_fract_x
 _atom_site_fract_y
 _atom_site_fract_z
 _atom_site_occupancy
  Ti  Ti0  1  0.932646  0.567034  0.567034  1
  Ti  Ti1  1  0.682966  0.317354  0.682966  1
  Ti  Ti2  1  0.934715  0.564308  0.934715  1
  Ti  Ti3  1  0.564308  0.934715  0.934715  1
  Ti  Ti4  1  0.315285  0.685692  0.315285  1
  Ti  Ti5  1  0.567034  0.932646  0.567034  1
  Ti  Ti6  1  0.682966  0.682966  0.317354  1
  Ti  Ti7  1  0.934715  0.934715  0.564308  1
  Ti  Ti8  1  0.315285  0.315285  0.685692  1
  Ti  Ti9  1  0.685692  0.315285  0.315285  1
  Ti  Ti10  1  0.567034  0.567034  0.932646  1
  Ti  Ti11  1  0.317354  0.682966  0.682966  1
  Al  Al12  1  0.125000  0.625000  0.125000  1
  Al  Al13  1  0.125000  0.125000  0.625000  1
  Al  Al14  1  0.625000  0.125000  0.125000  1
  Cu  Cu15  1  0.250849  0.918510  0.918510  1
  Cu  Cu16  1  0.334882  0.334882  0.334882  1
  Cu  Cu17  1  0.331490  0.331490  0.999151  1
  Cu  Cu18  1  0.918510  0.250849  0.918510  1
  Cu  Cu19  1  0.915118  0.915118  0.915118  1
  Cu  Cu20  1  0.999151  0.331490  0.331490  1
  Cu  Cu21  1  0.918510  0.918510  0.250849  1
  Cu  Cu22  1  0.331490  0.999151  0.331490  1
  Si  Si23  1  0.125000  0.125000  0.125000  1
  O  O24  1  0.625000  0.125000  0.625000  1
  O  O25  1  0.625000  0.625000  0.125000  1
  O  O26  1  0.125000  0.625000  0.625000  1
  O  O27  1  0.625000  0.625000  0.625000  1
