# generated using pymatgen
data_Li8Al3ZnPt4
_symmetry_space_group_name_H-M   'P 1'
_cell_length_a   6.04973101
_cell_length_b   6.04968500
_cell_length_c   6.04979101
_cell_angle_alpha   90.00079550
_cell_angle_beta   90.00107966
_cell_angle_gamma   89.99919498
_symmetry_Int_Tables_number   1
_chemical_formula_structural   Li8Al3ZnPt4
_chemical_formula_sum   'Li8 Al3 Zn1 Pt4'
_cell_volume   221.41610122
_cell_formula_units_Z   1
loop_
 _symmetry_equiv_pos_site_id
 _symmetry_equiv_pos_as_xyz
  1  'x, y, z'
loop_
 _atom_site_type_symbol
 _atom_site_label
 _atom_site_symmetry_multiplicity
 _atom_site_fract_x
 _atom_site_fract_y
 _atom_site_fract_z
 _atom_site_occupancy
  Li  Li0  1  0.254849  0.745145  0.254854  1
  Li  Li1  1  0.745152  0.254842  0.254850  1
  Li  Li2  1  0.254829  0.254825  0.745172  1
  Li  Li3  1  0.999970  0.999977  0.000021  1
  Li  Li4  1  0.000021  0.500018  0.499986  1
  Li  Li5  1  0.745150  0.745146  0.745154  1
  Li  Li6  1  0.500012  0.000022  0.499987  1
  Li  Li7  1  0.500012  0.500018  0.999980  1
  Al  Al8  1  0.000005  0.000003  0.499988  1
  Al  Al9  1  0.000006  0.500014  0.999996  1
  Al  Al10  1  0.500010  0.000002  0.999996  1
  Zn  Zn11  1  0.499975  0.499971  0.500025  1
  Pt  Pt12  1  0.244681  0.244684  0.244655  1
  Pt  Pt13  1  0.755344  0.244687  0.755319  1
  Pt  Pt14  1  0.755302  0.755303  0.244699  1
  Pt  Pt15  1  0.244682  0.755345  0.755317  1
