# generated using pymatgen
data_Tb9Y11Co3Bi8Ru
_symmetry_space_group_name_H-M   'P 1'
_cell_length_a   8.04409571
_cell_length_b   8.87779200
_cell_length_c   12.48174737
_cell_angle_alpha   90.00000000
_cell_angle_beta   90.20224041
_cell_angle_gamma   90.00000000
_symmetry_Int_Tables_number   1
_chemical_formula_structural   Tb9Y11Co3Bi8Ru
_chemical_formula_sum   'Tb9 Y11 Co3 Bi8 Ru1'
_cell_volume   891.36356347
_cell_formula_units_Z   1
loop_
 _symmetry_equiv_pos_site_id
 _symmetry_equiv_pos_as_xyz
  1  'x, y, z'
loop_
 _atom_site_type_symbol
 _atom_site_label
 _atom_site_symmetry_multiplicity
 _atom_site_fract_x
 _atom_site_fract_y
 _atom_site_fract_z
 _atom_site_occupancy
  Tb  Tb0  1  0.546885  0.750000  0.002003  1
  Tb  Tb1  1  0.678216  0.041456  0.564389  1
  Tb  Tb2  1  0.323806  0.966866  0.436888  1
  Tb  Tb3  1  0.176168  0.966129  0.937348  1
  Tb  Tb4  1  0.323806  0.533134  0.436888  1
  Tb  Tb5  1  0.822975  0.035290  0.062817  1
  Tb  Tb6  1  0.678216  0.458544  0.564389  1
  Tb  Tb7  1  0.822975  0.464710  0.062817  1
  Tb  Tb8  1  0.176168  0.533871  0.937348  1
  Y  Y9  1  0.847028  0.750000  0.799564  1
  Y  Y10  1  0.152115  0.250000  0.199145  1
  Y  Y11  1  0.347742  0.250000  0.699805  1
  Y  Y12  1  0.653318  0.750000  0.295576  1
  Y  Y13  1  0.377301  0.750000  0.694969  1
  Y  Y14  1  0.619818  0.250000  0.308170  1
  Y  Y15  1  0.879905  0.250000  0.808966  1
  Y  Y16  1  0.119779  0.750000  0.189918  1
  Y  Y17  1  0.951326  0.750000  0.503093  1
  Y  Y18  1  0.047451  0.250000  0.497142  1
  Y  Y19  1  0.454589  0.250000  0.997787  1
  Co  Co20  1  0.434813  0.250000  0.490129  1
  Co  Co21  1  0.059436  0.250000  0.991599  1
  Co  Co22  1  0.938040  0.750000  0.008098  1
  Bi  Bi23  1  0.571874  0.491318  0.826391  1
  Bi  Bi24  1  0.427346  0.507660  0.173671  1
  Bi  Bi25  1  0.071881  0.507705  0.674378  1
  Bi  Bi26  1  0.427346  0.992340  0.173671  1
  Bi  Bi27  1  0.929118  0.491908  0.325864  1
  Bi  Bi28  1  0.571874  0.008682  0.826391  1
  Bi  Bi29  1  0.929118  0.008092  0.325864  1
  Bi  Bi30  1  0.071881  0.992295  0.674378  1
  Ru  Ru31  1  0.567684  0.750000  0.510548  1
