# generated using pymatgen
data_Pa6Ti4Al12Os7
_symmetry_space_group_name_H-M   'P 1'
_cell_length_a   8.93461020
_cell_length_b   8.93416685
_cell_length_c   8.93366200
_cell_angle_alpha   60.00069506
_cell_angle_beta   60.00070655
_cell_angle_gamma   59.99712779
_symmetry_Int_Tables_number   1
_chemical_formula_structural   Pa6Ti4Al12Os7
_chemical_formula_sum   'Pa6 Ti4 Al12 Os7'
_cell_volume   504.24239892
_cell_formula_units_Z   1
loop_
 _symmetry_equiv_pos_site_id
 _symmetry_equiv_pos_as_xyz
  1  'x, y, z'
loop_
 _atom_site_type_symbol
 _atom_site_label
 _atom_site_symmetry_multiplicity
 _atom_site_fract_x
 _atom_site_fract_y
 _atom_site_fract_z
 _atom_site_occupancy
  Pa  Pa0  1  0.692880  0.692863  0.307128  1
  Pa  Pa1  1  0.307155  0.692843  0.307099  1
  Pa  Pa2  1  0.692880  0.307093  0.307104  1
  Pa  Pa3  1  0.307153  0.307099  0.692825  1
  Pa  Pa4  1  0.692924  0.307108  0.692863  1
  Pa  Pa5  1  0.307114  0.692930  0.692891  1
  Ti  Ti6  1  0.881313  0.881368  0.355998  1
  Ti  Ti7  1  0.881283  0.356022  0.881379  1
  Ti  Ti8  1  0.356034  0.881310  0.881326  1
  Ti  Ti9  1  0.881319  0.881327  0.881330  1
  Al  Al10  1  0.118540  0.118522  0.644398  1
  Al  Al11  1  0.118549  0.644389  0.118514  1
  Al  Al12  1  0.644381  0.118551  0.118535  1
  Al  Al13  1  0.118532  0.118548  0.118535  1
  Al  Al14  1  0.670547  0.670548  0.988346  1
  Al  Al15  1  0.670538  0.988355  0.670567  1
  Al  Al16  1  0.988338  0.670557  0.670585  1
  Al  Al17  1  0.670513  0.670551  0.670588  1
  Al  Al18  1  0.329956  0.329976  0.010116  1
  Al  Al19  1  0.329953  0.010113  0.329971  1
  Al  Al20  1  0.010095  0.329956  0.329954  1
  Al  Al21  1  0.329991  0.329961  0.329946  1
  Os  Os22  1  0.000060  0.999994  0.999932  1
  Os  Os23  1  0.999383  0.999349  0.500663  1
  Os  Os24  1  0.500581  0.999367  0.500685  1
  Os  Os25  1  0.999386  0.500611  0.500653  1
  Os  Os26  1  0.500603  0.500670  0.999363  1
  Os  Os27  1  0.999382  0.500648  0.999342  1
  Os  Os28  1  0.500614  0.999368  0.999363  1
