# generated using pymatgen
data_Tm13Lu7Sb12
_symmetry_space_group_name_H-M   'P 1'
_cell_length_a   8.04018415
_cell_length_b   9.14113305
_cell_length_c   11.68140125
_cell_angle_alpha   89.98929761
_cell_angle_beta   89.97890750
_cell_angle_gamma   89.99391165
_symmetry_Int_Tables_number   1
_chemical_formula_structural   Tm13Lu7Sb12
_chemical_formula_sum   'Tm13 Lu7 Sb12'
_cell_volume   858.54077970
_cell_formula_units_Z   1
loop_
 _symmetry_equiv_pos_site_id
 _symmetry_equiv_pos_as_xyz
  1  'x, y, z'
loop_
 _atom_site_type_symbol
 _atom_site_label
 _atom_site_symmetry_multiplicity
 _atom_site_fract_x
 _atom_site_fract_y
 _atom_site_fract_z
 _atom_site_occupancy
  Tm  Tm0  1  0.691281  0.560060  0.566190  1
  Tm  Tm1  1  0.191496  0.060139  0.933862  1
  Tm  Tm2  1  0.691519  0.939973  0.566173  1
  Tm  Tm3  1  0.808523  0.560106  0.066152  1
  Tm  Tm4  1  0.308543  0.439880  0.433850  1
  Tm  Tm5  1  0.175469  0.750088  0.228802  1
  Tm  Tm6  1  0.675464  0.249933  0.271257  1
  Tm  Tm7  1  0.824558  0.250041  0.771250  1
  Tm  Tm8  1  0.324620  0.749978  0.728825  1
  Tm  Tm9  1  0.657530  0.750134  0.290868  1
  Tm  Tm10  1  0.157510  0.249998  0.209047  1
  Tm  Tm11  1  0.342473  0.250096  0.709033  1
  Tm  Tm12  1  0.842492  0.750172  0.791119  1
  Lu  Lu13  1  0.808789  0.939490  0.066267  1
  Lu  Lu14  1  0.308716  0.060495  0.433711  1
  Lu  Lu15  1  0.191263  0.439475  0.933749  1
  Lu  Lu16  1  0.524985  0.250060  0.994996  1
  Lu  Lu17  1  0.025164  0.750072  0.504953  1
  Lu  Lu18  1  0.475011  0.750125  0.005043  1
  Lu  Lu19  1  0.975076  0.249888  0.495015  1
  Sb  Sb20  1  0.936280  0.990760  0.325903  1
  Sb  Sb21  1  0.436232  0.009349  0.174023  1
  Sb  Sb22  1  0.063870  0.490726  0.674093  1
  Sb  Sb23  1  0.563652  0.509359  0.826080  1
  Sb  Sb24  1  0.063621  0.009251  0.674018  1
  Sb  Sb25  1  0.563541  0.990896  0.826040  1
  Sb  Sb26  1  0.936410  0.509229  0.325976  1
  Sb  Sb27  1  0.436415  0.490835  0.173981  1
  Sb  Sb28  1  0.903302  0.249415  0.024132  1
  Sb  Sb29  1  0.403067  0.750809  0.475761  1
  Sb  Sb30  1  0.096760  0.749436  0.975880  1
  Sb  Sb31  1  0.596366  0.249735  0.523951  1
