# generated using pymatgen
data_Nd8NbPd19Pt5
_symmetry_space_group_name_H-M   'P 1'
_cell_length_a   8.51611800
_cell_length_b   8.51611800
_cell_length_c   8.52628000
_cell_angle_alpha   90.00000000
_cell_angle_beta   90.00000000
_cell_angle_gamma   90.00000000
_symmetry_Int_Tables_number   1
_chemical_formula_structural   Nd8NbPd19Pt5
_chemical_formula_sum   'Nd8 Nb1 Pd19 Pt5'
_cell_volume   618.36219692
_cell_formula_units_Z   1
loop_
 _symmetry_equiv_pos_site_id
 _symmetry_equiv_pos_as_xyz
  1  'x, y, z'
loop_
 _atom_site_type_symbol
 _atom_site_label
 _atom_site_symmetry_multiplicity
 _atom_site_fract_x
 _atom_site_fract_y
 _atom_site_fract_z
 _atom_site_occupancy
  Nd  Nd0  1  0.249963  0.249963  0.250209  1
  Nd  Nd1  1  0.748930  0.748930  0.749228  1
  Nd  Nd2  1  0.750037  0.750037  0.250209  1
  Nd  Nd3  1  0.748930  0.251070  0.749228  1
  Nd  Nd4  1  0.251070  0.251070  0.749228  1
  Nd  Nd5  1  0.249963  0.750037  0.250209  1
  Nd  Nd6  1  0.251070  0.748930  0.749228  1
  Nd  Nd7  1  0.750037  0.249963  0.250209  1
  Nb  Nb8  1  0.000000  0.000000  0.008674  1
  Pd  Pd9  1  0.265363  0.500000  0.999796  1
  Pd  Pd10  1  0.734637  0.500000  0.999796  1
  Pd  Pd11  1  0.000000  0.266137  0.500442  1
  Pd  Pd12  1  0.500000  0.265363  0.999796  1
  Pd  Pd13  1  0.000000  0.733863  0.500442  1
  Pd  Pd14  1  0.500000  0.734637  0.999796  1
  Pd  Pd15  1  0.500000  0.000000  0.264386  1
  Pd  Pd16  1  0.266137  0.000000  0.500442  1
  Pd  Pd17  1  0.500000  0.000000  0.733182  1
  Pd  Pd18  1  0.733863  0.000000  0.500442  1
  Pd  Pd19  1  0.000000  0.500000  0.264386  1
  Pd  Pd20  1  0.000000  0.500000  0.733182  1
  Pd  Pd21  1  0.254702  0.500000  0.499401  1
  Pd  Pd22  1  0.745298  0.500000  0.499401  1
  Pd  Pd23  1  0.500000  0.254702  0.499401  1
  Pd  Pd24  1  0.500000  0.745298  0.499401  1
  Pd  Pd25  1  0.500000  0.500000  0.254705  1
  Pd  Pd26  1  0.500000  0.500000  0.744541  1
  Pd  Pd27  1  0.000000  0.000000  0.696350  1
  Pt  Pt28  1  0.305559  0.000000  0.998123  1
  Pt  Pt29  1  0.694441  0.000000  0.998123  1
  Pt  Pt30  1  0.000000  0.305559  0.998123  1
  Pt  Pt31  1  0.000000  0.694441  0.998123  1
  Pt  Pt32  1  0.000000  0.000000  0.311797  1
