# generated using pymatgen
data_Li11Pr11MnFe(WO6)8
_symmetry_space_group_name_H-M   'P 1'
_cell_length_a   11.00701042
_cell_length_b   10.91224577
_cell_length_c   10.91224600
_cell_angle_alpha   109.25048748
_cell_angle_beta   109.40632436
_cell_angle_gamma   109.40631123
_symmetry_Int_Tables_number   1
_chemical_formula_structural   Li11Pr11MnFe(WO6)8
_chemical_formula_sum   'Li11 Pr11 Mn1 Fe1 W8 O48'
_cell_volume   1013.30375801
_cell_formula_units_Z   1
loop_
 _symmetry_equiv_pos_site_id
 _symmetry_equiv_pos_as_xyz
  1  'x, y, z'
loop_
 _atom_site_type_symbol
 _atom_site_label
 _atom_site_symmetry_multiplicity
 _atom_site_fract_x
 _atom_site_fract_y
 _atom_site_fract_z
 _atom_site_occupancy
  Li  Li0  1  0.365682  0.248333  0.126516  1
  Li  Li1  1  0.133478  0.374371  0.252342  1
  Li  Li2  1  0.624643  0.873918  0.246196  1
  Li  Li3  1  0.134318  0.760834  0.382649  1
  Li  Li4  1  0.750001  0.615543  0.365543  1
  Li  Li5  1  0.250000  0.375779  0.625779  1
  Li  Li6  1  0.875550  0.252763  0.625703  1
  Li  Li7  1  0.366523  0.118866  0.740893  1
  Li  Li8  1  0.875358  0.621554  0.749276  1
  Li  Li9  1  0.624450  0.750152  0.877214  1
  Li  Li10  1  0.749999  0.134255  0.884255  1
  Pr  Pr11  1  0.871789  0.744326  0.126463  1
  Pr  Pr12  1  0.377366  0.623803  0.248933  1
  Pr  Pr13  1  0.873874  0.129327  0.250166  1
  Pr  Pr14  1  0.250000  0.131614  0.381614  1
  Pr  Pr15  1  0.628211  0.254673  0.372538  1
  Pr  Pr16  1  0.750000  0.872823  0.622823  1
  Pr  Pr17  1  0.374640  0.748341  0.625537  1
  Pr  Pr18  1  0.122634  0.871564  0.746436  1
  Pr  Pr19  1  0.626127  0.376291  0.755454  1
  Pr  Pr20  1  0.250000  0.618861  0.868861  1
  Pr  Pr21  1  0.125361  0.250896  0.873702  1
  Mn  Mn22  1  0.250000  0.874837  0.124837  1
  Fe  Fe23  1  0.750000  0.377827  0.127827  1
  W  W24  1  0.992942  0.000591  0.997069  1
  W  W25  1  0.503461  0.009236  0.999018  1
  W  W26  1  0.498966  0.491492  0.997542  1
  W  W27  1  0.996538  0.495557  0.005775  1
  W  W28  1  0.997018  0.999344  0.498447  1
  W  W29  1  0.507057  0.004128  0.507649  1
  W  W30  1  0.001033  0.498577  0.492529  1
  W  W31  1  0.502983  0.501431  0.502326  1
  O  O32  1  0.825302  0.908684  0.022909  1
  O  O33  1  0.695989  0.140363  0.035579  1
  O  O34  1  0.201428  0.664722  0.077635  1
  O  O35  1  0.383906  0.406540  0.081210  1
  O  O36  1  0.483268  0.669571  0.093375  1
  O  O37  1  0.114830  0.416200  0.092394  1
  O  O38  1  0.496265  0.178990  0.109885  1
  O  O39  1  0.085171  0.918485  0.117779  1
  O  O40  1  0.003736  0.613623  0.182725  1
  O  O41  1  0.695181  0.555742  0.159020  1
  O  O42  1  0.078788  0.170317  0.194111  1
  O  O43  1  0.612688  0.022151  0.191361  1
  O  O44  1  0.827071  0.919105  0.303815  1
  O  O45  1  0.998207  0.388271  0.314957  1
  O  O46  1  0.414830  0.032607  0.333314  1
  O  O47  1  0.418630  0.306190  0.330585  1
  O  O48  1  0.081371  0.911955  0.387560  1
  O  O49  1  0.804819  0.463838  0.360562  1
  O  O50  1  0.332845  0.525265  0.409707  1
  O  O51  1  0.581151  0.886762  0.408450  1
  O  O52  1  0.595785  0.613282  0.419975  1
  O  O53  1  0.333859  0.810574  0.423693  1
  O  O54  1  0.089435  0.174096  0.477686  1
  O  O55  1  0.885646  0.305987  0.476130  1
  O  O56  1  0.116094  0.697305  0.522636  1
  O  O57  1  0.904215  0.824192  0.517496  1
  O  O58  1  0.410563  0.388250  0.584660  1
  O  O59  1  0.674697  0.197606  0.583382  1
  O  O60  1  0.672929  0.476745  0.592034  1
  O  O61  1  0.421211  0.115324  0.591530  1
  O  O62  1  0.197829  0.525662  0.615888  1
  O  O63  1  0.917949  0.091124  0.614503  1
  O  O64  1  0.582051  0.696553  0.673173  1
  O  O65  1  0.597338  0.983009  0.677984  1
  O  O66  1  0.167153  0.076860  0.692418  1
  O  O67  1  0.016732  0.610107  0.686306  1
  O  O68  1  0.385169  0.977564  0.801369  1
  O  O69  1  0.918849  0.827300  0.805609  1
  O  O70  1  0.302172  0.418059  0.827833  1
  O  O71  1  0.017083  0.404155  0.829859  1
  O  O72  1  0.482917  0.812774  0.887072  1
  O  O73  1  0.902662  0.080647  0.885672  1
  O  O74  1  0.501792  0.316750  0.890064  1
  O  O75  1  0.887312  0.578674  0.909462  1
  O  O76  1  0.614355  0.590486  0.920341  1
  O  O77  1  0.804011  0.339589  0.944374  1
  O  O78  1  0.298571  0.876207  0.963292  1
  O  O79  1  0.166140  0.089832  0.976714  1
