# generated using pymatgen
data_CaSb12IrRu3
_symmetry_space_group_name_H-M   'P 1'
_cell_length_a   8.15131895
_cell_length_b   8.16646951
_cell_length_c   8.15131922
_cell_angle_alpha   109.50887796
_cell_angle_beta   109.43353832
_cell_angle_gamma   109.50888325
_symmetry_Int_Tables_number   1
_chemical_formula_structural   CaSb12IrRu3
_chemical_formula_sum   'Ca1 Sb12 Ir1 Ru3'
_cell_volume   417.50930690
_cell_formula_units_Z   1
loop_
 _symmetry_equiv_pos_site_id
 _symmetry_equiv_pos_as_xyz
  1  'x, y, z'
loop_
 _atom_site_type_symbol
 _atom_site_label
 _atom_site_symmetry_multiplicity
 _atom_site_fract_x
 _atom_site_fract_y
 _atom_site_fract_z
 _atom_site_occupancy
  Ca  Ca0  1  0.000000  0.000000  0.000000  1
  Sb  Sb1  1  0.339398  0.181903  0.842689  1
  Sb  Sb2  1  0.157311  0.339214  0.496709  1
  Sb  Sb3  1  0.660602  0.818097  0.157311  1
  Sb  Sb4  1  0.341715  0.496158  0.158051  1
  Sb  Sb5  1  0.658285  0.503842  0.841949  1
  Sb  Sb6  1  0.503291  0.842506  0.660602  1
  Sb  Sb7  1  0.842689  0.660786  0.503291  1
  Sb  Sb8  1  0.841949  0.338107  0.183664  1
  Sb  Sb9  1  0.183664  0.845557  0.341715  1
  Sb  Sb10  1  0.496709  0.157494  0.339398  1
  Sb  Sb11  1  0.816336  0.154443  0.658285  1
  Sb  Sb12  1  0.158051  0.661893  0.816336  1
  Ir  Ir13  1  0.000000  0.500000  0.000000  1
  Ru  Ru14  1  0.000000  0.000000  0.500000  1
  Ru  Ru15  1  0.500000  0.500000  0.500000  1
  Ru  Ru16  1  0.500000  0.000000  0.000000  1
