# generated using pymatgen
data_Tb11DyY8(CoSb2)4
_symmetry_space_group_name_H-M   'P 1'
_cell_length_a   7.96696109
_cell_length_b   8.74359110
_cell_length_c   12.22571513
_cell_angle_alpha   90.01182104
_cell_angle_beta   90.01163467
_cell_angle_gamma   89.98706638
_symmetry_Int_Tables_number   1
_chemical_formula_structural   Tb11DyY8(CoSb2)4
_chemical_formula_sum   'Tb11 Dy1 Y8 Co4 Sb8'
_cell_volume   851.64142598
_cell_formula_units_Z   1
loop_
 _symmetry_equiv_pos_site_id
 _symmetry_equiv_pos_as_xyz
  1  'x, y, z'
loop_
 _atom_site_type_symbol
 _atom_site_label
 _atom_site_symmetry_multiplicity
 _atom_site_fract_x
 _atom_site_fract_y
 _atom_site_fract_z
 _atom_site_occupancy
  Tb  Tb0  1  0.622810  0.749991  0.305091  1
  Tb  Tb1  1  0.122130  0.249849  0.194273  1
  Tb  Tb2  1  0.377270  0.249985  0.694800  1
  Tb  Tb3  1  0.877125  0.750217  0.805433  1
  Tb  Tb4  1  0.321399  0.034563  0.434922  1
  Tb  Tb5  1  0.178375  0.465386  0.935086  1
  Tb  Tb6  1  0.678603  0.534513  0.565041  1
  Tb  Tb7  1  0.178087  0.034594  0.935160  1
  Tb  Tb8  1  0.678614  0.965501  0.565068  1
  Tb  Tb9  1  0.821577  0.534243  0.065000  1
  Tb  Tb10  1  0.321397  0.465449  0.434931  1
  Dy  Dy11  1  0.822581  0.965763  0.064958  1
  Y  Y12  1  0.155386  0.750122  0.203739  1
  Y  Y13  1  0.655622  0.249939  0.296114  1
  Y  Y14  1  0.844552  0.249919  0.796575  1
  Y  Y15  1  0.344430  0.750032  0.703894  1
  Y  Y16  1  0.456393  0.750120  0.998369  1
  Y  Y17  1  0.956114  0.249994  0.501623  1
  Y  Y18  1  0.544363  0.249836  0.001687  1
  Y  Y19  1  0.043903  0.750022  0.498355  1
  Co  Co20  1  0.436002  0.749989  0.489649  1
  Co  Co21  1  0.935711  0.249772  0.010378  1
  Co  Co22  1  0.563960  0.250002  0.510338  1
  Co  Co23  1  0.063405  0.750346  0.989799  1
  Sb  Sb24  1  0.927820  0.991508  0.326879  1
  Sb  Sb25  1  0.428347  0.008400  0.172704  1
  Sb  Sb26  1  0.072045  0.491545  0.672971  1
  Sb  Sb27  1  0.572071  0.508463  0.827173  1
  Sb  Sb28  1  0.072070  0.008445  0.672935  1
  Sb  Sb29  1  0.571970  0.991518  0.827185  1
  Sb  Sb30  1  0.927958  0.508447  0.327062  1
  Sb  Sb31  1  0.427908  0.491526  0.172807  1
