# generated using pymatgen
data_Tb3AgPtRh3O14
_symmetry_space_group_name_H-M   'P 1'
_cell_length_a   7.14846497
_cell_length_b   7.14846575
_cell_length_c   7.14846552
_cell_angle_alpha   61.85377373
_cell_angle_beta   61.85376703
_cell_angle_gamma   61.85377839
_symmetry_Int_Tables_number   1
_chemical_formula_structural   Tb3AgPtRh3O14
_chemical_formula_sum   'Tb3 Ag1 Pt1 Rh3 O14'
_cell_volume   269.02097343
_cell_formula_units_Z   1
loop_
 _symmetry_equiv_pos_site_id
 _symmetry_equiv_pos_as_xyz
  1  'x, y, z'
loop_
 _atom_site_type_symbol
 _atom_site_label
 _atom_site_symmetry_multiplicity
 _atom_site_fract_x
 _atom_site_fract_y
 _atom_site_fract_z
 _atom_site_occupancy
  Tb  Tb0  1  0.625000  0.625000  0.125000  1
  Tb  Tb1  1  0.625000  0.125000  0.625000  1
  Tb  Tb2  1  0.125000  0.625000  0.625000  1
  Ag  Ag3  1  0.625000  0.625000  0.625000  1
  Pt  Pt4  1  0.125000  0.125000  0.125000  1
  Rh  Rh5  1  0.625000  0.125000  0.125000  1
  Rh  Rh6  1  0.125000  0.625000  0.125000  1
  Rh  Rh7  1  0.125000  0.125000  0.625000  1
  O  O8  1  0.056418  0.450392  0.450392  1
  O  O9  1  0.799608  0.799608  0.193582  1
  O  O10  1  0.786735  0.216376  0.216376  1
  O  O11  1  0.450392  0.056418  0.450392  1
  O  O12  1  0.033624  0.463265  0.033624  1
  O  O13  1  0.746378  0.746378  0.746378  1
  O  O14  1  0.033624  0.033624  0.463265  1
  O  O15  1  0.216376  0.786735  0.216376  1
  O  O16  1  0.216376  0.216376  0.786735  1
  O  O17  1  0.503622  0.503622  0.503622  1
  O  O18  1  0.799608  0.193582  0.799608  1
  O  O19  1  0.463265  0.033624  0.033624  1
  O  O20  1  0.450392  0.450392  0.056418  1
  O  O21  1  0.193582  0.799608  0.799608  1
