# generated using pymatgen
data_Er3Tm5B24(MoRh)2
_symmetry_space_group_name_H-M   'P 1'
_cell_length_a   3.63322200
_cell_length_b   9.13014629
_cell_length_c   11.53123505
_cell_angle_alpha   90.39533969
_cell_angle_beta   90.00000000
_cell_angle_gamma   90.00000000
_symmetry_Int_Tables_number   1
_chemical_formula_structural   Er3Tm5B24(MoRh)2
_chemical_formula_sum   'Er3 Tm5 B24 Mo2 Rh2'
_cell_volume   382.50327504
_cell_formula_units_Z   1
loop_
 _symmetry_equiv_pos_site_id
 _symmetry_equiv_pos_as_xyz
  1  'x, y, z'
loop_
 _atom_site_type_symbol
 _atom_site_label
 _atom_site_symmetry_multiplicity
 _atom_site_fract_x
 _atom_site_fract_y
 _atom_site_fract_z
 _atom_site_occupancy
  Er  Er0  1  0.500000  0.318853  0.411765  1
  Er  Er1  1  0.500000  0.681200  0.588330  1
  Er  Er2  1  0.500000  0.174813  0.916715  1
  Tm  Tm3  1  0.500000  0.825119  0.083095  1
  Tm  Tm4  1  0.500000  0.443713  0.126907  1
  Tm  Tm5  1  0.500000  0.556395  0.873138  1
  Tm  Tm6  1  0.500000  0.054835  0.627850  1
  Tm  Tm7  1  0.500000  0.945120  0.372136  1
  B  B8  1  0.000000  0.106635  0.471860  1
  B  B9  1  0.000000  0.893366  0.528133  1
  B  B10  1  0.000000  0.395082  0.970304  1
  B  B11  1  0.000000  0.605116  0.029755  1
  B  B12  1  0.000000  0.132541  0.317667  1
  B  B13  1  0.000000  0.867451  0.682334  1
  B  B14  1  0.000000  0.368401  0.815828  1
  B  B15  1  0.000000  0.631764  0.184081  1
  B  B16  1  0.000000  0.051786  0.066029  1
  B  B17  1  0.000000  0.947995  0.934077  1
  B  B18  1  0.000000  0.446009  0.565587  1
  B  B19  1  0.000000  0.554002  0.434412  1
  B  B20  1  0.000000  0.483342  0.288177  1
  B  B21  1  0.000000  0.516678  0.711825  1
  B  B22  1  0.000000  0.020449  0.786179  1
  B  B23  1  0.000000  0.979345  0.213733  1
  B  B24  1  0.000000  0.250623  0.079279  1
  B  B25  1  0.000000  0.749416  0.920903  1
  B  B26  1  0.000000  0.250214  0.579090  1
  B  B27  1  0.000000  0.749790  0.420905  1
  B  B28  1  0.000000  0.296160  0.236562  1
  B  B29  1  0.000000  0.703848  0.763454  1
  B  B30  1  0.000000  0.208586  0.734139  1
  B  B31  1  0.000000  0.791468  0.265736  1
  Mo  Mo32  1  0.500000  0.139406  0.181334  1
  Mo  Mo33  1  0.500000  0.860448  0.818712  1
  Rh  Rh34  1  0.500000  0.361618  0.678206  1
  Rh  Rh35  1  0.500000  0.638410  0.321764  1
