# generated using pymatgen
data_Ho3Er5(Si4Mo3)4
_symmetry_space_group_name_H-M   'P 1'
_cell_length_a   6.74881211
_cell_length_b   6.93279901
_cell_length_c   12.90207071
_cell_angle_alpha   90.01585572
_cell_angle_beta   89.99852924
_cell_angle_gamma   90.01031135
_symmetry_Int_Tables_number   1
_chemical_formula_structural   Ho3Er5(Si4Mo3)4
_chemical_formula_sum   'Ho3 Er5 Si16 Mo12'
_cell_volume   603.66408907
_cell_formula_units_Z   1
loop_
 _symmetry_equiv_pos_site_id
 _symmetry_equiv_pos_as_xyz
  1  'x, y, z'
loop_
 _atom_site_type_symbol
 _atom_site_label
 _atom_site_symmetry_multiplicity
 _atom_site_fract_x
 _atom_site_fract_y
 _atom_site_fract_z
 _atom_site_occupancy
  Ho  Ho0  1  0.002902  0.832650  0.593812  1
  Ho  Ho1  1  0.497016  0.332717  0.406158  1
  Ho  Ho2  1  0.997052  0.167295  0.093936  1
  Er  Er3  1  0.496885  0.332974  0.094074  1
  Er  Er4  1  0.996813  0.167411  0.405990  1
  Er  Er5  1  0.503172  0.667321  0.594089  1
  Er  Er6  1  0.003148  0.832391  0.905831  1
  Er  Er7  1  0.502980  0.667319  0.905812  1
  Si  Si8  1  0.659302  0.041069  0.547178  1
  Si  Si9  1  0.159693  0.459068  0.952733  1
  Si  Si10  1  0.340876  0.958752  0.047183  1
  Si  Si11  1  0.840630  0.541103  0.452774  1
  Si  Si12  1  0.340521  0.958577  0.452772  1
  Si  Si13  1  0.840321  0.541535  0.047205  1
  Si  Si14  1  0.659276  0.040994  0.952740  1
  Si  Si15  1  0.159537  0.458600  0.547185  1
  Si  Si16  1  0.534789  0.366884  0.749952  1
  Si  Si17  1  0.034808  0.133243  0.750077  1
  Si  Si18  1  0.465234  0.633382  0.249925  1
  Si  Si19  1  0.965208  0.866750  0.250167  1
  Si  Si20  1  0.802173  0.630216  0.750177  1
  Si  Si21  1  0.302693  0.869527  0.750116  1
  Si  Si22  1  0.197486  0.369873  0.250106  1
  Si  Si23  1  0.697469  0.130227  0.250005  1
  Mo  Mo24  1  0.830321  0.334721  0.624985  1
  Mo  Mo25  1  0.330376  0.165299  0.875000  1
  Mo  Mo26  1  0.169801  0.665231  0.124976  1
  Mo  Mo27  1  0.669720  0.834736  0.374999  1
  Mo  Mo28  1  0.169511  0.665425  0.374800  1
  Mo  Mo29  1  0.669451  0.834576  0.125116  1
  Mo  Mo30  1  0.830280  0.334774  0.874891  1
  Mo  Mo31  1  0.330455  0.165383  0.625114  1
  Mo  Mo32  1  0.666125  0.998126  0.749996  1
  Mo  Mo33  1  0.166354  0.501792  0.750021  1
  Mo  Mo34  1  0.333813  0.001763  0.250052  1
  Mo  Mo35  1  0.833806  0.498300  0.250058  1
