# generated using pymatgen
data_Ta2Ti17Si16Ru
_symmetry_space_group_name_H-M   'P 1'
_cell_length_a   6.69020033
_cell_length_b   6.69019902
_cell_length_c   12.18843757
_cell_angle_alpha   89.78785865
_cell_angle_beta   90.21214251
_cell_angle_gamma   89.89892166
_symmetry_Int_Tables_number   1
_chemical_formula_structural   Ta2Ti17Si16Ru
_chemical_formula_sum   'Ta2 Ti17 Si16 Ru1'
_cell_volume   545.53115324
_cell_formula_units_Z   1
loop_
 _symmetry_equiv_pos_site_id
 _symmetry_equiv_pos_as_xyz
  1  'x, y, z'
loop_
 _atom_site_type_symbol
 _atom_site_label
 _atom_site_symmetry_multiplicity
 _atom_site_fract_x
 _atom_site_fract_y
 _atom_site_fract_z
 _atom_site_occupancy
  Ta  Ta0  1  0.327260  0.671705  0.247780  1
  Ta  Ta1  1  0.671705  0.327260  0.752220  1
  Ti  Ti2  1  0.995781  0.148778  0.623581  1
  Ti  Ti3  1  0.353437  0.499367  0.870037  1
  Ti  Ti4  1  0.648918  0.505039  0.371297  1
  Ti  Ti5  1  0.499367  0.353437  0.129963  1
  Ti  Ti6  1  0.505039  0.648918  0.628703  1
  Ti  Ti7  1  0.005023  0.847249  0.120462  1
  Ti  Ti8  1  0.148778  0.995781  0.376419  1
  Ti  Ti9  1  0.847249  0.005023  0.879538  1
  Ti  Ti10  1  0.001625  0.346049  0.221480  1
  Ti  Ti11  1  0.156740  0.503091  0.468681  1
  Ti  Ti12  1  0.837391  0.499780  0.970198  1
  Ti  Ti13  1  0.503091  0.156740  0.531319  1
  Ti  Ti14  1  0.499780  0.837391  0.029802  1
  Ti  Ti15  1  0.997151  0.656596  0.721317  1
  Ti  Ti16  1  0.346049  0.001625  0.778520  1
  Ti  Ti17  1  0.656596  0.997151  0.278683  1
  Ti  Ti18  1  0.829855  0.829855  0.500000  1
  Si  Si19  1  0.050147  0.298588  0.817019  1
  Si  Si20  1  0.196432  0.536673  0.059784  1
  Si  Si21  1  0.803728  0.456733  0.562486  1
  Si  Si22  1  0.536673  0.196432  0.940216  1
  Si  Si23  1  0.456733  0.803728  0.437514  1
  Si  Si24  1  0.952925  0.700125  0.314705  1
  Si  Si25  1  0.298588  0.050147  0.182981  1
  Si  Si26  1  0.700125  0.952925  0.685295  1
  Si  Si27  1  0.292063  0.358960  0.672177  1
  Si  Si28  1  0.140575  0.794929  0.921820  1
  Si  Si29  1  0.858463  0.205760  0.423084  1
  Si  Si30  1  0.794929  0.140575  0.078180  1
  Si  Si31  1  0.205760  0.858463  0.576916  1
  Si  Si32  1  0.708242  0.642540  0.172789  1
  Si  Si33  1  0.358960  0.292063  0.327823  1
  Si  Si34  1  0.642540  0.708242  0.827211  1
  Ru  Ru35  1  0.172277  0.172277  0.000000  1
