# generated using pymatgen
data_Er12InFe2AgOs
_symmetry_space_group_name_H-M   'P 1'
_cell_length_a   8.26641041
_cell_length_b   8.26629998
_cell_length_c   8.26640865
_cell_angle_alpha   107.14661989
_cell_angle_beta   110.15528688
_cell_angle_gamma   111.13858856
_symmetry_Int_Tables_number   1
_chemical_formula_structural   Er12InFe2AgOs
_chemical_formula_sum   'Er12 In1 Fe2 Ag1 Os1'
_cell_volume   434.26318047
_cell_formula_units_Z   1
loop_
 _symmetry_equiv_pos_site_id
 _symmetry_equiv_pos_as_xyz
  1  'x, y, z'
loop_
 _atom_site_type_symbol
 _atom_site_label
 _atom_site_symmetry_multiplicity
 _atom_site_fract_x
 _atom_site_fract_y
 _atom_site_fract_z
 _atom_site_occupancy
  Er  Er0  1  0.308247  0.310234  0.618474  1
  Er  Er1  1  0.691753  0.689766  0.381526  1
  Er  Er2  1  0.308241  0.689766  0.998012  1
  Er  Er3  1  0.691759  0.310234  0.001988  1
  Er  Er4  1  0.440221  0.192729  0.247497  1
  Er  Er5  1  0.559779  0.807271  0.752503  1
  Er  Er6  1  0.945231  0.192729  0.752508  1
  Er  Er7  1  0.191646  0.958685  0.767040  1
  Er  Er8  1  0.054769  0.807271  0.247492  1
  Er  Er9  1  0.808354  0.041315  0.232960  1
  Er  Er10  1  0.191650  0.424609  0.232960  1
  Er  Er11  1  0.808350  0.575391  0.767040  1
  In  In12  1  0.000000  0.500000  0.500000  1
  Fe  Fe13  1  0.383628  0.383631  0.000003  1
  Fe  Fe14  1  0.616372  0.616369  0.999997  1
  Ag  Ag15  1  0.500000  0.000000  0.500000  1
  Os  Os16  1  0.000000  0.000000  0.000000  1
