# generated using pymatgen
data_Tb15Er(InRh)4
_symmetry_space_group_name_H-M   'P 1'
_cell_length_a   9.70450502
_cell_length_b   9.68548555
_cell_length_c   9.70450561
_cell_angle_alpha   60.06481242
_cell_angle_beta   60.01216306
_cell_angle_gamma   60.06481759
_symmetry_Int_Tables_number   1
_chemical_formula_structural   Tb15Er(InRh)4
_chemical_formula_sum   'Tb15 Er1 In4 Rh4'
_cell_volume   645.68093399
_cell_formula_units_Z   1
loop_
 _symmetry_equiv_pos_site_id
 _symmetry_equiv_pos_as_xyz
  1  'x, y, z'
loop_
 _atom_site_type_symbol
 _atom_site_label
 _atom_site_symmetry_multiplicity
 _atom_site_fract_x
 _atom_site_fract_y
 _atom_site_fract_z
 _atom_site_occupancy
  Tb  Tb0  1  0.189948  0.188426  0.811825  1
  Tb  Tb1  1  0.437115  0.061943  0.061623  1
  Tb  Tb2  1  0.437182  0.062818  0.437182  1
  Tb  Tb3  1  0.060879  0.439121  0.060879  1
  Tb  Tb4  1  0.650281  0.047208  0.650281  1
  Tb  Tb5  1  0.189948  0.809801  0.811825  1
  Tb  Tb6  1  0.061623  0.061943  0.437115  1
  Tb  Tb7  1  0.811825  0.188426  0.189948  1
  Tb  Tb8  1  0.811825  0.809801  0.189948  1
  Tb  Tb9  1  0.647991  0.650723  0.050563  1
  Tb  Tb10  1  0.650281  0.652230  0.650281  1
  Tb  Tb11  1  0.061623  0.439319  0.437115  1
  Tb  Tb12  1  0.050563  0.650723  0.647991  1
  Tb  Tb13  1  0.810538  0.189462  0.810538  1
  Tb  Tb14  1  0.437115  0.439319  0.061623  1
  Er  Er15  1  0.189457  0.810543  0.189457  1
  In  In16  1  0.417452  0.748015  0.417452  1
  In  In17  1  0.417778  0.417255  0.747711  1
  In  In18  1  0.747711  0.417255  0.417778  1
  In  In19  1  0.417452  0.417082  0.417452  1
  Rh  Rh20  1  0.857845  0.427247  0.857845  1
  Rh  Rh21  1  0.859804  0.857139  0.425918  1
  Rh  Rh22  1  0.425918  0.857139  0.859804  1
  Rh  Rh23  1  0.857845  0.857064  0.857845  1
