# generated using pymatgen
data_Tb5Dy3(TmIr2)2
_symmetry_space_group_name_H-M   'P 1'
_cell_length_a   6.49311139
_cell_length_b   7.20405343
_cell_length_c   8.53487692
_cell_angle_alpha   96.52459938
_cell_angle_beta   112.38191354
_cell_angle_gamma   90.01855195
_symmetry_Int_Tables_number   1
_chemical_formula_structural   Tb5Dy3(TmIr2)2
_chemical_formula_sum   'Tb5 Dy3 Tm2 Ir4'
_cell_volume   366.35370799
_cell_formula_units_Z   1
loop_
 _symmetry_equiv_pos_site_id
 _symmetry_equiv_pos_as_xyz
  1  'x, y, z'
loop_
 _atom_site_type_symbol
 _atom_site_label
 _atom_site_symmetry_multiplicity
 _atom_site_fract_x
 _atom_site_fract_y
 _atom_site_fract_z
 _atom_site_occupancy
  Tb  Tb0  1  0.971030  0.918831  0.181801  1
  Tb  Tb1  1  0.789057  0.581185  0.818131  1
  Tb  Tb2  1  0.029094  0.081339  0.818200  1
  Tb  Tb3  1  0.210850  0.418687  0.181890  1
  Tb  Tb4  1  0.652963  0.816634  0.439973  1
  Dy  Dy5  1  0.213090  0.683206  0.560290  1
  Dy  Dy6  1  0.347130  0.183417  0.560291  1
  Dy  Dy7  1  0.786970  0.316711  0.439761  1
  Tm  Tm8  1  0.429386  0.750001  0.999828  1
  Tm  Tm9  1  0.570543  0.249946  0.999985  1
  Ir  Ir10  1  0.821415  0.572179  0.217228  1
  Ir  Ir11  1  0.603823  0.927685  0.782836  1
  Ir  Ir12  1  0.178683  0.427616  0.782549  1
  Ir  Ir13  1  0.395966  0.072563  0.217236  1
