# generated using pymatgen
data_Gd12ZnInCo4
_symmetry_space_group_name_H-M   'P 1'
_cell_length_a   8.49199179
_cell_length_b   8.49199127
_cell_length_c   8.49199200
_cell_angle_alpha   111.52340129
_cell_angle_beta   110.23209980
_cell_angle_gamma   106.69607628
_symmetry_Int_Tables_number   1
_chemical_formula_structural   Gd12ZnInCo4
_chemical_formula_sum   'Gd12 Zn1 In1 Co4'
_cell_volume   470.53131584
_cell_formula_units_Z   1
loop_
 _symmetry_equiv_pos_site_id
 _symmetry_equiv_pos_as_xyz
  1  'x, y, z'
loop_
 _atom_site_type_symbol
 _atom_site_label
 _atom_site_symmetry_multiplicity
 _atom_site_fract_x
 _atom_site_fract_y
 _atom_site_fract_z
 _atom_site_occupancy
  Gd  Gd0  1  0.325361  0.641160  0.315799  1
  Gd  Gd1  1  0.674639  0.358840  0.684201  1
  Gd  Gd2  1  0.325361  0.009561  0.684201  1
  Gd  Gd3  1  0.674639  0.990439  0.315799  1
  Gd  Gd4  1  0.180614  0.285594  0.466207  1
  Gd  Gd5  1  0.819386  0.714406  0.533793  1
  Gd  Gd6  1  0.180614  0.714406  0.895019  1
  Gd  Gd7  1  0.819386  0.285594  0.104981  1
  Gd  Gd8  1  0.426065  0.229144  0.196921  1
  Gd  Gd9  1  0.573935  0.770856  0.803079  1
  Gd  Gd10  1  0.032225  0.229144  0.803079  1
  Gd  Gd11  1  0.967775  0.770856  0.196921  1
  Zn  Zn12  1  0.000000  0.000000  0.000000  1
  In  In13  1  0.500000  0.500000  0.000000  1
  Co  Co14  1  0.113182  0.613182  0.500000  1
  Co  Co15  1  0.886818  0.386818  0.500000  1
  Co  Co16  1  0.339006  0.000000  0.339006  1
  Co  Co17  1  0.660994  0.000000  0.660994  1
