# generated using pymatgen
data_NdDyPa2(Al8Pt3)3
_symmetry_space_group_name_H-M   'P 1'
_cell_length_a   7.58269512
_cell_length_b   7.58953906
_cell_length_c   13.14382601
_cell_angle_alpha   84.48374860
_cell_angle_beta   78.91489483
_cell_angle_gamma   59.91049301
_symmetry_Int_Tables_number   1
_chemical_formula_structural   NdDyPa2(Al8Pt3)3
_chemical_formula_sum   'Nd1 Dy1 Pa2 Al24 Pt9'
_cell_volume   642.27302658
_cell_formula_units_Z   1
loop_
 _symmetry_equiv_pos_site_id
 _symmetry_equiv_pos_as_xyz
  1  'x, y, z'
loop_
 _atom_site_type_symbol
 _atom_site_label
 _atom_site_symmetry_multiplicity
 _atom_site_fract_x
 _atom_site_fract_y
 _atom_site_fract_z
 _atom_site_occupancy
  Nd  Nd0  1  0.733220  0.498338  0.809689  1
  Dy  Dy1  1  0.265999  0.501373  0.192231  1
  Pa  Pa2  1  0.395642  0.167945  0.803979  1
  Pa  Pa3  1  0.604158  0.832250  0.196036  1
  Al  Al4  1  0.683345  0.835607  0.946459  1
  Al  Al5  1  0.316197  0.166124  0.055488  1
  Al  Al6  1  0.145742  0.832787  0.560584  1
  Al  Al7  1  0.854629  0.166908  0.438545  1
  Al  Al8  1  0.480794  0.167817  0.557326  1
  Al  Al9  1  0.519299  0.832332  0.441884  1
  Al  Al10  1  0.214224  0.168307  0.331161  1
  Al  Al11  1  0.786638  0.832088  0.667040  1
  Al  Al12  1  0.437477  0.509581  0.668015  1
  Al  Al13  1  0.562414  0.490491  0.330321  1
  Al  Al14  1  0.108842  0.158910  0.666145  1
  Al  Al15  1  0.892404  0.840394  0.332067  1
  Al  Al16  1  0.350963  0.499332  0.944945  1
  Al  Al17  1  0.645979  0.501011  0.058232  1
  Al  Al18  1  0.016777  0.166357  0.954050  1
  Al  Al19  1  0.983780  0.832211  0.048236  1
  Al  Al20  1  0.185935  0.500317  0.440885  1
  Al  Al21  1  0.814659  0.499614  0.558053  1
  Al  Al22  1  0.736706  0.161655  0.183036  1
  Al  Al23  1  0.261261  0.840283  0.817040  1
  Al  Al24  1  0.064863  0.630740  0.815788  1
  Al  Al25  1  0.937645  0.369014  0.184180  1
  Al  Al26  1  0.854640  0.037716  0.816766  1
  Al  Al27  1  0.145158  0.959952  0.183228  1
  Pt  Pt28  1  0.121731  0.491079  0.638863  1
  Pt  Pt29  1  0.879346  0.509329  0.360004  1
  Pt  Pt30  1  0.656771  0.172568  0.000642  1
  Pt  Pt31  1  0.342507  0.827626  0.000522  1
  Pt  Pt32  1  0.537526  0.166001  0.360234  1
  Pt  Pt33  1  0.462009  0.834635  0.638733  1
  Pt  Pt34  1  0.778345  0.174201  0.637735  1
  Pt  Pt35  1  0.222481  0.824666  0.361149  1
  Pt  Pt36  1  0.999894  0.500442  0.000711  1
