# generated using pymatgen
data_Li2MgSiS4
_symmetry_space_group_name_H-M   'P 1'
_cell_length_a   6.29119800
_cell_length_b   6.82653900
_cell_length_c   7.62181300
_cell_angle_alpha   90.00000000
_cell_angle_beta   90.00000000
_cell_angle_gamma   90.00000000
_symmetry_Int_Tables_number   1
_chemical_formula_structural   Li2MgSiS4
_chemical_formula_sum   'Li4 Mg2 Si2 S8'
_cell_volume   327.33482991
_cell_formula_units_Z   2
loop_
 _symmetry_equiv_pos_site_id
 _symmetry_equiv_pos_as_xyz
  1  'x, y, z'
loop_
 _atom_site_type_symbol
 _atom_site_label
 _atom_site_symmetry_multiplicity
 _atom_site_fract_x
 _atom_site_fract_y
 _atom_site_fract_z
 _atom_site_occupancy
  Li  Li0  1  0.625990  0.670287  0.254496  1
  Li  Li1  1  0.625990  0.670287  0.745504  1
  Li  Li2  1  0.125990  0.329713  0.245504  1
  Li  Li3  1  0.125990  0.329713  0.754496  1
  Mg  Mg4  1  0.128537  0.855277  0.500000  1
  Mg  Mg5  1  0.628537  0.144723  0.000000  1
  Si  Si6  1  0.124105  0.828267  0.000000  1
  Si  Si7  1  0.624105  0.171733  0.500000  1
  S  S8  1  0.733781  0.874554  0.500000  1
  S  S9  1  0.233781  0.125446  0.000000  1
  S  S10  1  0.238265  0.675529  0.228206  1
  S  S11  1  0.238265  0.675529  0.771794  1
  S  S12  1  0.738265  0.324471  0.271794  1
  S  S13  1  0.738265  0.324471  0.728206  1
  S  S14  1  0.783937  0.816035  0.000000  1
  S  S15  1  0.283937  0.183965  0.500000  1
