# generated using pymatgen
data_Nd16TcHg4Pd3
_symmetry_space_group_name_H-M   'P 1'
_cell_length_a   10.03608884
_cell_length_b   10.03608936
_cell_length_c   10.03609003
_cell_angle_alpha   59.23801433
_cell_angle_beta   59.23801281
_cell_angle_gamma   59.23801391
_symmetry_Int_Tables_number   1
_chemical_formula_structural   Nd16TcHg4Pd3
_chemical_formula_sum   'Nd16 Tc1 Hg4 Pd3'
_cell_volume   702.38361773
_cell_formula_units_Z   1
loop_
 _symmetry_equiv_pos_site_id
 _symmetry_equiv_pos_as_xyz
  1  'x, y, z'
loop_
 _atom_site_type_symbol
 _atom_site_label
 _atom_site_symmetry_multiplicity
 _atom_site_fract_x
 _atom_site_fract_y
 _atom_site_fract_z
 _atom_site_occupancy
  Nd  Nd0  1  0.354584  0.354584  0.354584  1
  Nd  Nd1  1  0.349851  0.349851  0.946448  1
  Nd  Nd2  1  0.349851  0.946448  0.349851  1
  Nd  Nd3  1  0.946448  0.349851  0.349851  1
  Nd  Nd4  1  0.816704  0.188643  0.188643  1
  Nd  Nd5  1  0.188881  0.807127  0.807127  1
  Nd  Nd6  1  0.188643  0.816704  0.188643  1
  Nd  Nd7  1  0.807127  0.188881  0.807127  1
  Nd  Nd8  1  0.188643  0.188643  0.816704  1
  Nd  Nd9  1  0.807127  0.807127  0.188881  1
  Nd  Nd10  1  0.935670  0.564580  0.564580  1
  Nd  Nd11  1  0.556627  0.938201  0.938201  1
  Nd  Nd12  1  0.564580  0.935670  0.564580  1
  Nd  Nd13  1  0.938201  0.556627  0.938201  1
  Nd  Nd14  1  0.564580  0.564580  0.935670  1
  Nd  Nd15  1  0.938201  0.938201  0.556627  1
  Tc  Tc16  1  0.142748  0.142748  0.142748  1
  Hg  Hg17  1  0.583944  0.583944  0.583944  1
  Hg  Hg18  1  0.585126  0.585126  0.243612  1
  Hg  Hg19  1  0.585126  0.243612  0.585126  1
  Hg  Hg20  1  0.243612  0.585126  0.585126  1
  Pd  Pd21  1  0.146524  0.146524  0.570679  1
  Pd  Pd22  1  0.146524  0.570679  0.146524  1
  Pd  Pd23  1  0.570679  0.146524  0.146524  1
