# generated using pymatgen
data_NdY11ZnGaCo4
_symmetry_space_group_name_H-M   'P 1'
_cell_length_a   8.35455801
_cell_length_b   8.35455546
_cell_length_c   8.30490100
_cell_angle_alpha   107.02285413
_cell_angle_beta   109.36790878
_cell_angle_gamma   112.29191311
_symmetry_Int_Tables_number   1
_chemical_formula_structural   NdY11ZnGaCo4
_chemical_formula_sum   'Nd1 Y11 Zn1 Ga1 Co4'
_cell_volume   444.03397263
_cell_formula_units_Z   1
loop_
 _symmetry_equiv_pos_site_id
 _symmetry_equiv_pos_as_xyz
  1  'x, y, z'
loop_
 _atom_site_type_symbol
 _atom_site_label
 _atom_site_symmetry_multiplicity
 _atom_site_fract_x
 _atom_site_fract_y
 _atom_site_fract_z
 _atom_site_occupancy
  Nd  Nd0  1  0.694921  0.265721  0.960643  1
  Y  Y1  1  0.302256  0.736265  0.038520  1
  Y  Y2  1  0.696421  0.737775  0.434195  1
  Y  Y3  1  0.302237  0.263065  0.565301  1
  Y  Y4  1  0.811425  0.135517  0.327750  1
  Y  Y5  1  0.809722  0.483601  0.670471  1
  Y  Y6  1  0.186869  0.860750  0.670472  1
  Y  Y7  1  0.192233  0.516325  0.327750  1
  Y  Y8  1  0.601872  0.780438  0.821336  1
  Y  Y9  1  0.962208  0.781774  0.180429  1
  Y  Y10  1  0.040897  0.219464  0.821336  1
  Y  Y11  1  0.398655  0.218221  0.180429  1
  Zn  Zn12  1  0.496305  0.505207  0.001512  1
  Ga  Ga13  1  0.496778  0.997767  0.494544  1
  Co  Co14  1  0.839873  0.500306  0.340180  1
  Co  Co15  1  0.160030  0.499584  0.659614  1
  Co  Co16  1  0.010040  0.112507  0.122547  1
  Co  Co17  1  0.997259  0.885713  0.882973  1
