# generated using pymatgen
data_Cs(RhSe2)4
_symmetry_space_group_name_H-M   'P 1'
_cell_length_a   3.82966211
_cell_length_b   8.46681520
_cell_length_c   9.54836262
_cell_angle_alpha   80.72690148
_cell_angle_beta   78.43143150
_cell_angle_gamma   76.92906423
_symmetry_Int_Tables_number   1
_chemical_formula_structural   Cs(RhSe2)4
_chemical_formula_sum   'Cs1 Rh4 Se8'
_cell_volume   293.27502562
_cell_formula_units_Z   1
loop_
 _symmetry_equiv_pos_site_id
 _symmetry_equiv_pos_as_xyz
  1  'x, y, z'
loop_
 _atom_site_type_symbol
 _atom_site_label
 _atom_site_symmetry_multiplicity
 _atom_site_fract_x
 _atom_site_fract_y
 _atom_site_fract_z
 _atom_site_occupancy
  Cs  Cs0  1  0.499869  0.999930  0.000331  1
  Rh  Rh1  1  0.634429  0.196777  0.534366  1
  Rh  Rh2  1  0.840392  0.499813  0.819400  1
  Rh  Rh3  1  0.159710  0.499955  0.180625  1
  Rh  Rh4  1  0.365525  0.803429  0.465521  1
  Se  Se5  1  0.456547  0.329587  0.757319  1
  Se  Se6  1  0.543569  0.670134  0.242728  1
  Se  Se7  1  0.897305  0.635402  0.569987  1
  Se  Se8  1  0.102472  0.365003  0.430053  1
  Se  Se9  1  0.215674  0.647937  0.920715  1
  Se  Se10  1  0.784463  0.351781  0.079294  1
  Se  Se11  1  0.827413  0.987445  0.357730  1
  Se  Se12  1  0.172632  0.012806  0.641930  1
