# generated using pymatgen
data_ThNp7IrS17
_symmetry_space_group_name_H-M   'P 1'
_cell_length_a   7.81651124
_cell_length_b   7.82132548
_cell_length_c   10.37815200
_cell_angle_alpha   80.42343705
_cell_angle_beta   80.48968023
_cell_angle_gamma   65.25190361
_symmetry_Int_Tables_number   1
_chemical_formula_structural   ThNp7IrS17
_chemical_formula_sum   'Th1 Np7 Ir1 S17'
_cell_volume   564.92599466
_cell_formula_units_Z   1
loop_
 _symmetry_equiv_pos_site_id
 _symmetry_equiv_pos_as_xyz
  1  'x, y, z'
loop_
 _atom_site_type_symbol
 _atom_site_label
 _atom_site_symmetry_multiplicity
 _atom_site_fract_x
 _atom_site_fract_y
 _atom_site_fract_z
 _atom_site_occupancy
  Th  Th0  1  0.322163  0.322196  0.023702  1
  Np  Np1  1  0.818081  0.302974  0.300913  1
  Np  Np2  1  0.699946  0.180200  0.698727  1
  Np  Np3  1  0.180311  0.699937  0.698840  1
  Np  Np4  1  0.302618  0.817471  0.301134  1
  Np  Np5  1  0.205958  0.206065  0.546365  1
  Np  Np6  1  0.793867  0.793352  0.453621  1
  Np  Np7  1  0.675977  0.676592  0.979643  1
  Ir  Ir8  1  0.999798  0.999742  0.998967  1
  S  S9  1  0.824123  0.430267  0.534628  1
  S  S10  1  0.569368  0.175095  0.464793  1
  S  S11  1  0.174842  0.570020  0.465412  1
  S  S12  1  0.430315  0.824444  0.534927  1
  S  S13  1  0.946636  0.318551  0.029897  1
  S  S14  1  0.684829  0.047210  0.969907  1
  S  S15  1  0.047486  0.684479  0.970315  1
  S  S16  1  0.319096  0.945556  0.028815  1
  S  S17  1  0.208840  0.209042  0.284799  1
  S  S18  1  0.789775  0.789436  0.717859  1
  S  S19  1  0.054179  0.053874  0.769882  1
  S  S20  1  0.947292  0.947568  0.228681  1
  S  S21  1  0.302330  0.302545  0.752963  1
  S  S22  1  0.700246  0.699874  0.242719  1
  S  S23  1  0.521587  0.522156  0.827374  1
  S  S24  1  0.480966  0.481884  0.175381  1
  S  S25  1  0.999370  0.999471  0.499735  1
