# generated using pymatgen
data_YbThBr6
_symmetry_space_group_name_H-M   'P 1'
_cell_length_a   8.20016646
_cell_length_b   8.20016621
_cell_length_c   8.20016595
_cell_angle_alpha   54.08832342
_cell_angle_beta   54.08832908
_cell_angle_gamma   54.08833389
_symmetry_Int_Tables_number   1
_chemical_formula_structural   YbThBr6
_chemical_formula_sum   'Yb1 Th1 Br6'
_cell_volume   336.07915473
_cell_formula_units_Z   1
loop_
 _symmetry_equiv_pos_site_id
 _symmetry_equiv_pos_as_xyz
  1  'x, y, z'
loop_
 _atom_site_type_symbol
 _atom_site_label
 _atom_site_symmetry_multiplicity
 _atom_site_fract_x
 _atom_site_fract_y
 _atom_site_fract_z
 _atom_site_occupancy
  Yb  Yb0  1  0.167962  0.167962  0.167962  1
  Th  Th1  1  0.832534  0.832534  0.832534  1
  Br  Br2  1  0.936198  0.211998  0.583623  1
  Br  Br3  1  0.583623  0.936198  0.211998  1
  Br  Br4  1  0.211998  0.583623  0.936198  1
  Br  Br5  1  0.783617  0.426083  0.057986  1
  Br  Br6  1  0.426083  0.057986  0.783617  1
  Br  Br7  1  0.057986  0.783617  0.426083  1
