# generated using pymatgen
data_Cs8EuCuI12
_symmetry_space_group_name_H-M   'P 1'
_cell_length_a   10.62771962
_cell_length_b   10.62772033
_cell_length_c   10.62772100
_cell_angle_alpha   89.26703514
_cell_angle_beta   89.26702970
_cell_angle_gamma   89.26703416
_symmetry_Int_Tables_number   1
_chemical_formula_structural   Cs8EuCuI12
_chemical_formula_sum   'Cs8 Eu1 Cu1 I12'
_cell_volume   1200.09224517
_cell_formula_units_Z   1
loop_
 _symmetry_equiv_pos_site_id
 _symmetry_equiv_pos_as_xyz
  1  'x, y, z'
loop_
 _atom_site_type_symbol
 _atom_site_label
 _atom_site_symmetry_multiplicity
 _atom_site_fract_x
 _atom_site_fract_y
 _atom_site_fract_z
 _atom_site_occupancy
  Cs  Cs0  1  0.244205  0.244205  0.244205  1
  Cs  Cs1  1  0.755795  0.755795  0.755795  1
  Cs  Cs2  1  0.875125  0.634851  0.241857  1
  Cs  Cs3  1  0.634851  0.241857  0.875125  1
  Cs  Cs4  1  0.241857  0.875125  0.634851  1
  Cs  Cs5  1  0.124875  0.365149  0.758143  1
  Cs  Cs6  1  0.365149  0.758143  0.124875  1
  Cs  Cs7  1  0.758143  0.124875  0.365149  1
  Eu  Eu8  1  0.500000  0.500000  0.500000  1
  Cu  Cu9  1  0.000000  0.000000  0.000000  1
  I  I10  1  0.208909  0.558458  0.431658  1
  I  I11  1  0.057921  0.730652  0.935915  1
  I  I12  1  0.935915  0.057921  0.730652  1
  I  I13  1  0.791091  0.441542  0.568342  1
  I  I14  1  0.730652  0.935915  0.057921  1
  I  I15  1  0.441542  0.568342  0.791091  1
  I  I16  1  0.568342  0.791091  0.441542  1
  I  I17  1  0.558458  0.431658  0.208909  1
  I  I18  1  0.064085  0.942079  0.269348  1
  I  I19  1  0.942079  0.269348  0.064085  1
  I  I20  1  0.269348  0.064085  0.942079  1
  I  I21  1  0.431658  0.208909  0.558458  1
