# generated using pymatgen
data_TbDy4Ho15(CoSb2)4
_symmetry_space_group_name_H-M   'P 1'
_cell_length_a   7.87986155
_cell_length_b   8.74419097
_cell_length_c   12.15892200
_cell_angle_alpha   90.01887305
_cell_angle_beta   89.97929323
_cell_angle_gamma   90.02143364
_symmetry_Int_Tables_number   1
_chemical_formula_structural   TbDy4Ho15(CoSb2)4
_chemical_formula_sum   'Tb1 Dy4 Ho15 Co4 Sb8'
_cell_volume   837.78621720
_cell_formula_units_Z   1
loop_
 _symmetry_equiv_pos_site_id
 _symmetry_equiv_pos_as_xyz
  1  'x, y, z'
loop_
 _atom_site_type_symbol
 _atom_site_label
 _atom_site_symmetry_multiplicity
 _atom_site_fract_x
 _atom_site_fract_y
 _atom_site_fract_z
 _atom_site_occupancy
  Tb  Tb0  1  0.320746  0.464620  0.435016  1
  Dy  Dy1  1  0.622080  0.750399  0.306267  1
  Dy  Dy2  1  0.121582  0.250188  0.193231  1
  Dy  Dy3  1  0.378918  0.249522  0.693702  1
  Dy  Dy4  1  0.878378  0.749966  0.806628  1
  Ho  Ho5  1  0.154963  0.750018  0.202849  1
  Ho  Ho6  1  0.655326  0.249738  0.296841  1
  Ho  Ho7  1  0.844971  0.250011  0.796994  1
  Ho  Ho8  1  0.344801  0.750182  0.703193  1
  Ho  Ho9  1  0.453037  0.750039  0.998001  1
  Ho  Ho10  1  0.952353  0.249750  0.501978  1
  Ho  Ho11  1  0.546973  0.249954  0.001903  1
  Ho  Ho12  1  0.045837  0.750375  0.498132  1
  Ho  Ho13  1  0.822451  0.964503  0.065051  1
  Ho  Ho14  1  0.322337  0.035414  0.435076  1
  Ho  Ho15  1  0.177644  0.464423  0.934915  1
  Ho  Ho16  1  0.677989  0.535754  0.565270  1
  Ho  Ho17  1  0.177616  0.035568  0.934887  1
  Ho  Ho18  1  0.677769  0.963993  0.565291  1
  Ho  Ho19  1  0.822378  0.535480  0.064980  1
  Co  Co20  1  0.434572  0.750333  0.490526  1
  Co  Co21  1  0.934117  0.249993  0.009398  1
  Co  Co22  1  0.567329  0.249343  0.509823  1
  Co  Co23  1  0.065855  0.750016  0.990554  1
  Sb  Sb24  1  0.928973  0.991687  0.327124  1
  Sb  Sb25  1  0.428724  0.008496  0.172740  1
  Sb  Sb26  1  0.071517  0.491531  0.672688  1
  Sb  Sb27  1  0.571216  0.508487  0.827264  1
  Sb  Sb28  1  0.071288  0.008499  0.672778  1
  Sb  Sb29  1  0.571411  0.991466  0.827410  1
  Sb  Sb30  1  0.927814  0.508598  0.326999  1
  Sb  Sb31  1  0.429035  0.491653  0.172490  1
