# generated using pymatgen
data_DyThSbAsSe2
_symmetry_space_group_name_H-M   'P 1'
_cell_length_a   4.10978700
_cell_length_b   4.13660000
_cell_length_c   8.75678600
_cell_angle_alpha   90.00000000
_cell_angle_beta   90.00000000
_cell_angle_gamma   90.00000000
_symmetry_Int_Tables_number   1
_chemical_formula_structural   DyThSbAsSe2
_chemical_formula_sum   'Dy1 Th1 Sb1 As1 Se2'
_cell_volume   148.87013361
_cell_formula_units_Z   1
loop_
 _symmetry_equiv_pos_site_id
 _symmetry_equiv_pos_as_xyz
  1  'x, y, z'
loop_
 _atom_site_type_symbol
 _atom_site_label
 _atom_site_symmetry_multiplicity
 _atom_site_fract_x
 _atom_site_fract_y
 _atom_site_fract_z
 _atom_site_occupancy
  Dy  Dy0  1  0.000000  0.500000  0.718671  1
  Th  Th1  1  0.500000  0.000000  0.282132  1
  Sb  Sb2  1  0.500000  0.500000  0.995803  1
  As  As3  1  0.000000  0.000000  0.999958  1
  Se  Se4  1  0.000000  0.500000  0.372676  1
  Se  Se5  1  0.500000  0.000000  0.630758  1
