# generated using pymatgen
data_Ba3Tb4Pr(Si3Pd)4
_symmetry_space_group_name_H-M   'P 1'
_cell_length_a   8.34727300
_cell_length_b   8.34727371
_cell_length_c   8.72698100
_cell_angle_alpha   90.00000000
_cell_angle_beta   90.00000000
_cell_angle_gamma   120.00000115
_symmetry_Int_Tables_number   1
_chemical_formula_structural   Ba3Tb4Pr(Si3Pd)4
_chemical_formula_sum   'Ba3 Tb4 Pr1 Si12 Pd4'
_cell_volume   526.60372750
_cell_formula_units_Z   1
loop_
 _symmetry_equiv_pos_site_id
 _symmetry_equiv_pos_as_xyz
  1  'x, y, z'
loop_
 _atom_site_type_symbol
 _atom_site_label
 _atom_site_symmetry_multiplicity
 _atom_site_fract_x
 _atom_site_fract_y
 _atom_site_fract_z
 _atom_site_occupancy
  Ba  Ba0  1  0.500488  0.499512  0.250000  1
  Ba  Ba1  1  0.999025  0.499512  0.250000  1
  Ba  Ba2  1  0.500488  0.000975  0.250000  1
  Tb  Tb3  1  0.499762  0.500238  0.750000  1
  Tb  Tb4  1  0.000475  0.500238  0.750000  1
  Tb  Tb5  1  0.499762  0.999525  0.750000  1
  Tb  Tb6  1  0.000000  0.000000  0.750000  1
  Pr  Pr7  1  0.000000  0.000000  0.250000  1
  Si  Si8  1  0.836914  0.163086  0.977222  1
  Si  Si9  1  0.163063  0.836937  0.977037  1
  Si  Si10  1  0.326172  0.163086  0.977222  1
  Si  Si11  1  0.163063  0.836937  0.522963  1
  Si  Si12  1  0.673872  0.836937  0.977037  1
  Si  Si13  1  0.836914  0.163086  0.522778  1
  Si  Si14  1  0.836914  0.673828  0.977222  1
  Si  Si15  1  0.673872  0.836937  0.522963  1
  Si  Si16  1  0.163063  0.326128  0.977037  1
  Si  Si17  1  0.326172  0.163086  0.522778  1
  Si  Si18  1  0.163063  0.326128  0.522963  1
  Si  Si19  1  0.836914  0.673828  0.522778  1
  Pd  Pd20  1  0.666667  0.333333  0.958789  1
  Pd  Pd21  1  0.333333  0.666667  0.960476  1
  Pd  Pd22  1  0.333333  0.666667  0.539524  1
  Pd  Pd23  1  0.666667  0.333333  0.541211  1
