# generated using pymatgen
data_LiLuB4Ru5
_symmetry_space_group_name_H-M   'P 1'
_cell_length_a   3.00121900
_cell_length_b   8.38979057
_cell_length_c   10.10147313
_cell_angle_alpha   91.51395580
_cell_angle_beta   90.00000000
_cell_angle_gamma   90.00000000
_symmetry_Int_Tables_number   1
_chemical_formula_structural   LiLuB4Ru5
_chemical_formula_sum   'Li2 Lu2 B8 Ru10'
_cell_volume   254.26225233
_cell_formula_units_Z   2
loop_
 _symmetry_equiv_pos_site_id
 _symmetry_equiv_pos_as_xyz
  1  'x, y, z'
loop_
 _atom_site_type_symbol
 _atom_site_label
 _atom_site_symmetry_multiplicity
 _atom_site_fract_x
 _atom_site_fract_y
 _atom_site_fract_z
 _atom_site_occupancy
  Li  Li0  1  0.500000  0.149716  0.677042  1
  Li  Li1  1  0.500000  0.850284  0.322958  1
  Lu  Lu2  1  0.500000  0.654460  0.812345  1
  Lu  Lu3  1  0.500000  0.345540  0.187655  1
  B  B4  1  0.500000  0.857364  0.598767  1
  B  B5  1  0.500000  0.142636  0.401233  1
  B  B6  1  0.500000  0.345841  0.894493  1
  B  B7  1  0.500000  0.654159  0.105507  1
  B  B8  1  0.500000  0.966094  0.908965  1
  B  B9  1  0.500000  0.033906  0.091035  1
  B  B10  1  0.500000  0.457894  0.589608  1
  B  B11  1  0.500000  0.542106  0.410392  1
  Ru  Ru12  1  0.000000  0.382560  0.736281  1
  Ru  Ru13  1  0.000000  0.617440  0.263719  1
  Ru  Ru14  1  0.000000  0.916365  0.756804  1
  Ru  Ru15  1  0.000000  0.083635  0.243196  1
  Ru  Ru16  1  0.000000  0.000000  0.500000  1
  Ru  Ru17  1  0.000000  0.500000  0.000000  1
  Ru  Ru18  1  0.000000  0.657157  0.550246  1
  Ru  Ru19  1  0.000000  0.342843  0.449754  1
  Ru  Ru20  1  0.000000  0.157699  0.959211  1
  Ru  Ru21  1  0.000000  0.842301  0.040789  1
