# generated using pymatgen
data_Na3Ca2PuO6
_symmetry_space_group_name_H-M   'P 1'
_cell_length_a   5.94366065
_cell_length_b   5.94365895
_cell_length_c   10.65402500
_cell_angle_alpha   100.49819791
_cell_angle_beta   100.49817526
_cell_angle_gamma   110.28074054
_symmetry_Int_Tables_number   1
_chemical_formula_structural   Na3Ca2PuO6
_chemical_formula_sum   'Na6 Ca4 Pu2 O12'
_cell_volume   334.62382138
_cell_formula_units_Z   2
loop_
 _symmetry_equiv_pos_site_id
 _symmetry_equiv_pos_as_xyz
  1  'x, y, z'
loop_
 _atom_site_type_symbol
 _atom_site_label
 _atom_site_symmetry_multiplicity
 _atom_site_fract_x
 _atom_site_fract_y
 _atom_site_fract_z
 _atom_site_occupancy
  Na  Na0  1  0.963557  0.715416  0.425440  1
  Na  Na1  1  0.284584  0.036444  0.074561  1
  Na  Na2  1  0.036443  0.284584  0.574560  1
  Na  Na3  1  0.715416  0.963556  0.925439  1
  Na  Na4  1  0.875131  0.124869  0.250000  1
  Na  Na5  1  0.124869  0.875131  0.750000  1
  Ca  Ca6  1  0.455799  0.203119  0.412491  1
  Ca  Ca7  1  0.203119  0.455800  0.912491  1
  Ca  Ca8  1  0.796881  0.544200  0.087509  1
  Ca  Ca9  1  0.544201  0.796881  0.587509  1
  Pu  Pu10  1  0.623950  0.376050  0.750000  1
  Pu  Pu11  1  0.376050  0.623950  0.250000  1
  O  O12  1  0.326775  0.063767  0.593320  1
  O  O13  1  0.936233  0.673225  0.906680  1
  O  O14  1  0.474773  0.237578  0.902660  1
  O  O15  1  0.063767  0.326775  0.093320  1
  O  O16  1  0.156880  0.843120  0.250000  1
  O  O17  1  0.237579  0.474773  0.402660  1
  O  O18  1  0.843120  0.156880  0.750000  1
  O  O19  1  0.405742  0.594258  0.750000  1
  O  O20  1  0.525227  0.762422  0.097340  1
  O  O21  1  0.673225  0.936233  0.406680  1
  O  O22  1  0.762421  0.525227  0.597340  1
  O  O23  1  0.594258  0.405742  0.250000  1
