# generated using pymatgen
data_Y8Er2Sn6C
_symmetry_space_group_name_H-M   'P 1'
_cell_length_a   8.88194300
_cell_length_b   8.88194425
_cell_length_c   6.70226900
_cell_angle_alpha   90.00000000
_cell_angle_beta   90.00000000
_cell_angle_gamma   119.99999164
_symmetry_Int_Tables_number   1
_chemical_formula_structural   Y8Er2Sn6C
_chemical_formula_sum   'Y8 Er2 Sn6 C1'
_cell_volume   457.89778980
_cell_formula_units_Z   1
loop_
 _symmetry_equiv_pos_site_id
 _symmetry_equiv_pos_as_xyz
  1  'x, y, z'
loop_
 _atom_site_type_symbol
 _atom_site_label
 _atom_site_symmetry_multiplicity
 _atom_site_fract_x
 _atom_site_fract_y
 _atom_site_fract_z
 _atom_site_occupancy
  Y  Y0  1  0.666667  0.333333  0.000000  1
  Y  Y1  1  0.333333  0.666667  0.000000  1
  Y  Y2  1  0.000000  0.770718  0.278975  1
  Y  Y3  1  0.229282  0.229282  0.278975  1
  Y  Y4  1  0.770718  0.000000  0.278975  1
  Y  Y5  1  0.000000  0.229282  0.721025  1
  Y  Y6  1  0.770718  0.770718  0.721025  1
  Y  Y7  1  0.229282  0.000000  0.721025  1
  Er  Er8  1  0.333333  0.666667  0.500000  1
  Er  Er9  1  0.666667  0.333333  0.500000  1
  Sn  Sn10  1  0.000000  0.401249  0.254698  1
  Sn  Sn11  1  0.598751  0.598751  0.254698  1
  Sn  Sn12  1  0.401249  0.000000  0.254698  1
  Sn  Sn13  1  0.000000  0.598751  0.745302  1
  Sn  Sn14  1  0.401249  0.401249  0.745302  1
  Sn  Sn15  1  0.598751  0.000000  0.745302  1
  C  C16  1  0.000000  0.000000  0.500000  1
