# generated using pymatgen
data_Ti2Nb8Ga5GeB2
_symmetry_space_group_name_H-M   'P 1'
_cell_length_a   7.80697666
_cell_length_b   7.80379854
_cell_length_c   5.32152108
_cell_angle_alpha   90.07284893
_cell_angle_beta   89.96358905
_cell_angle_gamma   119.98652958
_symmetry_Int_Tables_number   1
_chemical_formula_structural   Ti2Nb8Ga5GeB2
_chemical_formula_sum   'Ti2 Nb8 Ga5 Ge1 B2'
_cell_volume   280.81088040
_cell_formula_units_Z   1
loop_
 _symmetry_equiv_pos_site_id
 _symmetry_equiv_pos_as_xyz
  1  'x, y, z'
loop_
 _atom_site_type_symbol
 _atom_site_label
 _atom_site_symmetry_multiplicity
 _atom_site_fract_x
 _atom_site_fract_y
 _atom_site_fract_z
 _atom_site_occupancy
  Ti  Ti0  1  0.667777  0.333630  0.499564  1
  Ti  Ti1  1  0.332223  0.665853  0.499564  1
  Nb  Nb2  1  0.332784  0.665898  0.000355  1
  Nb  Nb3  1  0.667216  0.333113  0.000355  1
  Nb  Nb4  1  0.758331  0.757258  0.247981  1
  Nb  Nb5  1  0.241669  0.998927  0.247981  1
  Nb  Nb6  1  0.000000  0.242776  0.248948  1
  Nb  Nb7  1  0.239741  0.242049  0.751976  1
  Nb  Nb8  1  0.760259  0.002308  0.751976  1
  Nb  Nb9  1  0.000000  0.757208  0.751278  1
  Ga  Ga10  1  0.401256  0.400764  0.255936  1
  Ga  Ga11  1  0.598744  0.999508  0.255936  1
  Ga  Ga12  1  0.000000  0.599669  0.255879  1
  Ga  Ga13  1  0.599385  0.599281  0.744070  1
  Ga  Ga14  1  0.400615  0.999896  0.744070  1
  Ge  Ge15  1  0.000000  0.403655  0.743826  1
  B  B16  1  0.000000  0.999162  0.499260  1
  B  B17  1  0.000000  0.999043  0.001044  1
