# generated using pymatgen
data_Ho3ZnIn3Ni2
_symmetry_space_group_name_H-M   'P 1'
_cell_length_a   7.49497100
_cell_length_b   7.49497100
_cell_length_c   3.84404100
_cell_angle_alpha   90.00000000
_cell_angle_beta   90.00000000
_cell_angle_gamma   120.00000441
_symmetry_Int_Tables_number   1
_chemical_formula_structural   Ho3ZnIn3Ni2
_chemical_formula_sum   'Ho3 Zn1 In3 Ni2'
_cell_volume   187.00729022
_cell_formula_units_Z   1
loop_
 _symmetry_equiv_pos_site_id
 _symmetry_equiv_pos_as_xyz
  1  'x, y, z'
loop_
 _atom_site_type_symbol
 _atom_site_label
 _atom_site_symmetry_multiplicity
 _atom_site_fract_x
 _atom_site_fract_y
 _atom_site_fract_z
 _atom_site_occupancy
  Ho  Ho0  1  0.982464  0.584198  0.500000  1
  Ho  Ho1  1  0.415802  0.398266  0.500000  1
  Ho  Ho2  1  0.601734  0.017536  0.500000  1
  Zn  Zn3  1  0.333333  0.666667  0.000000  1
  In  In4  1  0.253826  0.001911  0.000000  1
  In  In5  1  0.748085  0.746174  0.000000  1
  In  In6  1  0.998089  0.251915  0.000000  1
  Ni  Ni7  1  0.000000  0.000000  0.500000  1
  Ni  Ni8  1  0.666667  0.333333  0.000000  1
