# generated using pymatgen
data_Ta4Si4Ni3Ru
_symmetry_space_group_name_H-M   'P 1'
_cell_length_a   3.70333400
_cell_length_b   6.29214604
_cell_length_c   7.16908726
_cell_angle_alpha   90.74460291
_cell_angle_beta   90.00000000
_cell_angle_gamma   90.00000000
_symmetry_Int_Tables_number   1
_chemical_formula_structural   Ta4Si4Ni3Ru
_chemical_formula_sum   'Ta4 Si4 Ni3 Ru1'
_cell_volume   167.03937934
_cell_formula_units_Z   1
loop_
 _symmetry_equiv_pos_site_id
 _symmetry_equiv_pos_as_xyz
  1  'x, y, z'
loop_
 _atom_site_type_symbol
 _atom_site_label
 _atom_site_symmetry_multiplicity
 _atom_site_fract_x
 _atom_site_fract_y
 _atom_site_fract_z
 _atom_site_occupancy
  Ta  Ta0  1  0.250000  0.518191  0.177123  1
  Ta  Ta1  1  0.750000  0.481675  0.827496  1
  Ta  Ta2  1  0.750000  0.976082  0.673904  1
  Ta  Ta3  1  0.250000  0.028549  0.324234  1
  Si  Si4  1  0.250000  0.779670  0.884807  1
  Si  Si5  1  0.750000  0.221192  0.119646  1
  Si  Si6  1  0.750000  0.733080  0.370747  1
  Si  Si7  1  0.250000  0.269206  0.624853  1
  Ni  Ni8  1  0.750000  0.351751  0.435773  1
  Ni  Ni9  1  0.750000  0.849494  0.065646  1
  Ni  Ni10  1  0.250000  0.149848  0.934873  1
  Ru  Ru11  1  0.250000  0.641262  0.560898  1
