# generated using pymatgen
data_Y4HfTc3F28
_symmetry_space_group_name_H-M   'P 1'
_cell_length_a   5.65429189
_cell_length_b   8.96881029
_cell_length_c   12.07881043
_cell_angle_alpha   62.54649360
_cell_angle_beta   89.97041922
_cell_angle_gamma   90.04545049
_symmetry_Int_Tables_number   1
_chemical_formula_structural   Y4HfTc3F28
_chemical_formula_sum   'Y4 Hf1 Tc3 F28'
_cell_volume   543.56198268
_cell_formula_units_Z   1
loop_
 _symmetry_equiv_pos_site_id
 _symmetry_equiv_pos_as_xyz
  1  'x, y, z'
loop_
 _atom_site_type_symbol
 _atom_site_label
 _atom_site_symmetry_multiplicity
 _atom_site_fract_x
 _atom_site_fract_y
 _atom_site_fract_z
 _atom_site_occupancy
  Y  Y0  1  0.258019  0.814276  0.263455  1
  Y  Y1  1  0.740994  0.184542  0.736072  1
  Y  Y2  1  0.758932  0.187067  0.234781  1
  Y  Y3  1  0.241662  0.813107  0.767832  1
  Hf  Hf4  1  0.743995  0.726092  0.543575  1
  Tc  Tc5  1  0.756860  0.725548  0.044296  1
  Tc  Tc6  1  0.242266  0.273189  0.956402  1
  Tc  Tc7  1  0.258206  0.273430  0.456144  1
  F  F8  1  0.958900  0.709675  0.418335  1
  F  F9  1  0.051811  0.292906  0.579583  1
  F  F10  1  0.449076  0.292346  0.079216  1
  F  F11  1  0.550171  0.706050  0.921631  1
  F  F12  1  0.480658  0.730379  0.141015  1
  F  F13  1  0.518653  0.268617  0.859212  1
  F  F14  1  0.982449  0.271199  0.358065  1
  F  F15  1  0.019734  0.732065  0.645721  1
  F  F16  1  0.958775  0.743955  0.170669  1
  F  F17  1  0.039643  0.255182  0.829499  1
  F  F18  1  0.458616  0.255727  0.328593  1
  F  F19  1  0.537729  0.748336  0.671876  1
  F  F20  1  0.767607  0.479748  0.141705  1
  F  F21  1  0.233078  0.519184  0.858982  1
  F  F22  1  0.272493  0.519494  0.358420  1
  F  F23  1  0.727688  0.475121  0.641205  1
  F  F24  1  0.955082  0.282047  0.046207  1
  F  F25  1  0.043962  0.716649  0.954521  1
  F  F26  1  0.449738  0.721290  0.451011  1
  F  F27  1  0.545775  0.278800  0.547276  1
  F  F28  1  0.741399  0.976225  0.442710  1
  F  F29  1  0.256393  0.028336  0.552584  1
  F  F30  1  0.240990  0.027919  0.051415  1
  F  F31  1  0.758478  0.970611  0.948364  1
  F  F32  1  0.578770  0.972548  0.231516  1
  F  F33  1  0.421181  0.027783  0.769021  1
  F  F34  1  0.078032  0.028943  0.265650  1
  F  F35  1  0.922185  0.971621  0.733442  1
