# generated using pymatgen
data_Dy2HoInHg4
_symmetry_space_group_name_H-M   'P 1'
_cell_length_a   6.36712778
_cell_length_b   6.36712678
_cell_length_c   10.23854700
_cell_angle_alpha   90.00000000
_cell_angle_beta   90.00000000
_cell_angle_gamma   105.01906845
_symmetry_Int_Tables_number   1
_chemical_formula_structural   Dy2HoInHg4
_chemical_formula_sum   'Dy4 Ho2 In2 Hg8'
_cell_volume   400.89479287
_cell_formula_units_Z   2
loop_
 _symmetry_equiv_pos_site_id
 _symmetry_equiv_pos_as_xyz
  1  'x, y, z'
loop_
 _atom_site_type_symbol
 _atom_site_label
 _atom_site_symmetry_multiplicity
 _atom_site_fract_x
 _atom_site_fract_y
 _atom_site_fract_z
 _atom_site_occupancy
  Dy  Dy0  1  0.786745  0.213255  0.000000  1
  Dy  Dy1  1  0.213255  0.786745  0.000000  1
  Dy  Dy2  1  0.213255  0.786745  0.500000  1
  Dy  Dy3  1  0.786745  0.213255  0.500000  1
  Ho  Ho4  1  0.567146  0.567146  0.250000  1
  Ho  Ho5  1  0.432854  0.432854  0.750000  1
  In  In6  1  0.989660  0.989660  0.250000  1
  In  In7  1  0.010340  0.010340  0.750000  1
  Hg  Hg8  1  0.037401  0.490138  0.250000  1
  Hg  Hg9  1  0.962599  0.509862  0.750000  1
  Hg  Hg10  1  0.490138  0.037401  0.250000  1
  Hg  Hg11  1  0.509862  0.962599  0.750000  1
  Hg  Hg12  1  0.291483  0.291483  0.028620  1
  Hg  Hg13  1  0.708517  0.708517  0.971380  1
  Hg  Hg14  1  0.708517  0.708517  0.528620  1
  Hg  Hg15  1  0.291483  0.291483  0.471380  1
