# generated using pymatgen
data_Pr16MgAg3Ir4
_symmetry_space_group_name_H-M   'P 1'
_cell_length_a   9.99264375
_cell_length_b   10.01670261
_cell_length_c   10.01670200
_cell_angle_alpha   59.99999541
_cell_angle_beta   59.92031873
_cell_angle_gamma   59.92031886
_symmetry_Int_Tables_number   1
_chemical_formula_structural   Pr16MgAg3Ir4
_chemical_formula_sum   'Pr16 Mg1 Ag3 Ir4'
_cell_volume   708.09384287
_cell_formula_units_Z   1
loop_
 _symmetry_equiv_pos_site_id
 _symmetry_equiv_pos_as_xyz
  1  'x, y, z'
loop_
 _atom_site_type_symbol
 _atom_site_label
 _atom_site_symmetry_multiplicity
 _atom_site_fract_x
 _atom_site_fract_y
 _atom_site_fract_z
 _atom_site_occupancy
  Pr  Pr0  1  0.349364  0.348374  0.348374  1
  Pr  Pr1  1  0.349364  0.348374  0.953888  1
  Pr  Pr2  1  0.349364  0.953888  0.348374  1
  Pr  Pr3  1  0.945319  0.351561  0.351561  1
  Pr  Pr4  1  0.809331  0.190126  0.190126  1
  Pr  Pr5  1  0.186230  0.812391  0.812391  1
  Pr  Pr6  1  0.186230  0.812391  0.188989  1
  Pr  Pr7  1  0.809331  0.190126  0.810416  1
  Pr  Pr8  1  0.186230  0.188989  0.812391  1
  Pr  Pr9  1  0.809331  0.810416  0.190126  1
  Pr  Pr10  1  0.936634  0.562699  0.562699  1
  Pr  Pr11  1  0.561798  0.937505  0.937505  1
  Pr  Pr12  1  0.561798  0.937505  0.563193  1
  Pr  Pr13  1  0.936634  0.562699  0.937969  1
  Pr  Pr14  1  0.561798  0.563193  0.937505  1
  Pr  Pr15  1  0.936634  0.937969  0.562699  1
  Mg  Mg16  1  0.286930  0.571023  0.571023  1
  Ag  Ag17  1  0.580102  0.583294  0.583294  1
  Ag  Ag18  1  0.580102  0.583294  0.253311  1
  Ag  Ag19  1  0.580102  0.253311  0.583294  1
  Ir  Ir20  1  0.140890  0.142598  0.142598  1
  Ir  Ir21  1  0.140890  0.142598  0.573913  1
  Ir  Ir22  1  0.140890  0.573913  0.142598  1
  Ir  Ir23  1  0.574704  0.141765  0.141765  1
