# generated using pymatgen
data_Tm4AlOs2Ru5
_symmetry_space_group_name_H-M   'P 1'
_cell_length_a   5.40163092
_cell_length_b   5.18360108
_cell_length_c   8.82359700
_cell_angle_alpha   90.00000000
_cell_angle_beta   90.00000000
_cell_angle_gamma   120.42701805
_symmetry_Int_Tables_number   1
_chemical_formula_structural   Tm4AlOs2Ru5
_chemical_formula_sum   'Tm4 Al1 Os2 Ru5'
_cell_volume   213.03350496
_cell_formula_units_Z   1
loop_
 _symmetry_equiv_pos_site_id
 _symmetry_equiv_pos_as_xyz
  1  'x, y, z'
loop_
 _atom_site_type_symbol
 _atom_site_label
 _atom_site_symmetry_multiplicity
 _atom_site_fract_x
 _atom_site_fract_y
 _atom_site_fract_z
 _atom_site_occupancy
  Tm  Tm0  1  0.670104  0.337784  0.567378  1
  Tm  Tm1  1  0.330398  0.663931  0.436893  1
  Tm  Tm2  1  0.330398  0.663931  0.063107  1
  Tm  Tm3  1  0.670104  0.337784  0.932622  1
  Al  Al4  1  0.833857  0.670125  0.250000  1
  Os  Os5  1  0.158794  0.320464  0.750000  1
  Os  Os6  1  0.169457  0.817387  0.750000  1
  Ru  Ru7  1  0.010757  0.012589  0.499751  1
  Ru  Ru8  1  0.010757  0.012589  0.000249  1
  Ru  Ru9  1  0.645646  0.820638  0.750000  1
  Ru  Ru10  1  0.822719  0.171389  0.250000  1
  Ru  Ru11  1  0.347007  0.171386  0.250000  1
