# generated using pymatgen
data_DyY5(Ni3As2)6
_symmetry_space_group_name_H-M   'P 1'
_cell_length_a   3.91667900
_cell_length_b   10.90673402
_cell_length_c   12.77298300
_cell_angle_alpha   90.00331835
_cell_angle_beta   90.00000000
_cell_angle_gamma   90.00000000
_symmetry_Int_Tables_number   1
_chemical_formula_structural   DyY5(Ni3As2)6
_chemical_formula_sum   'Dy1 Y5 Ni18 As12'
_cell_volume   545.63853613
_cell_formula_units_Z   1
loop_
 _symmetry_equiv_pos_site_id
 _symmetry_equiv_pos_as_xyz
  1  'x, y, z'
loop_
 _atom_site_type_symbol
 _atom_site_label
 _atom_site_symmetry_multiplicity
 _atom_site_fract_x
 _atom_site_fract_y
 _atom_site_fract_z
 _atom_site_occupancy
  Dy  Dy0  1  0.500000  0.816428  0.206340  1
  Y  Y1  1  0.000000  0.499973  0.523055  1
  Y  Y2  1  0.500000  0.999950  0.476949  1
  Y  Y3  1  0.500000  0.183612  0.206163  1
  Y  Y4  1  0.000000  0.683790  0.793692  1
  Y  Y5  1  0.000000  0.316167  0.793807  1
  Ni  Ni6  1  0.500000  0.500201  0.156018  1
  Ni  Ni7  1  0.000000  0.999990  0.843894  1
  Ni  Ni8  1  0.500000  0.500048  0.699274  1
  Ni  Ni9  1  0.000000  0.999703  0.300757  1
  Ni  Ni10  1  0.000000  0.500171  0.982914  1
  Ni  Ni11  1  0.500000  0.999752  0.017402  1
  Ni  Ni12  1  0.500000  0.333135  0.997313  1
  Ni  Ni13  1  0.500000  0.667090  0.997558  1
  Ni  Ni14  1  0.000000  0.166735  0.002780  1
  Ni  Ni15  1  0.000000  0.833108  0.002755  1
  Ni  Ni16  1  0.500000  0.303296  0.425854  1
  Ni  Ni17  1  0.500000  0.696775  0.425577  1
  Ni  Ni18  1  0.000000  0.196621  0.573995  1
  Ni  Ni19  1  0.000000  0.803277  0.574057  1
  Ni  Ni20  1  0.500000  0.879817  0.707550  1
  Ni  Ni21  1  0.500000  0.120210  0.707612  1
  Ni  Ni22  1  0.000000  0.620449  0.292256  1
  Ni  Ni23  1  0.000000  0.379831  0.292432  1
  As  As24  1  0.500000  0.500095  0.876589  1
  As  As25  1  0.000000  0.999709  0.123563  1
  As  As26  1  0.500000  0.500014  0.344221  1
  As  As27  1  0.000000  0.000002  0.655694  1
  As  As28  1  0.500000  0.314305  0.613335  1
  As  As29  1  0.500000  0.685683  0.613167  1
  As  As30  1  0.000000  0.185583  0.386590  1
  As  As31  1  0.000000  0.814276  0.386591  1
  As  As32  1  0.500000  0.847233  0.890892  1
  As  As33  1  0.500000  0.152616  0.891023  1
  As  As34  1  0.000000  0.653121  0.109217  1
  As  As35  1  0.000000  0.347237  0.109111  1
