# generated using pymatgen
data_Tb4Y5Er11(CoSb2)4
_symmetry_space_group_name_H-M   'P 1'
_cell_length_a   7.87068780
_cell_length_b   8.74518600
_cell_length_c   12.17134756
_cell_angle_alpha   90.00000000
_cell_angle_beta   89.95364450
_cell_angle_gamma   90.00000000
_symmetry_Int_Tables_number   1
_chemical_formula_structural   Tb4Y5Er11(CoSb2)4
_chemical_formula_sum   'Tb4 Y5 Er11 Co4 Sb8'
_cell_volume   837.76123122
_cell_formula_units_Z   1
loop_
 _symmetry_equiv_pos_site_id
 _symmetry_equiv_pos_as_xyz
  1  'x, y, z'
loop_
 _atom_site_type_symbol
 _atom_site_label
 _atom_site_symmetry_multiplicity
 _atom_site_fract_x
 _atom_site_fract_y
 _atom_site_fract_z
 _atom_site_occupancy
  Tb  Tb0  1  0.623762  0.750000  0.306533  1
  Tb  Tb1  1  0.123765  0.250000  0.193841  1
  Tb  Tb2  1  0.375761  0.250000  0.693226  1
  Tb  Tb3  1  0.875996  0.750000  0.806148  1
  Y  Y4  1  0.154916  0.750000  0.204569  1
  Y  Y5  1  0.655335  0.250000  0.296097  1
  Y  Y6  1  0.845254  0.250000  0.795136  1
  Y  Y7  1  0.345351  0.750000  0.703891  1
  Y  Y8  1  0.455015  0.750000  0.997907  1
  Er  Er9  1  0.952665  0.250000  0.502173  1
  Er  Er10  1  0.547215  0.250000  0.001795  1
  Er  Er11  1  0.047450  0.750000  0.497907  1
  Er  Er12  1  0.822964  0.966297  0.065232  1
  Er  Er13  1  0.322639  0.034957  0.435411  1
  Er  Er14  1  0.176860  0.464930  0.935136  1
  Er  Er15  1  0.677544  0.535065  0.564480  1
  Er  Er16  1  0.176860  0.035070  0.935136  1
  Er  Er17  1  0.677544  0.964935  0.564480  1
  Er  Er18  1  0.822964  0.533703  0.065232  1
  Er  Er19  1  0.322639  0.465043  0.435411  1
  Co  Co20  1  0.435376  0.750000  0.489929  1
  Co  Co21  1  0.936560  0.250000  0.009528  1
  Co  Co22  1  0.564393  0.250000  0.509952  1
  Co  Co23  1  0.060727  0.750000  0.990968  1
  Sb  Sb24  1  0.929923  0.992537  0.329039  1
  Sb  Sb25  1  0.429699  0.008042  0.171813  1
  Sb  Sb26  1  0.070105  0.492530  0.671066  1
  Sb  Sb27  1  0.570495  0.507043  0.828025  1
  Sb  Sb28  1  0.070105  0.007470  0.671066  1
  Sb  Sb29  1  0.570495  0.992957  0.828025  1
  Sb  Sb30  1  0.929923  0.507463  0.329039  1
  Sb  Sb31  1  0.429699  0.491958  0.171813  1
