# generated using pymatgen
data_Pr5Ga7Pt12
_symmetry_space_group_name_H-M   'P 1'
_cell_length_a   5.63551823
_cell_length_b   5.63551880
_cell_length_c   16.82839611
_cell_angle_alpha   80.52211400
_cell_angle_beta   80.52209877
_cell_angle_gamma   60.05504877
_symmetry_Int_Tables_number   1
_chemical_formula_structural   Pr5Ga7Pt12
_chemical_formula_sum   'Pr5 Ga7 Pt12'
_cell_volume   454.65412900
_cell_formula_units_Z   1
loop_
 _symmetry_equiv_pos_site_id
 _symmetry_equiv_pos_as_xyz
  1  'x, y, z'
loop_
 _atom_site_type_symbol
 _atom_site_label
 _atom_site_symmetry_multiplicity
 _atom_site_fract_x
 _atom_site_fract_y
 _atom_site_fract_z
 _atom_site_occupancy
  Pr  Pr0  1  0.999850  0.999850  0.999997  1
  Pr  Pr1  1  0.923645  0.923645  0.228630  1
  Pr  Pr2  1  0.076414  0.076414  0.771352  1
  Pr  Pr3  1  0.848493  0.848493  0.454570  1
  Pr  Pr4  1  0.151545  0.151545  0.545409  1
  Ga  Ga5  1  0.500008  0.500008  0.499993  1
  Ga  Ga6  1  0.748849  0.748850  0.750417  1
  Ga  Ga7  1  0.251158  0.251158  0.249584  1
  Ga  Ga8  1  0.664258  0.664258  0.000293  1
  Ga  Ga9  1  0.335604  0.335604  0.999733  1
  Ga  Ga10  1  0.581414  0.581414  0.250351  1
  Ga  Ga11  1  0.418615  0.418615  0.749671  1
  Pt  Pt12  1  0.373581  0.373581  0.373328  1
  Pt  Pt13  1  0.878974  0.373942  0.372374  1
  Pt  Pt14  1  0.373942  0.878974  0.372374  1
  Pt  Pt15  1  0.626449  0.626449  0.626621  1
  Pt  Pt16  1  0.121060  0.626021  0.627590  1
  Pt  Pt17  1  0.626021  0.121060  0.627590  1
  Pt  Pt18  1  0.458664  0.458664  0.124675  1
  Pt  Pt19  1  0.958887  0.458979  0.123940  1
  Pt  Pt20  1  0.458979  0.958887  0.123940  1
  Pt  Pt21  1  0.541354  0.541354  0.875379  1
  Pt  Pt22  1  0.041142  0.541094  0.876096  1
  Pt  Pt23  1  0.541094  0.041142  0.876096  1
