# generated using pymatgen
data_Nb5Fe17(NiP6)2
_symmetry_space_group_name_H-M   'P 1'
_cell_length_a   11.64221248
_cell_length_b   11.66146750
_cell_length_c   3.58758400
_cell_angle_alpha   90.00000000
_cell_angle_beta   90.00000000
_cell_angle_gamma   119.67438979
_symmetry_Int_Tables_number   1
_chemical_formula_structural   Nb5Fe17(NiP6)2
_chemical_formula_sum   'Nb5 Fe17 Ni2 P12'
_cell_volume   423.19161664
_cell_formula_units_Z   1
loop_
 _symmetry_equiv_pos_site_id
 _symmetry_equiv_pos_as_xyz
  1  'x, y, z'
loop_
 _atom_site_type_symbol
 _atom_site_label
 _atom_site_symmetry_multiplicity
 _atom_site_fract_x
 _atom_site_fract_y
 _atom_site_fract_z
 _atom_site_occupancy
  Nb  Nb0  1  0.000984  0.814131  0.500000  1
  Nb  Nb1  1  0.186635  0.185990  0.500000  1
  Nb  Nb2  1  0.818694  0.005377  0.500000  1
  Nb  Nb3  1  0.666539  0.334080  0.000000  1
  Nb  Nb4  1  0.327004  0.661980  0.000000  1
  Fe  Fe5  1  0.999332  0.281389  0.500000  1
  Fe  Fe6  1  0.376226  0.181114  0.000000  1
  Fe  Fe7  1  0.805269  0.626075  0.000000  1
  Fe  Fe8  1  0.818898  0.195801  0.000000  1
  Fe  Fe9  1  0.181296  0.374446  0.000000  1
  Fe  Fe10  1  0.194589  0.817830  0.000000  1
  Fe  Fe11  1  0.873644  0.514026  0.500000  1
  Fe  Fe12  1  0.639189  0.124441  0.500000  1
  Fe  Fe13  1  0.487265  0.360789  0.500000  1
  Fe  Fe14  1  0.358547  0.483615  0.500000  1
  Fe  Fe15  1  0.125703  0.639240  0.500000  1
  Fe  Fe16  1  0.514292  0.870805  0.500000  1
  Fe  Fe17  1  0.281843  0.999714  0.500000  1
  Fe  Fe18  1  0.000668  0.446367  0.000000  1
  Fe  Fe19  1  0.553207  0.552663  0.000000  1
  Fe  Fe20  1  0.444948  0.998007  0.000000  1
  Fe  Fe21  1  0.717695  0.722177  0.500000  1
  Ni  Ni22  1  0.001507  0.001223  0.000000  1
  Ni  Ni23  1  0.626098  0.809336  0.000000  1
  P  P24  1  0.686927  0.520320  0.500000  1
  P  P25  1  0.481216  0.168254  0.500000  1
  P  P26  1  0.830681  0.313428  0.500000  1
  P  P27  1  0.312999  0.830536  0.500000  1
  P  P28  1  0.166757  0.479540  0.500000  1
  P  P29  1  0.824852  0.822164  0.000000  1
  P  P30  1  0.180835  0.000395  0.000000  1
  P  P31  1  0.999459  0.635112  0.000000  1
  P  P32  1  0.364691  0.363721  0.000000  1
  P  P33  1  0.636337  0.004526  0.000000  1
  P  P34  1  0.514428  0.680888  0.500000  1
  P  P35  1  0.000745  0.180503  0.000000  1
