# generated using pymatgen
data_Tb3DyEr2Ta2O14
_symmetry_space_group_name_H-M   'P 1'
_cell_length_a   6.49158613
_cell_length_b   6.49483028
_cell_length_c   7.47145808
_cell_angle_alpha   89.95011199
_cell_angle_beta   89.94900613
_cell_angle_gamma   108.55918919
_symmetry_Int_Tables_number   1
_chemical_formula_structural   Tb3DyEr2Ta2O14
_chemical_formula_sum   'Tb3 Dy1 Er2 Ta2 O14'
_cell_volume   298.62744062
_cell_formula_units_Z   1
loop_
 _symmetry_equiv_pos_site_id
 _symmetry_equiv_pos_as_xyz
  1  'x, y, z'
loop_
 _atom_site_type_symbol
 _atom_site_label
 _atom_site_symmetry_multiplicity
 _atom_site_fract_x
 _atom_site_fract_y
 _atom_site_fract_z
 _atom_site_occupancy
  Tb  Tb0  1  0.465006  0.463451  0.001077  1
  Tb  Tb1  1  0.536683  0.535813  0.498921  1
  Tb  Tb2  1  0.000346  0.464715  0.741198  1
  Dy  Dy3  1  0.534578  0.000110  0.758641  1
  Er  Er4  1  0.000668  0.535188  0.240955  1
  Er  Er5  1  0.465163  0.999261  0.258906  1
  Ta  Ta6  1  0.002084  0.002442  0.498581  1
  Ta  Ta7  1  0.997446  0.997898  0.001396  1
  O  O8  1  0.932466  0.066824  0.750009  1
  O  O9  1  0.638553  0.359750  0.749850  1
  O  O10  1  0.308269  0.050800  0.543042  1
  O  O11  1  0.948101  0.691248  0.958236  1
  O  O12  1  0.631247  0.368593  0.249962  1
  O  O13  1  0.917558  0.671472  0.521741  1
  O  O14  1  0.328291  0.081439  0.977078  1
  O  O15  1  0.081367  0.327957  0.026971  1
  O  O16  1  0.671778  0.919444  0.473777  1
  O  O17  1  0.372015  0.631038  0.750298  1
  O  O18  1  0.692797  0.952906  0.047273  1
  O  O19  1  0.047618  0.306761  0.451963  1
  O  O20  1  0.357615  0.642605  0.250124  1
  O  O21  1  0.070353  0.930285  0.249999  1
