# generated using pymatgen
data_Sr4CaBi3H
_symmetry_space_group_name_H-M   'P 1'
_cell_length_a   7.29632700
_cell_length_b   9.63434826
_cell_length_c   9.63434800
_cell_angle_alpha   119.99999222
_cell_angle_beta   90.00000000
_cell_angle_gamma   90.00000000
_symmetry_Int_Tables_number   1
_chemical_formula_structural   Sr4CaBi3H
_chemical_formula_sum   'Sr8 Ca2 Bi6 H2'
_cell_volume   586.51567830
_cell_formula_units_Z   2
loop_
 _symmetry_equiv_pos_site_id
 _symmetry_equiv_pos_as_xyz
  1  'x, y, z'
loop_
 _atom_site_type_symbol
 _atom_site_label
 _atom_site_symmetry_multiplicity
 _atom_site_fract_x
 _atom_site_fract_y
 _atom_site_fract_z
 _atom_site_occupancy
  Sr  Sr0  1  0.500000  0.333333  0.666667  1
  Sr  Sr1  1  0.500000  0.666666  0.333333  1
  Sr  Sr2  1  0.753112  0.243615  0.000000  1
  Sr  Sr3  1  0.753112  0.756385  0.756385  1
  Sr  Sr4  1  0.753112  0.000000  0.243615  1
  Sr  Sr5  1  0.246888  0.756385  0.000000  1
  Sr  Sr6  1  0.246888  0.243615  0.243615  1
  Sr  Sr7  1  0.246888  0.000000  0.756385  1
  Ca  Ca8  1  0.000000  0.666667  0.333333  1
  Ca  Ca9  1  0.000000  0.333334  0.666667  1
  Bi  Bi10  1  0.758858  0.604663  0.000000  1
  Bi  Bi11  1  0.758858  0.395337  0.395337  1
  Bi  Bi12  1  0.758858  0.000000  0.604663  1
  Bi  Bi13  1  0.241142  0.395337  0.000000  1
  Bi  Bi14  1  0.241142  0.604663  0.604663  1
  Bi  Bi15  1  0.241142  0.000000  0.395337  1
  H  H16  1  0.500000  0.000000  0.000000  1
  H  H17  1  0.000000  0.000000  0.000000  1
