# generated using pymatgen
data_Nd8AlSi12PtRh2
_symmetry_space_group_name_H-M   'P 1'
_cell_length_a   8.24737100
_cell_length_b   8.24737142
_cell_length_c   8.50634700
_cell_angle_alpha   90.00000000
_cell_angle_beta   90.00000000
_cell_angle_gamma   120.00000232
_symmetry_Int_Tables_number   1
_chemical_formula_structural   Nd8AlSi12PtRh2
_chemical_formula_sum   'Nd8 Al1 Si12 Pt1 Rh2'
_cell_volume   501.07738400
_cell_formula_units_Z   1
loop_
 _symmetry_equiv_pos_site_id
 _symmetry_equiv_pos_as_xyz
  1  'x, y, z'
loop_
 _atom_site_type_symbol
 _atom_site_label
 _atom_site_symmetry_multiplicity
 _atom_site_fract_x
 _atom_site_fract_y
 _atom_site_fract_z
 _atom_site_occupancy
  Nd  Nd0  1  0.000000  0.000000  0.747916  1
  Nd  Nd1  1  0.000000  0.000000  0.252165  1
  Nd  Nd2  1  0.496303  0.503697  0.747671  1
  Nd  Nd3  1  0.496303  0.992606  0.747671  1
  Nd  Nd4  1  0.007394  0.503697  0.747671  1
  Nd  Nd5  1  0.498492  0.501508  0.252091  1
  Nd  Nd6  1  0.003016  0.501508  0.252091  1
  Nd  Nd7  1  0.498492  0.996984  0.252091  1
  Al  Al8  1  0.666667  0.333333  0.995274  1
  Si  Si9  1  0.838199  0.161801  0.999779  1
  Si  Si10  1  0.838199  0.676400  0.999779  1
  Si  Si11  1  0.323600  0.161801  0.999779  1
  Si  Si12  1  0.834761  0.165239  0.501155  1
  Si  Si13  1  0.834761  0.669521  0.501155  1
  Si  Si14  1  0.330479  0.165239  0.501155  1
  Si  Si15  1  0.167886  0.832114  0.498860  1
  Si  Si16  1  0.664230  0.832114  0.498860  1
  Si  Si17  1  0.167886  0.335770  0.498860  1
  Si  Si18  1  0.169950  0.830050  0.000803  1
  Si  Si19  1  0.660101  0.830050  0.000803  1
  Si  Si20  1  0.169950  0.339899  0.000803  1
  Pt  Pt21  1  0.666667  0.333333  0.503274  1
  Rh  Rh22  1  0.333333  0.666667  0.497382  1
  Rh  Rh23  1  0.333333  0.666667  0.002915  1
