# generated using pymatgen
data_NaCa3(CuAs)4
_symmetry_space_group_name_H-M   'P 1'
_cell_length_a   8.21868507
_cell_length_b   4.13230100
_cell_length_c   7.19907523
_cell_angle_alpha   90.00000000
_cell_angle_beta   90.06263702
_cell_angle_gamma   90.00000000
_symmetry_Int_Tables_number   1
_chemical_formula_structural   NaCa3(CuAs)4
_chemical_formula_sum   'Na1 Ca3 Cu4 As4'
_cell_volume   244.49542640
_cell_formula_units_Z   1
loop_
 _symmetry_equiv_pos_site_id
 _symmetry_equiv_pos_as_xyz
  1  'x, y, z'
loop_
 _atom_site_type_symbol
 _atom_site_label
 _atom_site_symmetry_multiplicity
 _atom_site_fract_x
 _atom_site_fract_y
 _atom_site_fract_z
 _atom_site_occupancy
  Na  Na0  1  0.999955  0.250001  0.248148  1
  Ca  Ca1  1  0.499796  0.250001  0.251278  1
  Ca  Ca2  1  0.500078  0.749999  0.748828  1
  Ca  Ca3  1  0.000169  0.749999  0.751727  1
  Cu  Cu4  1  0.751824  0.749999  0.086010  1
  Cu  Cu5  1  0.245126  0.749999  0.414039  1
  Cu  Cu6  1  0.749545  0.250001  0.583454  1
  Cu  Cu7  1  0.253214  0.250001  0.916611  1
  As  As8  1  0.256990  0.749999  0.081375  1
  As  As9  1  0.744788  0.749999  0.418536  1
  As  As10  1  0.249362  0.250001  0.583522  1
  As  As11  1  0.749153  0.250001  0.916473  1
