# generated using pymatgen
data_Er12CoTc2Ru
_symmetry_space_group_name_H-M   'P 1'
_cell_length_a   6.22138881
_cell_length_b   7.26588214
_cell_length_c   9.04102100
_cell_angle_alpha   90.00000000
_cell_angle_beta   90.00000000
_cell_angle_gamma   89.81829720
_symmetry_Int_Tables_number   1
_chemical_formula_structural   Er12CoTc2Ru
_chemical_formula_sum   'Er12 Co1 Tc2 Ru1'
_cell_volume   408.68715412
_cell_formula_units_Z   1
loop_
 _symmetry_equiv_pos_site_id
 _symmetry_equiv_pos_as_xyz
  1  'x, y, z'
loop_
 _atom_site_type_symbol
 _atom_site_label
 _atom_site_symmetry_multiplicity
 _atom_site_fract_x
 _atom_site_fract_y
 _atom_site_fract_z
 _atom_site_occupancy
  Er  Er0  1  0.331776  0.678729  0.064135  1
  Er  Er1  1  0.163098  0.173653  0.435888  1
  Er  Er2  1  0.662599  0.323904  0.562022  1
  Er  Er3  1  0.832930  0.822706  0.936301  1
  Er  Er4  1  0.662599  0.323904  0.937978  1
  Er  Er5  1  0.832930  0.822706  0.563699  1
  Er  Er6  1  0.331776  0.678729  0.435865  1
  Er  Er7  1  0.163098  0.173653  0.064112  1
  Er  Er8  1  0.874654  0.546302  0.250000  1
  Er  Er9  1  0.637355  0.038790  0.250000  1
  Er  Er10  1  0.130787  0.459880  0.750000  1
  Er  Er11  1  0.373573  0.958321  0.750000  1
  Co  Co12  1  0.037627  0.882112  0.250000  1
  Tc  Tc13  1  0.463117  0.385952  0.250000  1
  Tc  Tc14  1  0.962322  0.113812  0.750000  1
  Ru  Ru15  1  0.539759  0.616847  0.750000  1
