# generated using pymatgen
data_Cs2KTi3F12
_symmetry_space_group_name_H-M   'P 1'
_cell_length_a   7.69759686
_cell_length_b   7.69759621
_cell_length_c   13.30402324
_cell_angle_alpha   73.87316395
_cell_angle_beta   73.87316580
_cell_angle_gamma   60.36466823
_symmetry_Int_Tables_number   1
_chemical_formula_structural   Cs2KTi3F12
_chemical_formula_sum   'Cs4 K2 Ti6 F24'
_cell_volume   648.84884740
_cell_formula_units_Z   2
loop_
 _symmetry_equiv_pos_site_id
 _symmetry_equiv_pos_as_xyz
  1  'x, y, z'
loop_
 _atom_site_type_symbol
 _atom_site_label
 _atom_site_symmetry_multiplicity
 _atom_site_fract_x
 _atom_site_fract_y
 _atom_site_fract_z
 _atom_site_occupancy
  Cs  Cs0  1  0.904190  0.475486  0.677674  1
  Cs  Cs1  1  0.095810  0.524514  0.322326  1
  Cs  Cs2  1  0.524514  0.095810  0.822326  1
  Cs  Cs3  1  0.475486  0.904190  0.177674  1
  K  K4  1  0.228757  0.771243  0.750000  1
  K  K5  1  0.771243  0.228757  0.250000  1
  Ti  Ti6  1  0.500000  0.000000  0.500000  1
  Ti  Ti7  1  0.000000  0.500000  0.000000  1
  Ti  Ti8  1  0.000000  0.000000  0.500000  1
  Ti  Ti9  1  0.000000  0.000000  0.000000  1
  Ti  Ti10  1  0.500000  0.500000  0.500000  1
  Ti  Ti11  1  0.500000  0.500000  0.000000  1
  F  F12  1  0.894925  0.968098  0.647838  1
  F  F13  1  0.517266  0.890448  0.646681  1
  F  F14  1  0.282740  0.403563  0.030062  1
  F  F15  1  0.697935  0.196224  0.026550  1
  F  F16  1  0.890448  0.517266  0.146681  1
  F  F17  1  0.109552  0.482734  0.853319  1
  F  F18  1  0.482734  0.109552  0.353319  1
  F  F19  1  0.803776  0.302065  0.473450  1
  F  F20  1  0.105075  0.031902  0.352162  1
  F  F21  1  0.596437  0.717260  0.469938  1
  F  F22  1  0.457788  0.508679  0.146247  1
  F  F23  1  0.403563  0.282740  0.530062  1
  F  F24  1  0.508679  0.457788  0.646247  1
  F  F25  1  0.803170  0.927691  0.465263  1
  F  F26  1  0.196830  0.072309  0.534737  1
  F  F27  1  0.542212  0.491321  0.853753  1
  F  F28  1  0.927691  0.803170  0.965263  1
  F  F29  1  0.491321  0.542212  0.353753  1
  F  F30  1  0.717260  0.596437  0.969938  1
  F  F31  1  0.968098  0.894925  0.147838  1
  F  F32  1  0.072309  0.196830  0.034737  1
  F  F33  1  0.302065  0.803776  0.973450  1
  F  F34  1  0.031902  0.105075  0.852162  1
  F  F35  1  0.196224  0.697935  0.526550  1
