# generated using pymatgen
data_DyY2Ga9Cu2
_symmetry_space_group_name_H-M   'P 1'
_cell_length_a   8.15203681
_cell_length_b   8.15203632
_cell_length_c   8.15203669
_cell_angle_alpha   150.02846909
_cell_angle_beta   104.55946088
_cell_angle_gamma   83.24302083
_symmetry_Int_Tables_number   1
_chemical_formula_structural   DyY2Ga9Cu2
_chemical_formula_sum   'Dy1 Y2 Ga9 Cu2'
_cell_volume   256.27463911
_cell_formula_units_Z   1
loop_
 _symmetry_equiv_pos_site_id
 _symmetry_equiv_pos_as_xyz
  1  'x, y, z'
loop_
 _atom_site_type_symbol
 _atom_site_label
 _atom_site_symmetry_multiplicity
 _atom_site_fract_x
 _atom_site_fract_y
 _atom_site_fract_z
 _atom_site_occupancy
  Dy  Dy0  1  0.317082  0.317082  0.000000  1
  Y  Y1  1  0.683056  0.683056  0.000000  1
  Y  Y2  1  0.000071  0.000071  0.000000  1
  Ga  Ga3  1  0.711619  0.340063  0.371556  1
  Ga  Ga4  1  0.288342  0.660172  0.628170  1
  Ga  Ga5  1  0.968508  0.340063  0.628444  1
  Ga  Ga6  1  0.032001  0.660172  0.371830  1
  Ga  Ga7  1  0.411548  0.132274  0.279275  1
  Ga  Ga8  1  0.587918  0.867661  0.720257  1
  Ga  Ga9  1  0.852999  0.132274  0.720725  1
  Ga  Ga10  1  0.147404  0.867661  0.279743  1
  Ga  Ga11  1  0.499753  0.999753  0.500000  1
  Cu  Cu12  1  0.713532  0.499849  0.213683  1
  Cu  Cu13  1  0.286166  0.499849  0.786317  1
