# generated using pymatgen
data_Dy8Tc3RuC8
_symmetry_space_group_name_H-M   'P 1'
_cell_length_a   5.10930200
_cell_length_b   6.55424896
_cell_length_c   9.84817374
_cell_angle_alpha   89.87387928
_cell_angle_beta   90.00000000
_cell_angle_gamma   90.00000000
_symmetry_Int_Tables_number   1
_chemical_formula_structural   Dy8Tc3RuC8
_chemical_formula_sum   'Dy8 Tc3 Ru1 C8'
_cell_volume   329.79127123
_cell_formula_units_Z   1
loop_
 _symmetry_equiv_pos_site_id
 _symmetry_equiv_pos_as_xyz
  1  'x, y, z'
loop_
 _atom_site_type_symbol
 _atom_site_label
 _atom_site_symmetry_multiplicity
 _atom_site_fract_x
 _atom_site_fract_y
 _atom_site_fract_z
 _atom_site_occupancy
  Dy  Dy0  1  0.250000  0.675144  0.555774  1
  Dy  Dy1  1  0.750000  0.321145  0.443078  1
  Dy  Dy2  1  0.750000  0.821400  0.056782  1
  Dy  Dy3  1  0.250000  0.178903  0.942884  1
  Dy  Dy4  1  0.250000  0.529820  0.216735  1
  Dy  Dy5  1  0.750000  0.468094  0.784844  1
  Dy  Dy6  1  0.750000  0.969921  0.713083  1
  Dy  Dy7  1  0.250000  0.030672  0.284878  1
  Tc  Tc8  1  0.250000  0.720680  0.864992  1
  Tc  Tc9  1  0.750000  0.279022  0.133989  1
  Tc  Tc10  1  0.750000  0.778759  0.365894  1
  Ru  Ru11  1  0.250000  0.220639  0.634784  1
  C  C12  1  0.250000  0.454991  0.758819  1
  C  C13  1  0.750000  0.546076  0.241325  1
  C  C14  1  0.750000  0.045695  0.258845  1
  C  C15  1  0.250000  0.953819  0.742913  1
  C  C16  1  0.250000  0.822700  0.048778  1
  C  C17  1  0.750000  0.178899  0.950084  1
  C  C18  1  0.750000  0.678781  0.550555  1
  C  C19  1  0.250000  0.324841  0.450965  1
