# generated using pymatgen
data_Ca3Nd(Ga2Ag)4
_symmetry_space_group_name_H-M   'P 1'
_cell_length_a   4.37980500
_cell_length_b   7.08141960
_cell_length_c   10.61795734
_cell_angle_alpha   89.42180626
_cell_angle_beta   90.00000000
_cell_angle_gamma   90.00000000
_symmetry_Int_Tables_number   1
_chemical_formula_structural   Ca3Nd(Ga2Ag)4
_chemical_formula_sum   'Ca3 Nd1 Ga8 Ag4'
_cell_volume   329.30169474
_cell_formula_units_Z   1
loop_
 _symmetry_equiv_pos_site_id
 _symmetry_equiv_pos_as_xyz
  1  'x, y, z'
loop_
 _atom_site_type_symbol
 _atom_site_label
 _atom_site_symmetry_multiplicity
 _atom_site_fract_x
 _atom_site_fract_y
 _atom_site_fract_z
 _atom_site_occupancy
  Ca  Ca0  1  0.250000  0.775273  0.826429  1
  Ca  Ca1  1  0.750000  0.225629  0.176053  1
  Ca  Ca2  1  0.750000  0.724473  0.325695  1
  Nd  Nd3  1  0.250000  0.280052  0.671728  1
  Ga  Ga4  1  0.250000  0.927569  0.149472  1
  Ga  Ga5  1  0.750000  0.073380  0.848201  1
  Ga  Ga6  1  0.750000  0.577154  0.650165  1
  Ga  Ga7  1  0.250000  0.422548  0.354200  1
  Ga  Ga8  1  0.250000  0.703125  0.534460  1
  Ga  Ga9  1  0.750000  0.295024  0.466027  1
  Ga  Ga10  1  0.750000  0.800884  0.031331  1
  Ga  Ga11  1  0.250000  0.202515  0.966280  1
  Ag  Ag12  1  0.250000  0.542602  0.099726  1
  Ag  Ag13  1  0.750000  0.457352  0.901630  1
  Ag  Ag14  1  0.750000  0.954609  0.598710  1
  Ag  Ag15  1  0.250000  0.037814  0.399895  1
