# generated using pymatgen
data_Nb6Co15Si6NiP
_symmetry_space_group_name_H-M   'P 1'
_cell_length_a   7.90604095
_cell_length_b   7.91317528
_cell_length_c   7.90604100
_cell_angle_alpha   60.02981502
_cell_angle_beta   59.99999560
_cell_angle_gamma   60.02981890
_symmetry_Int_Tables_number   1
_chemical_formula_structural   Nb6Co15Si6NiP
_chemical_formula_sum   'Nb6 Co15 Si6 Ni1 P1'
_cell_volume   349.90445910
_cell_formula_units_Z   1
loop_
 _symmetry_equiv_pos_site_id
 _symmetry_equiv_pos_as_xyz
  1  'x, y, z'
loop_
 _atom_site_type_symbol
 _atom_site_label
 _atom_site_symmetry_multiplicity
 _atom_site_fract_x
 _atom_site_fract_y
 _atom_site_fract_z
 _atom_site_occupancy
  Nb  Nb0  1  0.798885  0.796696  0.202210  1
  Nb  Nb1  1  0.797781  0.198605  0.797781  1
  Nb  Nb2  1  0.202210  0.796696  0.202210  1
  Nb  Nb3  1  0.797781  0.198605  0.205833  1
  Nb  Nb4  1  0.202210  0.796696  0.798885  1
  Nb  Nb5  1  0.205833  0.198605  0.797781  1
  Co  Co6  1  0.164899  0.168031  0.502172  1
  Co  Co7  1  0.502172  0.168031  0.164899  1
  Co  Co8  1  0.164899  0.168031  0.164899  1
  Co  Co9  1  0.499222  0.834998  0.832890  1
  Co  Co10  1  0.832890  0.834998  0.832890  1
  Co  Co11  1  0.832890  0.834998  0.499222  1
  Co  Co12  1  0.166766  0.499703  0.166766  1
  Co  Co13  1  0.616877  0.149370  0.616877  1
  Co  Co14  1  0.383294  0.382197  0.851215  1
  Co  Co15  1  0.851215  0.382197  0.383294  1
  Co  Co16  1  0.383294  0.382197  0.383294  1
  Co  Co17  1  0.150173  0.616492  0.616668  1
  Co  Co18  1  0.616668  0.616492  0.616668  1
  Co  Co19  1  0.616668  0.616492  0.150173  1
  Co  Co20  1  0.382001  0.853996  0.382001  1
  Si  Si21  1  0.499480  0.998946  0.499480  1
  Si  Si22  1  0.999469  0.500922  0.999469  1
  Si  Si23  1  0.002094  0.998946  0.499480  1
  Si  Si24  1  0.499480  0.998946  0.002094  1
  Si  Si25  1  0.999469  0.500922  0.500141  1
  Si  Si26  1  0.500141  0.500922  0.999469  1
  Ni  Ni27  1  0.831653  0.505038  0.831653  1
  P  P28  1  0.499586  0.501240  0.499586  1
