# generated using pymatgen
data_Y4HoZr3Pt4
_symmetry_space_group_name_H-M   'P 1'
_cell_length_a   4.74758600
_cell_length_b   7.14489196
_cell_length_c   8.35856471
_cell_angle_alpha   89.49608782
_cell_angle_beta   90.00000000
_cell_angle_gamma   90.00000000
_symmetry_Int_Tables_number   1
_chemical_formula_structural   Y4HoZr3Pt4
_chemical_formula_sum   'Y4 Ho1 Zr3 Pt4'
_cell_volume   283.51981640
_cell_formula_units_Z   1
loop_
 _symmetry_equiv_pos_site_id
 _symmetry_equiv_pos_as_xyz
  1  'x, y, z'
loop_
 _atom_site_type_symbol
 _atom_site_label
 _atom_site_symmetry_multiplicity
 _atom_site_fract_x
 _atom_site_fract_y
 _atom_site_fract_z
 _atom_site_occupancy
  Y  Y0  1  0.250000  0.011036  0.673122  1
  Y  Y1  1  0.250000  0.520027  0.829562  1
  Y  Y2  1  0.750000  0.981477  0.316998  1
  Y  Y3  1  0.750000  0.483056  0.179690  1
  Ho  Ho4  1  0.750000  0.353724  0.583032  1
  Zr  Zr5  1  0.250000  0.143226  0.076476  1
  Zr  Zr6  1  0.250000  0.647181  0.421142  1
  Zr  Zr7  1  0.750000  0.851493  0.920274  1
  Pt  Pt8  1  0.250000  0.268385  0.392664  1
  Pt  Pt9  1  0.250000  0.770110  0.095842  1
  Pt  Pt10  1  0.750000  0.743905  0.594300  1
  Pt  Pt11  1  0.750000  0.226379  0.916898  1
