# generated using pymatgen
data_Hf8In4IrPt7
_symmetry_space_group_name_H-M   'P 1'
_cell_length_a   7.59052729
_cell_length_b   7.59052760
_cell_length_c   6.71010814
_cell_angle_alpha   90.11203060
_cell_angle_beta   90.11203585
_cell_angle_gamma   90.03125334
_symmetry_Int_Tables_number   1
_chemical_formula_structural   Hf8In4IrPt7
_chemical_formula_sum   'Hf8 In4 Ir1 Pt7'
_cell_volume   386.60877180
_cell_formula_units_Z   1
loop_
 _symmetry_equiv_pos_site_id
 _symmetry_equiv_pos_as_xyz
  1  'x, y, z'
loop_
 _atom_site_type_symbol
 _atom_site_label
 _atom_site_symmetry_multiplicity
 _atom_site_fract_x
 _atom_site_fract_y
 _atom_site_fract_z
 _atom_site_occupancy
  Hf  Hf0  1  0.157499  0.157499  0.004084  1
  Hf  Hf1  1  0.849566  0.849566  0.999140  1
  Hf  Hf2  1  0.647543  0.344204  0.496177  1
  Hf  Hf3  1  0.344204  0.647543  0.496177  1
  Hf  Hf4  1  0.674796  0.319221  0.002517  1
  Hf  Hf5  1  0.319221  0.674796  0.002517  1
  Hf  Hf6  1  0.820976  0.820976  0.500101  1
  Hf  Hf7  1  0.182563  0.182563  0.497424  1
  In  In8  1  0.499594  0.999755  0.249225  1
  In  In9  1  0.499590  0.997539  0.749740  1
  In  In10  1  0.999755  0.499594  0.249225  1
  In  In11  1  0.997539  0.499590  0.749740  1
  Ir  Ir12  1  0.370752  0.370752  0.229306  1
  Pt  Pt13  1  0.631071  0.631071  0.775152  1
  Pt  Pt14  1  0.634107  0.634107  0.221802  1
  Pt  Pt15  1  0.869454  0.131943  0.723986  1
  Pt  Pt16  1  0.869849  0.131019  0.276180  1
  Pt  Pt17  1  0.368959  0.368959  0.777334  1
  Pt  Pt18  1  0.131019  0.869849  0.276180  1
  Pt  Pt19  1  0.131943  0.869454  0.723986  1
