# generated using pymatgen
data_Dy3ErFe5Os3
_symmetry_space_group_name_H-M   'P 1'
_cell_length_a   5.25384675
_cell_length_b   5.24128727
_cell_length_c   9.06106841
_cell_angle_alpha   72.81008897
_cell_angle_beta   90.79656529
_cell_angle_gamma   120.23243884
_symmetry_Int_Tables_number   1
_chemical_formula_structural   Dy3ErFe5Os3
_chemical_formula_sum   'Dy3 Er1 Fe5 Os3'
_cell_volume   203.17833108
_cell_formula_units_Z   1
loop_
 _symmetry_equiv_pos_site_id
 _symmetry_equiv_pos_as_xyz
  1  'x, y, z'
loop_
 _atom_site_type_symbol
 _atom_site_label
 _atom_site_symmetry_multiplicity
 _atom_site_fract_x
 _atom_site_fract_y
 _atom_site_fract_z
 _atom_site_occupancy
  Dy  Dy0  1  0.375980  0.749645  0.873584  1
  Dy  Dy1  1  0.998492  0.998975  0.999172  1
  Dy  Dy2  1  0.499200  0.000670  0.500966  1
  Er  Er3  1  0.876707  0.750916  0.375872  1
  Fe  Fe4  1  0.937446  0.874807  0.686987  1
  Fe  Fe5  1  0.184152  0.369792  0.443331  1
  Fe  Fe6  1  0.690786  0.380174  0.931430  1
  Fe  Fe7  1  0.937145  0.374607  0.188037  1
  Fe  Fe8  1  0.438224  0.375613  0.687014  1
  Os  Os9  1  0.437171  0.374121  0.188588  1
  Os  Os10  1  0.937470  0.376117  0.686420  1
  Os  Os11  1  0.437225  0.874562  0.188597  1
