# generated using pymatgen
data_CuTcOsF12
_symmetry_space_group_name_H-M   'P 1'
_cell_length_a   5.23857536
_cell_length_b   5.71955607
_cell_length_c   9.02399500
_cell_angle_alpha   104.88117161
_cell_angle_beta   90.54771465
_cell_angle_gamma   117.66677002
_symmetry_Int_Tables_number   1
_chemical_formula_structural   CuTcOsF12
_chemical_formula_sum   'Cu1 Tc1 Os1 F12'
_cell_volume   228.79854688
_cell_formula_units_Z   1
loop_
 _symmetry_equiv_pos_site_id
 _symmetry_equiv_pos_as_xyz
  1  'x, y, z'
loop_
 _atom_site_type_symbol
 _atom_site_label
 _atom_site_symmetry_multiplicity
 _atom_site_fract_x
 _atom_site_fract_y
 _atom_site_fract_z
 _atom_site_occupancy
  Cu  Cu0  1  0.000944  0.001353  0.005459  1
  Tc  Tc1  1  0.768220  0.494775  0.244265  1
  Os  Os2  1  0.235027  0.504813  0.756494  1
  F  F3  1  0.829831  0.281189  0.709056  1
  F  F4  1  0.169362  0.719361  0.293666  1
  F  F5  1  0.190759  0.746050  0.940939  1
  F  F6  1  0.706693  0.722675  0.409748  1
  F  F7  1  0.294494  0.279526  0.586221  1
  F  F8  1  0.761205  0.260453  0.354854  1
  F  F9  1  0.229499  0.733637  0.642503  1
  F  F10  1  0.342656  0.266469  0.186502  1
  F  F11  1  0.657130  0.740924  0.814453  1
  F  F12  1  0.748277  0.717799  0.116061  1
  F  F13  1  0.250832  0.274696  0.880009  1
  F  F14  1  0.815070  0.256280  0.059769  1
