# generated using pymatgen
data_Mg2MnCo(BIr2)2
_symmetry_space_group_name_H-M   'P 1'
_cell_length_a   9.26817400
_cell_length_b   9.26817400
_cell_length_c   2.94032900
_cell_angle_alpha   90.00000000
_cell_angle_beta   90.00000000
_cell_angle_gamma   90.00000000
_symmetry_Int_Tables_number   1
_chemical_formula_structural   Mg2MnCo(BIr2)2
_chemical_formula_sum   'Mg4 Mn2 Co2 B4 Ir8'
_cell_volume   252.57146571
_cell_formula_units_Z   2
loop_
 _symmetry_equiv_pos_site_id
 _symmetry_equiv_pos_as_xyz
  1  'x, y, z'
loop_
 _atom_site_type_symbol
 _atom_site_label
 _atom_site_symmetry_multiplicity
 _atom_site_fract_x
 _atom_site_fract_y
 _atom_site_fract_z
 _atom_site_occupancy
  Mg  Mg0  1  0.824231  0.324231  0.000000  1
  Mg  Mg1  1  0.175769  0.675769  0.000000  1
  Mg  Mg2  1  0.324231  0.175769  0.000000  1
  Mg  Mg3  1  0.675769  0.824231  0.000000  1
  Mn  Mn4  1  0.500000  0.500000  0.000000  1
  Mn  Mn5  1  0.000000  0.000000  0.000000  1
  Co  Co6  1  0.500000  0.000000  0.500000  1
  Co  Co7  1  0.000000  0.500000  0.500000  1
  B  B8  1  0.615047  0.115047  0.000000  1
  B  B9  1  0.384953  0.884953  0.000000  1
  B  B10  1  0.115047  0.384953  0.000000  1
  B  B11  1  0.884953  0.615047  0.000000  1
  Ir  Ir12  1  0.720118  0.565410  0.500000  1
  Ir  Ir13  1  0.279882  0.434590  0.500000  1
  Ir  Ir14  1  0.220118  0.934590  0.500000  1
  Ir  Ir15  1  0.779882  0.065410  0.500000  1
  Ir  Ir16  1  0.434590  0.720118  0.500000  1
  Ir  Ir17  1  0.565410  0.279882  0.500000  1
  Ir  Ir18  1  0.065410  0.220118  0.500000  1
  Ir  Ir19  1  0.934590  0.779882  0.500000  1
