# generated using pymatgen
data_Ti(Mn6Ga)4
_symmetry_space_group_name_H-M   'P 1'
_cell_length_a   7.60371676
_cell_length_b   7.60371715
_cell_length_c   7.60371700
_cell_angle_alpha   109.47121758
_cell_angle_beta   109.47121861
_cell_angle_gamma   109.47122539
_symmetry_Int_Tables_number   1
_chemical_formula_structural   Ti(Mn6Ga)4
_chemical_formula_sum   'Ti1 Mn24 Ga4'
_cell_volume   338.41993644
_cell_formula_units_Z   1
loop_
 _symmetry_equiv_pos_site_id
 _symmetry_equiv_pos_as_xyz
  1  'x, y, z'
loop_
 _atom_site_type_symbol
 _atom_site_label
 _atom_site_symmetry_multiplicity
 _atom_site_fract_x
 _atom_site_fract_y
 _atom_site_fract_z
 _atom_site_occupancy
  Ti  Ti0  1  0.000000  0.000000  0.000000  1
  Mn  Mn1  1  0.384581  0.676683  0.000000  1
  Mn  Mn2  1  0.707898  0.323317  0.323317  1
  Mn  Mn3  1  0.384581  0.000000  0.676683  1
  Mn  Mn4  1  0.676683  0.384581  0.000000  1
  Mn  Mn5  1  0.000000  0.384581  0.676683  1
  Mn  Mn6  1  0.323317  0.707898  0.323317  1
  Mn  Mn7  1  0.323317  0.323317  0.707898  1
  Mn  Mn8  1  0.000000  0.676683  0.384581  1
  Mn  Mn9  1  0.676683  0.000000  0.384581  1
  Mn  Mn10  1  0.615419  0.615419  0.292102  1
  Mn  Mn11  1  0.292102  0.615419  0.615419  1
  Mn  Mn12  1  0.615419  0.292102  0.615419  1
  Mn  Mn13  1  0.373857  0.194563  0.000000  1
  Mn  Mn14  1  0.179294  0.805437  0.805437  1
  Mn  Mn15  1  0.373857  0.000000  0.194563  1
  Mn  Mn16  1  0.194563  0.373857  0.000000  1
  Mn  Mn17  1  0.000000  0.373857  0.194563  1
  Mn  Mn18  1  0.805437  0.179294  0.805437  1
  Mn  Mn19  1  0.805437  0.805437  0.179294  1
  Mn  Mn20  1  0.000000  0.194563  0.373857  1
  Mn  Mn21  1  0.194563  0.000000  0.373857  1
  Mn  Mn22  1  0.626143  0.626143  0.820706  1
  Mn  Mn23  1  0.820706  0.626143  0.626143  1
  Mn  Mn24  1  0.626143  0.820706  0.626143  1
  Ga  Ga25  1  0.635896  0.000000  0.000000  1
  Ga  Ga26  1  0.000000  0.635896  0.000000  1
  Ga  Ga27  1  0.000000  0.000000  0.635896  1
  Ga  Ga28  1  0.364104  0.364104  0.364104  1
