# generated using pymatgen
data_Y12Co5Hg
_symmetry_space_group_name_H-M   'P 1'
_cell_length_a   8.34935499
_cell_length_b   8.34935554
_cell_length_c   8.34935461
_cell_angle_alpha   110.13826213
_cell_angle_beta   110.48494725
_cell_angle_gamma   107.80340774
_symmetry_Int_Tables_number   1
_chemical_formula_structural   Y12Co5Hg
_chemical_formula_sum   'Y12 Co5 Hg1'
_cell_volume   447.77280917
_cell_formula_units_Z   1
loop_
 _symmetry_equiv_pos_site_id
 _symmetry_equiv_pos_as_xyz
  1  'x, y, z'
loop_
 _atom_site_type_symbol
 _atom_site_label
 _atom_site_symmetry_multiplicity
 _atom_site_fract_x
 _atom_site_fract_y
 _atom_site_fract_z
 _atom_site_occupancy
  Y  Y0  1  0.292088  0.184501  0.476588  1
  Y  Y1  1  0.707912  0.815499  0.523412  1
  Y  Y2  1  0.292088  0.815499  0.107588  1
  Y  Y3  1  0.707912  0.184501  0.892412  1
  Y  Y4  1  0.619836  0.315940  0.303896  1
  Y  Y5  1  0.380164  0.684060  0.696104  1
  Y  Y6  1  0.012044  0.315940  0.696104  1
  Y  Y7  1  0.987956  0.684060  0.303896  1
  Y  Y8  1  0.209200  0.402035  0.192836  1
  Y  Y9  1  0.790800  0.597965  0.807164  1
  Y  Y10  1  0.209200  0.016364  0.807164  1
  Y  Y11  1  0.790800  0.983636  0.192836  1
  Co  Co12  1  0.000000  0.380953  0.380953  1
  Co  Co13  1  0.000000  0.619047  0.619047  1
  Co  Co14  1  0.388151  0.888151  0.500000  1
  Co  Co15  1  0.611849  0.111849  0.500000  1
  Co  Co16  1  0.000000  0.000000  0.000000  1
  Hg  Hg17  1  0.500000  0.500000  0.000000  1
