# generated using pymatgen
data_Sc12Si12IrRu3
_symmetry_space_group_name_H-M   'P 1'
_cell_length_a   4.01181300
_cell_length_b   10.27527332
_cell_length_c   11.71251675
_cell_angle_alpha   90.02361276
_cell_angle_beta   90.00000000
_cell_angle_gamma   90.00000000
_symmetry_Int_Tables_number   1
_chemical_formula_structural   Sc12Si12IrRu3
_chemical_formula_sum   'Sc12 Si12 Ir1 Ru3'
_cell_volume   482.81888876
_cell_formula_units_Z   1
loop_
 _symmetry_equiv_pos_site_id
 _symmetry_equiv_pos_as_xyz
  1  'x, y, z'
loop_
 _atom_site_type_symbol
 _atom_site_label
 _atom_site_symmetry_multiplicity
 _atom_site_fract_x
 _atom_site_fract_y
 _atom_site_fract_z
 _atom_site_occupancy
  Sc  Sc0  1  0.250000  0.878152  0.020560  1
  Sc  Sc1  1  0.250000  0.622622  0.520175  1
  Sc  Sc2  1  0.750000  0.123055  0.980716  1
  Sc  Sc3  1  0.750000  0.377871  0.479514  1
  Sc  Sc4  1  0.250000  0.920623  0.604480  1
  Sc  Sc5  1  0.250000  0.579690  0.103493  1
  Sc  Sc6  1  0.750000  0.078666  0.396972  1
  Sc  Sc7  1  0.750000  0.421017  0.895902  1
  Sc  Sc8  1  0.250000  0.658954  0.798487  1
  Sc  Sc9  1  0.250000  0.839471  0.298667  1
  Sc  Sc10  1  0.750000  0.340432  0.201245  1
  Sc  Sc11  1  0.750000  0.158590  0.700649  1
  Si  Si12  1  0.250000  0.015206  0.823520  1
  Si  Si13  1  0.250000  0.485574  0.321944  1
  Si  Si14  1  0.750000  0.985749  0.178393  1
  Si  Si15  1  0.750000  0.513896  0.677593  1
  Si  Si16  1  0.250000  0.251283  0.841395  1
  Si  Si17  1  0.250000  0.247826  0.342003  1
  Si  Si18  1  0.750000  0.748711  0.157476  1
  Si  Si19  1  0.750000  0.750599  0.657697  1
  Si  Si20  1  0.250000  0.194543  0.545069  1
  Si  Si21  1  0.250000  0.306338  0.044694  1
  Si  Si22  1  0.750000  0.806595  0.455459  1
  Si  Si23  1  0.750000  0.694264  0.954473  1
  Ir  Ir24  1  0.750000  0.889402  0.823505  1
  Ru  Ru25  1  0.250000  0.390043  0.676643  1
  Ru  Ru26  1  0.250000  0.110179  0.176316  1
  Ru  Ru27  1  0.750000  0.610648  0.322961  1
