# generated using pymatgen
data_ErHf7Ta4Ti7Si16Tc
_symmetry_space_group_name_H-M   'P 1'
_cell_length_a   6.83505642
_cell_length_b   6.83649174
_cell_length_c   12.58258200
_cell_angle_alpha   89.94822295
_cell_angle_beta   89.97983138
_cell_angle_gamma   89.92439465
_symmetry_Int_Tables_number   1
_chemical_formula_structural   ErHf7Ta4Ti7Si16Tc
_chemical_formula_sum   'Er1 Hf7 Ta4 Ti7 Si16 Tc1'
_cell_volume   587.95567242
_cell_formula_units_Z   1
loop_
 _symmetry_equiv_pos_site_id
 _symmetry_equiv_pos_as_xyz
  1  'x, y, z'
loop_
 _atom_site_type_symbol
 _atom_site_label
 _atom_site_symmetry_multiplicity
 _atom_site_fract_x
 _atom_site_fract_y
 _atom_site_fract_z
 _atom_site_occupancy
  Er  Er0  1  0.997375  0.660934  0.029573  1
  Hf  Hf1  1  0.341580  0.997036  0.470599  1
  Hf  Hf2  1  0.503083  0.842265  0.718518  1
  Hf  Hf3  1  0.496130  0.159225  0.220920  1
  Hf  Hf4  1  0.841630  0.502815  0.282034  1
  Hf  Hf5  1  0.159529  0.495834  0.780281  1
  Hf  Hf6  1  0.653661  0.003722  0.967269  1
  Hf  Hf7  1  0.997577  0.341471  0.531550  1
  Ta  Ta8  1  0.332570  0.330128  0.000271  1
  Ta  Ta9  1  0.169664  0.832151  0.250635  1
  Ta  Ta10  1  0.829897  0.169218  0.749189  1
  Ta  Ta11  1  0.669495  0.669949  0.499602  1
  Ti  Ti12  1  0.493584  0.654159  0.123308  1
  Ti  Ti13  1  0.503038  0.344444  0.623523  1
  Ti  Ti14  1  0.654017  0.491284  0.874857  1
  Ti  Ti15  1  0.347295  0.504626  0.378394  1
  Ti  Ti16  1  0.846628  0.996652  0.374329  1
  Ti  Ti17  1  0.004755  0.153038  0.129261  1
  Ti  Ti18  1  0.996490  0.847074  0.626141  1
  Si  Si19  1  0.207204  0.133273  0.675132  1
  Si  Si20  1  0.370170  0.708460  0.925258  1
  Si  Si21  1  0.633048  0.291730  0.425989  1
  Si  Si22  1  0.705216  0.362802  0.073714  1
  Si  Si23  1  0.293520  0.634004  0.574153  1
  Si  Si24  1  0.788721  0.869689  0.179261  1
  Si  Si25  1  0.134559  0.206925  0.324774  1
  Si  Si26  1  0.868623  0.795503  0.820262  1
  Si  Si27  1  0.297463  0.959213  0.063000  1
  Si  Si28  1  0.543063  0.796951  0.313776  1
  Si  Si29  1  0.452882  0.204209  0.812499  1
  Si  Si30  1  0.795124  0.546389  0.685903  1
  Si  Si31  1  0.205228  0.453997  0.188853  1
  Si  Si32  1  0.704987  0.045034  0.562590  1
  Si  Si33  1  0.958395  0.288010  0.937342  1
  Si  Si34  1  0.044649  0.704406  0.437109  1
  Tc  Tc35  1  0.159155  0.003379  0.870131  1
