# generated using pymatgen
data_YbTa2P2O11
_symmetry_space_group_name_H-M   'P 1'
_cell_length_a   9.30294105
_cell_length_b   9.30294104
_cell_length_c   5.28895500
_cell_angle_alpha   87.08369575
_cell_angle_beta   87.08369576
_cell_angle_gamma   71.72928372
_symmetry_Int_Tables_number   1
_chemical_formula_structural   YbTa2P2O11
_chemical_formula_sum   'Yb2 Ta4 P4 O22'
_cell_volume   433.79755187
_cell_formula_units_Z   2
loop_
 _symmetry_equiv_pos_site_id
 _symmetry_equiv_pos_as_xyz
  1  'x, y, z'
loop_
 _atom_site_type_symbol
 _atom_site_label
 _atom_site_symmetry_multiplicity
 _atom_site_fract_x
 _atom_site_fract_y
 _atom_site_fract_z
 _atom_site_occupancy
  Yb  Yb0  1  0.605901  0.394099  0.250000  1
  Yb  Yb1  1  0.394099  0.605901  0.750000  1
  Ta  Ta2  1  0.003653  0.246091  0.265441  1
  Ta  Ta3  1  0.246091  0.003653  0.765441  1
  Ta  Ta4  1  0.753909  0.996347  0.234559  1
  Ta  Ta5  1  0.996347  0.753909  0.734559  1
  P  P6  1  0.187339  0.519985  0.242730  1
  P  P7  1  0.812661  0.480015  0.757270  1
  P  P8  1  0.480015  0.812661  0.257270  1
  P  P9  1  0.519985  0.187339  0.742730  1
  O  O10  1  0.626015  0.079975  0.548287  1
  O  O11  1  0.091380  0.136323  0.566871  1
  O  O12  1  0.079975  0.626015  0.048287  1
  O  O13  1  0.831605  0.403761  0.496002  1
  O  O14  1  0.833089  0.166911  0.250000  1
  O  O15  1  0.403761  0.831605  0.996002  1
  O  O16  1  0.596239  0.168395  0.003998  1
  O  O17  1  0.374551  0.138912  0.783566  1
  O  O18  1  0.908620  0.863677  0.433129  1
  O  O19  1  0.136323  0.091380  0.066871  1
  O  O20  1  0.920025  0.373985  0.951713  1
  O  O21  1  0.515955  0.650184  0.364775  1
  O  O22  1  0.349816  0.484045  0.135225  1
  O  O23  1  0.861088  0.625449  0.716434  1
  O  O24  1  0.166911  0.833089  0.750000  1
  O  O25  1  0.863677  0.908620  0.933129  1
  O  O26  1  0.168395  0.596239  0.503998  1
  O  O27  1  0.625449  0.861088  0.216434  1
  O  O28  1  0.650184  0.515955  0.864775  1
  O  O29  1  0.373985  0.920025  0.451713  1
  O  O30  1  0.484045  0.349816  0.635225  1
  O  O31  1  0.138912  0.374551  0.283566  1
