# generated using pymatgen
data_HfZrCo12GeP6
_symmetry_space_group_name_H-M   'P 1'
_cell_length_a   8.97444500
_cell_length_b   8.97444408
_cell_length_c   3.54856600
_cell_angle_alpha   90.00000000
_cell_angle_beta   90.00000000
_cell_angle_gamma   120.00000709
_symmetry_Int_Tables_number   1
_chemical_formula_structural   HfZrCo12GeP6
_chemical_formula_sum   'Hf1 Zr1 Co12 Ge1 P6'
_cell_volume   247.51335885
_cell_formula_units_Z   1
loop_
 _symmetry_equiv_pos_site_id
 _symmetry_equiv_pos_as_xyz
  1  'x, y, z'
loop_
 _atom_site_type_symbol
 _atom_site_label
 _atom_site_symmetry_multiplicity
 _atom_site_fract_x
 _atom_site_fract_y
 _atom_site_fract_z
 _atom_site_occupancy
  Hf  Hf0  1  0.333333  0.666667  0.000000  1
  Zr  Zr1  1  0.666667  0.333333  0.500000  1
  Co  Co2  1  0.440139  0.063669  0.000000  1
  Co  Co3  1  0.936331  0.376471  0.000000  1
  Co  Co4  1  0.623529  0.559861  0.000000  1
  Co  Co5  1  0.386646  0.443727  0.500000  1
  Co  Co6  1  0.556273  0.942919  0.500000  1
  Co  Co7  1  0.057081  0.613354  0.500000  1
  Co  Co8  1  0.165218  0.291665  0.000000  1
  Co  Co9  1  0.708335  0.873552  0.000000  1
  Co  Co10  1  0.126448  0.834782  0.000000  1
  Co  Co11  1  0.251322  0.110490  0.500000  1
  Co  Co12  1  0.889510  0.140831  0.500000  1
  Co  Co13  1  0.859169  0.748678  0.500000  1
  Ge  Ge14  1  0.000000  0.000000  0.000000  1
  P  P15  1  0.117019  0.407377  0.500000  1
  P  P16  1  0.592623  0.709642  0.500000  1
  P  P17  1  0.290358  0.882981  0.500000  1
  P  P18  1  0.408794  0.291988  0.000000  1
  P  P19  1  0.708012  0.116807  0.000000  1
  P  P20  1  0.883193  0.591206  0.000000  1
