# generated using pymatgen
data_Sc6Ti3Al12Co7Mo
_symmetry_space_group_name_H-M   'P 1'
_cell_length_a   8.59270234
_cell_length_b   8.59270187
_cell_length_c   8.57748655
_cell_angle_alpha   59.94130708
_cell_angle_beta   59.94130901
_cell_angle_gamma   59.99999864
_symmetry_Int_Tables_number   1
_chemical_formula_structural   Sc6Ti3Al12Co7Mo
_chemical_formula_sum   'Sc6 Ti3 Al12 Co7 Mo1'
_cell_volume   447.42341634
_cell_formula_units_Z   1
loop_
 _symmetry_equiv_pos_site_id
 _symmetry_equiv_pos_as_xyz
  1  'x, y, z'
loop_
 _atom_site_type_symbol
 _atom_site_label
 _atom_site_symmetry_multiplicity
 _atom_site_fract_x
 _atom_site_fract_y
 _atom_site_fract_z
 _atom_site_occupancy
  Sc  Sc0  1  0.701379  0.701379  0.300262  1
  Sc  Sc1  1  0.296981  0.701379  0.300262  1
  Sc  Sc2  1  0.701379  0.296981  0.300262  1
  Sc  Sc3  1  0.300493  0.300493  0.699536  1
  Sc  Sc4  1  0.699478  0.300493  0.699536  1
  Sc  Sc5  1  0.300493  0.699478  0.699536  1
  Ti  Ti6  1  0.881776  0.355186  0.881262  1
  Ti  Ti7  1  0.355186  0.881776  0.881262  1
  Ti  Ti8  1  0.881776  0.881776  0.881262  1
  Al  Al9  1  0.119555  0.119555  0.641336  1
  Al  Al10  1  0.119879  0.641217  0.119024  1
  Al  Al11  1  0.641217  0.119879  0.119024  1
  Al  Al12  1  0.119879  0.119879  0.119024  1
  Al  Al13  1  0.665908  0.665908  0.002277  1
  Al  Al14  1  0.665974  0.002573  0.665480  1
  Al  Al15  1  0.002573  0.665974  0.665480  1
  Al  Al16  1  0.665974  0.665974  0.665480  1
  Al  Al17  1  0.332956  0.332956  0.001130  1
  Al  Al18  1  0.333318  0.000387  0.332977  1
  Al  Al19  1  0.000387  0.333318  0.332977  1
  Al  Al20  1  0.333318  0.333318  0.332977  1
  Co  Co21  1  0.998313  0.998313  0.005060  1
  Co  Co22  1  0.997132  0.997132  0.501507  1
  Co  Co23  1  0.504230  0.997132  0.501507  1
  Co  Co24  1  0.997132  0.504230  0.501507  1
  Co  Co25  1  0.502883  0.502883  0.997747  1
  Co  Co26  1  0.996486  0.502883  0.997747  1
  Co  Co27  1  0.502883  0.996486  0.997747  1
  Mo  Mo28  1  0.881064  0.881064  0.356810  1
