# generated using pymatgen
data_Dy2Y18Ir11Ru
_symmetry_space_group_name_H-M   'P 1'
_cell_length_a   10.90865900
_cell_length_b   10.90927200
_cell_length_c   6.41354200
_cell_angle_alpha   90.00000000
_cell_angle_beta   90.00000000
_cell_angle_gamma   89.99693273
_symmetry_Int_Tables_number   1
_chemical_formula_structural   Dy2Y18Ir11Ru
_chemical_formula_sum   'Dy2 Y18 Ir11 Ru1'
_cell_volume   763.24695271
_cell_formula_units_Z   1
loop_
 _symmetry_equiv_pos_site_id
 _symmetry_equiv_pos_as_xyz
  1  'x, y, z'
loop_
 _atom_site_type_symbol
 _atom_site_label
 _atom_site_symmetry_multiplicity
 _atom_site_fract_x
 _atom_site_fract_y
 _atom_site_fract_z
 _atom_site_occupancy
  Dy  Dy0  1  0.500000  0.500000  0.999249  1
  Dy  Dy1  1  0.500000  0.500000  0.499292  1
  Y  Y2  1  0.292495  0.087355  0.377486  1
  Y  Y3  1  0.292846  0.912584  0.880255  1
  Y  Y4  1  0.707154  0.087416  0.880255  1
  Y  Y5  1  0.707505  0.912645  0.377486  1
  Y  Y6  1  0.587384  0.792857  0.880283  1
  Y  Y7  1  0.587324  0.207488  0.377526  1
  Y  Y8  1  0.412676  0.792512  0.377526  1
  Y  Y9  1  0.412616  0.207143  0.880283  1
  Y  Y10  1  0.208852  0.411578  0.621303  1
  Y  Y11  1  0.208839  0.588288  0.121006  1
  Y  Y12  1  0.791161  0.411712  0.121006  1
  Y  Y13  1  0.791148  0.588422  0.621303  1
  Y  Y14  1  0.911675  0.708863  0.121070  1
  Y  Y15  1  0.911532  0.291131  0.621359  1
  Y  Y16  1  0.088468  0.708869  0.621359  1
  Y  Y17  1  0.088325  0.291137  0.121070  1
  Y  Y18  1  0.000000  0.000000  0.499251  1
  Y  Y19  1  0.000000  0.000000  0.999228  1
  Ir  Ir20  1  0.847015  0.153791  0.249972  1
  Ir  Ir21  1  0.847070  0.846554  0.749751  1
  Ir  Ir22  1  0.152930  0.153446  0.749751  1
  Ir  Ir23  1  0.152985  0.846209  0.249972  1
  Ir  Ir24  1  0.652701  0.347808  0.749770  1
  Ir  Ir25  1  0.653048  0.652267  0.250010  1
  Ir  Ir26  1  0.346952  0.347733  0.250010  1
  Ir  Ir27  1  0.347299  0.652192  0.749770  1
  Ir  Ir28  1  0.500000  0.000000  0.624688  1
  Ir  Ir29  1  0.000000  0.500000  0.876497  1
  Ir  Ir30  1  0.000000  0.500000  0.376621  1
  Ru  Ru31  1  0.500000  0.000000  0.125597  1
