# generated using pymatgen
data_Ac2TiNiO6
_symmetry_space_group_name_H-M   'P 1'
_cell_length_a   5.58109777
_cell_length_b   5.58109836
_cell_length_c   5.58109800
_cell_angle_alpha   61.69651286
_cell_angle_beta   61.69650960
_cell_angle_gamma   61.69651321
_symmetry_Int_Tables_number   1
_chemical_formula_structural   Ac2TiNiO6
_chemical_formula_sum   'Ac2 Ti1 Ni1 O6'
_cell_volume   127.60088524
_cell_formula_units_Z   1
loop_
 _symmetry_equiv_pos_site_id
 _symmetry_equiv_pos_as_xyz
  1  'x, y, z'
loop_
 _atom_site_type_symbol
 _atom_site_label
 _atom_site_symmetry_multiplicity
 _atom_site_fract_x
 _atom_site_fract_y
 _atom_site_fract_z
 _atom_site_occupancy
  Ac  Ac0  1  0.250899  0.250899  0.250899  1
  Ac  Ac1  1  0.749101  0.749101  0.749101  1
  Ti  Ti2  1  0.000000  0.000000  0.000000  1
  Ni  Ni3  1  0.500000  0.500000  0.500000  1
  O  O4  1  0.298944  0.760511  0.187423  1
  O  O5  1  0.812577  0.701056  0.239489  1
  O  O6  1  0.760511  0.187423  0.298944  1
  O  O7  1  0.239489  0.812577  0.701056  1
  O  O8  1  0.187423  0.298944  0.760511  1
  O  O9  1  0.701056  0.239489  0.812577  1
