# generated using pymatgen
data_YbScTc2B4Ru3
_symmetry_space_group_name_H-M   'P 1'
_cell_length_a   3.01437900
_cell_length_b   8.64413849
_cell_length_c   10.11701427
_cell_angle_alpha   90.34425730
_cell_angle_beta   90.00000000
_cell_angle_gamma   90.00000000
_symmetry_Int_Tables_number   1
_chemical_formula_structural   YbScTc2B4Ru3
_chemical_formula_sum   'Yb2 Sc2 Tc4 B8 Ru6'
_cell_volume   263.61134367
_cell_formula_units_Z   2
loop_
 _symmetry_equiv_pos_site_id
 _symmetry_equiv_pos_as_xyz
  1  'x, y, z'
loop_
 _atom_site_type_symbol
 _atom_site_label
 _atom_site_symmetry_multiplicity
 _atom_site_fract_x
 _atom_site_fract_y
 _atom_site_fract_z
 _atom_site_occupancy
  Yb  Yb0  1  0.500000  0.839840  0.182716  1
  Yb  Yb1  1  0.500000  0.160160  0.817284  1
  Sc  Sc2  1  0.500000  0.658589  0.682206  1
  Sc  Sc3  1  0.500000  0.341411  0.317794  1
  Tc  Tc4  1  0.000000  0.657993  0.952008  1
  Tc  Tc5  1  0.000000  0.342007  0.047992  1
  Tc  Tc6  1  0.000000  0.839936  0.455594  1
  Tc  Tc7  1  0.000000  0.160064  0.544406  1
  B  B8  1  0.500000  0.966086  0.587840  1
  B  B9  1  0.500000  0.033914  0.412160  1
  B  B10  1  0.500000  0.849273  0.900601  1
  B  B11  1  0.500000  0.150727  0.099399  1
  B  B12  1  0.500000  0.649451  0.402388  1
  B  B13  1  0.500000  0.350549  0.597612  1
  B  B14  1  0.500000  0.465641  0.912807  1
  B  B15  1  0.500000  0.534359  0.087193  1
  Ru  Ru16  1  0.000000  0.000000  0.000000  1
  Ru  Ru17  1  0.000000  0.413098  0.758853  1
  Ru  Ru18  1  0.000000  0.586902  0.241147  1
  Ru  Ru19  1  0.000000  0.500000  0.500000  1
  Ru  Ru20  1  0.000000  0.900682  0.738200  1
  Ru  Ru21  1  0.000000  0.099318  0.261800  1
