# generated using pymatgen
data_Ho4ScIr3
_symmetry_space_group_name_H-M   'P 1'
_cell_length_a   10.73392500
_cell_length_b   10.73392500
_cell_length_c   6.25023400
_cell_angle_alpha   90.00000000
_cell_angle_beta   90.00000000
_cell_angle_gamma   90.00000000
_symmetry_Int_Tables_number   1
_chemical_formula_structural   Ho4ScIr3
_chemical_formula_sum   'Ho16 Sc4 Ir12'
_cell_volume   720.13412272
_cell_formula_units_Z   4
loop_
 _symmetry_equiv_pos_site_id
 _symmetry_equiv_pos_as_xyz
  1  'x, y, z'
loop_
 _atom_site_type_symbol
 _atom_site_label
 _atom_site_symmetry_multiplicity
 _atom_site_fract_x
 _atom_site_fract_y
 _atom_site_fract_z
 _atom_site_occupancy
  Ho  Ho0  1  0.288386  0.086661  0.377460  1
  Ho  Ho1  1  0.288386  0.913339  0.877460  1
  Ho  Ho2  1  0.711614  0.086661  0.877460  1
  Ho  Ho3  1  0.711614  0.913339  0.377460  1
  Ho  Ho4  1  0.586661  0.788386  0.877460  1
  Ho  Ho5  1  0.586661  0.211614  0.377460  1
  Ho  Ho6  1  0.413339  0.788386  0.377460  1
  Ho  Ho7  1  0.413339  0.211614  0.877460  1
  Ho  Ho8  1  0.211614  0.413339  0.622540  1
  Ho  Ho9  1  0.211614  0.586661  0.122540  1
  Ho  Ho10  1  0.788386  0.413339  0.122540  1
  Ho  Ho11  1  0.788386  0.586661  0.622540  1
  Ho  Ho12  1  0.913339  0.711614  0.122540  1
  Ho  Ho13  1  0.913339  0.288386  0.622540  1
  Ho  Ho14  1  0.086661  0.711614  0.622540  1
  Ho  Ho15  1  0.086661  0.288386  0.122540  1
  Sc  Sc16  1  0.000000  0.000000  0.500000  1
  Sc  Sc17  1  0.000000  0.000000  0.000000  1
  Sc  Sc18  1  0.500000  0.500000  0.000000  1
  Sc  Sc19  1  0.500000  0.500000  0.500000  1
  Ir  Ir20  1  0.851642  0.148358  0.250000  1
  Ir  Ir21  1  0.851642  0.851642  0.750000  1
  Ir  Ir22  1  0.148358  0.148358  0.750000  1
  Ir  Ir23  1  0.148358  0.851642  0.250000  1
  Ir  Ir24  1  0.648358  0.351642  0.750000  1
  Ir  Ir25  1  0.648358  0.648358  0.250000  1
  Ir  Ir26  1  0.351642  0.351642  0.250000  1
  Ir  Ir27  1  0.351642  0.648358  0.750000  1
  Ir  Ir28  1  0.500000  0.000000  0.122015  1
  Ir  Ir29  1  0.500000  0.000000  0.622015  1
  Ir  Ir30  1  0.000000  0.500000  0.877985  1
  Ir  Ir31  1  0.000000  0.500000  0.377985  1
