# generated using pymatgen
data_Nb15VNi8C3N
_symmetry_space_group_name_H-M   'P 1'
_cell_length_a   8.25238384
_cell_length_b   8.24876051
_cell_length_c   8.25238400
_cell_angle_alpha   59.98546776
_cell_angle_beta   59.99999936
_cell_angle_gamma   59.98546797
_symmetry_Int_Tables_number   1
_chemical_formula_structural   Nb15VNi8C3N
_chemical_formula_sum   'Nb15 V1 Ni8 C3 N1'
_cell_volume   397.13403996
_cell_formula_units_Z   1
loop_
 _symmetry_equiv_pos_site_id
 _symmetry_equiv_pos_as_xyz
  1  'x, y, z'
loop_
 _atom_site_type_symbol
 _atom_site_label
 _atom_site_symmetry_multiplicity
 _atom_site_fract_x
 _atom_site_fract_y
 _atom_site_fract_z
 _atom_site_occupancy
  Nb  Nb0  1  0.125000  0.625000  0.625000  1
  Nb  Nb1  1  0.625000  0.625000  0.125000  1
  Nb  Nb2  1  0.625000  0.625000  0.625000  1
  Nb  Nb3  1  0.817840  0.816664  0.182748  1
  Nb  Nb4  1  0.185608  0.185907  0.814242  1
  Nb  Nb5  1  0.814242  0.185907  0.814242  1
  Nb  Nb6  1  0.182748  0.816664  0.182748  1
  Nb  Nb7  1  0.182748  0.816664  0.817840  1
  Nb  Nb8  1  0.814242  0.185907  0.185608  1
  Nb  Nb9  1  0.432160  0.433336  0.067252  1
  Nb  Nb10  1  0.064392  0.064093  0.435758  1
  Nb  Nb11  1  0.435758  0.064093  0.435758  1
  Nb  Nb12  1  0.067252  0.433336  0.067252  1
  Nb  Nb13  1  0.067252  0.433336  0.432160  1
  Nb  Nb14  1  0.435758  0.064093  0.064392  1
  V  V15  1  0.625000  0.125000  0.625000  1
  Ni  Ni16  1  0.736844  0.409580  0.426788  1
  Ni  Ni17  1  0.420837  0.737487  0.420837  1
  Ni  Ni18  1  0.426788  0.409580  0.736844  1
  Ni  Ni19  1  0.426788  0.409580  0.426788  1
  Ni  Ni20  1  0.513156  0.840420  0.823212  1
  Ni  Ni21  1  0.829163  0.512513  0.829163  1
  Ni  Ni22  1  0.823212  0.840420  0.513156  1
  Ni  Ni23  1  0.823212  0.840420  0.823212  1
  C  C24  1  0.625000  0.125000  0.125000  1
  C  C25  1  0.125000  0.125000  0.625000  1
  C  C26  1  0.125000  0.125000  0.125000  1
  N  N27  1  0.125000  0.625000  0.125000  1
