# generated using pymatgen
data_Re5TcIrPt
_symmetry_space_group_name_H-M   'P 1'
_cell_length_a   5.58682200
_cell_length_b   5.58946934
_cell_length_c   4.40653300
_cell_angle_alpha   90.00000000
_cell_angle_beta   90.00000000
_cell_angle_gamma   119.98432184
_symmetry_Int_Tables_number   1
_chemical_formula_structural   Re5TcIrPt
_chemical_formula_sum   'Re5 Tc1 Ir1 Pt1'
_cell_volume   119.18776094
_cell_formula_units_Z   1
loop_
 _symmetry_equiv_pos_site_id
 _symmetry_equiv_pos_as_xyz
  1  'x, y, z'
loop_
 _atom_site_type_symbol
 _atom_site_label
 _atom_site_symmetry_multiplicity
 _atom_site_fract_x
 _atom_site_fract_y
 _atom_site_fract_z
 _atom_site_occupancy
  Re  Re0  1  0.839325  0.158977  0.750000  1
  Re  Re1  1  0.319652  0.158977  0.750000  1
  Re  Re2  1  0.159088  0.839232  0.250000  1
  Re  Re3  1  0.680143  0.839232  0.250000  1
  Re  Re4  1  0.160135  0.320270  0.250000  1
  Tc  Tc5  1  0.840183  0.680365  0.750000  1
  Ir  Ir6  1  0.334167  0.668335  0.750000  1
  Pt  Pt7  1  0.667307  0.334613  0.250000  1
