# generated using pymatgen
data_Tb2CeTaO7
_symmetry_space_group_name_H-M   'P 1'
_cell_length_a   6.54544375
_cell_length_b   6.54544431
_cell_length_c   7.61598400
_cell_angle_alpha   90.00000000
_cell_angle_beta   90.00000000
_cell_angle_gamma   108.99776188
_symmetry_Int_Tables_number   1
_chemical_formula_structural   Tb2CeTaO7
_chemical_formula_sum   'Tb4 Ce2 Ta2 O14'
_cell_volume   308.51775074
_cell_formula_units_Z   2
loop_
 _symmetry_equiv_pos_site_id
 _symmetry_equiv_pos_as_xyz
  1  'x, y, z'
loop_
 _atom_site_type_symbol
 _atom_site_label
 _atom_site_symmetry_multiplicity
 _atom_site_fract_x
 _atom_site_fract_y
 _atom_site_fract_z
 _atom_site_occupancy
  Tb  Tb0  1  0.534025  0.000715  0.750000  1
  Tb  Tb1  1  0.000715  0.534025  0.250000  1
  Tb  Tb2  1  0.465975  0.999285  0.250000  1
  Tb  Tb3  1  0.999285  0.465975  0.750000  1
  Ce  Ce4  1  0.500000  0.500000  0.500000  1
  Ce  Ce5  1  0.500000  0.500000  0.000000  1
  Ta  Ta6  1  0.000000  0.000000  0.500000  1
  Ta  Ta7  1  0.000000  0.000000  0.000000  1
  O  O8  1  0.681619  0.932965  0.467655  1
  O  O9  1  0.932965  0.681619  0.532345  1
  O  O10  1  0.681619  0.932965  0.032345  1
  O  O11  1  0.932965  0.681619  0.967655  1
  O  O12  1  0.318381  0.067035  0.532345  1
  O  O13  1  0.067035  0.318381  0.467655  1
  O  O14  1  0.318381  0.067035  0.967655  1
  O  O15  1  0.067035  0.318381  0.032345  1
  O  O16  1  0.936140  0.063860  0.750000  1
  O  O17  1  0.063860  0.936140  0.250000  1
  O  O18  1  0.365496  0.634503  0.750000  1
  O  O19  1  0.634503  0.365496  0.250000  1
  O  O20  1  0.641278  0.358722  0.750000  1
  O  O21  1  0.358722  0.641278  0.250000  1
