# generated using pymatgen
data_Tb4Ni3Sb8
_symmetry_space_group_name_H-M   'P 1'
_cell_length_a   10.42033540
_cell_length_b   10.42033537
_cell_length_c   10.42033561
_cell_angle_alpha   145.67192413
_cell_angle_beta   145.67192207
_cell_angle_gamma   49.33432892
_symmetry_Int_Tables_number   1
_chemical_formula_structural   Tb4Ni3Sb8
_chemical_formula_sum   'Tb4 Ni3 Sb8'
_cell_volume   358.18839113
_cell_formula_units_Z   1
loop_
 _symmetry_equiv_pos_site_id
 _symmetry_equiv_pos_as_xyz
  1  'x, y, z'
loop_
 _atom_site_type_symbol
 _atom_site_label
 _atom_site_symmetry_multiplicity
 _atom_site_fract_x
 _atom_site_fract_y
 _atom_site_fract_z
 _atom_site_occupancy
  Tb  Tb0  1  0.637540  0.637540  0.508938  1
  Tb  Tb1  1  0.128601  0.128601  0.491062  1
  Tb  Tb2  1  0.362460  0.871399  0.000000  1
  Tb  Tb3  1  0.871399  0.362460  0.000000  1
  Ni  Ni4  1  0.000000  0.000000  0.000000  1
  Ni  Ni5  1  0.000000  0.500000  0.500000  1
  Ni  Ni6  1  0.500000  0.000000  0.500000  1
  Sb  Sb7  1  0.326640  0.326640  0.519206  1
  Sb  Sb8  1  0.807434  0.807434  0.480794  1
  Sb  Sb9  1  0.673360  0.192566  0.000000  1
  Sb  Sb10  1  0.192566  0.673360  0.000000  1
  Sb  Sb11  1  0.249947  0.249947  0.000000  1
  Sb  Sb12  1  0.750053  0.750053  0.000000  1
  Sb  Sb13  1  0.750000  0.250000  0.500000  1
  Sb  Sb14  1  0.250000  0.750000  0.500000  1
