# generated using pymatgen
data_MgZrCrH6
_symmetry_space_group_name_H-M   'P 1'
_cell_length_a   4.53894890
_cell_length_b   4.53894761
_cell_length_c   4.53894900
_cell_angle_alpha   59.99995340
_cell_angle_beta   59.99994823
_cell_angle_gamma   59.99995075
_symmetry_Int_Tables_number   1
_chemical_formula_structural   MgZrCrH6
_chemical_formula_sum   'Mg1 Zr1 Cr1 H6'
_cell_volume   66.12265500
_cell_formula_units_Z   1
loop_
 _symmetry_equiv_pos_site_id
 _symmetry_equiv_pos_as_xyz
  1  'x, y, z'
loop_
 _atom_site_type_symbol
 _atom_site_label
 _atom_site_symmetry_multiplicity
 _atom_site_fract_x
 _atom_site_fract_y
 _atom_site_fract_z
 _atom_site_occupancy
  Mg  Mg0  1  0.750001  0.749995  0.750012  1
  Zr  Zr1  1  0.250004  0.249982  0.250004  1
  Cr  Cr2  1  0.999992  0.999990  0.999970  1
  H  H3  1  0.740953  0.259053  0.259049  1
  H  H4  1  0.740953  0.740957  0.259050  1
  H  H5  1  0.259047  0.740956  0.259051  1
  H  H6  1  0.259048  0.740958  0.740955  1
  H  H7  1  0.259046  0.259053  0.740956  1
  H  H8  1  0.740952  0.259053  0.740956  1
