# generated using pymatgen
data_La2Pr5Dy(MoO6)4
_symmetry_space_group_name_H-M   'P 1'
_cell_length_a   10.29794016
_cell_length_b   10.29794052
_cell_length_c   5.60263014
_cell_angle_alpha   75.20811914
_cell_angle_beta   75.20811535
_cell_angle_gamma   68.75309053
_symmetry_Int_Tables_number   1
_chemical_formula_structural   La2Pr5Dy(MoO6)4
_chemical_formula_sum   'La2 Pr5 Dy1 Mo4 O24'
_cell_volume   526.59939660
_cell_formula_units_Z   1
loop_
 _symmetry_equiv_pos_site_id
 _symmetry_equiv_pos_as_xyz
  1  'x, y, z'
loop_
 _atom_site_type_symbol
 _atom_site_label
 _atom_site_symmetry_multiplicity
 _atom_site_fract_x
 _atom_site_fract_y
 _atom_site_fract_z
 _atom_site_occupancy
  La  La0  1  0.634659  0.365341  0.750000  1
  La  La1  1  0.362176  0.637824  0.250000  1
  Pr  Pr2  1  0.891821  0.108179  0.250000  1
  Pr  Pr3  1  0.713016  0.942275  0.883528  1
  Pr  Pr4  1  0.287310  0.052727  0.120540  1
  Pr  Pr5  1  0.057725  0.286984  0.616472  1
  Pr  Pr6  1  0.947273  0.712690  0.379460  1
  Dy  Dy7  1  0.102905  0.897095  0.750000  1
  Mo  Mo8  1  0.505905  0.799395  0.563987  1
  Mo  Mo9  1  0.492009  0.200939  0.441200  1
  Mo  Mo10  1  0.200605  0.494095  0.936013  1
  Mo  Mo11  1  0.799061  0.507991  0.058800  1
  O  O12  1  0.686248  0.162163  0.584518  1
  O  O13  1  0.306422  0.838017  0.437386  1
  O  O14  1  0.837837  0.313752  0.915482  1
  O  O15  1  0.161983  0.693578  0.062614  1
  O  O16  1  0.387789  0.829863  0.868372  1
  O  O17  1  0.615920  0.168161  0.142708  1
  O  O18  1  0.170137  0.612211  0.631628  1
  O  O19  1  0.831839  0.384080  0.357292  1
  O  O20  1  0.674493  0.790653  0.632637  1
  O  O21  1  0.325717  0.210781  0.363697  1
  O  O22  1  0.209347  0.325507  0.867363  1
  O  O23  1  0.789219  0.674283  0.136303  1
  O  O24  1  0.473829  0.071166  0.735204  1
  O  O25  1  0.523324  0.926047  0.264074  1
  O  O26  1  0.928834  0.526171  0.764796  1
  O  O27  1  0.073953  0.476676  0.235926  1
  O  O28  1  0.543307  0.620159  0.519647  1
  O  O29  1  0.455137  0.381297  0.480607  1
  O  O30  1  0.379841  0.456693  0.980353  1
  O  O31  1  0.618703  0.544863  0.019393  1
  O  O32  1  0.896346  0.923575  0.071451  1
  O  O33  1  0.109253  0.070367  0.919423  1
  O  O34  1  0.076425  0.103654  0.428549  1
  O  O35  1  0.929633  0.890747  0.580577  1
