# generated using pymatgen
data_Y2PaCo2
_symmetry_space_group_name_H-M   'P 1'
_cell_length_a   3.63493177
_cell_length_b   6.04763642
_cell_length_c   5.98203328
_cell_angle_alpha   120.36342656
_cell_angle_beta   107.68722986
_cell_angle_gamma   90.00000162
_symmetry_Int_Tables_number   1
_chemical_formula_structural   Y2PaCo2
_chemical_formula_sum   'Y2 Pa1 Co2'
_cell_volume   106.19753438
_cell_formula_units_Z   1
loop_
 _symmetry_equiv_pos_site_id
 _symmetry_equiv_pos_as_xyz
  1  'x, y, z'
loop_
 _atom_site_type_symbol
 _atom_site_label
 _atom_site_symmetry_multiplicity
 _atom_site_fract_x
 _atom_site_fract_y
 _atom_site_fract_z
 _atom_site_occupancy
  Y  Y0  1  0.806531  0.306531  0.613063  1
  Y  Y1  1  0.193469  0.693469  0.386937  1
  Pa  Pa2  1  0.000000  0.000000  0.000000  1
  Co  Co3  1  0.500000  0.283937  0.000000  1
  Co  Co4  1  0.500000  0.716063  0.000000  1
