# generated using pymatgen
data_Tm12Co7Si8Os
_symmetry_space_group_name_H-M   'P 1'
_cell_length_a   5.48316777
_cell_length_b   7.55243261
_cell_length_c   12.57011394
_cell_angle_alpha   90.06584424
_cell_angle_beta   90.21446065
_cell_angle_gamma   90.32495437
_symmetry_Int_Tables_number   1
_chemical_formula_structural   Tm12Co7Si8Os
_chemical_formula_sum   'Tm12 Co7 Si8 Os1'
_cell_volume   520.53181950
_cell_formula_units_Z   1
loop_
 _symmetry_equiv_pos_site_id
 _symmetry_equiv_pos_as_xyz
  1  'x, y, z'
loop_
 _atom_site_type_symbol
 _atom_site_label
 _atom_site_symmetry_multiplicity
 _atom_site_fract_x
 _atom_site_fract_y
 _atom_site_fract_z
 _atom_site_occupancy
  Tm  Tm0  1  0.626615  0.250783  0.252932  1
  Tm  Tm1  1  0.373103  0.749318  0.748887  1
  Tm  Tm2  1  0.371390  0.753973  0.251779  1
  Tm  Tm3  1  0.628096  0.245774  0.748294  1
  Tm  Tm4  1  0.143509  0.394938  0.101813  1
  Tm  Tm5  1  0.862124  0.604674  0.896797  1
  Tm  Tm6  1  0.856894  0.603089  0.602501  1
  Tm  Tm7  1  0.855966  0.892339  0.401144  1
  Tm  Tm8  1  0.138439  0.398940  0.400787  1
  Tm  Tm9  1  0.140658  0.105153  0.601579  1
  Tm  Tm10  1  0.133809  0.108866  0.895823  1
  Tm  Tm11  1  0.859673  0.894606  0.102865  1
  Co  Co12  1  0.639719  0.969279  0.909074  1
  Co  Co13  1  0.637062  0.972253  0.586959  1
  Co  Co14  1  0.635961  0.528332  0.413559  1
  Co  Co15  1  0.358524  0.028862  0.416077  1
  Co  Co16  1  0.363399  0.472629  0.587379  1
  Co  Co17  1  0.367022  0.473284  0.909506  1
  Co  Co18  1  0.640544  0.525638  0.086880  1
  Si  Si19  1  0.142401  0.102454  0.257182  1
  Si  Si20  1  0.851791  0.897484  0.748169  1
  Si  Si21  1  0.848196  0.600395  0.250560  1
  Si  Si22  1  0.151904  0.399733  0.748407  1
  Si  Si23  1  0.616115  0.254682  0.993700  1
  Si  Si24  1  0.398114  0.742642  0.997458  1
  Si  Si25  1  0.389749  0.749977  0.500732  1
  Si  Si26  1  0.607272  0.250444  0.501088  1
  Os  Os27  1  0.361949  0.029459  0.088067  1
