# generated using pymatgen
data_Sc6Al17Fe8Si7
_symmetry_space_group_name_H-M   'P 1'
_cell_length_a   8.33438516
_cell_length_b   8.33064998
_cell_length_c   9.09132300
_cell_angle_alpha   90.00000000
_cell_angle_beta   90.00000000
_cell_angle_gamma   120.03711767
_symmetry_Int_Tables_number   1
_chemical_formula_structural   Sc6Al17Fe8Si7
_chemical_formula_sum   'Sc6 Al17 Fe8 Si7'
_cell_volume   546.44645912
_cell_formula_units_Z   1
loop_
 _symmetry_equiv_pos_site_id
 _symmetry_equiv_pos_as_xyz
  1  'x, y, z'
loop_
 _atom_site_type_symbol
 _atom_site_label
 _atom_site_symmetry_multiplicity
 _atom_site_fract_x
 _atom_site_fract_y
 _atom_site_fract_z
 _atom_site_occupancy
  Sc  Sc0  1  0.806503  0.198986  0.750000  1
  Sc  Sc1  1  0.195349  0.805907  0.250000  1
  Sc  Sc2  1  0.392760  0.199184  0.750000  1
  Sc  Sc3  1  0.607537  0.800067  0.250000  1
  Sc  Sc4  1  0.802252  0.604766  0.750000  1
  Sc  Sc5  1  0.200679  0.392785  0.250000  1
  Al  Al6  1  0.837321  0.163182  0.425046  1
  Al  Al7  1  0.163882  0.837477  0.576464  1
  Al  Al8  1  0.326672  0.163240  0.424740  1
  Al  Al9  1  0.163882  0.837477  0.923536  1
  Al  Al10  1  0.672474  0.836781  0.575427  1
  Al  Al11  1  0.837321  0.163182  0.074954  1
  Al  Al12  1  0.836644  0.672631  0.425667  1
  Al  Al13  1  0.672474  0.836781  0.924573  1
  Al  Al14  1  0.164278  0.328349  0.576567  1
  Al  Al15  1  0.326672  0.163240  0.075260  1
  Al  Al16  1  0.164278  0.328349  0.923433  1
  Al  Al17  1  0.836644  0.672631  0.074333  1
  Al  Al18  1  0.884332  0.443646  0.250000  1
  Al  Al19  1  0.440210  0.880276  0.750000  1
  Al  Al20  1  0.557487  0.117692  0.250000  1
  Al  Al21  1  0.000037  0.000007  0.750000  1
  Al  Al22  1  0.999983  0.000258  0.250000  1
  Fe  Fe23  1  0.499058  0.500389  0.999417  1
  Fe  Fe24  1  0.000531  0.500447  0.992542  1
  Fe  Fe25  1  0.499058  0.500389  0.500583  1
  Fe  Fe26  1  0.498949  0.998936  0.999965  1
  Fe  Fe27  1  0.000531  0.500447  0.507458  1
  Fe  Fe28  1  0.498949  0.998936  0.500035  1
  Fe  Fe29  1  0.999968  0.000030  0.000156  1
  Fe  Fe30  1  0.999968  0.000030  0.499844  1
  Si  Si31  1  0.666202  0.330002  0.962219  1
  Si  Si32  1  0.333150  0.669831  0.039591  1
  Si  Si33  1  0.333150  0.669831  0.460409  1
  Si  Si34  1  0.666202  0.330002  0.537781  1
  Si  Si35  1  0.442191  0.555817  0.750000  1
  Si  Si36  1  0.558423  0.441989  0.250000  1
  Si  Si37  1  0.113998  0.556031  0.750000  1
