# generated using pymatgen
data_HoEr5U4O20
_symmetry_space_group_name_H-M   'P 1'
_cell_length_a   6.63317272
_cell_length_b   7.48268573
_cell_length_c   8.39922500
_cell_angle_alpha   100.76075777
_cell_angle_beta   97.77989724
_cell_angle_gamma   107.32743453
_symmetry_Int_Tables_number   1
_chemical_formula_structural   HoEr5U4O20
_chemical_formula_sum   'Ho1 Er5 U4 O20'
_cell_volume   382.77747816
_cell_formula_units_Z   1
loop_
 _symmetry_equiv_pos_site_id
 _symmetry_equiv_pos_as_xyz
  1  'x, y, z'
loop_
 _atom_site_type_symbol
 _atom_site_label
 _atom_site_symmetry_multiplicity
 _atom_site_fract_x
 _atom_site_fract_y
 _atom_site_fract_z
 _atom_site_occupancy
  Ho  Ho0  1  0.000000  0.500000  0.500000  1
  Er  Er1  1  0.615385  0.704598  0.699379  1
  Er  Er2  1  0.384615  0.295402  0.300621  1
  Er  Er3  1  0.197007  0.896983  0.891681  1
  Er  Er4  1  0.802993  0.103017  0.108319  1
  Er  Er5  1  0.000000  0.000000  0.500000  1
  U  U6  1  0.402120  0.804684  0.301939  1
  U  U7  1  0.199015  0.399502  0.899007  1
  U  U8  1  0.800985  0.600498  0.100993  1
  U  U9  1  0.597880  0.195316  0.698061  1
  O  O10  1  0.439829  0.530918  0.138206  1
  O  O11  1  0.554746  0.985447  0.841841  1
  O  O12  1  0.267071  0.141867  0.744749  1
  O  O13  1  0.361025  0.592990  0.442842  1
  O  O14  1  0.053480  0.729625  0.334623  1
  O  O15  1  0.445254  0.014553  0.158159  1
  O  O16  1  0.150362  0.182003  0.032614  1
  O  O17  1  0.560171  0.469082  0.861794  1
  O  O18  1  0.854154  0.334886  0.950799  1
  O  O19  1  0.257891  0.608578  0.759381  1
  O  O20  1  0.953188  0.773865  0.653425  1
  O  O21  1  0.352867  0.063560  0.452953  1
  O  O22  1  0.647133  0.936440  0.547047  1
  O  O23  1  0.046812  0.226135  0.346575  1
  O  O24  1  0.742109  0.391422  0.240619  1
  O  O25  1  0.145846  0.665114  0.049201  1
  O  O26  1  0.849638  0.817997  0.967386  1
  O  O27  1  0.946520  0.270375  0.665377  1
  O  O28  1  0.638975  0.407010  0.557158  1
  O  O29  1  0.732929  0.858133  0.255251  1
