# generated using pymatgen
data_Dy6TaCo17(Si5P)2
_symmetry_space_group_name_H-M   'P 1'
_cell_length_a   3.76794200
_cell_length_b   10.77635000
_cell_length_c   12.38632700
_cell_angle_alpha   90.00000000
_cell_angle_beta   90.00000000
_cell_angle_gamma   90.00000000
_symmetry_Int_Tables_number   1
_chemical_formula_structural   Dy6TaCo17(Si5P)2
_chemical_formula_sum   'Dy6 Ta1 Co17 Si10 P2'
_cell_volume   502.94261843
_cell_formula_units_Z   1
loop_
 _symmetry_equiv_pos_site_id
 _symmetry_equiv_pos_as_xyz
  1  'x, y, z'
loop_
 _atom_site_type_symbol
 _atom_site_label
 _atom_site_symmetry_multiplicity
 _atom_site_fract_x
 _atom_site_fract_y
 _atom_site_fract_z
 _atom_site_occupancy
  Dy  Dy0  1  0.000000  0.500000  0.526795  1
  Dy  Dy1  1  0.500000  0.000000  0.473360  1
  Dy  Dy2  1  0.500000  0.821978  0.206701  1
  Dy  Dy3  1  0.500000  0.178022  0.206701  1
  Dy  Dy4  1  0.000000  0.679318  0.797971  1
  Dy  Dy5  1  0.000000  0.320682  0.797971  1
  Ta  Ta6  1  0.500000  0.500000  0.151246  1
  Co  Co7  1  0.000000  0.000000  0.846217  1
  Co  Co8  1  0.500000  0.500000  0.702331  1
  Co  Co9  1  0.000000  0.000000  0.302561  1
  Co  Co10  1  0.000000  0.500000  0.981620  1
  Co  Co11  1  0.500000  0.000000  0.014847  1
  Co  Co12  1  0.500000  0.330032  0.990336  1
  Co  Co13  1  0.500000  0.669968  0.990336  1
  Co  Co14  1  0.000000  0.164783  0.001143  1
  Co  Co15  1  0.000000  0.835217  0.001143  1
  Co  Co16  1  0.500000  0.303911  0.431304  1
  Co  Co17  1  0.500000  0.696089  0.431304  1
  Co  Co18  1  0.000000  0.199005  0.571810  1
  Co  Co19  1  0.000000  0.800995  0.571810  1
  Co  Co20  1  0.500000  0.883377  0.706191  1
  Co  Co21  1  0.500000  0.116623  0.706191  1
  Co  Co22  1  0.000000  0.618024  0.294097  1
  Co  Co23  1  0.000000  0.381976  0.294097  1
  Si  Si24  1  0.000000  0.000000  0.114942  1
  Si  Si25  1  0.000000  0.000000  0.660317  1
  Si  Si26  1  0.500000  0.305302  0.616106  1
  Si  Si27  1  0.500000  0.694698  0.616106  1
  Si  Si28  1  0.000000  0.196183  0.387473  1
  Si  Si29  1  0.000000  0.803817  0.387473  1
  Si  Si30  1  0.500000  0.854598  0.889883  1
  Si  Si31  1  0.500000  0.145402  0.889883  1
  Si  Si32  1  0.000000  0.660333  0.101577  1
  Si  Si33  1  0.000000  0.339667  0.101577  1
  P  P34  1  0.500000  0.500000  0.884970  1
  P  P35  1  0.500000  0.500000  0.351610  1
