# generated using pymatgen
data_Hf18CoRe6NiMo2
_symmetry_space_group_name_H-M   'P 1'
_cell_length_a   8.62561300
_cell_length_b   8.62561227
_cell_length_c   8.42275100
_cell_angle_alpha   90.00000000
_cell_angle_beta   90.00000000
_cell_angle_gamma   119.99999131
_symmetry_Int_Tables_number   1
_chemical_formula_structural   Hf18CoRe6NiMo2
_chemical_formula_sum   'Hf18 Co1 Re6 Ni1 Mo2'
_cell_volume   542.70588719
_cell_formula_units_Z   1
loop_
 _symmetry_equiv_pos_site_id
 _symmetry_equiv_pos_as_xyz
  1  'x, y, z'
loop_
 _atom_site_type_symbol
 _atom_site_label
 _atom_site_symmetry_multiplicity
 _atom_site_fract_x
 _atom_site_fract_y
 _atom_site_fract_z
 _atom_site_occupancy
  Hf  Hf0  1  0.198745  0.801255  0.443042  1
  Hf  Hf1  1  0.198745  0.397492  0.443042  1
  Hf  Hf2  1  0.602508  0.801255  0.443042  1
  Hf  Hf3  1  0.799526  0.200474  0.558362  1
  Hf  Hf4  1  0.799526  0.599051  0.558362  1
  Hf  Hf5  1  0.400949  0.200474  0.558362  1
  Hf  Hf6  1  0.799526  0.200474  0.941638  1
  Hf  Hf7  1  0.799526  0.599051  0.941638  1
  Hf  Hf8  1  0.400949  0.200474  0.941638  1
  Hf  Hf9  1  0.198745  0.801255  0.056958  1
  Hf  Hf10  1  0.198745  0.397492  0.056958  1
  Hf  Hf11  1  0.602508  0.801255  0.056958  1
  Hf  Hf12  1  0.541470  0.458530  0.250000  1
  Hf  Hf13  1  0.541470  0.082938  0.250000  1
  Hf  Hf14  1  0.917062  0.458530  0.250000  1
  Hf  Hf15  1  0.458736  0.541264  0.750000  1
  Hf  Hf16  1  0.458736  0.917473  0.750000  1
  Hf  Hf17  1  0.082527  0.541264  0.750000  1
  Co  Co18  1  0.666667  0.333333  0.750000  1
  Re  Re19  1  0.888495  0.111505  0.250000  1
  Re  Re20  1  0.888495  0.776992  0.250000  1
  Re  Re21  1  0.223008  0.111505  0.250000  1
  Re  Re22  1  0.111363  0.888637  0.750000  1
  Re  Re23  1  0.111363  0.222724  0.750000  1
  Re  Re24  1  0.777276  0.888637  0.750000  1
  Ni  Ni25  1  0.333333  0.666667  0.250000  1
  Mo  Mo26  1  0.000000  0.000000  0.499968  1
  Mo  Mo27  1  0.000000  0.000000  0.000032  1
