# generated using pymatgen
data_LiAc3SiSe7
_symmetry_space_group_name_H-M   'P 1'
_cell_length_a   11.08250000
_cell_length_b   11.08384784
_cell_length_c   6.17763300
_cell_angle_alpha   90.00000000
_cell_angle_beta   90.00000000
_cell_angle_gamma   120.00460865
_symmetry_Int_Tables_number   1
_chemical_formula_structural   LiAc3SiSe7
_chemical_formula_sum   'Li2 Ac6 Si2 Se14'
_cell_volume   657.14447460
_cell_formula_units_Z   2
loop_
 _symmetry_equiv_pos_site_id
 _symmetry_equiv_pos_as_xyz
  1  'x, y, z'
loop_
 _atom_site_type_symbol
 _atom_site_label
 _atom_site_symmetry_multiplicity
 _atom_site_fract_x
 _atom_site_fract_y
 _atom_site_fract_z
 _atom_site_occupancy
  Li  Li0  1  0.999999  0.999996  0.009381  1
  Li  Li1  1  0.000001  0.000004  0.509383  1
  Ac  Ac2  1  0.356862  0.234877  0.269364  1
  Ac  Ac3  1  0.765118  0.121977  0.269351  1
  Ac  Ac4  1  0.877998  0.643139  0.269358  1
  Ac  Ac5  1  0.643138  0.765123  0.769363  1
  Ac  Ac6  1  0.234881  0.878023  0.769352  1
  Ac  Ac7  1  0.122003  0.356861  0.769357  1
  Si  Si8  1  0.333356  0.666665  0.356097  1
  Si  Si9  1  0.666644  0.333335  0.856098  1
  Se  Se10  1  0.081816  0.242832  0.255251  1
  Se  Se11  1  0.757177  0.838996  0.255251  1
  Se  Se12  1  0.160996  0.918163  0.255257  1
  Se  Se13  1  0.666655  0.333331  0.489461  1
  Se  Se14  1  0.114519  0.591685  0.497248  1
  Se  Se15  1  0.408286  0.522856  0.497237  1
  Se  Se16  1  0.477153  0.885444  0.497244  1
  Se  Se17  1  0.839004  0.081837  0.755257  1
  Se  Se18  1  0.242822  0.161004  0.755251  1
  Se  Se19  1  0.918183  0.757168  0.755251  1
  Se  Se20  1  0.333345  0.666669  0.989460  1
  Se  Se21  1  0.885482  0.408315  0.997248  1
  Se  Se22  1  0.591713  0.477144  0.997237  1
  Se  Se23  1  0.522847  0.114556  0.997243  1
