# generated using pymatgen
data_Li2YTm2Si2AgSn
_symmetry_space_group_name_H-M   'P 1'
_cell_length_a   7.07856834
_cell_length_b   7.05888116
_cell_length_c   4.30361600
_cell_angle_alpha   90.00000000
_cell_angle_beta   90.00000000
_cell_angle_gamma   120.46439517
_symmetry_Int_Tables_number   1
_chemical_formula_structural   Li2YTm2Si2AgSn
_chemical_formula_sum   'Li2 Y1 Tm2 Si2 Ag1 Sn1'
_cell_volume   185.35062722
_cell_formula_units_Z   1
loop_
 _symmetry_equiv_pos_site_id
 _symmetry_equiv_pos_as_xyz
  1  'x, y, z'
loop_
 _atom_site_type_symbol
 _atom_site_label
 _atom_site_symmetry_multiplicity
 _atom_site_fract_x
 _atom_site_fract_y
 _atom_site_fract_z
 _atom_site_occupancy
  Li  Li0  1  0.759124  0.755224  0.500000  1
  Li  Li1  1  0.003464  0.244758  0.500000  1
  Y  Y2  1  0.443996  0.443754  0.000000  1
  Tm  Tm3  1  0.000906  0.557780  0.000000  1
  Tm  Tm4  1  0.553046  0.000510  0.000000  1
  Si  Si5  1  0.330342  0.665128  0.500000  1
  Si  Si6  1  0.670410  0.336029  0.500000  1
  Ag  Ag7  1  0.251415  0.999784  0.500000  1
  Sn  Sn8  1  0.987297  0.997033  0.000000  1
