# generated using pymatgen
data_K6LuAlAs4
_symmetry_space_group_name_H-M   'P 1'
_cell_length_a   9.19635685
_cell_length_b   9.19635721
_cell_length_c   9.19635746
_cell_angle_alpha   128.19014862
_cell_angle_beta   69.69088275
_cell_angle_gamma   136.78685264
_symmetry_Int_Tables_number   1
_chemical_formula_structural   K6LuAlAs4
_chemical_formula_sum   'K6 Lu1 Al1 As4'
_cell_volume   410.74460781
_cell_formula_units_Z   1
loop_
 _symmetry_equiv_pos_site_id
 _symmetry_equiv_pos_as_xyz
  1  'x, y, z'
loop_
 _atom_site_type_symbol
 _atom_site_label
 _atom_site_symmetry_multiplicity
 _atom_site_fract_x
 _atom_site_fract_y
 _atom_site_fract_z
 _atom_site_occupancy
  K  K0  1  0.802719  0.183978  0.005842  1
  K  K1  1  0.697281  0.703122  0.381258  1
  K  K2  1  0.750000  0.250000  0.500000  1
  K  K3  1  0.250000  0.750001  0.500001  1
  K  K4  1  0.321864  0.316022  0.618741  1
  K  K5  1  0.178136  0.796876  0.994157  1
  Lu  Lu6  1  0.250000  0.250000  0.000000  1
  Al  Al7  1  0.750000  0.750000  0.000000  1
  As  As8  1  0.422510  0.705456  0.090429  1
  As  As9  1  0.077490  0.167918  0.282946  1
  As  As10  1  0.884971  0.794543  0.717053  1
  As  As11  1  0.615029  0.332082  0.909572  1
