# generated using pymatgen
data_Ho2Cr2Co10As7
_symmetry_space_group_name_H-M   'P 1'
_cell_length_a   3.73786000
_cell_length_b   9.37484138
_cell_length_c   9.40699930
_cell_angle_alpha   119.86417748
_cell_angle_beta   90.00000000
_cell_angle_gamma   90.00000000
_symmetry_Int_Tables_number   1
_chemical_formula_structural   Ho2Cr2Co10As7
_chemical_formula_sum   'Ho2 Cr2 Co10 As7'
_cell_volume   285.86531811
_cell_formula_units_Z   1
loop_
 _symmetry_equiv_pos_site_id
 _symmetry_equiv_pos_as_xyz
  1  'x, y, z'
loop_
 _atom_site_type_symbol
 _atom_site_label
 _atom_site_symmetry_multiplicity
 _atom_site_fract_x
 _atom_site_fract_y
 _atom_site_fract_z
 _atom_site_occupancy
  Ho  Ho0  1  0.000000  0.671814  0.337741  1
  Ho  Ho1  1  0.500000  0.331732  0.666314  1
  Cr  Cr2  1  0.500000  0.774862  0.892849  1
  Cr  Cr3  1  0.500000  0.120570  0.223211  1
  Co  Co4  1  0.000000  0.568771  0.941197  1
  Co  Co5  1  0.000000  0.370858  0.431045  1
  Co  Co6  1  0.000000  0.058887  0.628287  1
  Co  Co7  1  0.500000  0.095747  0.878445  1
  Co  Co8  1  0.000000  0.879382  0.156295  1
  Co  Co9  1  0.000000  0.281587  0.123056  1
  Co  Co10  1  0.000000  0.841698  0.721565  1
  Co  Co11  1  0.500000  0.948016  0.381704  1
  Co  Co12  1  0.500000  0.432948  0.048983  1
  Co  Co13  1  0.500000  0.618335  0.565563  1
  As  As14  1  0.000000  0.002345  0.998618  1
  As  As15  1  0.500000  0.707879  0.117561  1
  As  As16  1  0.500000  0.412760  0.291858  1
  As  As17  1  0.500000  0.887407  0.595910  1
  As  As18  1  0.000000  0.585584  0.701520  1
  As  As19  1  0.000000  0.114418  0.413276  1
  As  As20  1  0.000000  0.294397  0.885003  1
