# generated using pymatgen
data_BaMn7CrO16
_symmetry_space_group_name_H-M   'P 1'
_cell_length_a   5.92043250
_cell_length_b   7.17289330
_cell_length_c   7.24656720
_cell_angle_alpha   87.87142875
_cell_angle_beta   78.18893553
_cell_angle_gamma   77.95771399
_symmetry_Int_Tables_number   1
_chemical_formula_structural   BaMn7CrO16
_chemical_formula_sum   'Ba1 Mn7 Cr1 O16'
_cell_volume   294.58814737
_cell_formula_units_Z   1
loop_
 _symmetry_equiv_pos_site_id
 _symmetry_equiv_pos_as_xyz
  1  'x, y, z'
loop_
 _atom_site_type_symbol
 _atom_site_label
 _atom_site_symmetry_multiplicity
 _atom_site_fract_x
 _atom_site_fract_y
 _atom_site_fract_z
 _atom_site_occupancy
  Ba  Ba0  1  0.008349  0.997133  0.004155  1
  Mn  Mn1  1  0.081026  0.509555  0.182056  1
  Mn  Mn2  1  0.170953  0.816406  0.513386  1
  Mn  Mn3  1  0.668637  0.818815  0.519350  1
  Mn  Mn4  1  0.336982  0.184811  0.475936  1
  Mn  Mn5  1  0.837011  0.183934  0.487621  1
  Mn  Mn6  1  0.431815  0.484320  0.817287  1
  Mn  Mn7  1  0.926495  0.490492  0.817587  1
  Cr  Cr8  1  0.579468  0.517040  0.183574  1
  O  O9  1  0.841545  0.646761  0.050051  1
  O  O10  1  0.318196  0.645362  0.051041  1
  O  O11  1  0.980431  0.702276  0.381580  1
  O  O12  1  0.482168  0.711191  0.384414  1
  O  O13  1  0.857059  0.952172  0.646195  1
  O  O14  1  0.350768  0.956464  0.639905  1
  O  O15  1  0.335797  0.369177  0.284283  1
  O  O16  1  0.848655  0.361925  0.282843  1
  O  O17  1  0.170380  0.630125  0.713592  1
  O  O18  1  0.665682  0.632013  0.717075  1
  O  O19  1  0.140703  0.037378  0.353906  1
  O  O20  1  0.666806  0.041100  0.357871  1
  O  O21  1  0.020045  0.295452  0.625522  1
  O  O22  1  0.529398  0.302422  0.617327  1
  O  O23  1  0.175571  0.355079  0.948589  1
  O  O24  1  0.683162  0.358596  0.944849  1
