# generated using pymatgen
data_Tb6Al2Pd9Au
_symmetry_space_group_name_H-M   'P 1'
_cell_length_a   8.28433688
_cell_length_b   8.28433739
_cell_length_c   13.24249100
_cell_angle_alpha   90.00000000
_cell_angle_beta   90.00000000
_cell_angle_gamma   127.77477692
_symmetry_Int_Tables_number   1
_chemical_formula_structural   Tb6Al2Pd9Au
_chemical_formula_sum   'Tb12 Al4 Pd18 Au2'
_cell_volume   718.36596416
_cell_formula_units_Z   2
loop_
 _symmetry_equiv_pos_site_id
 _symmetry_equiv_pos_as_xyz
  1  'x, y, z'
loop_
 _atom_site_type_symbol
 _atom_site_label
 _atom_site_symmetry_multiplicity
 _atom_site_fract_x
 _atom_site_fract_y
 _atom_site_fract_z
 _atom_site_occupancy
  Tb  Tb0  1  0.932799  0.067271  0.250000  1
  Tb  Tb1  1  0.067271  0.932799  0.750000  1
  Tb  Tb2  1  0.318489  0.683290  0.250000  1
  Tb  Tb3  1  0.683290  0.318489  0.750000  1
  Tb  Tb4  1  0.629859  0.370563  0.467858  1
  Tb  Tb5  1  0.370563  0.629859  0.532142  1
  Tb  Tb6  1  0.629859  0.370563  0.032142  1
  Tb  Tb7  1  0.370563  0.629859  0.967858  1
  Tb  Tb8  1  0.883698  0.123204  0.949038  1
  Tb  Tb9  1  0.123204  0.883698  0.050962  1
  Tb  Tb10  1  0.883698  0.123204  0.550962  1
  Tb  Tb11  1  0.123204  0.883698  0.449038  1
  Al  Al12  1  0.717882  0.271855  0.250000  1
  Al  Al13  1  0.271855  0.717882  0.750000  1
  Al  Al14  1  0.525067  0.465122  0.250000  1
  Al  Al15  1  0.465122  0.525067  0.750000  1
  Pd  Pd16  1  0.330656  0.075933  0.250000  1
  Pd  Pd17  1  0.075933  0.330656  0.750000  1
  Pd  Pd18  1  0.572124  0.006965  0.394814  1
  Pd  Pd19  1  0.006965  0.572124  0.605186  1
  Pd  Pd20  1  0.572124  0.006965  0.105186  1
  Pd  Pd21  1  0.006965  0.572124  0.894814  1
  Pd  Pd22  1  0.425907  0.991558  0.605944  1
  Pd  Pd23  1  0.991558  0.425907  0.394056  1
  Pd  Pd24  1  0.425907  0.991558  0.894056  1
  Pd  Pd25  1  0.991558  0.425907  0.105944  1
  Pd  Pd26  1  0.684600  0.739681  0.392389  1
  Pd  Pd27  1  0.739681  0.684600  0.607611  1
  Pd  Pd28  1  0.684600  0.739681  0.107611  1
  Pd  Pd29  1  0.739681  0.684600  0.892389  1
  Pd  Pd30  1  0.313043  0.258714  0.607240  1
  Pd  Pd31  1  0.258714  0.313043  0.392760  1
  Pd  Pd32  1  0.313043  0.258714  0.892760  1
  Pd  Pd33  1  0.258714  0.313043  0.107240  1
  Au  Au34  1  0.678657  0.933149  0.750000  1
  Au  Au35  1  0.933149  0.678657  0.250000  1
