# generated using pymatgen
data_Ho9Th3Tc3Pt
_symmetry_space_group_name_H-M   'P 1'
_cell_length_a   6.39312264
_cell_length_b   7.28028171
_cell_length_c   9.46102700
_cell_angle_alpha   90.00000000
_cell_angle_beta   90.00000000
_cell_angle_gamma   90.36486090
_symmetry_Int_Tables_number   1
_chemical_formula_structural   Ho9Th3Tc3Pt
_chemical_formula_sum   'Ho9 Th3 Tc3 Pt1'
_cell_volume   440.34259361
_cell_formula_units_Z   1
loop_
 _symmetry_equiv_pos_site_id
 _symmetry_equiv_pos_as_xyz
  1  'x, y, z'
loop_
 _atom_site_type_symbol
 _atom_site_label
 _atom_site_symmetry_multiplicity
 _atom_site_fract_x
 _atom_site_fract_y
 _atom_site_fract_z
 _atom_site_occupancy
  Ho  Ho0  1  0.326710  0.676308  0.065631  1
  Ho  Ho1  1  0.165809  0.175772  0.435918  1
  Ho  Ho2  1  0.665529  0.320520  0.563043  1
  Ho  Ho3  1  0.835081  0.825367  0.933907  1
  Ho  Ho4  1  0.665529  0.320520  0.936957  1
  Ho  Ho5  1  0.835081  0.825367  0.566093  1
  Ho  Ho6  1  0.326710  0.676308  0.434369  1
  Ho  Ho7  1  0.165809  0.175772  0.064082  1
  Ho  Ho8  1  0.371246  0.968301  0.750000  1
  Th  Th9  1  0.856807  0.550642  0.250000  1
  Th  Th10  1  0.635094  0.047146  0.250000  1
  Th  Th11  1  0.136596  0.446087  0.750000  1
  Tc  Tc12  1  0.018648  0.871739  0.250000  1
  Tc  Tc13  1  0.480655  0.371771  0.250000  1
  Tc  Tc14  1  0.963867  0.130029  0.750000  1
  Pt  Pt15  1  0.550827  0.618348  0.750000  1
