# generated using pymatgen
data_ErTm7Ti5Si16Mo7
_symmetry_space_group_name_H-M   'P 1'
_cell_length_a   6.90284810
_cell_length_b   6.89419503
_cell_length_c   12.75367302
_cell_angle_alpha   89.88031521
_cell_angle_beta   90.00935935
_cell_angle_gamma   90.02209702
_symmetry_Int_Tables_number   1
_chemical_formula_structural   ErTm7Ti5Si16Mo7
_chemical_formula_sum   'Er1 Tm7 Ti5 Si16 Mo7'
_cell_volume   606.94057931
_cell_formula_units_Z   1
loop_
 _symmetry_equiv_pos_site_id
 _symmetry_equiv_pos_as_xyz
  1  'x, y, z'
loop_
 _atom_site_type_symbol
 _atom_site_label
 _atom_site_symmetry_multiplicity
 _atom_site_fract_x
 _atom_site_fract_y
 _atom_site_fract_z
 _atom_site_occupancy
  Er  Er0  1  0.996903  0.661274  0.030797  1
  Tm  Tm1  1  0.341034  0.002384  0.467426  1
  Tm  Tm2  1  0.498564  0.840821  0.718931  1
  Tm  Tm3  1  0.500940  0.159853  0.218838  1
  Tm  Tm4  1  0.839870  0.497506  0.280785  1
  Tm  Tm5  1  0.159758  0.501195  0.782546  1
  Tm  Tm6  1  0.659284  0.998516  0.968507  1
  Tm  Tm7  1  0.001919  0.339920  0.531730  1
  Ti  Ti8  1  0.330092  0.330650  0.999464  1
  Ti  Ti9  1  0.168893  0.829681  0.250088  1
  Ti  Ti10  1  0.828765  0.171123  0.750363  1
  Ti  Ti11  1  0.669674  0.667107  0.499296  1
  Ti  Ti12  1  0.994857  0.841268  0.626021  1
  Si  Si13  1  0.202978  0.129954  0.682901  1
  Si  Si14  1  0.371032  0.702252  0.933042  1
  Si  Si15  1  0.631187  0.298579  0.433051  1
  Si  Si16  1  0.699898  0.369804  0.067199  1
  Si  Si17  1  0.299915  0.629870  0.566330  1
  Si  Si18  1  0.797758  0.870595  0.182960  1
  Si  Si19  1  0.128036  0.201200  0.317245  1
  Si  Si20  1  0.871707  0.799266  0.816713  1
  Si  Si21  1  0.290343  0.959716  0.062987  1
  Si  Si22  1  0.540193  0.789763  0.312772  1
  Si  Si23  1  0.458961  0.210120  0.812758  1
  Si  Si24  1  0.790806  0.542238  0.687600  1
  Si  Si25  1  0.209369  0.458886  0.186843  1
  Si  Si26  1  0.709980  0.041776  0.563438  1
  Si  Si27  1  0.958666  0.290664  0.937225  1
  Si  Si28  1  0.043053  0.709160  0.437268  1
  Mo  Mo29  1  0.160173  0.008477  0.875067  1
  Mo  Mo30  1  0.492914  0.658604  0.124110  1
  Mo  Mo31  1  0.506983  0.341173  0.623298  1
  Mo  Mo32  1  0.657534  0.492447  0.877691  1
  Mo  Mo33  1  0.342390  0.503663  0.374887  1
  Mo  Mo34  1  0.839886  0.991496  0.373207  1
  Mo  Mo35  1  0.005685  0.159006  0.126615  1
