# generated using pymatgen
data_LaY4MnFeB6
_symmetry_space_group_name_H-M   'P 1'
_cell_length_a   5.45505505
_cell_length_b   5.45505411
_cell_length_c   8.31252767
_cell_angle_alpha   70.84514383
_cell_angle_beta   70.84514458
_cell_angle_gamma   59.99999381
_symmetry_Int_Tables_number   1
_chemical_formula_structural   LaY4MnFeB6
_chemical_formula_sum   'La1 Y4 Mn1 Fe1 B6'
_cell_volume   198.24958827
_cell_formula_units_Z   1
loop_
 _symmetry_equiv_pos_site_id
 _symmetry_equiv_pos_as_xyz
  1  'x, y, z'
loop_
 _atom_site_type_symbol
 _atom_site_label
 _atom_site_symmetry_multiplicity
 _atom_site_fract_x
 _atom_site_fract_y
 _atom_site_fract_z
 _atom_site_occupancy
  La  La0  1  0.997872  0.997872  0.006385  1
  Y  Y1  1  0.750083  0.750083  0.749753  1
  Y  Y2  1  0.249673  0.249673  0.250979  1
  Y  Y3  1  0.581863  0.581863  0.254412  1
  Y  Y4  1  0.417744  0.417744  0.746768  1
  Mn  Mn5  1  0.886054  0.886054  0.341836  1
  Fe  Fe6  1  0.116136  0.116136  0.651593  1
  B  B7  1  0.500350  0.166614  0.499712  1
  B  B8  1  0.833324  0.500350  0.499712  1
  B  B9  1  0.166614  0.833324  0.499712  1
  B  B10  1  0.166614  0.500350  0.499712  1
  B  B11  1  0.833324  0.166614  0.499712  1
  B  B12  1  0.500350  0.833324  0.499712  1
