# generated using pymatgen
data_Y6Zn4Pd12Au
_symmetry_space_group_name_H-M   'P 1'
_cell_length_a   8.29761974
_cell_length_b   8.29761932
_cell_length_c   8.29761900
_cell_angle_alpha   109.47121985
_cell_angle_beta   109.47121883
_cell_angle_gamma   109.47122000
_symmetry_Int_Tables_number   1
_chemical_formula_structural   Y6Zn4Pd12Au
_chemical_formula_sum   'Y6 Zn4 Pd12 Au1'
_cell_volume   439.78321581
_cell_formula_units_Z   1
loop_
 _symmetry_equiv_pos_site_id
 _symmetry_equiv_pos_as_xyz
  1  'x, y, z'
loop_
 _atom_site_type_symbol
 _atom_site_label
 _atom_site_symmetry_multiplicity
 _atom_site_fract_x
 _atom_site_fract_y
 _atom_site_fract_z
 _atom_site_occupancy
  Y  Y0  1  0.695426  0.695426  0.000000  1
  Y  Y1  1  0.304574  0.000000  0.304574  1
  Y  Y2  1  0.000000  0.304574  0.304574  1
  Y  Y3  1  0.304574  0.304574  0.000000  1
  Y  Y4  1  0.695426  0.000000  0.695426  1
  Y  Y5  1  0.000000  0.695426  0.695426  1
  Zn  Zn6  1  0.000000  0.000000  0.500000  1
  Zn  Zn7  1  0.000000  0.500000  0.000000  1
  Zn  Zn8  1  0.500000  0.000000  0.000000  1
  Zn  Zn9  1  0.500000  0.500000  0.500000  1
  Pd  Pd10  1  0.333442  0.333442  0.666887  1
  Pd  Pd11  1  0.666558  0.000000  0.333442  1
  Pd  Pd12  1  0.000000  0.666558  0.333442  1
  Pd  Pd13  1  0.666558  0.333442  0.000000  1
  Pd  Pd14  1  0.333442  0.666887  0.333442  1
  Pd  Pd15  1  0.000000  0.333442  0.666558  1
  Pd  Pd16  1  0.333442  0.666558  0.000000  1
  Pd  Pd17  1  0.333442  0.000000  0.666558  1
  Pd  Pd18  1  0.666887  0.333442  0.333442  1
  Pd  Pd19  1  0.666558  0.666558  0.333113  1
  Pd  Pd20  1  0.666558  0.333113  0.666558  1
  Pd  Pd21  1  0.333113  0.666558  0.666558  1
  Au  Au22  1  0.000000  0.000000  0.000000  1
