# generated using pymatgen
data_La6Zn4Pd5Pt8
_symmetry_space_group_name_H-M   'P 1'
_cell_length_a   8.46535890
_cell_length_b   8.45794212
_cell_length_c   8.46152288
_cell_angle_alpha   109.43867511
_cell_angle_beta   109.45467613
_cell_angle_gamma   109.50213834
_symmetry_Int_Tables_number   1
_chemical_formula_structural   La6Zn4Pd5Pt8
_chemical_formula_sum   'La6 Zn4 Pd5 Pt8'
_cell_volume   466.48102171
_cell_formula_units_Z   1
loop_
 _symmetry_equiv_pos_site_id
 _symmetry_equiv_pos_as_xyz
  1  'x, y, z'
loop_
 _atom_site_type_symbol
 _atom_site_label
 _atom_site_symmetry_multiplicity
 _atom_site_fract_x
 _atom_site_fract_y
 _atom_site_fract_z
 _atom_site_occupancy
  La  La0  1  0.697413  0.697390  0.000745  1
  La  La1  1  0.302070  0.999133  0.302327  1
  La  La2  1  0.999886  0.302272  0.302283  1
  La  La3  1  0.302311  0.303295  0.999560  1
  La  La4  1  0.697852  0.000789  0.697420  1
  La  La5  1  0.000636  0.697146  0.697728  1
  Zn  Zn6  1  0.999946  0.999787  0.499739  1
  Zn  Zn7  1  0.999896  0.499794  0.999738  1
  Zn  Zn8  1  0.500142  0.000019  0.000076  1
  Zn  Zn9  1  0.499650  0.499970  0.499914  1
  Pd  Pd10  1  0.330278  0.000230  0.670449  1
  Pd  Pd11  1  0.659661  0.330195  0.330244  1
  Pd  Pd12  1  0.670000  0.669903  0.340629  1
  Pd  Pd13  1  0.669521  0.340173  0.669737  1
  Pd  Pd14  1  0.340354  0.670343  0.670207  1
  Pt  Pt15  1  0.329689  0.329515  0.658444  1
  Pt  Pt16  1  0.670576  0.000499  0.329728  1
  Pt  Pt17  1  0.000034  0.670665  0.330134  1
  Pt  Pt18  1  0.670366  0.329186  0.000310  1
  Pt  Pt19  1  0.329969  0.659112  0.330425  1
  Pt  Pt20  1  0.999868  0.329707  0.670253  1
  Pt  Pt21  1  0.329990  0.671239  0.000404  1
  Pt  Pt22  1  0.999892  0.999640  0.999506  1
