# generated using pymatgen
data_SrPr3(Sn2Pd)4
_symmetry_space_group_name_H-M   'P 1'
_cell_length_a   4.67818875
_cell_length_b   9.58212604
_cell_length_c   9.22747000
_cell_angle_alpha   90.00013753
_cell_angle_beta   104.36439247
_cell_angle_gamma   89.99521023
_symmetry_Int_Tables_number   1
_chemical_formula_structural   SrPr3(Sn2Pd)4
_chemical_formula_sum   'Sr1 Pr3 Sn8 Pd4'
_cell_volume   400.70834149
_cell_formula_units_Z   1
loop_
 _symmetry_equiv_pos_site_id
 _symmetry_equiv_pos_as_xyz
  1  'x, y, z'
loop_
 _atom_site_type_symbol
 _atom_site_label
 _atom_site_symmetry_multiplicity
 _atom_site_fract_x
 _atom_site_fract_y
 _atom_site_fract_z
 _atom_site_occupancy
  Sr  Sr0  1  0.000000  0.500000  0.000000  1
  Pr  Pr1  1  0.000000  0.000000  0.000000  1
  Pr  Pr2  1  0.204407  0.750557  0.403035  1
  Pr  Pr3  1  0.795591  0.249443  0.596966  1
  Sn  Sn4  1  0.574118  0.754446  0.144428  1
  Sn  Sn5  1  0.586136  0.249420  0.175862  1
  Sn  Sn6  1  0.197480  0.093629  0.393102  1
  Sn  Sn7  1  0.198554  0.407685  0.394960  1
  Sn  Sn8  1  0.801446  0.592315  0.605040  1
  Sn  Sn9  1  0.802520  0.906372  0.606898  1
  Sn  Sn10  1  0.413864  0.750580  0.824138  1
  Sn  Sn11  1  0.425883  0.245554  0.855572  1
  Pd  Pd12  1  0.652671  0.508224  0.299930  1
  Pd  Pd13  1  0.652215  0.994336  0.298811  1
  Pd  Pd14  1  0.347785  0.005664  0.701189  1
  Pd  Pd15  1  0.347329  0.491776  0.700070  1
