# generated using pymatgen
data_BaLiHoO3
_symmetry_space_group_name_H-M   'P 1'
_cell_length_a   6.10633214
_cell_length_b   6.10633326
_cell_length_c   8.73692200
_cell_angle_alpha   90.00000000
_cell_angle_beta   90.00000000
_cell_angle_gamma   146.56262701
_symmetry_Int_Tables_number   1
_chemical_formula_structural   BaLiHoO3
_chemical_formula_sum   'Ba2 Li2 Ho2 O6'
_cell_volume   179.51090165
_cell_formula_units_Z   2
loop_
 _symmetry_equiv_pos_site_id
 _symmetry_equiv_pos_as_xyz
  1  'x, y, z'
loop_
 _atom_site_type_symbol
 _atom_site_label
 _atom_site_symmetry_multiplicity
 _atom_site_fract_x
 _atom_site_fract_y
 _atom_site_fract_z
 _atom_site_occupancy
  Ba  Ba0  1  0.242511  0.757488  0.250000  1
  Ba  Ba1  1  0.757488  0.242511  0.750000  1
  Li  Li2  1  0.971678  0.028321  0.250000  1
  Li  Li3  1  0.028321  0.971678  0.750000  1
  Ho  Ho4  1  0.499999  0.499999  0.000000  1
  Ho  Ho5  1  0.499999  0.499999  0.500000  1
  O  O6  1  0.881911  0.118088  0.066631  1
  O  O7  1  0.557736  0.442263  0.250000  1
  O  O8  1  0.881911  0.118088  0.433369  1
  O  O9  1  0.118088  0.881911  0.566631  1
  O  O10  1  0.442263  0.557736  0.750000  1
  O  O11  1  0.118088  0.881911  0.933369  1
