# generated using pymatgen
data_Tm5Lu4Th3Co4
_symmetry_space_group_name_H-M   'P 1'
_cell_length_a   6.20658512
_cell_length_b   6.85455657
_cell_length_c   9.38780808
_cell_angle_alpha   90.00845286
_cell_angle_beta   89.98732056
_cell_angle_gamma   91.04264528
_symmetry_Int_Tables_number   1
_chemical_formula_structural   Tm5Lu4Th3Co4
_chemical_formula_sum   'Tm5 Lu4 Th3 Co4'
_cell_volume   399.32302798
_cell_formula_units_Z   1
loop_
 _symmetry_equiv_pos_site_id
 _symmetry_equiv_pos_as_xyz
  1  'x, y, z'
loop_
 _atom_site_type_symbol
 _atom_site_label
 _atom_site_symmetry_multiplicity
 _atom_site_fract_x
 _atom_site_fract_y
 _atom_site_fract_z
 _atom_site_occupancy
  Tm  Tm0  1  0.329316  0.673935  0.067948  1
  Tm  Tm1  1  0.169770  0.171166  0.431508  1
  Tm  Tm2  1  0.674037  0.328007  0.569741  1
  Tm  Tm3  1  0.824856  0.827716  0.928069  1
  Tm  Tm4  1  0.357514  0.958772  0.749694  1
  Lu  Lu5  1  0.673400  0.327461  0.930451  1
  Lu  Lu6  1  0.825131  0.827570  0.571466  1
  Lu  Lu7  1  0.329392  0.674067  0.432542  1
  Lu  Lu8  1  0.169905  0.170996  0.067949  1
  Th  Th9  1  0.847783  0.547965  0.250088  1
  Th  Th10  1  0.652062  0.051886  0.249824  1
  Th  Th11  1  0.154059  0.451454  0.750353  1
  Co  Co12  1  0.037754  0.870839  0.251018  1
  Co  Co13  1  0.459501  0.372467  0.248830  1
  Co  Co14  1  0.959044  0.131580  0.751223  1
  Co  Co15  1  0.536479  0.614121  0.749297  1
