# generated using pymatgen
data_Tb2HoEr5Au4
_symmetry_space_group_name_H-M   'P 1'
_cell_length_a   4.91876300
_cell_length_b   7.13399467
_cell_length_c   8.92588254
_cell_angle_alpha   89.84890197
_cell_angle_beta   90.00000000
_cell_angle_gamma   90.00000000
_symmetry_Int_Tables_number   1
_chemical_formula_structural   Tb2HoEr5Au4
_chemical_formula_sum   'Tb2 Ho1 Er5 Au4'
_cell_volume   313.21195893
_cell_formula_units_Z   1
loop_
 _symmetry_equiv_pos_site_id
 _symmetry_equiv_pos_as_xyz
  1  'x, y, z'
loop_
 _atom_site_type_symbol
 _atom_site_label
 _atom_site_symmetry_multiplicity
 _atom_site_fract_x
 _atom_site_fract_y
 _atom_site_fract_z
 _atom_site_occupancy
  Tb  Tb0  1  0.250000  0.985766  0.322799  1
  Tb  Tb1  1  0.750000  0.014317  0.676912  1
  Ho  Ho2  1  0.750000  0.514355  0.823789  1
  Er  Er3  1  0.250000  0.851458  0.920569  1
  Er  Er4  1  0.250000  0.352519  0.579901  1
  Er  Er5  1  0.750000  0.148673  0.079978  1
  Er  Er6  1  0.750000  0.647526  0.419264  1
  Er  Er7  1  0.250000  0.485300  0.176032  1
  Au  Au8  1  0.250000  0.256047  0.901137  1
  Au  Au9  1  0.250000  0.754772  0.600204  1
  Au  Au10  1  0.750000  0.743756  0.099753  1
  Au  Au11  1  0.750000  0.245512  0.399661  1
