# generated using pymatgen
data_Tb3ZnCd2Pd2Pt
_symmetry_space_group_name_H-M   'P 1'
_cell_length_a   7.62544786
_cell_length_b   7.60903424
_cell_length_c   3.86348800
_cell_angle_alpha   90.00000000
_cell_angle_beta   90.00000000
_cell_angle_gamma   120.46650010
_symmetry_Int_Tables_number   1
_chemical_formula_structural   Tb3ZnCd2Pd2Pt
_chemical_formula_sum   'Tb3 Zn1 Cd2 Pd2 Pt1'
_cell_volume   193.21655000
_cell_formula_units_Z   1
loop_
 _symmetry_equiv_pos_site_id
 _symmetry_equiv_pos_as_xyz
  1  'x, y, z'
loop_
 _atom_site_type_symbol
 _atom_site_label
 _atom_site_symmetry_multiplicity
 _atom_site_fract_x
 _atom_site_fract_y
 _atom_site_fract_z
 _atom_site_occupancy
  Tb  Tb0  1  0.001693  0.402576  0.000000  1
  Tb  Tb1  1  0.592839  0.604161  0.000000  1
  Tb  Tb2  1  0.419803  0.994364  0.000000  1
  Zn  Zn3  1  0.740814  0.002000  0.500000  1
  Cd  Cd4  1  0.003431  0.749591  0.500000  1
  Cd  Cd5  1  0.257645  0.247908  0.500000  1
  Pd  Pd6  1  0.972707  0.000391  0.000000  1
  Pd  Pd7  1  0.671650  0.330050  0.500000  1
  Pt  Pt8  1  0.339418  0.668959  0.500000  1
