# generated using pymatgen
data_Er4Sc3AlIr4
_symmetry_space_group_name_H-M   'P 1'
_cell_length_a   4.33322500
_cell_length_b   6.98788986
_cell_length_c   8.31630198
_cell_angle_alpha   88.42539269
_cell_angle_beta   90.00000000
_cell_angle_gamma   90.00000000
_symmetry_Int_Tables_number   1
_chemical_formula_structural   Er4Sc3AlIr4
_chemical_formula_sum   'Er4 Sc3 Al1 Ir4'
_cell_volume   251.72335891
_cell_formula_units_Z   1
loop_
 _symmetry_equiv_pos_site_id
 _symmetry_equiv_pos_as_xyz
  1  'x, y, z'
loop_
 _atom_site_type_symbol
 _atom_site_label
 _atom_site_symmetry_multiplicity
 _atom_site_fract_x
 _atom_site_fract_y
 _atom_site_fract_z
 _atom_site_occupancy
  Er  Er0  1  0.250000  0.466637  0.180908  1
  Er  Er1  1  0.750000  0.518739  0.817037  1
  Er  Er2  1  0.750000  0.039917  0.669001  1
  Er  Er3  1  0.250000  0.987621  0.335868  1
  Sc  Sc4  1  0.250000  0.860241  0.932830  1
  Sc  Sc5  1  0.750000  0.137572  0.070971  1
  Sc  Sc6  1  0.750000  0.637646  0.436923  1
  Al  Al7  1  0.250000  0.359681  0.562499  1
  Ir  Ir8  1  0.250000  0.734991  0.615433  1
  Ir  Ir9  1  0.750000  0.264933  0.387329  1
  Ir  Ir10  1  0.750000  0.750215  0.106461  1
  Ir  Ir11  1  0.250000  0.241809  0.884739  1
