# generated using pymatgen
data_Li3Sm4Si8Pd
_symmetry_space_group_name_H-M   'P 1'
_cell_length_a   3.86789600
_cell_length_b   7.56551123
_cell_length_c   10.31993577
_cell_angle_alpha   89.76454829
_cell_angle_beta   90.00000000
_cell_angle_gamma   90.00000000
_symmetry_Int_Tables_number   1
_chemical_formula_structural   Li3Sm4Si8Pd
_chemical_formula_sum   'Li3 Sm4 Si8 Pd1'
_cell_volume   301.98571233
_cell_formula_units_Z   1
loop_
 _symmetry_equiv_pos_site_id
 _symmetry_equiv_pos_as_xyz
  1  'x, y, z'
loop_
 _atom_site_type_symbol
 _atom_site_label
 _atom_site_symmetry_multiplicity
 _atom_site_fract_x
 _atom_site_fract_y
 _atom_site_fract_z
 _atom_site_occupancy
  Li  Li0  1  0.750000  0.005427  0.606690  1
  Li  Li1  1  0.250000  0.493225  0.111227  1
  Li  Li2  1  0.750000  0.503577  0.888912  1
  Sm  Sm3  1  0.250000  0.139057  0.866077  1
  Sm  Sm4  1  0.750000  0.860501  0.133828  1
  Sm  Sm5  1  0.250000  0.642921  0.631025  1
  Sm  Sm6  1  0.750000  0.366185  0.365526  1
  Si  Si7  1  0.750000  0.269808  0.073833  1
  Si  Si8  1  0.250000  0.724670  0.927578  1
  Si  Si9  1  0.750000  0.777977  0.431825  1
  Si  Si10  1  0.250000  0.221848  0.566536  1
  Si  Si11  1  0.750000  0.840162  0.821354  1
  Si  Si12  1  0.250000  0.157768  0.184680  1
  Si  Si13  1  0.750000  0.335871  0.674660  1
  Si  Si14  1  0.250000  0.666183  0.322041  1
  Pd  Pd15  1  0.250000  0.994820  0.394211  1
