# generated using pymatgen
data_CsErTm9(C2I9)2
_symmetry_space_group_name_H-M   'P 1'
_cell_length_a   11.50746182
_cell_length_b   11.47627147
_cell_length_c   11.41995207
_cell_angle_alpha   113.15787551
_cell_angle_beta   86.30658144
_cell_angle_gamma   120.56087318
_symmetry_Int_Tables_number   1
_chemical_formula_structural   CsErTm9(C2I9)2
_chemical_formula_sum   'Cs1 Er1 Tm9 C4 I18'
_cell_volume   1176.38512083
_cell_formula_units_Z   1
loop_
 _symmetry_equiv_pos_site_id
 _symmetry_equiv_pos_as_xyz
  1  'x, y, z'
loop_
 _atom_site_type_symbol
 _atom_site_label
 _atom_site_symmetry_multiplicity
 _atom_site_fract_x
 _atom_site_fract_y
 _atom_site_fract_z
 _atom_site_occupancy
  Cs  Cs0  1  0.499946  0.999932  0.500116  1
  Er  Er1  1  0.897936  0.054645  0.999511  1
  Tm  Tm2  1  0.687245  0.729762  0.718032  1
  Tm  Tm3  1  0.275346  0.349689  0.013971  1
  Tm  Tm4  1  0.092605  0.381159  0.285636  1
  Tm  Tm5  1  0.963475  0.036111  0.321505  1
  Tm  Tm6  1  0.907474  0.618419  0.714121  1
  Tm  Tm7  1  0.100818  0.945945  0.000528  1
  Tm  Tm8  1  0.036774  0.963772  0.678559  1
  Tm  Tm9  1  0.313163  0.270329  0.282133  1
  Tm  Tm10  1  0.724847  0.650122  0.986024  1
  C  C11  1  0.150448  0.216460  0.116543  1
  C  C12  1  0.850019  0.783163  0.883432  1
  C  C13  1  0.927547  0.860823  0.806023  1
  C  C14  1  0.072957  0.138830  0.193999  1
  I  I15  1  0.454900  0.531493  0.833758  1
  I  I16  1  0.378087  0.042126  0.156355  1
  I  I17  1  0.782770  0.856304  0.504521  1
  I  I18  1  0.841882  0.307894  0.153536  1
  I  I19  1  0.545407  0.468630  0.166293  1
  I  I20  1  0.217490  0.143608  0.495573  1
  I  I21  1  0.315307  0.098690  0.828625  1
  I  I22  1  0.684422  0.900831  0.171940  1
  I  I23  1  0.970428  0.756424  0.169848  1
  I  I24  1  0.935055  0.294612  0.497075  1
  I  I25  1  0.030421  0.244124  0.829573  1
  I  I26  1  0.065166  0.705480  0.502940  1
  I  I27  1  0.258462  0.615289  0.180136  1
  I  I28  1  0.741500  0.384364  0.819742  1
  I  I29  1  0.648390  0.443636  0.508137  1
  I  I30  1  0.158174  0.694284  0.847871  1
  I  I31  1  0.620133  0.956792  0.842207  1
  I  I32  1  0.351407  0.556260  0.491738  1
