# generated using pymatgen
data_CuOsF7
_symmetry_space_group_name_H-M   'P 1'
_cell_length_a   7.64011660
_cell_length_b   7.64011653
_cell_length_c   7.64011723
_cell_angle_alpha   122.96712605
_cell_angle_beta   124.71609354
_cell_angle_gamma   83.47318739
_symmetry_Int_Tables_number   1
_chemical_formula_structural   CuOsF7
_chemical_formula_sum   'Cu2 Os2 F14'
_cell_volume   294.83666913
_cell_formula_units_Z   2
loop_
 _symmetry_equiv_pos_site_id
 _symmetry_equiv_pos_as_xyz
  1  'x, y, z'
loop_
 _atom_site_type_symbol
 _atom_site_label
 _atom_site_symmetry_multiplicity
 _atom_site_fract_x
 _atom_site_fract_y
 _atom_site_fract_z
 _atom_site_occupancy
  Cu  Cu0  1  0.500000  0.000000  0.000000  1
  Cu  Cu1  1  0.000000  0.000000  0.500000  1
  Os  Os2  1  0.500000  0.000000  0.500000  1
  Os  Os3  1  0.000000  0.500000  0.500000  1
  F  F4  1  0.250000  0.083336  0.833336  1
  F  F5  1  0.750000  0.916664  0.166664  1
  F  F6  1  0.531069  0.285525  0.754456  1
  F  F7  1  0.968931  0.723386  0.754456  1
  F  F8  1  0.070720  0.343275  0.651201  1
  F  F9  1  0.429280  0.080482  0.272555  1
  F  F10  1  0.307927  0.656725  0.727445  1
  F  F11  1  0.192073  0.919518  0.348799  1
  F  F12  1  0.929280  0.656725  0.348799  1
  F  F13  1  0.570720  0.919518  0.727445  1
  F  F14  1  0.692073  0.343275  0.272555  1
  F  F15  1  0.807927  0.080482  0.651201  1
  F  F16  1  0.031069  0.276614  0.245544  1
  F  F17  1  0.468931  0.714475  0.245544  1
