# generated using pymatgen
data_Ca2Ag2IrRu3O14
_symmetry_space_group_name_H-M   'P 1'
_cell_length_a   7.26359488
_cell_length_b   7.24739036
_cell_length_c   7.23677500
_cell_angle_alpha   59.74439582
_cell_angle_beta   59.87732038
_cell_angle_gamma   59.92601220
_symmetry_Int_Tables_number   1
_chemical_formula_structural   Ca2Ag2IrRu3O14
_chemical_formula_sum   'Ca2 Ag2 Ir1 Ru3 O14'
_cell_volume   268.45568557
_cell_formula_units_Z   1
loop_
 _symmetry_equiv_pos_site_id
 _symmetry_equiv_pos_as_xyz
  1  'x, y, z'
loop_
 _atom_site_type_symbol
 _atom_site_label
 _atom_site_symmetry_multiplicity
 _atom_site_fract_x
 _atom_site_fract_y
 _atom_site_fract_z
 _atom_site_occupancy
  Ca  Ca0  1  0.625000  0.125000  0.125000  1
  Ca  Ca1  1  0.125000  0.125000  0.125000  1
  Ag  Ag2  1  0.125000  0.625000  0.125000  1
  Ag  Ag3  1  0.125000  0.125000  0.625000  1
  Ir  Ir4  1  0.625000  0.625000  0.125000  1
  Ru  Ru5  1  0.625000  0.125000  0.625000  1
  Ru  Ru6  1  0.125000  0.625000  0.625000  1
  Ru  Ru7  1  0.625000  0.625000  0.625000  1
  O  O8  1  0.694643  0.699234  0.302855  1
  O  O9  1  0.940138  0.559341  0.560384  1
  O  O10  1  0.547406  0.952703  0.952485  1
  O  O11  1  0.941679  0.941838  0.559368  1
  O  O12  1  0.946731  0.550766  0.947145  1
  O  O13  1  0.557115  0.941838  0.559368  1
  O  O14  1  0.303269  0.699234  0.302855  1
  O  O15  1  0.309862  0.690659  0.689616  1
  O  O16  1  0.702594  0.297297  0.297515  1
  O  O17  1  0.692885  0.308162  0.690632  1
  O  O18  1  0.555357  0.550766  0.947145  1
  O  O19  1  0.308321  0.308162  0.690632  1
  O  O20  1  0.233150  0.266958  0.266740  1
  O  O21  1  0.016850  0.983042  0.983260  1
