# generated using pymatgen
data_TbY3Tm4(ReC2)4
_symmetry_space_group_name_H-M   'P 1'
_cell_length_a   5.07723900
_cell_length_b   6.58306698
_cell_length_c   9.80480346
_cell_angle_alpha   90.06255000
_cell_angle_beta   90.00000000
_cell_angle_gamma   90.00000000
_symmetry_Int_Tables_number   1
_chemical_formula_structural   TbY3Tm4(ReC2)4
_chemical_formula_sum   'Tb1 Y3 Tm4 Re4 C8'
_cell_volume   327.71363790
_cell_formula_units_Z   1
loop_
 _symmetry_equiv_pos_site_id
 _symmetry_equiv_pos_as_xyz
  1  'x, y, z'
loop_
 _atom_site_type_symbol
 _atom_site_label
 _atom_site_symmetry_multiplicity
 _atom_site_fract_x
 _atom_site_fract_y
 _atom_site_fract_z
 _atom_site_occupancy
  Tb  Tb0  1  0.250000  0.532906  0.214943  1
  Y  Y1  1  0.750000  0.466798  0.784896  1
  Y  Y2  1  0.250000  0.033147  0.284895  1
  Y  Y3  1  0.750000  0.966808  0.715179  1
  Tm  Tm4  1  0.750000  0.823556  0.057488  1
  Tm  Tm5  1  0.250000  0.676586  0.557638  1
  Tm  Tm6  1  0.750000  0.323292  0.442500  1
  Tm  Tm7  1  0.250000  0.176763  0.942278  1
  Re  Re8  1  0.750000  0.277825  0.133452  1
  Re  Re9  1  0.250000  0.221994  0.633417  1
  Re  Re10  1  0.750000  0.777946  0.366645  1
  Re  Re11  1  0.250000  0.722248  0.866586  1
  C  C12  1  0.750000  0.172718  0.950030  1
  C  C13  1  0.250000  0.827647  0.049814  1
  C  C14  1  0.750000  0.672729  0.549840  1
  C  C15  1  0.250000  0.327169  0.450222  1
  C  C16  1  0.750000  0.045894  0.259953  1
  C  C17  1  0.250000  0.454020  0.759930  1
  C  C18  1  0.750000  0.545965  0.240234  1
  C  C19  1  0.250000  0.953991  0.740061  1
