# generated using pymatgen
data_Tb2P(PtRh2)2
_symmetry_space_group_name_H-M   'P 1'
_cell_length_a   6.01253728
_cell_length_b   6.01253699
_cell_length_c   6.00748600
_cell_angle_alpha   60.02778559
_cell_angle_beta   60.02778723
_cell_angle_gamma   60.31067566
_symmetry_Int_Tables_number   1
_chemical_formula_structural   Tb2P(PtRh2)2
_chemical_formula_sum   'Tb2 P1 Pt2 Rh4'
_cell_volume   153.98760868
_cell_formula_units_Z   1
loop_
 _symmetry_equiv_pos_site_id
 _symmetry_equiv_pos_as_xyz
  1  'x, y, z'
loop_
 _atom_site_type_symbol
 _atom_site_label
 _atom_site_symmetry_multiplicity
 _atom_site_fract_x
 _atom_site_fract_y
 _atom_site_fract_z
 _atom_site_occupancy
  Tb  Tb0  1  0.249101  0.249101  0.252222  1
  Tb  Tb1  1  0.750899  0.750899  0.750424  1
  P  P2  1  0.000000  0.000000  0.989979  1
  Pt  Pt3  1  0.733597  0.266404  0.266363  1
  Pt  Pt4  1  0.266404  0.733597  0.266363  1
  Rh  Rh5  1  0.736355  0.736355  0.265904  1
  Rh  Rh6  1  0.263645  0.263645  0.738615  1
  Rh  Rh7  1  0.731860  0.268141  0.735067  1
  Rh  Rh8  1  0.268141  0.731860  0.735067  1
