# generated using pymatgen
data_ThMg(Si7Ir3)2
_symmetry_space_group_name_H-M   'P 1'
_cell_length_a   8.06286797
_cell_length_b   8.06286790
_cell_length_c   8.06286640
_cell_angle_alpha   56.49672568
_cell_angle_beta   56.49673438
_cell_angle_gamma   56.49673568
_symmetry_Int_Tables_number   1
_chemical_formula_structural   ThMg(Si7Ir3)2
_chemical_formula_sum   'Th1 Mg1 Si14 Ir6'
_cell_volume   340.62869265
_cell_formula_units_Z   1
loop_
 _symmetry_equiv_pos_site_id
 _symmetry_equiv_pos_as_xyz
  1  'x, y, z'
loop_
 _atom_site_type_symbol
 _atom_site_label
 _atom_site_symmetry_multiplicity
 _atom_site_fract_x
 _atom_site_fract_y
 _atom_site_fract_z
 _atom_site_occupancy
  Th  Th0  1  0.500000  0.500000  0.500000  1
  Mg  Mg1  1  0.000000  0.000000  0.000000  1
  Si  Si2  1  0.854235  0.060994  0.675520  1
  Si  Si3  1  0.675520  0.854235  0.060994  1
  Si  Si4  1  0.060994  0.675520  0.854235  1
  Si  Si5  1  0.653667  0.829844  0.432850  1
  Si  Si6  1  0.250709  0.250709  0.250709  1
  Si  Si7  1  0.749291  0.749291  0.749291  1
  Si  Si8  1  0.170156  0.567150  0.346333  1
  Si  Si9  1  0.567150  0.346333  0.170156  1
  Si  Si10  1  0.346333  0.170156  0.567150  1
  Si  Si11  1  0.939006  0.324480  0.145765  1
  Si  Si12  1  0.324480  0.145765  0.939006  1
  Si  Si13  1  0.145765  0.939006  0.324480  1
  Si  Si14  1  0.829844  0.432850  0.653667  1
  Si  Si15  1  0.432850  0.653667  0.829844  1
  Ir  Ir16  1  0.750734  0.070706  0.429344  1
  Ir  Ir17  1  0.429344  0.750734  0.070706  1
  Ir  Ir18  1  0.070706  0.429344  0.750734  1
  Ir  Ir19  1  0.249266  0.929294  0.570656  1
  Ir  Ir20  1  0.570656  0.249266  0.929294  1
  Ir  Ir21  1  0.929294  0.570656  0.249266  1
