# generated using pymatgen
data_DyTm6Sn23Ir6
_symmetry_space_group_name_H-M   'P 1'
_cell_length_a   9.81583400
_cell_length_b   9.81583161
_cell_length_c   10.10793400
_cell_angle_alpha   90.00000000
_cell_angle_beta   90.00000000
_cell_angle_gamma   119.99999457
_symmetry_Int_Tables_number   1
_chemical_formula_structural   DyTm6Sn23Ir6
_chemical_formula_sum   'Dy1 Tm6 Sn23 Ir6'
_cell_volume   843.42672446
_cell_formula_units_Z   1
loop_
 _symmetry_equiv_pos_site_id
 _symmetry_equiv_pos_as_xyz
  1  'x, y, z'
loop_
 _atom_site_type_symbol
 _atom_site_label
 _atom_site_symmetry_multiplicity
 _atom_site_fract_x
 _atom_site_fract_y
 _atom_site_fract_z
 _atom_site_occupancy
  Dy  Dy0  1  0.000000  0.000000  0.000000  1
  Tm  Tm1  1  0.519505  0.480495  0.692591  1
  Tm  Tm2  1  0.519505  0.039011  0.692591  1
  Tm  Tm3  1  0.960989  0.480495  0.692591  1
  Tm  Tm4  1  0.039011  0.519505  0.307409  1
  Tm  Tm5  1  0.480495  0.960989  0.307409  1
  Tm  Tm6  1  0.480495  0.519505  0.307409  1
  Sn  Sn7  1  0.666667  0.333333  0.174477  1
  Sn  Sn8  1  0.666667  0.333333  0.875081  1
  Sn  Sn9  1  0.333333  0.666667  0.124919  1
  Sn  Sn10  1  0.352468  0.352468  0.000000  1
  Sn  Sn11  1  0.000000  0.647532  0.000000  1
  Sn  Sn12  1  0.647532  0.000000  0.000000  1
  Sn  Sn13  1  0.647532  0.647532  0.000000  1
  Sn  Sn14  1  0.333333  0.666667  0.825523  1
  Sn  Sn15  1  0.445036  0.222518  0.456970  1
  Sn  Sn16  1  0.222518  0.777482  0.543030  1
  Sn  Sn17  1  0.222518  0.445036  0.543030  1
  Sn  Sn18  1  0.554964  0.777482  0.543030  1
  Sn  Sn19  1  0.119913  0.880087  0.283567  1
  Sn  Sn20  1  0.777482  0.554964  0.456970  1
  Sn  Sn21  1  0.777482  0.222518  0.456970  1
  Sn  Sn22  1  0.352468  0.000000  0.000000  1
  Sn  Sn23  1  0.119913  0.239826  0.283567  1
  Sn  Sn24  1  0.760174  0.880087  0.283567  1
  Sn  Sn25  1  0.239826  0.119913  0.716433  1
  Sn  Sn26  1  0.880087  0.760174  0.716433  1
  Sn  Sn27  1  0.880087  0.119913  0.716433  1
  Sn  Sn28  1  0.000000  0.000000  0.500000  1
  Sn  Sn29  1  0.000000  0.352468  0.000000  1
  Ir  Ir30  1  0.169289  0.830711  0.801049  1
  Ir  Ir31  1  0.169289  0.338578  0.801049  1
  Ir  Ir32  1  0.661422  0.830711  0.801049  1
  Ir  Ir33  1  0.338578  0.169289  0.198951  1
  Ir  Ir34  1  0.830711  0.661422  0.198951  1
  Ir  Ir35  1  0.830711  0.169289  0.198951  1
