# generated using pymatgen
data_Rb4Hf6MnBr18
_symmetry_space_group_name_H-M   'P 1'
_cell_length_a   10.72096134
_cell_length_b   10.91916026
_cell_length_c   10.99686252
_cell_angle_alpha   118.31842337
_cell_angle_beta   100.94822560
_cell_angle_gamma   103.76693530
_symmetry_Int_Tables_number   1
_chemical_formula_structural   Rb4Hf6MnBr18
_chemical_formula_sum   'Rb4 Hf6 Mn1 Br18'
_cell_volume   1029.37815192
_cell_formula_units_Z   1
loop_
 _symmetry_equiv_pos_site_id
 _symmetry_equiv_pos_as_xyz
  1  'x, y, z'
loop_
 _atom_site_type_symbol
 _atom_site_label
 _atom_site_symmetry_multiplicity
 _atom_site_fract_x
 _atom_site_fract_y
 _atom_site_fract_z
 _atom_site_occupancy
  Rb  Rb0  1  0.656798  0.538021  0.228915  1
  Rb  Rb1  1  0.343202  0.461979  0.771085  1
  Rb  Rb2  1  0.690504  0.226421  0.564268  1
  Rb  Rb3  1  0.309496  0.773579  0.435732  1
  Hf  Hf4  1  0.147566  0.054845  0.224892  1
  Hf  Hf5  1  0.852434  0.945155  0.775108  1
  Hf  Hf6  1  0.860465  0.126508  0.133136  1
  Hf  Hf7  1  0.139535  0.873492  0.866864  1
  Hf  Hf8  1  0.146801  0.240049  0.044961  1
  Hf  Hf9  1  0.853199  0.759951  0.955039  1
  Mn  Mn10  1  0.000000  0.000000  0.000000  1
  Br  Br11  1  0.008654  0.403670  0.193649  1
  Br  Br12  1  0.991346  0.596330  0.806351  1
  Br  Br13  1  0.325937  0.327001  0.305766  1
  Br  Br14  1  0.674063  0.672999  0.694234  1
  Br  Br15  1  0.318735  0.514100  0.099286  1
  Br  Br16  1  0.681265  0.485900  0.900714  1
  Br  Br17  1  0.005370  0.799441  0.206486  1
  Br  Br18  1  0.994630  0.200559  0.793514  1
  Br  Br19  1  0.707027  0.269310  0.282003  1
  Br  Br20  1  0.292973  0.730690  0.717997  1
  Br  Br21  1  0.314074  0.126691  0.906158  1
  Br  Br22  1  0.685926  0.873309  0.093842  1
  Br  Br23  1  0.016723  0.201029  0.401367  1
  Br  Br24  1  0.983277  0.798971  0.598633  1
  Br  Br25  1  0.316628  0.925352  0.109744  1
  Br  Br26  1  0.683372  0.074648  0.890256  1
  Br  Br27  1  0.329311  0.120163  0.492327  1
  Br  Br28  1  0.670689  0.879837  0.507673  1
