# generated using pymatgen
data_Eu4P7Ir8
_symmetry_space_group_name_H-M   'P 1'
_cell_length_a   4.01699700
_cell_length_b   12.85818437
_cell_length_c   13.30536784
_cell_angle_alpha   80.95132142
_cell_angle_beta   90.00000000
_cell_angle_gamma   90.00000000
_symmetry_Int_Tables_number   1
_chemical_formula_structural   Eu4P7Ir8
_chemical_formula_sum   'Eu8 P14 Ir16'
_cell_volume   678.68674609
_cell_formula_units_Z   2
loop_
 _symmetry_equiv_pos_site_id
 _symmetry_equiv_pos_as_xyz
  1  'x, y, z'
loop_
 _atom_site_type_symbol
 _atom_site_label
 _atom_site_symmetry_multiplicity
 _atom_site_fract_x
 _atom_site_fract_y
 _atom_site_fract_z
 _atom_site_occupancy
  Eu  Eu0  1  0.750000  0.786956  0.565114  1
  Eu  Eu1  1  0.250000  0.213044  0.434886  1
  Eu  Eu2  1  0.750000  0.485064  0.708094  1
  Eu  Eu3  1  0.250000  0.514936  0.291906  1
  Eu  Eu4  1  0.750000  0.717703  0.895136  1
  Eu  Eu5  1  0.250000  0.104844  0.791342  1
  Eu  Eu6  1  0.750000  0.895156  0.208658  1
  Eu  Eu7  1  0.250000  0.282297  0.104864  1
  P  P8  1  0.250000  0.909222  0.411759  1
  P  P9  1  0.750000  0.473615  0.127291  1
  P  P10  1  0.250000  0.526385  0.872709  1
  P  P11  1  0.750000  0.090778  0.588241  1
  P  P12  1  0.250000  0.742913  0.080784  1
  P  P13  1  0.750000  0.257087  0.919216  1
  P  P14  1  0.750000  0.154258  0.280794  1
  P  P15  1  0.250000  0.845742  0.719206  1
  P  P16  1  0.250000  0.055102  0.098435  1
  P  P17  1  0.750000  0.944898  0.901565  1
  P  P18  1  0.250000  0.311087  0.687616  1
  P  P19  1  0.750000  0.688913  0.312384  1
  P  P20  1  0.250000  0.608833  0.560894  1
  P  P21  1  0.750000  0.391167  0.439106  1
  Ir  Ir22  1  0.250000  0.986429  0.575400  1
  Ir  Ir23  1  0.750000  0.013571  0.424600  1
  Ir  Ir24  1  0.250000  0.663074  0.728304  1
  Ir  Ir25  1  0.750000  0.336926  0.271696  1
  Ir  Ir26  1  0.250000  0.551948  0.048975  1
  Ir  Ir27  1  0.750000  0.448052  0.951025  1
  Ir  Ir28  1  0.250000  0.061500  0.273400  1
  Ir  Ir29  1  0.750000  0.938500  0.726600  1
  Ir  Ir30  1  0.250000  0.423832  0.528149  1
  Ir  Ir31  1  0.750000  0.576168  0.471851  1
  Ir  Ir32  1  0.250000  0.917759  0.998250  1
  Ir  Ir33  1  0.750000  0.082241  0.001750  1
  Ir  Ir34  1  0.250000  0.728763  0.395222  1
  Ir  Ir35  1  0.750000  0.271237  0.604778  1
  Ir  Ir36  1  0.250000  0.340371  0.858578  1
  Ir  Ir37  1  0.750000  0.659629  0.141422  1
