# generated using pymatgen
data_PrAlGeO5
_symmetry_space_group_name_H-M   'P 1'
_cell_length_a   5.76331300
_cell_length_b   7.52500300
_cell_length_c   8.57858000
_cell_angle_alpha   90.00000000
_cell_angle_beta   90.00000000
_cell_angle_gamma   90.00000000
_symmetry_Int_Tables_number   1
_chemical_formula_structural   PrAlGeO5
_chemical_formula_sum   'Pr4 Al4 Ge4 O20'
_cell_volume   372.04398663
_cell_formula_units_Z   4
loop_
 _symmetry_equiv_pos_site_id
 _symmetry_equiv_pos_as_xyz
  1  'x, y, z'
loop_
 _atom_site_type_symbol
 _atom_site_label
 _atom_site_symmetry_multiplicity
 _atom_site_fract_x
 _atom_site_fract_y
 _atom_site_fract_z
 _atom_site_occupancy
  Pr  Pr0  1  0.000000  0.358139  0.325600  1
  Pr  Pr1  1  0.000000  0.641861  0.674400  1
  Pr  Pr2  1  0.000000  0.858139  0.174400  1
  Pr  Pr3  1  0.000000  0.141861  0.825600  1
  Al  Al4  1  0.252240  0.500000  0.000000  1
  Al  Al5  1  0.747760  0.000000  0.500000  1
  Al  Al6  1  0.747760  0.500000  0.000000  1
  Al  Al7  1  0.252240  0.000000  0.500000  1
  Ge  Ge8  1  0.500000  0.120578  0.142919  1
  Ge  Ge9  1  0.500000  0.879422  0.857081  1
  Ge  Ge10  1  0.500000  0.620578  0.357081  1
  Ge  Ge11  1  0.500000  0.379422  0.642919  1
  O  O12  1  0.000000  0.345072  0.049570  1
  O  O13  1  0.000000  0.654928  0.950430  1
  O  O14  1  0.000000  0.845072  0.450430  1
  O  O15  1  0.000000  0.154928  0.549570  1
  O  O16  1  0.500000  0.344484  0.068014  1
  O  O17  1  0.500000  0.655516  0.931986  1
  O  O18  1  0.500000  0.844484  0.431986  1
  O  O19  1  0.500000  0.155516  0.568014  1
  O  O20  1  0.261215  0.102534  0.287185  1
  O  O21  1  0.261215  0.897466  0.712815  1
  O  O22  1  0.738785  0.602534  0.212815  1
  O  O23  1  0.738785  0.397466  0.787185  1
  O  O24  1  0.738785  0.897466  0.712815  1
  O  O25  1  0.738785  0.102534  0.287185  1
  O  O26  1  0.261215  0.397466  0.787185  1
  O  O27  1  0.261215  0.602534  0.212815  1
  O  O28  1  0.291913  0.000000  0.000000  1
  O  O29  1  0.708087  0.500000  0.500000  1
  O  O30  1  0.708087  0.000000  0.000000  1
  O  O31  1  0.291913  0.500000  0.500000  1
