# generated using pymatgen
data_YbTh7(Nb3Ge4)4
_symmetry_space_group_name_H-M   'P 1'
_cell_length_a   7.16959285
_cell_length_b   7.31384649
_cell_length_c   13.81461419
_cell_angle_alpha   89.96009825
_cell_angle_beta   89.89884511
_cell_angle_gamma   89.98748138
_symmetry_Int_Tables_number   1
_chemical_formula_structural   YbTh7(Nb3Ge4)4
_chemical_formula_sum   'Yb1 Th7 Nb12 Ge16'
_cell_volume   724.39976749
_cell_formula_units_Z   1
loop_
 _symmetry_equiv_pos_site_id
 _symmetry_equiv_pos_as_xyz
  1  'x, y, z'
loop_
 _atom_site_type_symbol
 _atom_site_label
 _atom_site_symmetry_multiplicity
 _atom_site_fract_x
 _atom_site_fract_y
 _atom_site_fract_z
 _atom_site_occupancy
  Yb  Yb0  1  0.494100  0.327812  0.094088  1
  Th  Th1  1  0.995792  0.172071  0.403856  1
  Th  Th2  1  0.506138  0.671394  0.594216  1
  Th  Th3  1  0.005152  0.828175  0.908010  1
  Th  Th4  1  0.504736  0.670601  0.907672  1
  Th  Th5  1  0.006722  0.828876  0.594002  1
  Th  Th6  1  0.496286  0.329375  0.405302  1
  Th  Th7  1  0.997022  0.170972  0.093680  1
  Nb  Nb8  1  0.665798  0.008151  0.750115  1
  Nb  Nb9  1  0.165746  0.491645  0.750807  1
  Nb  Nb10  1  0.332149  0.988340  0.251684  1
  Nb  Nb11  1  0.834513  0.508295  0.249420  1
  Nb  Nb12  1  0.839696  0.334182  0.625584  1
  Nb  Nb13  1  0.335578  0.164974  0.874002  1
  Nb  Nb14  1  0.158294  0.670228  0.125330  1
  Nb  Nb15  1  0.660255  0.833626  0.373877  1
  Nb  Nb16  1  0.163756  0.665768  0.374204  1
  Nb  Nb17  1  0.664079  0.831828  0.125962  1
  Nb  Nb18  1  0.839773  0.333567  0.874635  1
  Nb  Nb19  1  0.337735  0.165405  0.625533  1
  Ge  Ge20  1  0.807544  0.628364  0.750727  1
  Ge  Ge21  1  0.308375  0.870469  0.750914  1
  Ge  Ge22  1  0.197362  0.372246  0.246424  1
  Ge  Ge23  1  0.686890  0.132996  0.245499  1
  Ge  Ge24  1  0.538088  0.366740  0.750681  1
  Ge  Ge25  1  0.037500  0.132128  0.750370  1
  Ge  Ge26  1  0.462633  0.630383  0.247596  1
  Ge  Ge27  1  0.960700  0.866838  0.250671  1
  Ge  Ge28  1  0.670106  0.047290  0.545302  1
  Ge  Ge29  1  0.170860  0.453138  0.956193  1
  Ge  Ge30  1  0.335044  0.959969  0.046769  1
  Ge  Ge31  1  0.830805  0.547749  0.454173  1
  Ge  Ge32  1  0.330075  0.953443  0.454723  1
  Ge  Ge33  1  0.823581  0.540768  0.046762  1
  Ge  Ge34  1  0.666732  0.049120  0.955815  1
  Ge  Ge35  1  0.170386  0.453075  0.545402  1
