# generated using pymatgen
data_Tm4MnAl6Ir
_symmetry_space_group_name_H-M   'P 1'
_cell_length_a   5.47900800
_cell_length_b   5.47900653
_cell_length_c   8.69722300
_cell_angle_alpha   90.00000000
_cell_angle_beta   90.00000000
_cell_angle_gamma   119.99999678
_symmetry_Int_Tables_number   1
_chemical_formula_structural   Tm4MnAl6Ir
_chemical_formula_sum   'Tm4 Mn1 Al6 Ir1'
_cell_volume   226.10751886
_cell_formula_units_Z   1
loop_
 _symmetry_equiv_pos_site_id
 _symmetry_equiv_pos_as_xyz
  1  'x, y, z'
loop_
 _atom_site_type_symbol
 _atom_site_label
 _atom_site_symmetry_multiplicity
 _atom_site_fract_x
 _atom_site_fract_y
 _atom_site_fract_z
 _atom_site_occupancy
  Tm  Tm0  1  0.666668  0.333334  0.055200  1
  Tm  Tm1  1  0.666668  0.333334  0.443980  1
  Tm  Tm2  1  0.333333  0.666666  0.556021  1
  Tm  Tm3  1  0.333333  0.666666  0.944799  1
  Mn  Mn4  1  0.000000  0.000000  0.000000  1
  Al  Al5  1  0.163850  0.327698  0.250112  1
  Al  Al6  1  0.163849  0.836150  0.250112  1
  Al  Al7  1  0.672301  0.836150  0.250112  1
  Al  Al8  1  0.327698  0.163849  0.749887  1
  Al  Al9  1  0.836150  0.163849  0.749887  1
  Al  Al10  1  0.836151  0.672302  0.749887  1
  Ir  Ir11  1  0.000000  0.000000  0.500000  1
