# generated using pymatgen
data_TiCrCo4(MoP2)2
_symmetry_space_group_name_H-M   'P 1'
_cell_length_a   3.59304700
_cell_length_b   5.88651707
_cell_length_c   6.78727768
_cell_angle_alpha   90.22185988
_cell_angle_beta   90.00000000
_cell_angle_gamma   90.00000000
_symmetry_Int_Tables_number   1
_chemical_formula_structural   TiCrCo4(MoP2)2
_chemical_formula_sum   'Ti1 Cr1 Co4 Mo2 P4'
_cell_volume   143.55346089
_cell_formula_units_Z   1
loop_
 _symmetry_equiv_pos_site_id
 _symmetry_equiv_pos_as_xyz
  1  'x, y, z'
loop_
 _atom_site_type_symbol
 _atom_site_label
 _atom_site_symmetry_multiplicity
 _atom_site_fract_x
 _atom_site_fract_y
 _atom_site_fract_z
 _atom_site_occupancy
  Ti  Ti0  1  0.750000  0.524226  0.824631  1
  Cr  Cr1  1  0.750000  0.028208  0.669898  1
  Co  Co2  1  0.250000  0.855875  0.932353  1
  Co  Co3  1  0.250000  0.355784  0.567591  1
  Co  Co4  1  0.750000  0.143246  0.061940  1
  Co  Co5  1  0.750000  0.643072  0.441413  1
  Mo  Mo6  1  0.250000  0.972787  0.330841  1
  Mo  Mo7  1  0.250000  0.471089  0.168935  1
  P  P8  1  0.250000  0.224131  0.875455  1
  P  P9  1  0.250000  0.738620  0.620877  1
  P  P10  1  0.750000  0.772680  0.126160  1
  P  P11  1  0.750000  0.270283  0.379906  1
