# generated using pymatgen
data_K4Ca(VS4)2
_symmetry_space_group_name_H-M   'P 1'
_cell_length_a   9.14987419
_cell_length_b   9.34791011
_cell_length_c   11.35501900
_cell_angle_alpha   106.22668924
_cell_angle_beta   103.93685412
_cell_angle_gamma   93.57070310
_symmetry_Int_Tables_number   1
_chemical_formula_structural   K4Ca(VS4)2
_chemical_formula_sum   'K8 Ca2 V4 S16'
_cell_volume   896.28492161
_cell_formula_units_Z   2
loop_
 _symmetry_equiv_pos_site_id
 _symmetry_equiv_pos_as_xyz
  1  'x, y, z'
loop_
 _atom_site_type_symbol
 _atom_site_label
 _atom_site_symmetry_multiplicity
 _atom_site_fract_x
 _atom_site_fract_y
 _atom_site_fract_z
 _atom_site_occupancy
  K  K0  1  0.950175  0.529273  0.263680  1
  K  K1  1  0.049825  0.470727  0.736320  1
  K  K2  1  0.766654  0.014413  0.479213  1
  K  K3  1  0.233346  0.985587  0.520787  1
  K  K4  1  0.608182  0.743312  0.029485  1
  K  K5  1  0.391818  0.256688  0.970515  1
  K  K6  1  0.619895  0.681183  0.615323  1
  K  K7  1  0.380105  0.318817  0.384677  1
  Ca  Ca8  1  0.852774  0.144954  0.925922  1
  Ca  Ca9  1  0.147226  0.855046  0.074078  1
  V  V10  1  0.952391  0.114673  0.236190  1
  V  V11  1  0.047609  0.885327  0.763810  1
  V  V12  1  0.381440  0.674629  0.257365  1
  V  V13  1  0.618560  0.325371  0.742635  1
  S  S14  1  0.950189  0.881907  0.236531  1
  S  S15  1  0.049811  0.118093  0.763469  1
  S  S16  1  0.576967  0.086102  0.726837  1
  S  S17  1  0.423033  0.913898  0.273163  1
  S  S18  1  0.301029  0.650635  0.415798  1
  S  S19  1  0.698971  0.349365  0.584202  1
  S  S20  1  0.791177  0.434429  0.921346  1
  S  S21  1  0.208823  0.565571  0.078654  1
  S  S22  1  0.023527  0.257306  0.427084  1
  S  S23  1  0.976473  0.742694  0.572916  1
  S  S24  1  0.115699  0.167011  0.135386  1
  S  S25  1  0.884301  0.832989  0.864614  1
  S  S26  1  0.731801  0.149659  0.135641  1
  S  S27  1  0.268199  0.850341  0.864359  1
  S  S28  1  0.583534  0.572111  0.257259  1
  S  S29  1  0.416466  0.427889  0.742741  1
