# generated using pymatgen
data_Ho13Tm3In3HgRh4
_symmetry_space_group_name_H-M   'P 1'
_cell_length_a   9.57488383
_cell_length_b   9.58213293
_cell_length_c   9.58209102
_cell_angle_alpha   60.03211773
_cell_angle_beta   60.06111958
_cell_angle_gamma   60.04936658
_symmetry_Int_Tables_number   1
_chemical_formula_structural   Ho13Tm3In3HgRh4
_chemical_formula_sum   'Ho13 Tm3 In3 Hg1 Rh4'
_cell_volume   622.31261178
_cell_formula_units_Z   1
loop_
 _symmetry_equiv_pos_site_id
 _symmetry_equiv_pos_as_xyz
  1  'x, y, z'
loop_
 _atom_site_type_symbol
 _atom_site_label
 _atom_site_symmetry_multiplicity
 _atom_site_fract_x
 _atom_site_fract_y
 _atom_site_fract_z
 _atom_site_occupancy
  Ho  Ho0  1  0.061845  0.061450  0.438637  1
  Ho  Ho1  1  0.436491  0.065107  0.436984  1
  Ho  Ho2  1  0.061603  0.438737  0.061467  1
  Ho  Ho3  1  0.052439  0.648055  0.648246  1
  Ho  Ho4  1  0.436652  0.437120  0.065001  1
  Ho  Ho5  1  0.647917  0.052156  0.648250  1
  Ho  Ho6  1  0.189205  0.812905  0.188774  1
  Ho  Ho7  1  0.188946  0.188612  0.813193  1
  Ho  Ho8  1  0.810276  0.809916  0.190636  1
  Ho  Ho9  1  0.438345  0.061549  0.061809  1
  Ho  Ho10  1  0.812932  0.189204  0.189077  1
  Ho  Ho11  1  0.065214  0.436787  0.436814  1
  Ho  Ho12  1  0.810418  0.190487  0.810197  1
  Tm  Tm13  1  0.190877  0.810110  0.810273  1
  Tm  Tm14  1  0.648256  0.648432  0.051181  1
  Tm  Tm15  1  0.651403  0.651994  0.652196  1
  In  In16  1  0.746854  0.418300  0.417805  1
  In  In17  1  0.418206  0.746952  0.417915  1
  In  In18  1  0.418073  0.418175  0.747053  1
  Hg  Hg19  1  0.414122  0.414062  0.413672  1
  Rh  Rh20  1  0.857844  0.857880  0.427673  1
  Rh  Rh21  1  0.856823  0.856532  0.856959  1
  Rh  Rh22  1  0.427595  0.857666  0.858074  1
  Rh  Rh23  1  0.857662  0.427812  0.858110  1
