# generated using pymatgen
data_Ce4MgB4Ir9
_symmetry_space_group_name_H-M   'P 1'
_cell_length_a   10.94206679
_cell_length_b   10.94206646
_cell_length_c   10.94206634
_cell_angle_alpha   29.46332983
_cell_angle_beta   29.46333184
_cell_angle_gamma   29.46333823
_symmetry_Int_Tables_number   1
_chemical_formula_structural   Ce4MgB4Ir9
_chemical_formula_sum   'Ce4 Mg1 B4 Ir9'
_cell_volume   280.52832196
_cell_formula_units_Z   1
loop_
 _symmetry_equiv_pos_site_id
 _symmetry_equiv_pos_as_xyz
  1  'x, y, z'
loop_
 _atom_site_type_symbol
 _atom_site_label
 _atom_site_symmetry_multiplicity
 _atom_site_fract_x
 _atom_site_fract_y
 _atom_site_fract_z
 _atom_site_occupancy
  Ce  Ce0  1  0.149332  0.149332  0.149332  1
  Ce  Ce1  1  0.948967  0.948967  0.948967  1
  Ce  Ce2  1  0.850668  0.850668  0.850668  1
  Ce  Ce3  1  0.051033  0.051033  0.051033  1
  Mg  Mg4  1  0.500000  0.500000  0.500000  1
  B  B5  1  0.616035  0.616035  0.616035  1
  B  B6  1  0.717292  0.717292  0.717292  1
  B  B7  1  0.383965  0.383965  0.383965  1
  B  B8  1  0.282708  0.282708  0.282708  1
  Ir  Ir9  1  0.402055  0.904726  0.402055  1
  Ir  Ir10  1  0.904726  0.402055  0.402055  1
  Ir  Ir11  1  0.500000  0.500000  0.000000  1
  Ir  Ir12  1  0.500000  0.000000  0.500000  1
  Ir  Ir13  1  0.000000  0.500000  0.500000  1
  Ir  Ir14  1  0.597945  0.095274  0.597945  1
  Ir  Ir15  1  0.597945  0.597945  0.095274  1
  Ir  Ir16  1  0.095274  0.597945  0.597945  1
  Ir  Ir17  1  0.402055  0.402055  0.904726  1
