# generated using pymatgen
data_Tm2Mn7Si4Tc
_symmetry_space_group_name_H-M   'P 1'
_cell_length_a   6.60716273
_cell_length_b   7.49568716
_cell_length_c   3.93033400
_cell_angle_alpha   90.00000000
_cell_angle_beta   90.00000000
_cell_angle_gamma   90.02424532
_symmetry_Int_Tables_number   1
_chemical_formula_structural   Tm2Mn7Si4Tc
_chemical_formula_sum   'Tm2 Mn7 Si4 Tc1'
_cell_volume   194.65065765
_cell_formula_units_Z   1
loop_
 _symmetry_equiv_pos_site_id
 _symmetry_equiv_pos_as_xyz
  1  'x, y, z'
loop_
 _atom_site_type_symbol
 _atom_site_label
 _atom_site_symmetry_multiplicity
 _atom_site_fract_x
 _atom_site_fract_y
 _atom_site_fract_z
 _atom_site_occupancy
  Tm  Tm0  1  0.496814  0.497353  0.500000  1
  Tm  Tm1  1  0.001339  0.998895  0.000000  1
  Mn  Mn2  1  0.346200  0.114978  0.500000  1
  Mn  Mn3  1  0.145841  0.611942  0.000000  1
  Mn  Mn4  1  0.859011  0.385568  0.000000  1
  Mn  Mn5  1  0.932159  0.651571  0.500000  1
  Mn  Mn6  1  0.066009  0.350010  0.500000  1
  Mn  Mn7  1  0.569725  0.156630  0.000000  1
  Mn  Mn8  1  0.433264  0.848446  0.000000  1
  Si  Si9  1  0.763418  0.195849  0.500000  1
  Si  Si10  1  0.238185  0.808786  0.500000  1
  Si  Si11  1  0.259475  0.309994  0.000000  1
  Si  Si12  1  0.740911  0.681903  0.000000  1
  Tc  Tc13  1  0.647651  0.888075  0.500000  1
