# generated using pymatgen
data_AcAl2ZnSi
_symmetry_space_group_name_H-M   'P 1'
_cell_length_a   4.38684178
_cell_length_b   4.38684266
_cell_length_c   6.23097439
_cell_angle_alpha   69.38914757
_cell_angle_beta   69.38914608
_cell_angle_gamma   89.99998907
_symmetry_Int_Tables_number   1
_chemical_formula_structural   AcAl2ZnSi
_chemical_formula_sum   'Ac1 Al2 Zn1 Si1'
_cell_volume   103.99600566
_cell_formula_units_Z   1
loop_
 _symmetry_equiv_pos_site_id
 _symmetry_equiv_pos_as_xyz
  1  'x, y, z'
loop_
 _atom_site_type_symbol
 _atom_site_label
 _atom_site_symmetry_multiplicity
 _atom_site_fract_x
 _atom_site_fract_y
 _atom_site_fract_z
 _atom_site_occupancy
  Ac  Ac0  1  0.996004  0.996004  0.007991  1
  Al  Al1  1  0.749513  0.249513  0.500974  1
  Al  Al2  1  0.249513  0.749513  0.500974  1
  Zn  Zn3  1  0.620609  0.620609  0.758782  1
  Si  Si4  1  0.384361  0.384361  0.231280  1
