# generated using pymatgen
data_MnBe8Al2Re
_symmetry_space_group_name_H-M   'P 1'
_cell_length_a   4.34746000
_cell_length_b   4.34745981
_cell_length_c   7.03727200
_cell_angle_alpha   90.00000000
_cell_angle_beta   90.00000000
_cell_angle_gamma   120.00001670
_symmetry_Int_Tables_number   1
_chemical_formula_structural   MnBe8Al2Re
_chemical_formula_sum   'Mn1 Be8 Al2 Re1'
_cell_volume   115.18768930
_cell_formula_units_Z   1
loop_
 _symmetry_equiv_pos_site_id
 _symmetry_equiv_pos_as_xyz
  1  'x, y, z'
loop_
 _atom_site_type_symbol
 _atom_site_label
 _atom_site_symmetry_multiplicity
 _atom_site_fract_x
 _atom_site_fract_y
 _atom_site_fract_z
 _atom_site_occupancy
  Mn  Mn0  1  0.333333  0.666667  0.434566  1
  Be  Be1  1  0.000000  0.000000  0.998600  1
  Be  Be2  1  0.000000  0.000000  0.503641  1
  Be  Be3  1  0.834415  0.668829  0.253232  1
  Be  Be4  1  0.173871  0.826129  0.746901  1
  Be  Be5  1  0.652258  0.826129  0.746901  1
  Be  Be6  1  0.331171  0.165585  0.253232  1
  Be  Be7  1  0.834415  0.165585  0.253232  1
  Be  Be8  1  0.173871  0.347742  0.746901  1
  Al  Al9  1  0.666667  0.333333  0.549654  1
  Al  Al10  1  0.666667  0.333333  0.948087  1
  Re  Re11  1  0.333333  0.666667  0.065053  1
