# generated using pymatgen
data_BaSrCu18Si7Ge
_symmetry_space_group_name_H-M   'P 1'
_cell_length_a   8.26364110
_cell_length_b   8.26123198
_cell_length_c   8.27532850
_cell_angle_alpha   120.46752597
_cell_angle_beta   120.47896204
_cell_angle_gamma   89.25235584
_symmetry_Int_Tables_number   1
_chemical_formula_structural   BaSrCu18Si7Ge
_chemical_formula_sum   'Ba1 Sr1 Cu18 Si7 Ge1'
_cell_volume   396.33105412
_cell_formula_units_Z   1
loop_
 _symmetry_equiv_pos_site_id
 _symmetry_equiv_pos_as_xyz
  1  'x, y, z'
loop_
 _atom_site_type_symbol
 _atom_site_label
 _atom_site_symmetry_multiplicity
 _atom_site_fract_x
 _atom_site_fract_y
 _atom_site_fract_z
 _atom_site_occupancy
  Ba  Ba0  1  0.750142  0.749335  0.999743  1
  Sr  Sr1  1  0.249894  0.250197  0.999829  1
  Cu  Cu2  1  0.935656  0.202266  0.141451  1
  Cu  Cu3  1  0.205292  0.064741  0.269063  1
  Cu  Cu4  1  0.795515  0.932215  0.729624  1
  Cu  Cu5  1  0.431693  0.294330  0.730252  1
  Cu  Cu6  1  0.067195  0.798218  0.861929  1
  Cu  Cu7  1  0.806235  0.056114  0.496661  1
  Cu  Cu8  1  0.552677  0.303510  0.490541  1
  Cu  Cu9  1  0.195353  0.944062  0.504409  1
  Cu  Cu10  1  0.441098  0.692191  0.498829  1
  Cu  Cu11  1  0.941785  0.439717  0.736257  1
  Cu  Cu12  1  0.692520  0.194862  0.252683  1
  Cu  Cu13  1  0.066998  0.564682  0.267519  1
  Cu  Cu14  1  0.700418  0.433953  0.140837  1
  Cu  Cu15  1  0.563190  0.703764  0.269038  1
  Cu  Cu16  1  0.498310  0.998287  0.498892  1
  Cu  Cu17  1  0.000096  0.500679  0.499113  1
  Cu  Cu18  1  0.305310  0.808175  0.747961  1
  Cu  Cu19  1  0.295627  0.564697  0.861368  1
  Si  Si20  1  0.556691  0.058810  0.849541  1
  Si  Si21  1  0.059794  0.209635  0.500725  1
  Si  Si22  1  0.290356  0.439739  0.499399  1
  Si  Si23  1  0.941996  0.792719  0.503526  1
  Si  Si24  1  0.440129  0.941895  0.150557  1
  Si  Si25  1  0.207981  0.705569  0.148315  1
  Si  Si26  1  0.707737  0.557938  0.497028  1
  Ge  Ge27  1  0.800312  0.297695  0.854912  1
