# generated using pymatgen
data_BaYMn(Si3Pd10)2
_symmetry_space_group_name_H-M   'P 1'
_cell_length_a   8.74594427
_cell_length_b   8.74594382
_cell_length_c   8.74594400
_cell_angle_alpha   59.99999933
_cell_angle_beta   60.00000103
_cell_angle_gamma   59.99999680
_symmetry_Int_Tables_number   1
_chemical_formula_structural   BaYMn(Si3Pd10)2
_chemical_formula_sum   'Ba1 Y1 Mn1 Si6 Pd20'
_cell_volume   473.04785150
_cell_formula_units_Z   1
loop_
 _symmetry_equiv_pos_site_id
 _symmetry_equiv_pos_as_xyz
  1  'x, y, z'
loop_
 _atom_site_type_symbol
 _atom_site_label
 _atom_site_symmetry_multiplicity
 _atom_site_fract_x
 _atom_site_fract_y
 _atom_site_fract_z
 _atom_site_occupancy
  Ba  Ba0  1  0.750000  0.750000  0.750000  1
  Y  Y1  1  0.250000  0.250000  0.250000  1
  Mn  Mn2  1  0.000000  0.000000  0.000000  1
  Si  Si3  1  0.733351  0.266649  0.266649  1
  Si  Si4  1  0.266649  0.733351  0.733351  1
  Si  Si5  1  0.266649  0.733351  0.266649  1
  Si  Si6  1  0.733351  0.266649  0.733351  1
  Si  Si7  1  0.266649  0.266649  0.733351  1
  Si  Si8  1  0.733351  0.733351  0.266649  1
  Pd  Pd9  1  0.337361  0.004044  0.004044  1
  Pd  Pd10  1  0.654551  0.004044  0.004044  1
  Pd  Pd11  1  0.004044  0.337361  0.654551  1
  Pd  Pd12  1  0.004044  0.654551  0.337361  1
  Pd  Pd13  1  0.004044  0.337361  0.004044  1
  Pd  Pd14  1  0.654551  0.004044  0.337361  1
  Pd  Pd15  1  0.004044  0.654551  0.004044  1
  Pd  Pd16  1  0.337361  0.004044  0.654551  1
  Pd  Pd17  1  0.004044  0.004044  0.337361  1
  Pd  Pd18  1  0.004044  0.004044  0.654551  1
  Pd  Pd19  1  0.654551  0.337361  0.004044  1
  Pd  Pd20  1  0.337361  0.654551  0.004044  1
  Pd  Pd21  1  0.382521  0.382521  0.382521  1
  Pd  Pd22  1  0.610522  0.610522  0.610522  1
  Pd  Pd23  1  0.382521  0.382521  0.852437  1
  Pd  Pd24  1  0.382521  0.852437  0.382521  1
  Pd  Pd25  1  0.610522  0.610522  0.168435  1
  Pd  Pd26  1  0.610522  0.168435  0.610522  1
  Pd  Pd27  1  0.852437  0.382521  0.382521  1
  Pd  Pd28  1  0.168435  0.610522  0.610522  1
