# generated using pymatgen
data_Al3CoNi11Mo
_symmetry_space_group_name_H-M   'P 1'
_cell_length_a   3.56337800
_cell_length_b   3.56337800
_cell_length_c   14.35935500
_cell_angle_alpha   90.00000000
_cell_angle_beta   90.00000000
_cell_angle_gamma   90.00000000
_symmetry_Int_Tables_number   1
_chemical_formula_structural   Al3CoNi11Mo
_chemical_formula_sum   'Al3 Co1 Ni11 Mo1'
_cell_volume   182.33024740
_cell_formula_units_Z   1
loop_
 _symmetry_equiv_pos_site_id
 _symmetry_equiv_pos_as_xyz
  1  'x, y, z'
loop_
 _atom_site_type_symbol
 _atom_site_label
 _atom_site_symmetry_multiplicity
 _atom_site_fract_x
 _atom_site_fract_y
 _atom_site_fract_z
 _atom_site_occupancy
  Al  Al0  1  0.000000  0.000000  0.255023  1
  Al  Al1  1  0.000000  0.000000  0.500000  1
  Al  Al2  1  0.000000  0.000000  0.744977  1
  Co  Co3  1  0.500000  0.500000  0.000000  1
  Ni  Ni4  1  0.500000  0.500000  0.251311  1
  Ni  Ni5  1  0.500000  0.500000  0.500000  1
  Ni  Ni6  1  0.500000  0.500000  0.748689  1
  Ni  Ni7  1  0.500000  0.000000  0.126266  1
  Ni  Ni8  1  0.500000  0.000000  0.376259  1
  Ni  Ni9  1  0.500000  0.000000  0.623741  1
  Ni  Ni10  1  0.500000  0.000000  0.873734  1
  Ni  Ni11  1  0.000000  0.500000  0.126266  1
  Ni  Ni12  1  0.000000  0.500000  0.376259  1
  Ni  Ni13  1  0.000000  0.500000  0.623741  1
  Ni  Ni14  1  0.000000  0.500000  0.873734  1
  Mo  Mo15  1  0.000000  0.000000  0.000000  1
