# generated using pymatgen
data_SmAl4(CuO4)3
_symmetry_space_group_name_H-M   'P 1'
_cell_length_a   6.24280278
_cell_length_b   6.24280191
_cell_length_c   6.24280200
_cell_angle_alpha   109.47122094
_cell_angle_beta   109.47121810
_cell_angle_gamma   109.47121225
_symmetry_Int_Tables_number   1
_chemical_formula_structural   SmAl4(CuO4)3
_chemical_formula_sum   'Sm1 Al4 Cu3 O12'
_cell_volume   187.29099486
_cell_formula_units_Z   1
loop_
 _symmetry_equiv_pos_site_id
 _symmetry_equiv_pos_as_xyz
  1  'x, y, z'
loop_
 _atom_site_type_symbol
 _atom_site_label
 _atom_site_symmetry_multiplicity
 _atom_site_fract_x
 _atom_site_fract_y
 _atom_site_fract_z
 _atom_site_occupancy
  Sm  Sm0  1  0.000000  0.000000  0.000000  1
  Al  Al1  1  0.500000  0.000000  0.000000  1
  Al  Al2  1  0.500000  0.500000  0.500000  1
  Al  Al3  1  0.000000  0.500000  0.000000  1
  Al  Al4  1  0.000000  0.000000  0.500000  1
  Cu  Cu5  1  0.000000  0.500000  0.500000  1
  Cu  Cu6  1  0.500000  0.500000  0.000000  1
  Cu  Cu7  1  0.500000  0.000000  0.500000  1
  O  O8  1  0.304838  0.825185  0.130023  1
  O  O9  1  0.695162  0.174815  0.869977  1
  O  O10  1  0.695162  0.825185  0.520347  1
  O  O11  1  0.869977  0.695162  0.174815  1
  O  O12  1  0.825185  0.130023  0.304838  1
  O  O13  1  0.174815  0.479653  0.304838  1
  O  O14  1  0.479653  0.304838  0.174815  1
  O  O15  1  0.174815  0.869977  0.695162  1
  O  O16  1  0.304838  0.174815  0.479653  1
  O  O17  1  0.130023  0.304838  0.825185  1
  O  O18  1  0.825185  0.520347  0.695162  1
  O  O19  1  0.520347  0.695162  0.825185  1
