# generated using pymatgen
data_Lu3Sc5(Si4Ru3)4
_symmetry_space_group_name_H-M   'P 1'
_cell_length_a   10.01919594
_cell_length_b   10.02204144
_cell_length_c   13.51316900
_cell_angle_alpha   53.57769889
_cell_angle_beta   53.64344855
_cell_angle_gamma   30.97804895
_symmetry_Int_Tables_number   1
_chemical_formula_structural   Lu3Sc5(Si4Ru3)4
_chemical_formula_sum   'Lu3 Sc5 Si16 Ru12'
_cell_volume   550.36867671
_cell_formula_units_Z   1
loop_
 _symmetry_equiv_pos_site_id
 _symmetry_equiv_pos_as_xyz
  1  'x, y, z'
loop_
 _atom_site_type_symbol
 _atom_site_label
 _atom_site_symmetry_multiplicity
 _atom_site_fract_x
 _atom_site_fract_y
 _atom_site_fract_z
 _atom_site_occupancy
  Lu  Lu0  1  0.299809  0.559196  0.641288  1
  Lu  Lu1  1  0.710704  0.963137  0.859188  1
  Lu  Lu2  1  0.290352  0.035782  0.141413  1
  Sc  Sc3  1  0.441838  0.702341  0.856283  1
  Sc  Sc4  1  0.039009  0.291899  0.637236  1
  Sc  Sc5  1  0.558103  0.297288  0.144940  1
  Sc  Sc6  1  0.960597  0.708416  0.361650  1
  Sc  Sc7  1  0.708285  0.438830  0.354203  1
  Si  Si8  1  0.024156  0.748912  0.108166  1
  Si  Si9  1  0.614762  0.856235  0.600710  1
  Si  Si10  1  0.976110  0.250484  0.892938  1
  Si  Si11  1  0.381348  0.613798  0.251785  1
  Si  Si12  1  0.384939  0.143991  0.398793  1
  Si  Si13  1  0.575266  0.083057  0.069995  1
  Si  Si14  1  0.136477  0.385978  0.900314  1
  Si  Si15  1  0.251954  0.975136  0.395065  1
  Si  Si16  1  0.078773  0.573862  0.565516  1
  Si  Si17  1  0.424672  0.917237  0.930083  1
  Si  Si18  1  0.130919  0.873847  0.750220  1
  Si  Si19  1  0.748626  0.022459  0.603648  1
  Si  Si20  1  0.866449  0.130530  0.250111  1
  Si  Si21  1  0.620710  0.384814  0.749962  1
  Si  Si22  1  0.918861  0.425927  0.433499  1
  Si  Si23  1  0.860517  0.614588  0.102438  1
  Ru  Ru24  1  0.140618  0.896694  0.086805  1
  Ru  Ru25  1  0.168606  0.355992  0.219076  1
  Ru  Ru26  1  0.352748  0.165312  0.716000  1
  Ru  Ru27  1  0.831471  0.643515  0.781038  1
  Ru  Ru28  1  0.507884  0.247850  0.432018  1
  Ru  Ru29  1  0.860244  0.102387  0.914495  1
  Ru  Ru30  1  0.645624  0.832841  0.284268  1
  Ru  Ru31  1  0.252069  0.503920  0.933251  1
  Ru  Ru32  1  0.747024  0.497275  0.067076  1
  Ru  Ru33  1  0.101521  0.860925  0.411686  1
  Ru  Ru34  1  0.895876  0.142919  0.586447  1
  Ru  Ru35  1  0.493081  0.752625  0.568394  1
