# generated using pymatgen
data_Co3Sn16Pt
_symmetry_space_group_name_H-M   'P 1'
_cell_length_a   12.68023717
_cell_length_b   12.68023673
_cell_length_c   12.67597303
_cell_angle_alpha   151.28781450
_cell_angle_beta   151.28780982
_cell_angle_gamma   41.10569355
_symmetry_Int_Tables_number   1
_chemical_formula_structural   Co3Sn16Pt
_chemical_formula_sum   'Co3 Sn16 Pt1'
_cell_volume   469.30158158
_cell_formula_units_Z   1
loop_
 _symmetry_equiv_pos_site_id
 _symmetry_equiv_pos_as_xyz
  1  'x, y, z'
loop_
 _atom_site_type_symbol
 _atom_site_label
 _atom_site_symmetry_multiplicity
 _atom_site_fract_x
 _atom_site_fract_y
 _atom_site_fract_z
 _atom_site_occupancy
  Co  Co0  1  0.750000  0.750000  0.000000  1
  Co  Co1  1  0.250000  0.250000  0.000000  1
  Co  Co2  1  0.000000  0.500000  0.500000  1
  Sn  Sn3  1  0.126846  0.626995  0.130305  1
  Sn  Sn4  1  0.625716  0.496583  0.499731  1
  Sn  Sn5  1  0.891595  0.875883  0.640517  1
  Sn  Sn6  1  0.376618  0.736308  0.985313  1
  Sn  Sn7  1  0.624117  0.608405  0.359483  1
  Sn  Sn8  1  0.108695  0.749003  0.985313  1
  Sn  Sn9  1  0.873005  0.373154  0.869695  1
  Sn  Sn10  1  0.374017  0.503150  0.499731  1
  Sn  Sn11  1  0.996850  0.125983  0.500269  1
  Sn  Sn12  1  0.496689  0.996542  0.869695  1
  Sn  Sn13  1  0.750997  0.391305  0.014687  1
  Sn  Sn14  1  0.235367  0.251078  0.359483  1
  Sn  Sn15  1  0.763692  0.123382  0.014687  1
  Sn  Sn16  1  0.248922  0.264633  0.640517  1
  Sn  Sn17  1  0.003417  0.874284  0.500269  1
  Sn  Sn18  1  0.503458  0.003311  0.130305  1
  Pt  Pt19  1  0.500000  0.000000  0.500000  1
