# generated using pymatgen
data_Ho20Fe3CoBi8
_symmetry_space_group_name_H-M   'P 1'
_cell_length_a   7.91784608
_cell_length_b   8.89971000
_cell_length_c   12.30734517
_cell_angle_alpha   90.00000000
_cell_angle_beta   90.01754941
_cell_angle_gamma   90.00000000
_symmetry_Int_Tables_number   1
_chemical_formula_structural   Ho20Fe3CoBi8
_chemical_formula_sum   'Ho20 Fe3 Co1 Bi8'
_cell_volume   867.25591512
_cell_formula_units_Z   1
loop_
 _symmetry_equiv_pos_site_id
 _symmetry_equiv_pos_as_xyz
  1  'x, y, z'
loop_
 _atom_site_type_symbol
 _atom_site_label
 _atom_site_symmetry_multiplicity
 _atom_site_fract_x
 _atom_site_fract_y
 _atom_site_fract_z
 _atom_site_occupancy
  Ho  Ho0  1  0.347158  0.750000  0.701709  1
  Ho  Ho1  1  0.652862  0.250000  0.299279  1
  Ho  Ho2  1  0.847465  0.250000  0.797945  1
  Ho  Ho3  1  0.151067  0.750000  0.199226  1
  Ho  Ho4  1  0.884249  0.750000  0.811158  1
  Ho  Ho5  1  0.114546  0.250000  0.189335  1
  Ho  Ho6  1  0.384318  0.250000  0.688541  1
  Ho  Ho7  1  0.615848  0.750000  0.312185  1
  Ho  Ho8  1  0.673553  0.534421  0.562481  1
  Ho  Ho9  1  0.323577  0.458660  0.436194  1
  Ho  Ho10  1  0.174036  0.463476  0.937874  1
  Ho  Ho11  1  0.323577  0.041340  0.436194  1
  Ho  Ho12  1  0.825485  0.537589  0.062179  1
  Ho  Ho13  1  0.673553  0.965579  0.562481  1
  Ho  Ho14  1  0.825485  0.962411  0.062179  1
  Ho  Ho15  1  0.174036  0.036524  0.937874  1
  Ho  Ho16  1  0.055916  0.750000  0.495882  1
  Ho  Ho17  1  0.946739  0.250000  0.504035  1
  Ho  Ho18  1  0.557383  0.250000  0.004771  1
  Ho  Ho19  1  0.445385  0.750000  0.995789  1
  Fe  Fe20  1  0.071262  0.750000  0.989177  1
  Fe  Fe21  1  0.928853  0.250000  0.009368  1
  Fe  Fe22  1  0.570881  0.250000  0.509757  1
  Co  Co23  1  0.432566  0.750000  0.492313  1
  Bi  Bi24  1  0.571690  0.507666  0.827340  1
  Bi  Bi25  1  0.427990  0.492241  0.173384  1
  Bi  Bi26  1  0.072165  0.492543  0.673193  1
  Bi  Bi27  1  0.427990  0.007759  0.173384  1
  Bi  Bi28  1  0.928254  0.508581  0.327118  1
  Bi  Bi29  1  0.571690  0.992334  0.827340  1
  Bi  Bi30  1  0.928254  0.991419  0.327118  1
  Bi  Bi31  1  0.072165  0.007457  0.673193  1
