# generated using pymatgen
data_Lu3In3Cu2Ag
_symmetry_space_group_name_H-M   'P 1'
_cell_length_a   7.53546900
_cell_length_b   7.53546911
_cell_length_c   3.85286900
_cell_angle_alpha   90.00000000
_cell_angle_beta   90.00000000
_cell_angle_gamma   119.99998752
_symmetry_Int_Tables_number   1
_chemical_formula_structural   Lu3In3Cu2Ag
_chemical_formula_sum   'Lu3 In3 Cu2 Ag1'
_cell_volume   189.46784293
_cell_formula_units_Z   1
loop_
 _symmetry_equiv_pos_site_id
 _symmetry_equiv_pos_as_xyz
  1  'x, y, z'
loop_
 _atom_site_type_symbol
 _atom_site_label
 _atom_site_symmetry_multiplicity
 _atom_site_fract_x
 _atom_site_fract_y
 _atom_site_fract_z
 _atom_site_occupancy
  Lu  Lu0  1  0.602672  0.013996  0.000000  1
  Lu  Lu1  1  0.986004  0.588676  0.000000  1
  Lu  Lu2  1  0.411324  0.397328  0.000000  1
  In  In3  1  0.255432  0.999701  0.500000  1
  In  In4  1  0.000299  0.255732  0.500000  1
  In  In5  1  0.744268  0.744568  0.500000  1
  Cu  Cu6  1  0.666667  0.333333  0.500000  1
  Cu  Cu7  1  0.000000  0.000000  0.000000  1
  Ag  Ag8  1  0.333333  0.666667  0.500000  1
