# generated using pymatgen
data_Hf4Al18RuRh5
_symmetry_space_group_name_H-M   'P 1'
_cell_length_a   7.44308274
_cell_length_b   7.44307865
_cell_length_c   9.23218334
_cell_angle_alpha   89.95097966
_cell_angle_beta   89.95098685
_cell_angle_gamma   119.70008934
_symmetry_Int_Tables_number   1
_chemical_formula_structural   Hf4Al18RuRh5
_chemical_formula_sum   'Hf4 Al18 Ru1 Rh5'
_cell_volume   444.26739459
_cell_formula_units_Z   1
loop_
 _symmetry_equiv_pos_site_id
 _symmetry_equiv_pos_as_xyz
  1  'x, y, z'
loop_
 _atom_site_type_symbol
 _atom_site_label
 _atom_site_symmetry_multiplicity
 _atom_site_fract_x
 _atom_site_fract_y
 _atom_site_fract_z
 _atom_site_occupancy
  Hf  Hf0  1  0.993619  0.671722  0.249499  1
  Hf  Hf1  1  0.006381  0.328278  0.750501  1
  Hf  Hf2  1  0.671722  0.993619  0.249500  1
  Hf  Hf3  1  0.328278  0.006381  0.750500  1
  Al  Al4  1  0.122182  0.122182  0.249101  1
  Al  Al5  1  0.877818  0.877818  0.750899  1
  Al  Al6  1  0.997084  0.333041  0.076722  1
  Al  Al7  1  0.002916  0.666959  0.923278  1
  Al  Al8  1  0.002835  0.665095  0.577562  1
  Al  Al9  1  0.334905  0.997165  0.422438  1
  Al  Al10  1  0.997165  0.334905  0.422438  1
  Al  Al11  1  0.665095  0.002835  0.577562  1
  Al  Al12  1  0.666959  0.002916  0.923278  1
  Al  Al13  1  0.333041  0.997084  0.076722  1
  Al  Al14  1  0.331316  0.331316  0.558834  1
  Al  Al15  1  0.668684  0.668684  0.441166  1
  Al  Al16  1  0.669978  0.669978  0.058219  1
  Al  Al17  1  0.330022  0.330022  0.941781  1
  Al  Al18  1  0.338849  0.554359  0.249977  1
  Al  Al19  1  0.661151  0.445641  0.750023  1
  Al  Al20  1  0.554359  0.338849  0.249977  1
  Al  Al21  1  0.445641  0.661151  0.750023  1
  Ru  Ru22  1  0.000000  0.000000  0.000000  1
  Rh  Rh23  1  0.672941  0.327057  0.000000  1
  Rh  Rh24  1  0.327059  0.672943  0.000000  1
  Rh  Rh25  1  0.327060  0.672944  0.499999  1
  Rh  Rh26  1  0.672940  0.327056  0.500001  1
  Rh  Rh27  1  0.000000  0.000000  0.500000  1
