# generated using pymatgen
data_Ca10Bi5Pb
_symmetry_space_group_name_H-M   'P 1'
_cell_length_a   9.32705114
_cell_length_b   9.31611330
_cell_length_c   7.05891400
_cell_angle_alpha   90.00000000
_cell_angle_beta   90.00000000
_cell_angle_gamma   119.96122903
_symmetry_Int_Tables_number   1
_chemical_formula_structural   Ca10Bi5Pb
_chemical_formula_sum   'Ca10 Bi5 Pb1'
_cell_volume   531.39465331
_cell_formula_units_Z   1
loop_
 _symmetry_equiv_pos_site_id
 _symmetry_equiv_pos_as_xyz
  1  'x, y, z'
loop_
 _atom_site_type_symbol
 _atom_site_label
 _atom_site_symmetry_multiplicity
 _atom_site_fract_x
 _atom_site_fract_y
 _atom_site_fract_z
 _atom_site_occupancy
  Ca  Ca0  1  0.668999  0.333370  0.501931  1
  Ca  Ca1  1  0.331001  0.664371  0.501931  1
  Ca  Ca2  1  0.331001  0.664371  0.998069  1
  Ca  Ca3  1  0.668999  0.333370  0.998069  1
  Ca  Ca4  1  0.739563  0.739794  0.250000  1
  Ca  Ca5  1  0.260437  0.000231  0.250000  1
  Ca  Ca6  1  0.000000  0.258655  0.250000  1
  Ca  Ca7  1  0.259399  0.263588  0.750000  1
  Ca  Ca8  1  0.740601  0.004189  0.750000  1
  Ca  Ca9  1  0.000000  0.735733  0.750000  1
  Bi  Bi10  1  0.387039  0.384952  0.250000  1
  Bi  Bi11  1  0.612961  0.997913  0.250000  1
  Bi  Bi12  1  0.000000  0.615685  0.250000  1
  Bi  Bi13  1  0.617983  0.618810  0.750000  1
  Bi  Bi14  1  0.382017  0.000827  0.750000  1
  Pb  Pb15  1  0.000000  0.384140  0.750000  1
