# generated using pymatgen
data_EuTcCl6
_symmetry_space_group_name_H-M   'P 1'
_cell_length_a   6.71444374
_cell_length_b   6.71451088
_cell_length_c   6.75431500
_cell_angle_alpha   99.24189311
_cell_angle_beta   99.24243590
_cell_angle_gamma   120.00431231
_symmetry_Int_Tables_number   1
_chemical_formula_structural   EuTcCl6
_chemical_formula_sum   'Eu1 Tc1 Cl6'
_cell_volume   249.72790388
_cell_formula_units_Z   1
loop_
 _symmetry_equiv_pos_site_id
 _symmetry_equiv_pos_as_xyz
  1  'x, y, z'
loop_
 _atom_site_type_symbol
 _atom_site_label
 _atom_site_symmetry_multiplicity
 _atom_site_fract_x
 _atom_site_fract_y
 _atom_site_fract_z
 _atom_site_occupancy
  Eu  Eu0  1  0.833422  0.167046  0.000003  1
  Tc  Tc1  1  0.166491  0.833298  0.000001  1
  Cl  Cl2  1  0.947509  0.618031  0.219944  1
  Cl  Cl3  1  0.524806  0.900992  0.221387  1
  Cl  Cl4  1  0.240000  0.192903  0.222374  1
  Cl  Cl5  1  0.806908  0.759815  0.777827  1
  Cl  Cl6  1  0.382127  0.052709  0.780350  1
  Cl  Cl7  1  0.098738  0.475207  0.778114  1
