# generated using pymatgen
data_Er2Co2P6Ir5Ru3
_symmetry_space_group_name_H-M   'P 1'
_cell_length_a   3.88663100
_cell_length_b   10.80805600
_cell_length_c   12.24333000
_cell_angle_alpha   90.00000000
_cell_angle_beta   90.00000000
_cell_angle_gamma   90.00000000
_symmetry_Int_Tables_number   1
_chemical_formula_structural   Er2Co2P6Ir5Ru3
_chemical_formula_sum   'Er4 Co4 P12 Ir10 Ru6'
_cell_volume   514.30465117
_cell_formula_units_Z   2
loop_
 _symmetry_equiv_pos_site_id
 _symmetry_equiv_pos_as_xyz
  1  'x, y, z'
loop_
 _atom_site_type_symbol
 _atom_site_label
 _atom_site_symmetry_multiplicity
 _atom_site_fract_x
 _atom_site_fract_y
 _atom_site_fract_z
 _atom_site_occupancy
  Er  Er0  1  0.250000  0.584907  0.707005  1
  Er  Er1  1  0.250000  0.915093  0.207005  1
  Er  Er2  1  0.750000  0.413723  0.293895  1
  Er  Er3  1  0.750000  0.086277  0.793895  1
  Co  Co4  1  0.250000  0.459988  0.932670  1
  Co  Co5  1  0.250000  0.040012  0.432670  1
  Co  Co6  1  0.750000  0.539118  0.067076  1
  Co  Co7  1  0.750000  0.960882  0.567076  1
  P  P8  1  0.250000  0.425473  0.106566  1
  P  P9  1  0.250000  0.074527  0.606566  1
  P  P10  1  0.750000  0.573679  0.893228  1
  P  P11  1  0.750000  0.926321  0.393228  1
  P  P12  1  0.250000  0.266900  0.877837  1
  P  P13  1  0.250000  0.233100  0.377837  1
  P  P14  1  0.750000  0.729783  0.124262  1
  P  P15  1  0.750000  0.770217  0.624262  1
  P  P16  1  0.250000  0.593795  0.391069  1
  P  P17  1  0.250000  0.906205  0.891069  1
  P  P18  1  0.750000  0.403250  0.607186  1
  P  P19  1  0.750000  0.096750  0.107186  1
  Ir  Ir20  1  0.750000  0.594909  0.513487  1
  Ir  Ir21  1  0.750000  0.905091  0.013487  1
  Ir  Ir22  1  0.250000  0.235437  0.182975  1
  Ir  Ir23  1  0.250000  0.264563  0.682975  1
  Ir  Ir24  1  0.750000  0.764431  0.817010  1
  Ir  Ir25  1  0.750000  0.735569  0.317010  1
  Ir  Ir26  1  0.250000  0.890201  0.701561  1
  Ir  Ir27  1  0.250000  0.609799  0.201561  1
  Ir  Ir28  1  0.750000  0.108962  0.296906  1
  Ir  Ir29  1  0.750000  0.391038  0.796906  1
  Ru  Ru30  1  0.250000  0.717190  0.985507  1
  Ru  Ru31  1  0.250000  0.782810  0.485507  1
  Ru  Ru32  1  0.750000  0.283992  0.012258  1
  Ru  Ru33  1  0.750000  0.216008  0.512258  1
  Ru  Ru34  1  0.250000  0.407200  0.489501  1
  Ru  Ru35  1  0.250000  0.092800  0.989501  1
