# generated using pymatgen
data_Ce8Y12Si15Ru
_symmetry_space_group_name_H-M   'P 1'
_cell_length_a   7.43577200
_cell_length_b   7.83198505
_cell_length_c   14.72477000
_cell_angle_alpha   90.00000000
_cell_angle_beta   90.00000000
_cell_angle_gamma   90.00667184
_symmetry_Int_Tables_number   1
_chemical_formula_structural   Ce8Y12Si15Ru
_chemical_formula_sum   'Ce8 Y12 Si15 Ru1'
_cell_volume   857.52429197
_cell_formula_units_Z   1
loop_
 _symmetry_equiv_pos_site_id
 _symmetry_equiv_pos_as_xyz
  1  'x, y, z'
loop_
 _atom_site_type_symbol
 _atom_site_label
 _atom_site_symmetry_multiplicity
 _atom_site_fract_x
 _atom_site_fract_y
 _atom_site_fract_z
 _atom_site_occupancy
  Ce  Ce0  1  0.022528  0.181444  0.097199  1
  Ce  Ce1  1  0.982686  0.826261  0.901908  1
  Ce  Ce2  1  0.480598  0.677285  0.904495  1
  Ce  Ce3  1  0.982686  0.826261  0.598092  1
  Ce  Ce4  1  0.522007  0.322084  0.096165  1
  Ce  Ce5  1  0.022528  0.181444  0.402801  1
  Ce  Ce6  1  0.522007  0.322084  0.403835  1
  Ce  Ce7  1  0.480598  0.677285  0.595505  1
  Y  Y8  1  0.147874  0.519145  0.750000  1
  Y  Y9  1  0.847515  0.484253  0.250000  1
  Y  Y10  1  0.345925  0.020563  0.250000  1
  Y  Y11  1  0.661069  0.985056  0.750000  1
  Y  Y12  1  0.310663  0.175438  0.626625  1
  Y  Y13  1  0.679831  0.821819  0.377663  1
  Y  Y14  1  0.180001  0.681018  0.377608  1
  Y  Y15  1  0.679831  0.821819  0.122337  1
  Y  Y16  1  0.826806  0.315865  0.624867  1
  Y  Y17  1  0.310663  0.175438  0.873375  1
  Y  Y18  1  0.826806  0.315865  0.875133  1
  Y  Y19  1  0.180001  0.681018  0.122392  1
  Si  Si20  1  0.971420  0.897201  0.250000  1
  Si  Si21  1  0.474264  0.605417  0.250000  1
  Si  Si22  1  0.523730  0.397544  0.750000  1
  Si  Si23  1  0.274335  0.869261  0.750000  1
  Si  Si24  1  0.730016  0.122461  0.250000  1
  Si  Si25  1  0.231167  0.380024  0.250000  1
  Si  Si26  1  0.763820  0.619968  0.750000  1
  Si  Si27  1  0.150711  0.473278  0.538835  1
  Si  Si28  1  0.853197  0.529566  0.461764  1
  Si  Si29  1  0.350711  0.972679  0.461549  1
  Si  Si30  1  0.853197  0.529566  0.038236  1
  Si  Si31  1  0.644469  0.029445  0.539049  1
  Si  Si32  1  0.150711  0.473278  0.961165  1
  Si  Si33  1  0.644469  0.029445  0.960951  1
  Si  Si34  1  0.350711  0.972679  0.038451  1
  Ru  Ru35  1  0.020451  0.086747  0.750000  1
