# generated using pymatgen
data_Li6Sc12TcRh5
_symmetry_space_group_name_H-M   'P 1'
_cell_length_a   4.67539200
_cell_length_b   6.55248000
_cell_length_c   13.92772000
_cell_angle_alpha   90.00000000
_cell_angle_beta   89.99987702
_cell_angle_gamma   90.00000000
_symmetry_Int_Tables_number   1
_chemical_formula_structural   Li6Sc12TcRh5
_chemical_formula_sum   'Li6 Sc12 Tc1 Rh5'
_cell_volume   426.68144839
_cell_formula_units_Z   1
loop_
 _symmetry_equiv_pos_site_id
 _symmetry_equiv_pos_as_xyz
  1  'x, y, z'
loop_
 _atom_site_type_symbol
 _atom_site_label
 _atom_site_symmetry_multiplicity
 _atom_site_fract_x
 _atom_site_fract_y
 _atom_site_fract_z
 _atom_site_occupancy
  Li  Li0  1  0.000000  0.000000  0.000000  1
  Li  Li1  1  0.499483  0.500000  0.166633  1
  Li  Li2  1  0.999486  0.000000  0.332790  1
  Li  Li3  1  0.500001  0.500000  0.500000  1
  Li  Li4  1  0.000513  0.000000  0.667209  1
  Li  Li5  1  0.500516  0.500000  0.833366  1
  Sc  Sc6  1  0.500001  0.252690  0.000000  1
  Sc  Sc7  1  0.500001  0.747310  0.000000  1
  Sc  Sc8  1  0.999657  0.253184  0.164965  1
  Sc  Sc9  1  0.999657  0.746816  0.164965  1
  Sc  Sc10  1  0.499672  0.248658  0.333181  1
  Sc  Sc11  1  0.499672  0.751342  0.333181  1
  Sc  Sc12  1  0.000000  0.251897  0.500000  1
  Sc  Sc13  1  0.000000  0.748103  0.500000  1
  Sc  Sc14  1  0.500327  0.248658  0.666819  1
  Sc  Sc15  1  0.500327  0.751342  0.666819  1
  Sc  Sc16  1  0.000342  0.253184  0.835036  1
  Sc  Sc17  1  0.000342  0.746816  0.835036  1
  Tc  Tc18  1  0.000000  0.500000  0.000000  1
  Rh  Rh19  1  0.499632  0.000000  0.169393  1
  Rh  Rh20  1  0.999657  0.500000  0.334819  1
  Rh  Rh21  1  0.500001  0.000000  0.500000  1
  Rh  Rh22  1  0.000343  0.500000  0.665181  1
  Rh  Rh23  1  0.500367  0.000000  0.830607  1
