# generated using pymatgen
data_Hf3Zr(NiP2)2
_symmetry_space_group_name_H-M   'P 1'
_cell_length_a   3.76420800
_cell_length_b   3.76420871
_cell_length_c   12.91156600
_cell_angle_alpha   90.00000000
_cell_angle_beta   90.00000000
_cell_angle_gamma   120.00001130
_symmetry_Int_Tables_number   1
_chemical_formula_structural   Hf3Zr(NiP2)2
_chemical_formula_sum   'Hf3 Zr1 Ni2 P4'
_cell_volume   158.43707311
_cell_formula_units_Z   1
loop_
 _symmetry_equiv_pos_site_id
 _symmetry_equiv_pos_as_xyz
  1  'x, y, z'
loop_
 _atom_site_type_symbol
 _atom_site_label
 _atom_site_symmetry_multiplicity
 _atom_site_fract_x
 _atom_site_fract_y
 _atom_site_fract_z
 _atom_site_occupancy
  Hf  Hf0  1  0.333333  0.666667  0.391096  1
  Hf  Hf1  1  0.666667  0.333333  0.609501  1
  Hf  Hf2  1  0.666667  0.333333  0.889065  1
  Zr  Zr3  1  0.333333  0.666667  0.108770  1
  Ni  Ni4  1  0.000000  0.000000  0.253014  1
  Ni  Ni5  1  0.000000  0.000000  0.749614  1
  P  P6  1  0.000000  0.000000  0.500448  1
  P  P7  1  0.000000  0.000000  0.997146  1
  P  P8  1  0.333333  0.666667  0.749304  1
  P  P9  1  0.666667  0.333333  0.252041  1
