# generated using pymatgen
data_Cs(Nb3Se4)3
_symmetry_space_group_name_H-M   'P 1'
_cell_length_a   10.76934714
_cell_length_b   10.76934777
_cell_length_c   10.76934700
_cell_angle_alpha   109.95758328
_cell_angle_beta   109.95758450
_cell_angle_gamma   109.95758588
_symmetry_Int_Tables_number   1
_chemical_formula_structural   Cs(Nb3Se4)3
_chemical_formula_sum   'Cs2 Nb18 Se24'
_cell_volume   943.78276122
_cell_formula_units_Z   2
loop_
 _symmetry_equiv_pos_site_id
 _symmetry_equiv_pos_as_xyz
  1  'x, y, z'
loop_
 _atom_site_type_symbol
 _atom_site_label
 _atom_site_symmetry_multiplicity
 _atom_site_fract_x
 _atom_site_fract_y
 _atom_site_fract_z
 _atom_site_occupancy
  Cs  Cs0  1  0.000000  0.000000  0.000000  1
  Cs  Cs1  1  0.500000  0.500000  0.500000  1
  Nb  Nb2  1  0.659513  0.551674  0.039127  1
  Nb  Nb3  1  0.325299  0.218465  0.704709  1
  Nb  Nb4  1  0.991990  0.885330  0.373788  1
  Nb  Nb5  1  0.885330  0.373788  0.991990  1
  Nb  Nb6  1  0.551674  0.039127  0.659513  1
  Nb  Nb7  1  0.218465  0.704709  0.325299  1
  Nb  Nb8  1  0.704709  0.325299  0.218465  1
  Nb  Nb9  1  0.373788  0.991990  0.885330  1
  Nb  Nb10  1  0.039127  0.659513  0.551674  1
  Nb  Nb11  1  0.674701  0.781535  0.295291  1
  Nb  Nb12  1  0.340487  0.448326  0.960873  1
  Nb  Nb13  1  0.008010  0.114670  0.626212  1
  Nb  Nb14  1  0.448326  0.960873  0.340487  1
  Nb  Nb15  1  0.114670  0.626212  0.008010  1
  Nb  Nb16  1  0.781535  0.295291  0.674701  1
  Nb  Nb17  1  0.626212  0.008010  0.114670  1
  Nb  Nb18  1  0.295291  0.674701  0.781535  1
  Nb  Nb19  1  0.960873  0.340487  0.448326  1
  Se  Se20  1  0.083373  0.416488  0.749848  1
  Se  Se21  1  0.416488  0.749848  0.083373  1
  Se  Se22  1  0.749848  0.083373  0.416488  1
  Se  Se23  1  0.916627  0.583512  0.250152  1
  Se  Se24  1  0.250152  0.916627  0.583512  1
  Se  Se25  1  0.583512  0.250152  0.916627  1
  Se  Se26  1  0.158547  0.874107  0.220407  1
  Se  Se27  1  0.489434  0.205375  0.551272  1
  Se  Se28  1  0.823743  0.543464  0.883422  1
  Se  Se29  1  0.205375  0.551272  0.489434  1
  Se  Se30  1  0.543465  0.883422  0.823743  1
  Se  Se31  1  0.874107  0.220407  0.158547  1
  Se  Se32  1  0.883422  0.823743  0.543464  1
  Se  Se33  1  0.220407  0.158547  0.874107  1
  Se  Se34  1  0.551272  0.489434  0.205375  1
  Se  Se35  1  0.841453  0.125893  0.779593  1
  Se  Se36  1  0.176257  0.456536  0.116578  1
  Se  Se37  1  0.510566  0.794625  0.448728  1
  Se  Se38  1  0.794625  0.448728  0.510566  1
  Se  Se39  1  0.125893  0.779593  0.841453  1
  Se  Se40  1  0.456536  0.116578  0.176257  1
  Se  Se41  1  0.116578  0.176257  0.456536  1
  Se  Se42  1  0.448728  0.510566  0.794625  1
  Se  Se43  1  0.779593  0.841453  0.125893  1
