# generated using pymatgen
data_LiBi5S8
_symmetry_space_group_name_H-M   'P 1'
_cell_length_a   6.99753724
_cell_length_b   6.99753700
_cell_length_c   14.57648469
_cell_angle_alpha   67.99727701
_cell_angle_beta   67.99727791
_cell_angle_gamma   33.63114789
_symmetry_Int_Tables_number   1
_chemical_formula_structural   LiBi5S8
_chemical_formula_sum   'Li1 Bi5 S8'
_cell_volume   363.76899666
_cell_formula_units_Z   1
loop_
 _symmetry_equiv_pos_site_id
 _symmetry_equiv_pos_as_xyz
  1  'x, y, z'
loop_
 _atom_site_type_symbol
 _atom_site_label
 _atom_site_symmetry_multiplicity
 _atom_site_fract_x
 _atom_site_fract_y
 _atom_site_fract_z
 _atom_site_occupancy
  Li  Li0  1  0.606663  0.393337  0.500000  1
  Bi  Bi1  1  0.336560  0.338710  0.853169  1
  Bi  Bi2  1  0.661290  0.663440  0.146831  1
  Bi  Bi3  1  0.741173  0.692627  0.630373  1
  Bi  Bi4  1  0.307373  0.258827  0.369627  1
  Bi  Bi5  1  0.997906  0.002094  0.000000  1
  S  S6  1  0.657374  0.661797  0.937146  1
  S  S7  1  0.338203  0.342626  0.062854  1
  S  S8  1  0.982422  0.988288  0.810135  1
  S  S9  1  0.011712  0.017578  0.189865  1
  S  S10  1  0.352907  0.331477  0.666612  1
  S  S11  1  0.668523  0.647093  0.333388  1
  S  S12  1  0.135967  0.117071  0.543873  1
  S  S13  1  0.882929  0.864033  0.456127  1
