# generated using pymatgen
data_Ac(AsIr)2
_symmetry_space_group_name_H-M   'P 1'
_cell_length_a   4.41458100
_cell_length_b   4.41458100
_cell_length_c   10.18107000
_cell_angle_alpha   90.00000000
_cell_angle_beta   90.00000000
_cell_angle_gamma   90.00000000
_symmetry_Int_Tables_number   1
_chemical_formula_structural   Ac(AsIr)2
_chemical_formula_sum   'Ac2 As4 Ir4'
_cell_volume   198.41404135
_cell_formula_units_Z   2
loop_
 _symmetry_equiv_pos_site_id
 _symmetry_equiv_pos_as_xyz
  1  'x, y, z'
loop_
 _atom_site_type_symbol
 _atom_site_label
 _atom_site_symmetry_multiplicity
 _atom_site_fract_x
 _atom_site_fract_y
 _atom_site_fract_z
 _atom_site_occupancy
  Ac  Ac0  1  0.000000  0.500000  0.243436  1
  Ac  Ac1  1  0.500000  0.000000  0.756564  1
  As  As2  1  0.000000  0.000000  0.000000  1
  As  As3  1  0.500000  0.500000  0.000000  1
  As  As4  1  0.000000  0.500000  0.636892  1
  As  As5  1  0.500000  0.000000  0.363108  1
  Ir  Ir6  1  0.000000  0.000000  0.500000  1
  Ir  Ir7  1  0.500000  0.500000  0.500000  1
  Ir  Ir8  1  0.000000  0.500000  0.883929  1
  Ir  Ir9  1  0.500000  0.000000  0.116071  1
