# generated using pymatgen
data_Tb3Er9InCo4Cu
_symmetry_space_group_name_H-M   'P 1'
_cell_length_a   8.26415041
_cell_length_b   8.26415052
_cell_length_c   8.25980132
_cell_angle_alpha   110.88367532
_cell_angle_beta   110.93232355
_cell_angle_gamma   106.65683565
_symmetry_Int_Tables_number   1
_chemical_formula_structural   Tb3Er9InCo4Cu
_chemical_formula_sum   'Tb3 Er9 In1 Co4 Cu1'
_cell_volume   433.34668066
_cell_formula_units_Z   1
loop_
 _symmetry_equiv_pos_site_id
 _symmetry_equiv_pos_as_xyz
  1  'x, y, z'
loop_
 _atom_site_type_symbol
 _atom_site_label
 _atom_site_symmetry_multiplicity
 _atom_site_fract_x
 _atom_site_fract_y
 _atom_site_fract_z
 _atom_site_occupancy
  Tb  Tb0  1  0.186004  0.289074  0.475078  1
  Tb  Tb1  1  0.813268  0.710042  0.523310  1
  Tb  Tb2  1  0.187222  0.710893  0.898115  1
  Er  Er3  1  0.813357  0.288927  0.102284  1
  Er  Er4  1  0.314772  0.621193  0.305874  1
  Er  Er5  1  0.684783  0.378070  0.694536  1
  Er  Er6  1  0.316466  0.009751  0.694536  1
  Er  Er7  1  0.684680  0.991102  0.305874  1
  Er  Er8  1  0.417382  0.218481  0.197855  1
  Er  Er9  1  0.584594  0.782595  0.802696  1
  Er  Er10  1  0.020100  0.218102  0.802696  1
  Er  Er11  1  0.979375  0.780472  0.197855  1
  In  In12  1  0.500363  0.499927  0.000290  1
  Co  Co13  1  0.111786  0.612279  0.497735  1
  Co  Co14  1  0.885457  0.385950  0.497735  1
  Co  Co15  1  0.376224  0.999691  0.375914  1
  Co  Co16  1  0.623842  0.001037  0.624879  1
  Cu  Cu17  1  0.000327  0.002412  0.002739  1
