# generated using pymatgen
data_PrPb6IO7
_symmetry_space_group_name_H-M   'P 1'
_cell_length_a   8.30388900
_cell_length_b   9.66759614
_cell_length_c   9.66759731
_cell_angle_alpha   63.22380298
_cell_angle_beta   90.00000000
_cell_angle_gamma   90.00000000
_symmetry_Int_Tables_number   1
_chemical_formula_structural   PrPb6IO7
_chemical_formula_sum   'Pr2 Pb12 I2 O14'
_cell_volume   692.88260917
_cell_formula_units_Z   2
loop_
 _symmetry_equiv_pos_site_id
 _symmetry_equiv_pos_as_xyz
  1  'x, y, z'
loop_
 _atom_site_type_symbol
 _atom_site_label
 _atom_site_symmetry_multiplicity
 _atom_site_fract_x
 _atom_site_fract_y
 _atom_site_fract_z
 _atom_site_occupancy
  Pr  Pr0  1  0.000000  0.000000  0.000000  1
  Pr  Pr1  1  0.500000  0.000000  0.000000  1
  Pb  Pb2  1  0.250000  0.637636  0.100423  1
  Pb  Pb3  1  0.749999  0.620996  0.172965  1
  Pb  Pb4  1  0.011220  0.230380  0.230380  1
  Pb  Pb5  1  0.488779  0.230380  0.230380  1
  Pb  Pb6  1  0.749999  0.899576  0.362363  1
  Pb  Pb7  1  0.250000  0.827035  0.379004  1
  Pb  Pb8  1  0.749999  0.172965  0.620996  1
  Pb  Pb9  1  0.250000  0.100423  0.637636  1
  Pb  Pb10  1  0.511219  0.769620  0.769620  1
  Pb  Pb11  1  0.988781  0.769620  0.769620  1
  Pb  Pb12  1  0.250000  0.379004  0.827035  1
  Pb  Pb13  1  0.749999  0.362363  0.899576  1
  I  I14  1  0.000000  0.500000  0.500000  1
  I  I15  1  0.500000  0.500000  0.500000  1
  O  O16  1  0.525866  0.725170  0.015792  1
  O  O17  1  0.974134  0.725170  0.015792  1
  O  O18  1  0.250000  0.847411  0.136255  1
  O  O19  1  0.749999  0.863745  0.152589  1
  O  O20  1  0.749999  0.194950  0.194950  1
  O  O21  1  0.025866  0.984209  0.274830  1
  O  O22  1  0.474135  0.984209  0.274830  1
  O  O23  1  0.525866  0.015792  0.725170  1
  O  O24  1  0.974134  0.015792  0.725170  1
  O  O25  1  0.250000  0.805051  0.805051  1
  O  O26  1  0.250000  0.136255  0.847411  1
  O  O27  1  0.749999  0.152589  0.863745  1
  O  O28  1  0.025866  0.274830  0.984209  1
  O  O29  1  0.474135  0.274830  0.984209  1
