# generated using pymatgen
data_La2YbB18
_symmetry_space_group_name_H-M   'P 1'
_cell_length_a   4.14586300
_cell_length_b   4.14586300
_cell_length_c   12.42709300
_cell_angle_alpha   90.00000000
_cell_angle_beta   90.00000000
_cell_angle_gamma   90.00000000
_symmetry_Int_Tables_number   1
_chemical_formula_structural   La2YbB18
_chemical_formula_sum   'La2 Yb1 B18'
_cell_volume   213.59911154
_cell_formula_units_Z   1
loop_
 _symmetry_equiv_pos_site_id
 _symmetry_equiv_pos_as_xyz
  1  'x, y, z'
loop_
 _atom_site_type_symbol
 _atom_site_label
 _atom_site_symmetry_multiplicity
 _atom_site_fract_x
 _atom_site_fract_y
 _atom_site_fract_z
 _atom_site_occupancy
  La  La0  1  0.000000  0.000000  0.334566  1
  La  La1  1  0.000000  0.000000  0.665434  1
  Yb  Yb2  1  0.000000  0.000000  0.000000  1
  B  B3  1  0.200377  0.500000  0.165415  1
  B  B4  1  0.199800  0.500000  0.500000  1
  B  B5  1  0.200377  0.500000  0.834585  1
  B  B6  1  0.500000  0.500000  0.265875  1
  B  B7  1  0.500000  0.500000  0.600465  1
  B  B8  1  0.500000  0.500000  0.933572  1
  B  B9  1  0.500000  0.200377  0.165415  1
  B  B10  1  0.500000  0.199800  0.500000  1
  B  B11  1  0.500000  0.200377  0.834585  1
  B  B12  1  0.500000  0.500000  0.066428  1
  B  B13  1  0.500000  0.500000  0.399535  1
  B  B14  1  0.500000  0.500000  0.734125  1
  B  B15  1  0.500000  0.799623  0.165415  1
  B  B16  1  0.500000  0.800200  0.500000  1
  B  B17  1  0.500000  0.799623  0.834585  1
  B  B18  1  0.799623  0.500000  0.165415  1
  B  B19  1  0.800200  0.500000  0.500000  1
  B  B20  1  0.799623  0.500000  0.834585  1
