# generated using pymatgen
data_PuS2O9
_symmetry_space_group_name_H-M   'P 1'
_cell_length_a   6.62823225
_cell_length_b   6.94127014
_cell_length_c   8.13022883
_cell_angle_alpha   87.18289450
_cell_angle_beta   79.93235053
_cell_angle_gamma   75.03776220
_symmetry_Int_Tables_number   1
_chemical_formula_structural   PuS2O9
_chemical_formula_sum   'Pu2 S4 O18'
_cell_volume   355.80878668
_cell_formula_units_Z   2
loop_
 _symmetry_equiv_pos_site_id
 _symmetry_equiv_pos_as_xyz
  1  'x, y, z'
loop_
 _atom_site_type_symbol
 _atom_site_label
 _atom_site_symmetry_multiplicity
 _atom_site_fract_x
 _atom_site_fract_y
 _atom_site_fract_z
 _atom_site_occupancy
  Pu  Pu0  1  0.795321  0.801441  0.748565  1
  Pu  Pu1  1  0.204679  0.198559  0.251435  1
  S  S2  1  0.982296  0.252282  0.849412  1
  S  S3  1  0.017704  0.747718  0.150588  1
  S  S4  1  0.392331  0.258815  0.644417  1
  S  S5  1  0.607669  0.741185  0.355583  1
  O  O6  1  0.561315  0.806237  0.889477  1
  O  O7  1  0.438685  0.193763  0.110523  1
  O  O8  1  0.029375  0.794900  0.607079  1
  O  O9  1  0.970625  0.205100  0.392921  1
  O  O10  1  0.901626  0.437484  0.762224  1
  O  O11  1  0.098374  0.562516  0.237776  1
  O  O12  1  0.021451  0.285547  0.015560  1
  O  O13  1  0.978549  0.714453  0.984440  1
  O  O14  1  0.857901  0.107513  0.850874  1
  O  O15  1  0.142099  0.892487  0.149126  1
  O  O16  1  0.207323  0.139177  0.739295  1
  O  O17  1  0.792677  0.860823  0.260705  1
  O  O18  1  0.384354  0.420211  0.749688  1
  O  O19  1  0.615646  0.579789  0.250312  1
  O  O20  1  0.331758  0.315320  0.480159  1
  O  O21  1  0.668242  0.684680  0.519841  1
  O  O22  1  0.581750  0.091740  0.629692  1
  O  O23  1  0.418250  0.908260  0.370308  1
