# generated using pymatgen
data_TbTm(WF7)2
_symmetry_space_group_name_H-M   'P 1'
_cell_length_a   5.65031540
_cell_length_b   9.07044708
_cell_length_c   12.17595400
_cell_angle_alpha   62.54266570
_cell_angle_beta   90.09275318
_cell_angle_gamma   89.99593501
_symmetry_Int_Tables_number   1
_chemical_formula_structural   TbTm(WF7)2
_chemical_formula_sum   'Tb2 Tm2 W4 F28'
_cell_volume   553.73344201
_cell_formula_units_Z   2
loop_
 _symmetry_equiv_pos_site_id
 _symmetry_equiv_pos_as_xyz
  1  'x, y, z'
loop_
 _atom_site_type_symbol
 _atom_site_label
 _atom_site_symmetry_multiplicity
 _atom_site_fract_x
 _atom_site_fract_y
 _atom_site_fract_z
 _atom_site_occupancy
  Tb  Tb0  1  0.760655  0.184882  0.234439  1
  Tb  Tb1  1  0.239345  0.815118  0.765561  1
  Tm  Tm2  1  0.261766  0.813650  0.265286  1
  Tm  Tm3  1  0.738234  0.186350  0.734714  1
  W  W4  1  0.756318  0.728898  0.044856  1
  W  W5  1  0.243682  0.271102  0.955144  1
  W  W6  1  0.256259  0.275500  0.457627  1
  W  W7  1  0.743741  0.724500  0.542373  1
  F  F8  1  0.957010  0.707718  0.417675  1
  F  F9  1  0.042990  0.292282  0.582325  1
  F  F10  1  0.457385  0.291159  0.078872  1
  F  F11  1  0.542615  0.708841  0.921128  1
  F  F12  1  0.473671  0.733147  0.149469  1
  F  F13  1  0.526329  0.266853  0.850531  1
  F  F14  1  0.974685  0.268589  0.353341  1
  F  F15  1  0.025315  0.731411  0.646659  1
  F  F16  1  0.967880  0.750036  0.170183  1
  F  F17  1  0.032120  0.249964  0.829817  1
  F  F18  1  0.463588  0.253388  0.332009  1
  F  F19  1  0.536412  0.746612  0.667991  1
  F  F20  1  0.762147  0.481808  0.142945  1
  F  F21  1  0.237853  0.518192  0.857055  1
  F  F22  1  0.261634  0.522286  0.357427  1
  F  F23  1  0.738366  0.477714  0.642573  1
  F  F24  1  0.947978  0.278681  0.050876  1
  F  F25  1  0.052022  0.721319  0.949124  1
  F  F26  1  0.445962  0.719876  0.445202  1
  F  F27  1  0.554038  0.280124  0.554798  1
  F  F28  1  0.742276  0.971497  0.444913  1
  F  F29  1  0.257724  0.028503  0.555087  1
  F  F30  1  0.243289  0.024614  0.054523  1
  F  F31  1  0.756711  0.975386  0.945477  1
  F  F32  1  0.567530  0.973912  0.233406  1
  F  F33  1  0.432470  0.026088  0.766594  1
  F  F34  1  0.074493  0.019521  0.265842  1
  F  F35  1  0.925507  0.980479  0.734158  1
