# generated using pymatgen
data_Ho8Lu8AlIn5Co2
_symmetry_space_group_name_H-M   'P 1'
_cell_length_a   10.15500600
_cell_length_b   10.14557284
_cell_length_c   6.97909695
_cell_angle_alpha   90.00785965
_cell_angle_beta   90.00000000
_cell_angle_gamma   120.03075516
_symmetry_Int_Tables_number   1
_chemical_formula_structural   Ho8Lu8AlIn5Co2
_chemical_formula_sum   'Ho8 Lu8 Al1 In5 Co2'
_cell_volume   622.51803796
_cell_formula_units_Z   1
loop_
 _symmetry_equiv_pos_site_id
 _symmetry_equiv_pos_as_xyz
  1  'x, y, z'
loop_
 _atom_site_type_symbol
 _atom_site_label
 _atom_site_symmetry_multiplicity
 _atom_site_fract_x
 _atom_site_fract_y
 _atom_site_fract_z
 _atom_site_occupancy
  Ho  Ho0  1  0.465361  0.533957  0.213750  1
  Ho  Ho1  1  0.068596  0.533957  0.213750  1
  Ho  Ho2  1  0.465497  0.930994  0.215172  1
  Ho  Ho3  1  0.539394  0.468384  0.711949  1
  Ho  Ho4  1  0.928990  0.468384  0.711949  1
  Ho  Ho5  1  0.534320  0.068642  0.712774  1
  Ho  Ho6  1  0.998536  0.997071  0.226617  1
  Ho  Ho7  1  0.997358  0.994716  0.723190  1
  Lu  Lu8  1  0.174552  0.818473  0.505219  1
  Lu  Lu9  1  0.643919  0.818473  0.505219  1
  Lu  Lu10  1  0.179085  0.358173  0.509527  1
  Lu  Lu11  1  0.820890  0.180086  0.007765  1
  Lu  Lu12  1  0.359197  0.180086  0.007765  1
  Lu  Lu13  1  0.821159  0.642317  0.014719  1
  Lu  Lu14  1  0.333323  0.666648  0.818094  1
  Lu  Lu15  1  0.668818  0.337634  0.322526  1
  Al  Al16  1  0.837624  0.675248  0.462159  1
  In  In17  1  0.162595  0.835833  0.961081  1
  In  In18  1  0.673236  0.835833  0.961081  1
  In  In19  1  0.163353  0.326708  0.962008  1
  In  In20  1  0.836739  0.163450  0.463404  1
  In  In21  1  0.326712  0.163450  0.463404  1
  Co  Co22  1  0.333377  0.666753  0.439433  1
  Co  Co23  1  0.667368  0.334733  0.941486  1
