# generated using pymatgen
data_PrHo(BeP)6
_symmetry_space_group_name_H-M   'P 1'
_cell_length_a   3.67090100
_cell_length_b   10.39049200
_cell_length_c   11.30151800
_cell_angle_alpha   90.00000000
_cell_angle_beta   90.00000000
_cell_angle_gamma   90.00000000
_symmetry_Int_Tables_number   1
_chemical_formula_structural   PrHo(BeP)6
_chemical_formula_sum   'Pr2 Ho2 Be12 P12'
_cell_volume   431.06778271
_cell_formula_units_Z   2
loop_
 _symmetry_equiv_pos_site_id
 _symmetry_equiv_pos_as_xyz
  1  'x, y, z'
loop_
 _atom_site_type_symbol
 _atom_site_label
 _atom_site_symmetry_multiplicity
 _atom_site_fract_x
 _atom_site_fract_y
 _atom_site_fract_z
 _atom_site_occupancy
  Pr  Pr0  1  0.750000  0.943629  0.338483  1
  Pr  Pr1  1  0.250000  0.443629  0.161517  1
  Ho  Ho2  1  0.750000  0.558760  0.840337  1
  Ho  Ho3  1  0.250000  0.058760  0.659663  1
  Be  Be4  1  0.750000  0.243328  0.454132  1
  Be  Be5  1  0.250000  0.743328  0.045868  1
  Be  Be6  1  0.750000  0.259174  0.952982  1
  Be  Be7  1  0.250000  0.759174  0.547018  1
  Be  Be8  1  0.750000  0.645211  0.287178  1
  Be  Be9  1  0.250000  0.145211  0.212822  1
  Be  Be10  1  0.750000  0.852671  0.788018  1
  Be  Be11  1  0.250000  0.352671  0.711982  1
  Be  Be12  1  0.750000  0.037421  0.061412  1
  Be  Be13  1  0.250000  0.537421  0.438588  1
  Be  Be14  1  0.750000  0.459717  0.568113  1
  Be  Be15  1  0.250000  0.959717  0.931887  1
  P  P16  1  0.750000  0.440509  0.374317  1
  P  P17  1  0.250000  0.940509  0.125683  1
  P  P18  1  0.750000  0.059902  0.867230  1
  P  P19  1  0.250000  0.559902  0.632770  1
  P  P20  1  0.750000  0.225065  0.144156  1
  P  P21  1  0.250000  0.725065  0.355844  1
  P  P22  1  0.750000  0.267009  0.645053  1
  P  P23  1  0.250000  0.767009  0.854947  1
  P  P24  1  0.750000  0.643479  0.091146  1
  P  P25  1  0.250000  0.143479  0.408854  1
  P  P26  1  0.750000  0.864123  0.595447  1
  P  P27  1  0.250000  0.364123  0.904553  1
