# generated using pymatgen
data_Tb4Ho8Co5Pb
_symmetry_space_group_name_H-M   'P 1'
_cell_length_a   8.29290035
_cell_length_b   8.29290198
_cell_length_c   8.29290268
_cell_angle_alpha   110.95942524
_cell_angle_beta   110.51462102
_cell_angle_gamma   106.96855854
_symmetry_Int_Tables_number   1
_chemical_formula_structural   Tb4Ho8Co5Pb
_chemical_formula_sum   'Tb4 Ho8 Co5 Pb1'
_cell_volume   438.40178654
_cell_formula_units_Z   1
loop_
 _symmetry_equiv_pos_site_id
 _symmetry_equiv_pos_as_xyz
  1  'x, y, z'
loop_
 _atom_site_type_symbol
 _atom_site_label
 _atom_site_symmetry_multiplicity
 _atom_site_fract_x
 _atom_site_fract_y
 _atom_site_fract_z
 _atom_site_occupancy
  Tb  Tb0  1  0.600027  0.793766  0.806262  1
  Tb  Tb1  1  0.399973  0.206234  0.193738  1
  Tb  Tb2  1  0.987504  0.793766  0.193738  1
  Tb  Tb3  1  0.012496  0.206234  0.806262  1
  Ho  Ho4  1  0.815265  0.706880  0.522146  1
  Ho  Ho5  1  0.184735  0.293120  0.477854  1
  Ho  Ho6  1  0.184735  0.706880  0.891616  1
  Ho  Ho7  1  0.815265  0.293120  0.108384  1
  Ho  Ho8  1  0.686766  0.379371  0.692605  1
  Ho  Ho9  1  0.313234  0.620629  0.307395  1
  Ho  Ho10  1  0.686766  0.994161  0.307395  1
  Ho  Ho11  1  0.313234  0.005839  0.692605  1
  Co  Co12  1  0.620533  0.000000  0.620533  1
  Co  Co13  1  0.379467  0.000000  0.379467  1
  Co  Co14  1  0.112067  0.612067  0.500000  1
  Co  Co15  1  0.887933  0.387933  0.500000  1
  Co  Co16  1  0.000000  0.000000  0.000000  1
  Pb  Pb17  1  0.500000  0.500000  0.000000  1
