# generated using pymatgen
data_LiNd8Zn(Si6Rh)2
_symmetry_space_group_name_H-M   'P 1'
_cell_length_a   8.25698300
_cell_length_b   8.25698322
_cell_length_c   8.47056000
_cell_angle_alpha   90.00000000
_cell_angle_beta   90.00000000
_cell_angle_gamma   120.00000313
_symmetry_Int_Tables_number   1
_chemical_formula_structural   LiNd8Zn(Si6Rh)2
_chemical_formula_sum   'Li1 Nd8 Zn1 Si12 Rh2'
_cell_volume   500.13302547
_cell_formula_units_Z   1
loop_
 _symmetry_equiv_pos_site_id
 _symmetry_equiv_pos_as_xyz
  1  'x, y, z'
loop_
 _atom_site_type_symbol
 _atom_site_label
 _atom_site_symmetry_multiplicity
 _atom_site_fract_x
 _atom_site_fract_y
 _atom_site_fract_z
 _atom_site_occupancy
  Li  Li0  1  0.666667  0.333333  0.503523  1
  Nd  Nd1  1  0.000000  0.000000  0.748512  1
  Nd  Nd2  1  0.000000  0.000000  0.251784  1
  Nd  Nd3  1  0.495820  0.504180  0.749051  1
  Nd  Nd4  1  0.495820  0.991642  0.749051  1
  Nd  Nd5  1  0.008358  0.504180  0.749051  1
  Nd  Nd6  1  0.497295  0.502705  0.250870  1
  Nd  Nd7  1  0.005411  0.502705  0.250870  1
  Nd  Nd8  1  0.497295  0.994589  0.250870  1
  Zn  Zn9  1  0.666667  0.333333  0.996157  1
  Si  Si10  1  0.836691  0.163309  0.999768  1
  Si  Si11  1  0.836691  0.673382  0.999768  1
  Si  Si12  1  0.326618  0.163309  0.999768  1
  Si  Si13  1  0.835908  0.164092  0.500637  1
  Si  Si14  1  0.835908  0.671816  0.500637  1
  Si  Si15  1  0.328184  0.164092  0.500637  1
  Si  Si16  1  0.167983  0.832017  0.499241  1
  Si  Si17  1  0.664034  0.832017  0.499241  1
  Si  Si18  1  0.167983  0.335966  0.499241  1
  Si  Si19  1  0.168824  0.831176  0.000607  1
  Si  Si20  1  0.662352  0.831176  0.000607  1
  Si  Si21  1  0.168824  0.337648  0.000607  1
  Rh  Rh22  1  0.333333  0.666667  0.497853  1
  Rh  Rh23  1  0.333333  0.666667  0.001647  1
