# generated using pymatgen
data_Tb4ErTmSi4
_symmetry_space_group_name_H-M   'P 1'
_cell_length_a   7.45414100
_cell_length_b   7.45414100
_cell_length_c   4.24960100
_cell_angle_alpha   90.00000000
_cell_angle_beta   90.00000000
_cell_angle_gamma   90.00000000
_symmetry_Int_Tables_number   1
_chemical_formula_structural   Tb4ErTmSi4
_chemical_formula_sum   'Tb4 Er1 Tm1 Si4'
_cell_volume   236.12575658
_cell_formula_units_Z   1
loop_
 _symmetry_equiv_pos_site_id
 _symmetry_equiv_pos_as_xyz
  1  'x, y, z'
loop_
 _atom_site_type_symbol
 _atom_site_label
 _atom_site_symmetry_multiplicity
 _atom_site_fract_x
 _atom_site_fract_y
 _atom_site_fract_z
 _atom_site_occupancy
  Tb  Tb0  1  0.324637  0.824752  0.500000  1
  Tb  Tb1  1  0.675363  0.175248  0.500000  1
  Tb  Tb2  1  0.175248  0.324637  0.500000  1
  Tb  Tb3  1  0.824752  0.675363  0.500000  1
  Er  Er4  1  0.500000  0.500000  0.000000  1
  Tm  Tm5  1  0.000000  0.000000  0.000000  1
  Si  Si6  1  0.616904  0.883150  0.000000  1
  Si  Si7  1  0.383096  0.116850  0.000000  1
  Si  Si8  1  0.883150  0.383096  0.000000  1
  Si  Si9  1  0.116850  0.616904  0.000000  1
