# generated using pymatgen
data_Lu16In6IrRh
_symmetry_space_group_name_H-M   'P 1'
_cell_length_a   10.23073600
_cell_length_b   10.23073576
_cell_length_c   6.88858400
_cell_angle_alpha   90.00000000
_cell_angle_beta   90.00000000
_cell_angle_gamma   120.00000077
_symmetry_Int_Tables_number   1
_chemical_formula_structural   Lu16In6IrRh
_chemical_formula_sum   'Lu16 In6 Ir1 Rh1'
_cell_volume   624.41644565
_cell_formula_units_Z   1
loop_
 _symmetry_equiv_pos_site_id
 _symmetry_equiv_pos_as_xyz
  1  'x, y, z'
loop_
 _atom_site_type_symbol
 _atom_site_label
 _atom_site_symmetry_multiplicity
 _atom_site_fract_x
 _atom_site_fract_y
 _atom_site_fract_z
 _atom_site_occupancy
  Lu  Lu0  1  0.532522  0.065044  0.524192  1
  Lu  Lu1  1  0.934956  0.467478  0.524192  1
  Lu  Lu2  1  0.532522  0.467478  0.524192  1
  Lu  Lu3  1  0.467586  0.935172  0.024450  1
  Lu  Lu4  1  0.064828  0.532414  0.024450  1
  Lu  Lu5  1  0.467586  0.532414  0.024450  1
  Lu  Lu6  1  0.177072  0.354143  0.729256  1
  Lu  Lu7  1  0.645857  0.822928  0.729256  1
  Lu  Lu8  1  0.177072  0.822928  0.729256  1
  Lu  Lu9  1  0.822867  0.645734  0.229481  1
  Lu  Lu10  1  0.354266  0.177133  0.229481  1
  Lu  Lu11  1  0.822867  0.177133  0.229481  1
  Lu  Lu12  1  0.666667  0.333333  0.903388  1
  Lu  Lu13  1  0.333333  0.666667  0.403629  1
  Lu  Lu14  1  0.000000  0.000000  0.507135  1
  Lu  Lu15  1  0.000000  0.000000  0.006956  1
  In  In16  1  0.837265  0.674531  0.769275  1
  In  In17  1  0.325469  0.162735  0.769275  1
  In  In18  1  0.837265  0.162735  0.769275  1
  In  In19  1  0.162799  0.325597  0.269160  1
  In  In20  1  0.674403  0.837201  0.269160  1
  In  In21  1  0.162799  0.837201  0.269160  1
  Ir  Ir22  1  0.666667  0.333333  0.298975  1
  Rh  Rh23  1  0.333333  0.666667  0.798154  1
