# generated using pymatgen
data_Zr8Co2TcPt
_symmetry_space_group_name_H-M   'P 1'
_cell_length_a   8.72734642
_cell_length_b   8.72732380
_cell_length_c   8.72145100
_cell_angle_alpha   60.02248881
_cell_angle_beta   60.02257898
_cell_angle_gamma   59.97337656
_symmetry_Int_Tables_number   1
_chemical_formula_structural   Zr8Co2TcPt
_chemical_formula_sum   'Zr16 Co4 Tc2 Pt2'
_cell_volume   469.78307881
_cell_formula_units_Z   2
loop_
 _symmetry_equiv_pos_site_id
 _symmetry_equiv_pos_as_xyz
  1  'x, y, z'
loop_
 _atom_site_type_symbol
 _atom_site_label
 _atom_site_symmetry_multiplicity
 _atom_site_fract_x
 _atom_site_fract_y
 _atom_site_fract_z
 _atom_site_occupancy
  Zr  Zr0  1  0.051786  0.648556  0.649827  1
  Zr  Zr1  1  0.648554  0.051784  0.649828  1
  Zr  Zr2  1  0.646725  0.646728  0.057539  1
  Zr  Zr3  1  0.646727  0.646730  0.649008  1
  Zr  Zr4  1  0.800266  0.800266  0.199737  1
  Zr  Zr5  1  0.200655  0.200653  0.799346  1
  Zr  Zr6  1  0.800839  0.196629  0.804746  1
  Zr  Zr7  1  0.196627  0.800840  0.197787  1
  Zr  Zr8  1  0.196630  0.800839  0.804746  1
  Zr  Zr9  1  0.800840  0.196625  0.197789  1
  Zr  Zr10  1  0.437484  0.437484  0.062516  1
  Zr  Zr11  1  0.064915  0.064915  0.435084  1
  Zr  Zr12  1  0.437033  0.071871  0.434746  1
  Zr  Zr13  1  0.071872  0.437032  0.056350  1
  Zr  Zr14  1  0.071872  0.437033  0.434746  1
  Zr  Zr15  1  0.437032  0.071872  0.056350  1
  Co  Co16  1  0.423664  0.856547  0.859894  1
  Co  Co17  1  0.856547  0.423664  0.859894  1
  Co  Co18  1  0.857432  0.857432  0.422016  1
  Co  Co19  1  0.857432  0.857433  0.863119  1
  Tc  Tc20  1  0.416117  0.416117  0.748197  1
  Tc  Tc21  1  0.416117  0.416117  0.419569  1
  Pt  Pt22  1  0.749421  0.413412  0.418583  1
  Pt  Pt23  1  0.413412  0.749421  0.418583  1
