# generated using pymatgen
data_Li2Dy5Y3Ho8(InRh2)2
_symmetry_space_group_name_H-M   'P 1'
_cell_length_a   9.63358097
_cell_length_b   9.63867790
_cell_length_c   9.65813117
_cell_angle_alpha   59.88911063
_cell_angle_beta   59.78867023
_cell_angle_gamma   59.82245645
_symmetry_Int_Tables_number   1
_chemical_formula_structural   Li2Dy5Y3Ho8(InRh2)2
_chemical_formula_sum   'Li2 Dy5 Y3 Ho8 In2 Rh4'
_cell_volume   631.73871394
_cell_formula_units_Z   1
loop_
 _symmetry_equiv_pos_site_id
 _symmetry_equiv_pos_as_xyz
  1  'x, y, z'
loop_
 _atom_site_type_symbol
 _atom_site_label
 _atom_site_symmetry_multiplicity
 _atom_site_fract_x
 _atom_site_fract_y
 _atom_site_fract_z
 _atom_site_occupancy
  Li  Li0  1  0.822074  0.822332  0.824461  1
  Li  Li1  1  0.822618  0.822895  0.528167  1
  Dy  Dy2  1  0.186108  0.187108  0.812833  1
  Dy  Dy3  1  0.599932  0.598730  0.200011  1
  Dy  Dy4  1  0.439220  0.061077  0.438999  1
  Dy  Dy5  1  0.441868  0.441588  0.057443  1
  Dy  Dy6  1  0.814938  0.186497  0.814262  1
  Y  Y7  1  0.184466  0.813492  0.188433  1
  Y  Y8  1  0.438184  0.062479  0.059847  1
  Y  Y9  1  0.186182  0.813997  0.813825  1
  Ho  Ho10  1  0.062738  0.437879  0.060573  1
  Ho  Ho11  1  0.811199  0.810706  0.189669  1
  Ho  Ho12  1  0.207329  0.597746  0.598787  1
  Ho  Ho13  1  0.061301  0.438515  0.439031  1
  Ho  Ho14  1  0.066331  0.066495  0.431643  1
  Ho  Ho15  1  0.813665  0.185642  0.187712  1
  Ho  Ho16  1  0.598217  0.208916  0.597766  1
  Ho  Ho17  1  0.599374  0.597838  0.601155  1
  In  In18  1  0.505724  0.834395  0.828859  1
  In  In19  1  0.833738  0.505745  0.828916  1
  Rh  Rh20  1  0.394455  0.822097  0.393707  1
  Rh  Rh21  1  0.392947  0.393499  0.391500  1
  Rh  Rh22  1  0.824581  0.394796  0.391113  1
  Rh  Rh23  1  0.392814  0.395542  0.821292  1
