# generated using pymatgen
data_CeErAlRu2
_symmetry_space_group_name_H-M   'P 1'
_cell_length_a   5.71220829
_cell_length_b   5.71220764
_cell_length_c   6.99137649
_cell_angle_alpha   86.25702787
_cell_angle_beta   93.74297207
_cell_angle_gamma   117.67015926
_symmetry_Int_Tables_number   1
_chemical_formula_structural   CeErAlRu2
_chemical_formula_sum   'Ce2 Er2 Al2 Ru4'
_cell_volume   201.44580230
_cell_formula_units_Z   2
loop_
 _symmetry_equiv_pos_site_id
 _symmetry_equiv_pos_as_xyz
  1  'x, y, z'
loop_
 _atom_site_type_symbol
 _atom_site_label
 _atom_site_symmetry_multiplicity
 _atom_site_fract_x
 _atom_site_fract_y
 _atom_site_fract_z
 _atom_site_occupancy
  Ce  Ce0  1  0.167495  0.832505  0.582348  1
  Ce  Ce1  1  0.832505  0.167495  0.417652  1
  Er  Er2  1  0.344075  0.655925  0.085792  1
  Er  Er3  1  0.655925  0.344075  0.914208  1
  Al  Al4  1  0.000000  0.000000  0.000000  1
  Al  Al5  1  0.500000  0.500000  0.500000  1
  Ru  Ru6  1  0.866198  0.636093  0.262671  1
  Ru  Ru7  1  0.636093  0.866198  0.737329  1
  Ru  Ru8  1  0.133802  0.363907  0.737329  1
  Ru  Ru9  1  0.363907  0.133802  0.262671  1
