# generated using pymatgen
data_K3RbB18(AuSe9)2
_symmetry_space_group_name_H-M   'P 1'
_cell_length_a   9.91010219
_cell_length_b   10.71850515
_cell_length_c   11.27002700
_cell_angle_alpha   100.13165010
_cell_angle_beta   90.77098178
_cell_angle_gamma   116.36504221
_symmetry_Int_Tables_number   1
_chemical_formula_structural   K3RbB18(AuSe9)2
_chemical_formula_sum   'K3 Rb1 B18 Au2 Se18'
_cell_volume   1050.16568812
_cell_formula_units_Z   1
loop_
 _symmetry_equiv_pos_site_id
 _symmetry_equiv_pos_as_xyz
  1  'x, y, z'
loop_
 _atom_site_type_symbol
 _atom_site_label
 _atom_site_symmetry_multiplicity
 _atom_site_fract_x
 _atom_site_fract_y
 _atom_site_fract_z
 _atom_site_occupancy
  K  K0  1  0.794424  0.154234  0.002801  1
  K  K1  1  0.205336  0.846517  0.995452  1
  K  K2  1  0.187015  0.342728  0.490252  1
  Rb  Rb3  1  0.824264  0.659831  0.501079  1
  B  B4  1  0.513356  0.162711  0.551165  1
  B  B5  1  0.486378  0.837223  0.449064  1
  B  B6  1  0.662963  0.122939  0.586835  1
  B  B7  1  0.336492  0.876778  0.413217  1
  B  B8  1  0.486056  0.042715  0.648971  1
  B  B9  1  0.513233  0.956947  0.351058  1
  B  B10  1  0.336546  0.006022  0.538814  1
  B  B11  1  0.663019  0.994093  0.461251  1
  B  B12  1  0.420010  0.061557  0.405160  1
  B  B13  1  0.579386  0.938289  0.595080  1
  B  B14  1  0.619832  0.132081  0.435394  1
  B  B15  1  0.379377  0.867551  0.564639  1
  B  B16  1  0.740051  0.415012  0.722735  1
  B  B17  1  0.258892  0.583278  0.279284  1
  B  B18  1  0.252951  0.094125  0.782666  1
  B  B19  1  0.747516  0.908001  0.217194  1
  B  B20  1  0.564575  0.288637  0.265831  1
  B  B21  1  0.434620  0.711195  0.734512  1
  Au  Au22  1  0.345110  0.319750  0.063345  1
  Au  Au23  1  0.653722  0.679616  0.937145  1
  Se  Se24  1  0.548019  0.360728  0.627147  1
  Se  Se25  1  0.451846  0.639053  0.373866  1
  Se  Se26  1  0.838202  0.286894  0.697031  1
  Se  Se27  1  0.161851  0.712264  0.302593  1
  Se  Se28  1  0.449425  0.098206  0.821988  1
  Se  Se29  1  0.549638  0.901244  0.178080  1
  Se  Se30  1  0.161448  0.029101  0.611765  1
  Se  Se31  1  0.840073  0.975382  0.387871  1
  Se  Se32  1  0.356150  0.153549  0.289041  1
  Se  Se33  1  0.642813  0.847342  0.712496  1
  Se  Se34  1  0.741316  0.288300  0.347440  1
  Se  Se35  1  0.257730  0.710070  0.651459  1
  Se  Se36  1  0.846307  0.592940  0.839547  1
  Se  Se37  1  0.151227  0.401545  0.167213  1
  Se  Se38  1  0.136854  0.141587  0.903853  1
  Se  Se39  1  0.862963  0.860354  0.095490  1
  Se  Se40  1  0.603628  0.426968  0.163292  1
  Se  Se41  1  0.395382  0.572643  0.836885  1
