# generated using pymatgen
data_Nd4Al18Co2Pt3Rh
_symmetry_space_group_name_H-M   'P 1'
_cell_length_a   7.60749686
_cell_length_b   7.60749539
_cell_length_c   9.54010407
_cell_angle_alpha   89.84274309
_cell_angle_beta   89.84275479
_cell_angle_gamma   119.53215589
_symmetry_Int_Tables_number   1
_chemical_formula_structural   Nd4Al18Co2Pt3Rh
_chemical_formula_sum   'Nd4 Al18 Co2 Pt3 Rh1'
_cell_volume   480.38443377
_cell_formula_units_Z   1
loop_
 _symmetry_equiv_pos_site_id
 _symmetry_equiv_pos_as_xyz
  1  'x, y, z'
loop_
 _atom_site_type_symbol
 _atom_site_label
 _atom_site_symmetry_multiplicity
 _atom_site_fract_x
 _atom_site_fract_y
 _atom_site_fract_z
 _atom_site_occupancy
  Nd  Nd0  1  0.004488  0.330003  0.749910  1
  Nd  Nd1  1  0.331964  0.007200  0.749343  1
  Nd  Nd2  1  0.992800  0.668036  0.250657  1
  Nd  Nd3  1  0.669997  0.995512  0.250090  1
  Al  Al4  1  0.657097  0.989841  0.926565  1
  Al  Al5  1  0.997491  0.670933  0.571682  1
  Al  Al6  1  0.127719  0.127265  0.256564  1
  Al  Al7  1  0.658793  0.665854  0.048588  1
  Al  Al8  1  0.329105  0.326856  0.546678  1
  Al  Al9  1  0.334146  0.341207  0.951412  1
  Al  Al10  1  0.673144  0.670895  0.453322  1
  Al  Al11  1  0.333449  0.990506  0.073404  1
  Al  Al12  1  0.998663  0.326492  0.428304  1
  Al  Al13  1  0.339858  0.549506  0.242897  1
  Al  Al14  1  0.010159  0.342903  0.073435  1
  Al  Al15  1  0.542957  0.339951  0.253186  1
  Al  Al16  1  0.660049  0.457043  0.746814  1
  Al  Al17  1  0.872735  0.872281  0.743436  1
  Al  Al18  1  0.009494  0.666551  0.926596  1
  Al  Al19  1  0.673508  0.001337  0.571696  1
  Al  Al20  1  0.329067  0.002509  0.428318  1
  Al  Al21  1  0.450494  0.660142  0.757103  1
  Co  Co22  1  0.000240  0.999760  0.500000  1
  Co  Co23  1  0.330345  0.669655  0.000000  1
  Pt  Pt24  1  0.671603  0.328397  0.000000  1
  Pt  Pt25  1  0.329216  0.670784  0.500000  1
  Pt  Pt26  1  0.000260  0.999740  0.000000  1
  Rh  Rh27  1  0.671159  0.328841  0.500000  1
