# generated using pymatgen
data_Pa2MoWC4
_symmetry_space_group_name_H-M   'P 1'
_cell_length_a   3.32692100
_cell_length_b   5.75182800
_cell_length_c   11.04348000
_cell_angle_alpha   90.00000000
_cell_angle_beta   90.00000000
_cell_angle_gamma   90.00000000
_symmetry_Int_Tables_number   1
_chemical_formula_structural   Pa2MoWC4
_chemical_formula_sum   'Pa4 Mo2 W2 C8'
_cell_volume   211.32667893
_cell_formula_units_Z   2
loop_
 _symmetry_equiv_pos_site_id
 _symmetry_equiv_pos_as_xyz
  1  'x, y, z'
loop_
 _atom_site_type_symbol
 _atom_site_label
 _atom_site_symmetry_multiplicity
 _atom_site_fract_x
 _atom_site_fract_y
 _atom_site_fract_z
 _atom_site_occupancy
  Pa  Pa0  1  0.250000  0.080620  0.858588  1
  Pa  Pa1  1  0.250000  0.580620  0.641412  1
  Pa  Pa2  1  0.750000  0.919999  0.142145  1
  Pa  Pa3  1  0.750000  0.419999  0.357855  1
  Mo  Mo4  1  0.250000  0.419356  0.100741  1
  Mo  Mo5  1  0.250000  0.919356  0.399259  1
  W  W6  1  0.750000  0.580543  0.898710  1
  W  W7  1  0.750000  0.080543  0.601290  1
  C  C8  1  0.250000  0.162588  0.246484  1
  C  C9  1  0.250000  0.662588  0.253516  1
  C  C10  1  0.750000  0.836362  0.754243  1
  C  C11  1  0.750000  0.336362  0.745757  1
  C  C12  1  0.250000  0.743144  0.990031  1
  C  C13  1  0.250000  0.243144  0.509969  1
  C  C14  1  0.750000  0.257389  0.008350  1
  C  C15  1  0.750000  0.757389  0.491650  1
