# generated using pymatgen
data_NbCo4Re3B4
_symmetry_space_group_name_H-M   'P 1'
_cell_length_a   3.25763000
_cell_length_b   5.75176781
_cell_length_c   6.60585322
_cell_angle_alpha   89.20150988
_cell_angle_beta   90.00000000
_cell_angle_gamma   90.00000000
_symmetry_Int_Tables_number   1
_chemical_formula_structural   NbCo4Re3B4
_chemical_formula_sum   'Nb1 Co4 Re3 B4'
_cell_volume   123.76272007
_cell_formula_units_Z   1
loop_
 _symmetry_equiv_pos_site_id
 _symmetry_equiv_pos_as_xyz
  1  'x, y, z'
loop_
 _atom_site_type_symbol
 _atom_site_label
 _atom_site_symmetry_multiplicity
 _atom_site_fract_x
 _atom_site_fract_y
 _atom_site_fract_z
 _atom_site_occupancy
  Nb  Nb0  1  0.250000  0.527405  0.674908  1
  Co  Co1  1  0.750000  0.853406  0.552160  1
  Co  Co2  1  0.250000  0.143448  0.441552  1
  Co  Co3  1  0.750000  0.355347  0.949359  1
  Co  Co4  1  0.250000  0.647296  0.056697  1
  Re  Re5  1  0.750000  0.470444  0.328429  1
  Re  Re6  1  0.250000  0.029669  0.826834  1
  Re  Re7  1  0.750000  0.970700  0.171837  1
  B  B8  1  0.250000  0.272220  0.126429  1
  B  B9  1  0.750000  0.738806  0.882595  1
  B  B10  1  0.250000  0.772808  0.365931  1
  B  B11  1  0.750000  0.218450  0.623271  1
