# generated using pymatgen
data_Nd4CuIrPd2
_symmetry_space_group_name_H-M   'P 1'
_cell_length_a   4.58958000
_cell_length_b   5.75020327
_cell_length_c   7.30136365
_cell_angle_alpha   90.13168530
_cell_angle_beta   90.00000000
_cell_angle_gamma   90.00000000
_symmetry_Int_Tables_number   1
_chemical_formula_structural   Nd4CuIrPd2
_chemical_formula_sum   'Nd4 Cu1 Ir1 Pd2'
_cell_volume   192.68990998
_cell_formula_units_Z   1
loop_
 _symmetry_equiv_pos_site_id
 _symmetry_equiv_pos_as_xyz
  1  'x, y, z'
loop_
 _atom_site_type_symbol
 _atom_site_label
 _atom_site_symmetry_multiplicity
 _atom_site_fract_x
 _atom_site_fract_y
 _atom_site_fract_z
 _atom_site_occupancy
  Nd  Nd0  1  0.250000  0.362255  0.677124  1
  Nd  Nd1  1  0.750000  0.646109  0.329383  1
  Nd  Nd2  1  0.750000  0.863620  0.807330  1
  Nd  Nd3  1  0.250000  0.130508  0.184560  1
  Cu  Cu4  1  0.250000  0.627257  0.035711  1
  Ir  Ir5  1  0.250000  0.841112  0.546816  1
  Pd  Pd6  1  0.750000  0.154499  0.451074  1
  Pd  Pd7  1  0.750000  0.374641  0.968000  1
