# generated using pymatgen
data_Th4Re(OsC2)3
_symmetry_space_group_name_H-M   'P 1'
_cell_length_a   3.44521100
_cell_length_b   5.40401070
_cell_length_c   11.87157025
_cell_angle_alpha   89.83121379
_cell_angle_beta   90.00000000
_cell_angle_gamma   90.00000000
_symmetry_Int_Tables_number   1
_chemical_formula_structural   Th4Re(OsC2)3
_chemical_formula_sum   'Th4 Re1 Os3 C6'
_cell_volume   221.02342647
_cell_formula_units_Z   1
loop_
 _symmetry_equiv_pos_site_id
 _symmetry_equiv_pos_as_xyz
  1  'x, y, z'
loop_
 _atom_site_type_symbol
 _atom_site_label
 _atom_site_symmetry_multiplicity
 _atom_site_fract_x
 _atom_site_fract_y
 _atom_site_fract_z
 _atom_site_occupancy
  Th  Th0  1  0.500000  0.838491  0.160055  1
  Th  Th1  1  0.000000  0.336608  0.340842  1
  Th  Th2  1  0.000000  0.663658  0.658072  1
  Th  Th3  1  0.500000  0.160301  0.840022  1
  Re  Re4  1  0.000000  0.676458  0.927321  1
  Os  Os5  1  0.500000  0.821497  0.424324  1
  Os  Os6  1  0.000000  0.323142  0.075403  1
  Os  Os7  1  0.500000  0.178540  0.575699  1
  C  C8  1  0.000000  0.167829  0.669212  1
  C  C9  1  0.500000  0.667248  0.828889  1
  C  C10  1  0.000000  0.833746  0.330251  1
  C  C11  1  0.000000  0.999458  0.000541  1
  C  C12  1  0.500000  0.332971  0.169816  1
  C  C13  1  0.500000  0.500053  0.499552  1
