# generated using pymatgen
data_Er3In3HgRu2
_symmetry_space_group_name_H-M   'P 1'
_cell_length_a   7.97249700
_cell_length_b   7.97249681
_cell_length_c   3.61527400
_cell_angle_alpha   90.00000000
_cell_angle_beta   90.00000000
_cell_angle_gamma   119.99999665
_symmetry_Int_Tables_number   1
_chemical_formula_structural   Er3In3HgRu2
_chemical_formula_sum   'Er3 In3 Hg1 Ru2'
_cell_volume   199.00343953
_cell_formula_units_Z   1
loop_
 _symmetry_equiv_pos_site_id
 _symmetry_equiv_pos_as_xyz
  1  'x, y, z'
loop_
 _atom_site_type_symbol
 _atom_site_label
 _atom_site_symmetry_multiplicity
 _atom_site_fract_x
 _atom_site_fract_y
 _atom_site_fract_z
 _atom_site_occupancy
  Er  Er0  1  0.963246  0.587055  0.500000  1
  Er  Er1  1  0.412945  0.376191  0.500000  1
  Er  Er2  1  0.623809  0.036754  0.500000  1
  In  In3  1  0.265714  0.999871  0.000000  1
  In  In4  1  0.734157  0.734286  0.000000  1
  In  In5  1  0.000129  0.265843  0.000000  1
  Hg  Hg6  1  0.333333  0.666667  0.000000  1
  Ru  Ru7  1  0.000000  0.000000  0.500000  1
  Ru  Ru8  1  0.666667  0.333333  0.000000  1
