# generated using pymatgen
data_Sr2Zn21Pd
_symmetry_space_group_name_H-M   'P 1'
_cell_length_a   8.38432662
_cell_length_b   8.40395106
_cell_length_c   8.40395049
_cell_angle_alpha   99.43004578
_cell_angle_beta   100.03701287
_cell_angle_gamma   131.59258904
_symmetry_Int_Tables_number   1
_chemical_formula_structural   Sr2Zn21Pd
_chemical_formula_sum   'Sr2 Zn21 Pd1'
_cell_volume   403.44776048
_cell_formula_units_Z   1
loop_
 _symmetry_equiv_pos_site_id
 _symmetry_equiv_pos_as_xyz
  1  'x, y, z'
loop_
 _atom_site_type_symbol
 _atom_site_label
 _atom_site_symmetry_multiplicity
 _atom_site_fract_x
 _atom_site_fract_y
 _atom_site_fract_z
 _atom_site_occupancy
  Sr  Sr0  1  0.999552  0.000994  0.998557  1
  Sr  Sr1  1  0.250448  0.749006  0.501443  1
  Zn  Zn2  1  0.066343  0.651139  0.829581  1
  Zn  Zn3  1  0.820224  0.238355  0.172363  1
  Zn  Zn4  1  0.745705  0.252651  0.493055  1
  Zn  Zn5  1  0.504295  0.497349  0.006945  1
  Zn  Zn6  1  0.625000  0.375000  0.750000  1
  Zn  Zn7  1  0.125000  0.375000  0.750000  1
  Zn  Zn8  1  0.625000  0.875000  0.250000  1
  Zn  Zn9  1  0.820224  0.647861  0.581869  1
  Zn  Zn10  1  0.902202  0.816696  0.329791  1
  Zn  Zn11  1  0.488405  0.571788  0.672619  1
  Zn  Zn12  1  0.066343  0.236762  0.415204  1
  Zn  Zn13  1  0.761595  0.934213  0.583383  1
  Zn  Zn14  1  0.347798  0.177589  0.414494  1
  Zn  Zn15  1  0.429776  0.511645  0.327637  1
  Zn  Zn16  1  0.183657  0.098861  0.670419  1
  Zn  Zn17  1  0.429776  0.102139  0.918131  1
  Zn  Zn18  1  0.347798  0.933304  0.170209  1
  Zn  Zn19  1  0.761595  0.178212  0.827381  1
  Zn  Zn20  1  0.183657  0.513238  0.084796  1
  Zn  Zn21  1  0.488405  0.815787  0.916617  1
  Zn  Zn22  1  0.902202  0.572411  0.085506  1
  Pd  Pd23  1  0.625000  0.375000  0.250000  1
