# generated using pymatgen
data_Tm7Lu9Cd4(NiRu)2
_symmetry_space_group_name_H-M   'P 1'
_cell_length_a   9.40210548
_cell_length_b   9.40210592
_cell_length_c   9.38933300
_cell_angle_alpha   60.04493274
_cell_angle_beta   60.04493118
_cell_angle_gamma   60.24549914
_symmetry_Int_Tables_number   1
_chemical_formula_structural   Tm7Lu9Cd4(NiRu)2
_chemical_formula_sum   'Tm7 Lu9 Cd4 Ni2 Ru2'
_cell_volume   588.38963736
_cell_formula_units_Z   1
loop_
 _symmetry_equiv_pos_site_id
 _symmetry_equiv_pos_as_xyz
  1  'x, y, z'
loop_
 _atom_site_type_symbol
 _atom_site_label
 _atom_site_symmetry_multiplicity
 _atom_site_fract_x
 _atom_site_fract_y
 _atom_site_fract_z
 _atom_site_occupancy
  Tm  Tm0  1  0.810873  0.810873  0.189127  1
  Tm  Tm1  1  0.937691  0.558582  0.565639  1
  Tm  Tm2  1  0.558582  0.937691  0.938088  1
  Tm  Tm3  1  0.558582  0.937691  0.565639  1
  Tm  Tm4  1  0.937691  0.558582  0.938088  1
  Tm  Tm5  1  0.563529  0.563529  0.936471  1
  Tm  Tm6  1  0.941033  0.941033  0.558967  1
  Lu  Lu7  1  0.348789  0.348789  0.344574  1
  Lu  Lu8  1  0.348789  0.348789  0.957849  1
  Lu  Lu9  1  0.352906  0.955854  0.345620  1
  Lu  Lu10  1  0.955854  0.352906  0.345620  1
  Lu  Lu11  1  0.812073  0.188441  0.187860  1
  Lu  Lu12  1  0.188441  0.812073  0.811627  1
  Lu  Lu13  1  0.188441  0.812073  0.187860  1
  Lu  Lu14  1  0.812073  0.188441  0.811627  1
  Lu  Lu15  1  0.187258  0.187258  0.812742  1
  Cd  Cd16  1  0.579438  0.579438  0.582040  1
  Cd  Cd17  1  0.579438  0.579438  0.259086  1
  Cd  Cd18  1  0.579861  0.256074  0.582033  1
  Cd  Cd19  1  0.256074  0.579861  0.582033  1
  Ni  Ni20  1  0.142223  0.576051  0.140864  1
  Ni  Ni21  1  0.576051  0.142223  0.140864  1
  Ru  Ru22  1  0.142157  0.142157  0.142611  1
  Ru  Ru23  1  0.142157  0.142157  0.573074  1
