# generated using pymatgen
data_Ca11Nd(SnRh)8
_symmetry_space_group_name_H-M   'P 1'
_cell_length_a   5.95360426
_cell_length_b   8.18198828
_cell_length_c   14.18231879
_cell_angle_alpha   90.01640321
_cell_angle_beta   90.12079746
_cell_angle_gamma   89.88591465
_symmetry_Int_Tables_number   1
_chemical_formula_structural   Ca11Nd(SnRh)8
_chemical_formula_sum   'Ca11 Nd1 Sn8 Rh8'
_cell_volume   690.85072269
_cell_formula_units_Z   1
loop_
 _symmetry_equiv_pos_site_id
 _symmetry_equiv_pos_as_xyz
  1  'x, y, z'
loop_
 _atom_site_type_symbol
 _atom_site_label
 _atom_site_symmetry_multiplicity
 _atom_site_fract_x
 _atom_site_fract_y
 _atom_site_fract_z
 _atom_site_occupancy
  Ca  Ca0  1  0.627842  0.252152  0.252042  1
  Ca  Ca1  1  0.372682  0.748494  0.748807  1
  Ca  Ca2  1  0.371233  0.748611  0.252812  1
  Ca  Ca3  1  0.628296  0.250850  0.748850  1
  Ca  Ca4  1  0.156134  0.398701  0.093447  1
  Ca  Ca5  1  0.841463  0.599162  0.903519  1
  Ca  Ca6  1  0.842586  0.602474  0.593407  1
  Ca  Ca7  1  0.841518  0.897281  0.406587  1
  Ca  Ca8  1  0.157462  0.397716  0.407334  1
  Ca  Ca9  1  0.158127  0.102145  0.593594  1
  Ca  Ca10  1  0.161438  0.104685  0.904769  1
  Nd  Nd11  1  0.830908  0.894563  0.090430  1
  Sn  Sn12  1  0.136204  0.096905  0.250102  1
  Sn  Sn13  1  0.866501  0.902591  0.750339  1
  Sn  Sn14  1  0.865739  0.598691  0.250941  1
  Sn  Sn15  1  0.135370  0.401787  0.749306  1
  Sn  Sn16  1  0.640601  0.253266  0.999652  1
  Sn  Sn17  1  0.350386  0.749284  0.998370  1
  Sn  Sn18  1  0.361207  0.749841  0.499852  1
  Sn  Sn19  1  0.639380  0.249152  0.500846  1
  Rh  Rh20  1  0.376083  0.035981  0.093800  1
  Rh  Rh21  1  0.637862  0.960598  0.910262  1
  Rh  Rh22  1  0.631343  0.963048  0.592639  1
  Rh  Rh23  1  0.633362  0.535334  0.408599  1
  Rh  Rh24  1  0.366729  0.037344  0.408757  1
  Rh  Rh25  1  0.368053  0.463781  0.591840  1
  Rh  Rh26  1  0.368004  0.462885  0.907873  1
  Rh  Rh27  1  0.633488  0.542682  0.091224  1
