# generated using pymatgen
data_BiRuI18
_symmetry_space_group_name_H-M   'P 1'
_cell_length_a   10.25054130
_cell_length_b   10.26952880
_cell_length_c   10.24840222
_cell_angle_alpha   88.83064792
_cell_angle_beta   88.84792702
_cell_angle_gamma   88.71883658
_symmetry_Int_Tables_number   1
_chemical_formula_structural   BiRuI18
_chemical_formula_sum   'Bi1 Ru1 I18'
_cell_volume   1078.12844941
_cell_formula_units_Z   1
loop_
 _symmetry_equiv_pos_site_id
 _symmetry_equiv_pos_as_xyz
  1  'x, y, z'
loop_
 _atom_site_type_symbol
 _atom_site_label
 _atom_site_symmetry_multiplicity
 _atom_site_fract_x
 _atom_site_fract_y
 _atom_site_fract_z
 _atom_site_occupancy
  Bi  Bi0  1  0.000000  0.000000  0.000000  1
  Ru  Ru1  1  0.500000  0.500000  0.500000  1
  I  I2  1  0.762621  0.483198  0.501224  1
  I  I3  1  0.500236  0.761867  0.482567  1
  I  I4  1  0.482943  0.501276  0.762769  1
  I  I5  1  0.237379  0.516802  0.498776  1
  I  I6  1  0.499764  0.238133  0.517433  1
  I  I7  1  0.517057  0.498724  0.237231  1
  I  I8  1  0.877041  0.385744  0.744001  1
  I  I9  1  0.742503  0.875947  0.385733  1
  I  I10  1  0.386119  0.743358  0.877184  1
  I  I11  1  0.122959  0.614256  0.255999  1
  I  I12  1  0.257497  0.124053  0.614267  1
  I  I13  1  0.613881  0.256642  0.122816  1
  I  I14  1  0.024853  0.973077  0.697461  1
  I  I15  1  0.697650  0.024448  0.971231  1
  I  I16  1  0.972073  0.698413  0.022714  1
  I  I17  1  0.975147  0.026923  0.302539  1
  I  I18  1  0.302350  0.975552  0.028769  1
  I  I19  1  0.027927  0.301587  0.977286  1
