# generated using pymatgen
data_Dy10In5SnSe2
_symmetry_space_group_name_H-M   'P 1'
_cell_length_a   9.16475045
_cell_length_b   9.20948082
_cell_length_c   6.75844800
_cell_angle_alpha   90.00000000
_cell_angle_beta   90.00000000
_cell_angle_gamma   120.16159359
_symmetry_Int_Tables_number   1
_chemical_formula_structural   Dy10In5SnSe2
_chemical_formula_sum   'Dy10 In5 Sn1 Se2'
_cell_volume   493.20096986
_cell_formula_units_Z   1
loop_
 _symmetry_equiv_pos_site_id
 _symmetry_equiv_pos_as_xyz
  1  'x, y, z'
loop_
 _atom_site_type_symbol
 _atom_site_label
 _atom_site_symmetry_multiplicity
 _atom_site_fract_x
 _atom_site_fract_y
 _atom_site_fract_z
 _atom_site_occupancy
  Dy  Dy0  1  0.669481  0.334941  0.998890  1
  Dy  Dy1  1  0.330519  0.665461  0.998890  1
  Dy  Dy2  1  0.330519  0.665461  0.501110  1
  Dy  Dy3  1  0.669481  0.334941  0.501110  1
  Dy  Dy4  1  0.750346  0.748027  0.750000  1
  Dy  Dy5  1  0.249654  0.997682  0.750000  1
  Dy  Dy6  1  0.000000  0.253373  0.750000  1
  Dy  Dy7  1  0.248696  0.250820  0.250000  1
  Dy  Dy8  1  0.751304  0.002124  0.250000  1
  Dy  Dy9  1  0.000000  0.746599  0.250000  1
  In  In10  1  0.400166  0.399877  0.750000  1
  In  In11  1  0.599834  0.999711  0.750000  1
  In  In12  1  0.000000  0.601679  0.750000  1
  In  In13  1  0.599751  0.600498  0.250000  1
  In  In14  1  0.400249  0.000746  0.250000  1
  Sn  Sn15  1  0.000000  0.397882  0.250000  1
  Se  Se16  1  0.000000  0.000090  0.000511  1
  Se  Se17  1  0.000000  0.000090  0.499489  1
