# generated using pymatgen
data_Sc3PaTc2
_symmetry_space_group_name_H-M   'P 1'
_cell_length_a   8.89924727
_cell_length_b   8.89924765
_cell_length_c   8.89924800
_cell_angle_alpha   59.99999870
_cell_angle_beta   59.99999729
_cell_angle_gamma   59.99999531
_symmetry_Int_Tables_number   1
_chemical_formula_structural   Sc3PaTc2
_chemical_formula_sum   'Sc12 Pa4 Tc8'
_cell_volume   498.36191948
_cell_formula_units_Z   4
loop_
 _symmetry_equiv_pos_site_id
 _symmetry_equiv_pos_as_xyz
  1  'x, y, z'
loop_
 _atom_site_type_symbol
 _atom_site_label
 _atom_site_symmetry_multiplicity
 _atom_site_fract_x
 _atom_site_fract_y
 _atom_site_fract_z
 _atom_site_occupancy
  Sc  Sc0  1  0.683890  0.316110  0.316110  1
  Sc  Sc1  1  0.316110  0.683890  0.316110  1
  Sc  Sc2  1  0.683890  0.683890  0.316110  1
  Sc  Sc3  1  0.933889  0.566110  0.566110  1
  Sc  Sc4  1  0.566110  0.933889  0.566110  1
  Sc  Sc5  1  0.933890  0.933890  0.566109  1
  Sc  Sc6  1  0.316110  0.316110  0.683890  1
  Sc  Sc7  1  0.683890  0.316110  0.683890  1
  Sc  Sc8  1  0.316110  0.683890  0.683890  1
  Sc  Sc9  1  0.566110  0.566110  0.933889  1
  Sc  Sc10  1  0.933890  0.566109  0.933890  1
  Sc  Sc11  1  0.566109  0.933890  0.933890  1
  Pa  Pa12  1  0.125000  0.125000  0.125000  1
  Pa  Pa13  1  0.625000  0.125000  0.125000  1
  Pa  Pa14  1  0.125000  0.625000  0.125000  1
  Pa  Pa15  1  0.125000  0.125000  0.625000  1
  Tc  Tc16  1  0.333203  0.333203  0.000391  1
  Tc  Tc17  1  0.916796  0.916796  0.249609  1
  Tc  Tc18  1  0.333203  0.000391  0.333203  1
  Tc  Tc19  1  0.000391  0.333203  0.333203  1
  Tc  Tc20  1  0.333203  0.333203  0.333203  1
  Tc  Tc21  1  0.916796  0.249609  0.916796  1
  Tc  Tc22  1  0.249609  0.916796  0.916796  1
  Tc  Tc23  1  0.916796  0.916796  0.916796  1
