# generated using pymatgen
data_Cs4CeThBr12
_symmetry_space_group_name_H-M   'P 1'
_cell_length_a   8.11434300
_cell_length_b   8.11434300
_cell_length_c   11.58902200
_cell_angle_alpha   90.00000000
_cell_angle_beta   90.00000000
_cell_angle_gamma   90.00000000
_symmetry_Int_Tables_number   1
_chemical_formula_structural   Cs4CeThBr12
_chemical_formula_sum   'Cs4 Ce1 Th1 Br12'
_cell_volume   763.05090328
_cell_formula_units_Z   1
loop_
 _symmetry_equiv_pos_site_id
 _symmetry_equiv_pos_as_xyz
  1  'x, y, z'
loop_
 _atom_site_type_symbol
 _atom_site_label
 _atom_site_symmetry_multiplicity
 _atom_site_fract_x
 _atom_site_fract_y
 _atom_site_fract_z
 _atom_site_occupancy
  Cs  Cs0  1  0.500000  0.000000  0.750360  1
  Cs  Cs1  1  0.500000  0.000000  0.249640  1
  Cs  Cs2  1  0.000000  0.500000  0.249640  1
  Cs  Cs3  1  0.000000  0.500000  0.750360  1
  Ce  Ce4  1  0.000000  0.000000  0.000000  1
  Th  Th5  1  0.500000  0.500000  0.500000  1
  Br  Br6  1  0.789431  0.272697  0.000000  1
  Br  Br7  1  0.210569  0.727303  0.000000  1
  Br  Br8  1  0.500000  0.500000  0.253763  1
  Br  Br9  1  0.285565  0.222271  0.500000  1
  Br  Br10  1  0.272697  0.210569  0.000000  1
  Br  Br11  1  0.777729  0.285565  0.500000  1
  Br  Br12  1  0.000000  0.000000  0.241378  1
  Br  Br13  1  0.714435  0.777729  0.500000  1
  Br  Br14  1  0.222271  0.714435  0.500000  1
  Br  Br15  1  0.500000  0.500000  0.746237  1
  Br  Br16  1  0.727303  0.789431  0.000000  1
  Br  Br17  1  0.000000  0.000000  0.758622  1
