# generated using pymatgen
data_TaBe(BW)3
_symmetry_space_group_name_H-M   'P 1'
_cell_length_a   4.60624624
_cell_length_b   4.60624547
_cell_length_c   6.28898000
_cell_angle_alpha   90.00000000
_cell_angle_beta   90.00000000
_cell_angle_gamma   139.02956519
_symmetry_Int_Tables_number   1
_chemical_formula_structural   TaBe(BW)3
_chemical_formula_sum   'Ta1 Be1 B3 W3'
_cell_volume   87.49020350
_cell_formula_units_Z   1
loop_
 _symmetry_equiv_pos_site_id
 _symmetry_equiv_pos_as_xyz
  1  'x, y, z'
loop_
 _atom_site_type_symbol
 _atom_site_label
 _atom_site_symmetry_multiplicity
 _atom_site_fract_x
 _atom_site_fract_y
 _atom_site_fract_z
 _atom_site_occupancy
  Ta  Ta0  1  0.851543  0.148457  0.000000  1
  Be  Be1  1  0.566541  0.433459  0.500000  1
  B  B2  1  0.559691  0.440309  0.000000  1
  B  B3  1  0.437262  0.562738  0.249040  1
  B  B4  1  0.437262  0.562738  0.750960  1
  W  W5  1  0.855180  0.144820  0.500000  1
  W  W6  1  0.146260  0.853740  0.245443  1
  W  W7  1  0.146260  0.853740  0.754557  1
