# generated using pymatgen
data_Y7Ho(Ga5Ir9)2
_symmetry_space_group_name_H-M   'P 1'
_cell_length_a   5.57220200
_cell_length_b   5.57220194
_cell_length_c   23.70980000
_cell_angle_alpha   90.00000000
_cell_angle_beta   90.00000000
_cell_angle_gamma   119.99998846
_symmetry_Int_Tables_number   1
_chemical_formula_structural   Y7Ho(Ga5Ir9)2
_chemical_formula_sum   'Y7 Ho1 Ga10 Ir18'
_cell_volume   637.54709624
_cell_formula_units_Z   1
loop_
 _symmetry_equiv_pos_site_id
 _symmetry_equiv_pos_as_xyz
  1  'x, y, z'
loop_
 _atom_site_type_symbol
 _atom_site_label
 _atom_site_symmetry_multiplicity
 _atom_site_fract_x
 _atom_site_fract_y
 _atom_site_fract_z
 _atom_site_occupancy
  Y  Y0  1  0.666667  0.333333  0.469951  1
  Y  Y1  1  0.666667  0.333333  0.030185  1
  Y  Y2  1  0.333333  0.666667  0.969809  1
  Y  Y3  1  0.333333  0.666667  0.678101  1
  Y  Y4  1  0.666667  0.333333  0.321693  1
  Y  Y5  1  0.666667  0.333333  0.178285  1
  Y  Y6  1  0.333333  0.666667  0.821712  1
  Ho  Ho7  1  0.333333  0.666667  0.530218  1
  Ga  Ga8  1  0.000000  0.000000  0.999998  1
  Ga  Ga9  1  0.000000  0.000000  0.499998  1
  Ga  Ga10  1  0.333333  0.666667  0.168200  1
  Ga  Ga11  1  0.666667  0.333333  0.831799  1
  Ga  Ga12  1  0.666667  0.333333  0.668040  1
  Ga  Ga13  1  0.333333  0.666667  0.331852  1
  Ga  Ga14  1  0.000000  0.000000  0.165232  1
  Ga  Ga15  1  0.000000  0.000000  0.834715  1
  Ga  Ga16  1  0.000000  0.000000  0.665137  1
  Ga  Ga17  1  0.000000  0.000000  0.334975  1
  Ir  Ir18  1  0.170638  0.341276  0.083570  1
  Ir  Ir19  1  0.829347  0.658695  0.916448  1
  Ir  Ir20  1  0.658724  0.829362  0.083570  1
  Ir  Ir21  1  0.829358  0.658717  0.583301  1
  Ir  Ir22  1  0.341305  0.170653  0.916448  1
  Ir  Ir23  1  0.170901  0.341800  0.416728  1
  Ir  Ir24  1  0.170638  0.829362  0.083570  1
  Ir  Ir25  1  0.341283  0.170642  0.583301  1
  Ir  Ir26  1  0.829347  0.170653  0.916448  1
  Ir  Ir27  1  0.658200  0.829099  0.416728  1
  Ir  Ir28  1  0.829358  0.170642  0.583301  1
  Ir  Ir29  1  0.170901  0.829099  0.416728  1
  Ir  Ir30  1  0.165074  0.330146  0.250028  1
  Ir  Ir31  1  0.834821  0.669644  0.749958  1
  Ir  Ir32  1  0.669854  0.834926  0.250028  1
  Ir  Ir33  1  0.330356  0.165179  0.749958  1
  Ir  Ir34  1  0.165074  0.834926  0.250028  1
  Ir  Ir35  1  0.834821  0.165179  0.749958  1
