# generated using pymatgen
data_Tm3ScGa2Ir3
_symmetry_space_group_name_H-M   'P 1'
_cell_length_a   7.12573716
_cell_length_b   7.12573715
_cell_length_c   4.03570500
_cell_angle_alpha   90.00000000
_cell_angle_beta   90.00000000
_cell_angle_gamma   120.32007575
_symmetry_Int_Tables_number   1
_chemical_formula_structural   Tm3ScGa2Ir3
_chemical_formula_sum   'Tm3 Sc1 Ga2 Ir3'
_cell_volume   176.88860574
_cell_formula_units_Z   1
loop_
 _symmetry_equiv_pos_site_id
 _symmetry_equiv_pos_as_xyz
  1  'x, y, z'
loop_
 _atom_site_type_symbol
 _atom_site_label
 _atom_site_symmetry_multiplicity
 _atom_site_fract_x
 _atom_site_fract_y
 _atom_site_fract_z
 _atom_site_occupancy
  Tm  Tm0  1  0.392717  0.392717  0.500000  1
  Tm  Tm1  1  0.581432  0.012576  0.500000  1
  Tm  Tm2  1  0.012576  0.581432  0.500000  1
  Sc  Sc3  1  0.765526  0.765526  0.000000  1
  Ga  Ga4  1  0.247641  0.995090  0.000000  1
  Ga  Ga5  1  0.995090  0.247641  0.000000  1
  Ir  Ir6  1  0.663854  0.335509  0.000000  1
  Ir  Ir7  1  0.335509  0.663854  0.000000  1
  Ir  Ir8  1  0.005657  0.005657  0.500000  1
