# generated using pymatgen
data_Mn4P4Ru3W
_symmetry_space_group_name_H-M   'P 1'
_cell_length_a   3.77237000
_cell_length_b   5.78436105
_cell_length_c   6.60842900
_cell_angle_alpha   89.96555930
_cell_angle_beta   90.00000000
_cell_angle_gamma   90.00000000
_symmetry_Int_Tables_number   1
_chemical_formula_structural   Mn4P4Ru3W
_chemical_formula_sum   'Mn4 P4 Ru3 W1'
_cell_volume   144.20085155
_cell_formula_units_Z   1
loop_
 _symmetry_equiv_pos_site_id
 _symmetry_equiv_pos_as_xyz
  1  'x, y, z'
loop_
 _atom_site_type_symbol
 _atom_site_label
 _atom_site_symmetry_multiplicity
 _atom_site_fract_x
 _atom_site_fract_y
 _atom_site_fract_z
 _atom_site_occupancy
  Mn  Mn0  1  0.750000  0.358894  0.063576  1
  Mn  Mn1  1  0.750000  0.855028  0.430619  1
  Mn  Mn2  1  0.250000  0.641541  0.932592  1
  Mn  Mn3  1  0.250000  0.145033  0.567487  1
  P  P4  1  0.750000  0.732378  0.115833  1
  P  P5  1  0.750000  0.235086  0.383847  1
  P  P6  1  0.250000  0.266560  0.880856  1
  P  P7  1  0.250000  0.770099  0.617390  1
  Ru  Ru8  1  0.750000  0.485378  0.664415  1
  Ru  Ru9  1  0.750000  0.970747  0.834108  1
  Ru  Ru10  1  0.250000  0.520217  0.334813  1
  W  W11  1  0.250000  0.019042  0.174465  1
