# generated using pymatgen
data_Mn4Ge2B4IrRh9
_symmetry_space_group_name_H-M   'P 1'
_cell_length_a   9.36010601
_cell_length_b   9.36010601
_cell_length_c   2.93987600
_cell_angle_alpha   90.00000000
_cell_angle_beta   90.00000000
_cell_angle_gamma   89.99595996
_symmetry_Int_Tables_number   1
_chemical_formula_structural   Mn4Ge2B4IrRh9
_chemical_formula_sum   'Mn4 Ge2 B4 Ir1 Rh9'
_cell_volume   257.56719378
_cell_formula_units_Z   1
loop_
 _symmetry_equiv_pos_site_id
 _symmetry_equiv_pos_as_xyz
  1  'x, y, z'
loop_
 _atom_site_type_symbol
 _atom_site_label
 _atom_site_symmetry_multiplicity
 _atom_site_fract_x
 _atom_site_fract_y
 _atom_site_fract_z
 _atom_site_occupancy
  Mn  Mn0  1  0.825020  0.325020  0.000000  1
  Mn  Mn1  1  0.324154  0.175846  0.000000  1
  Mn  Mn2  1  0.675846  0.824154  0.000000  1
  Mn  Mn3  1  0.174980  0.674980  0.000000  1
  Ge  Ge4  1  0.000000  0.000000  0.000000  1
  Ge  Ge5  1  0.500000  0.500000  0.000000  1
  B  B6  1  0.625801  0.125801  0.000000  1
  B  B7  1  0.125944  0.374056  0.000000  1
  B  B8  1  0.874056  0.625944  0.000000  1
  B  B9  1  0.374199  0.874199  0.000000  1
  Ir  Ir10  1  0.500000  0.000000  0.500000  1
  Rh  Rh11  1  0.071824  0.213618  0.500000  1
  Rh  Rh12  1  0.212200  0.927386  0.500000  1
  Rh  Rh13  1  0.787800  0.072614  0.500000  1
  Rh  Rh14  1  0.928176  0.786382  0.500000  1
  Rh  Rh15  1  0.427386  0.712200  0.500000  1
  Rh  Rh16  1  0.572614  0.287800  0.500000  1
  Rh  Rh17  1  0.713618  0.571824  0.500000  1
  Rh  Rh18  1  0.286382  0.428176  0.500000  1
  Rh  Rh19  1  0.000000  0.500000  0.500000  1
