# generated using pymatgen
data_K2MnGeO4
_symmetry_space_group_name_H-M   'P 1'
_cell_length_a   5.93212900
_cell_length_b   5.81819630
_cell_length_c   9.91373149
_cell_angle_alpha   53.90469257
_cell_angle_beta   90.00021750
_cell_angle_gamma   89.99995908
_symmetry_Int_Tables_number   1
_chemical_formula_structural   K2MnGeO4
_chemical_formula_sum   'K4 Mn2 Ge2 O8'
_cell_volume   276.48270353
_cell_formula_units_Z   2
loop_
 _symmetry_equiv_pos_site_id
 _symmetry_equiv_pos_as_xyz
  1  'x, y, z'
loop_
 _atom_site_type_symbol
 _atom_site_label
 _atom_site_symmetry_multiplicity
 _atom_site_fract_x
 _atom_site_fract_y
 _atom_site_fract_z
 _atom_site_occupancy
  K  K0  1  0.313440  0.238970  0.749212  1
  K  K1  1  0.190792  0.496658  0.994258  1
  K  K2  1  0.809208  0.496658  0.494257  1
  K  K3  1  0.686557  0.238972  0.249212  1
  Mn  Mn4  1  0.198996  0.004780  0.498809  1
  Mn  Mn5  1  0.801004  0.004777  0.998801  1
  Ge  Ge6  1  0.697511  0.761100  0.746296  1
  Ge  Ge7  1  0.302488  0.761106  0.246295  1
  O  O8  1  0.135225  0.877587  0.066294  1
  O  O9  1  0.226923  0.417695  0.427138  1
  O  O10  1  0.730756  0.013285  0.792702  1
  O  O11  1  0.592811  0.747222  0.202099  1
  O  O12  1  0.407191  0.747217  0.702100  1
  O  O13  1  0.864777  0.877588  0.566292  1
  O  O14  1  0.269242  0.013292  0.292703  1
  O  O15  1  0.773078  0.417693  0.927134  1
