# generated using pymatgen
data_YHo3(Hg2O)4
_symmetry_space_group_name_H-M   'P 1'
_cell_length_a   5.57461441
_cell_length_b   5.57745023
_cell_length_c   10.91873019
_cell_angle_alpha   86.53489506
_cell_angle_beta   90.62153439
_cell_angle_gamma   90.47121479
_symmetry_Int_Tables_number   1
_chemical_formula_structural   YHo3(Hg2O)4
_chemical_formula_sum   'Y1 Ho3 Hg8 O4'
_cell_volume   338.83629572
_cell_formula_units_Z   1
loop_
 _symmetry_equiv_pos_site_id
 _symmetry_equiv_pos_as_xyz
  1  'x, y, z'
loop_
 _atom_site_type_symbol
 _atom_site_label
 _atom_site_symmetry_multiplicity
 _atom_site_fract_x
 _atom_site_fract_y
 _atom_site_fract_z
 _atom_site_occupancy
  Y  Y0  1  0.072240  0.511617  0.900237  1
  Ho  Ho1  1  0.575634  0.487690  0.097361  1
  Ho  Ho2  1  0.075742  0.990317  0.097823  1
  Ho  Ho3  1  0.572157  0.008804  0.902298  1
  Hg  Hg4  1  0.577129  0.996519  0.279109  1
  Hg  Hg5  1  0.077553  0.950036  0.417777  1
  Hg  Hg6  1  0.576370  0.048799  0.582574  1
  Hg  Hg7  1  0.074448  0.007734  0.721524  1
  Hg  Hg8  1  0.076924  0.449702  0.279335  1
  Hg  Hg9  1  0.577537  0.506561  0.416010  1
  Hg  Hg10  1  0.074927  0.495541  0.583405  1
  Hg  Hg11  1  0.573421  0.548544  0.720150  1
  O  O12  1  0.822851  0.248787  0.999393  1
  O  O13  1  0.823197  0.750303  0.001775  1
  O  O14  1  0.325129  0.248700  0.998225  1
  O  O15  1  0.324782  0.750343  0.003004  1
