# generated using pymatgen
data_YbDyErZn11
_symmetry_space_group_name_H-M   'P 1'
_cell_length_a   8.16762358
_cell_length_b   8.16762215
_cell_length_c   8.16762316
_cell_angle_alpha   148.20183098
_cell_angle_beta   115.93234849
_cell_angle_gamma   73.30845753
_symmetry_Int_Tables_number   1
_chemical_formula_structural   YbDyErZn11
_chemical_formula_sum   'Yb1 Dy1 Er1 Zn11'
_cell_volume   254.06193072
_cell_formula_units_Z   1
loop_
 _symmetry_equiv_pos_site_id
 _symmetry_equiv_pos_as_xyz
  1  'x, y, z'
loop_
 _atom_site_type_symbol
 _atom_site_label
 _atom_site_symmetry_multiplicity
 _atom_site_fract_x
 _atom_site_fract_y
 _atom_site_fract_z
 _atom_site_occupancy
  Yb  Yb0  1  0.000015  0.000015  0.000000  1
  Dy  Dy1  1  0.702041  0.702041  0.000000  1
  Er  Er2  1  0.298015  0.298015  0.000000  1
  Zn  Zn3  1  0.500035  0.000035  0.500000  1
  Zn  Zn4  1  0.678412  0.499829  0.178582  1
  Zn  Zn5  1  0.321247  0.499829  0.821418  1
  Zn  Zn6  1  0.694326  0.338280  0.356046  1
  Zn  Zn7  1  0.305345  0.661935  0.643410  1
  Zn  Zn8  1  0.982235  0.338280  0.643954  1
  Zn  Zn9  1  0.018524  0.661935  0.356590  1
  Zn  Zn10  1  0.420442  0.137018  0.283424  1
  Zn  Zn11  1  0.578966  0.862885  0.716081  1
  Zn  Zn12  1  0.853594  0.137018  0.716576  1
  Zn  Zn13  1  0.146805  0.862885  0.283919  1
