# generated using pymatgen
data_Yb4Tm(AlSb3)2
_symmetry_space_group_name_H-M   'P 1'
_cell_length_a   4.38387300
_cell_length_b   7.51241100
_cell_length_c   22.73436100
_cell_angle_alpha   90.00000000
_cell_angle_beta   90.00000000
_cell_angle_gamma   90.00000000
_symmetry_Int_Tables_number   1
_chemical_formula_structural   Yb4Tm(AlSb3)2
_chemical_formula_sum   'Yb8 Tm2 Al4 Sb12'
_cell_volume   748.72107195
_cell_formula_units_Z   2
loop_
 _symmetry_equiv_pos_site_id
 _symmetry_equiv_pos_as_xyz
  1  'x, y, z'
loop_
 _atom_site_type_symbol
 _atom_site_label
 _atom_site_symmetry_multiplicity
 _atom_site_fract_x
 _atom_site_fract_y
 _atom_site_fract_z
 _atom_site_occupancy
  Yb  Yb0  1  0.000000  0.461692  0.914548  1
  Yb  Yb1  1  0.000000  0.277867  0.746906  1
  Yb  Yb2  1  0.000000  0.777867  0.753094  1
  Yb  Yb3  1  0.000000  0.538308  0.085452  1
  Yb  Yb4  1  0.000000  0.961692  0.585452  1
  Yb  Yb5  1  0.000000  0.722133  0.253094  1
  Yb  Yb6  1  0.000000  0.038308  0.414548  1
  Yb  Yb7  1  0.000000  0.222133  0.246906  1
  Tm  Tm8  1  0.000000  0.000000  0.000000  1
  Tm  Tm9  1  0.000000  0.500000  0.500000  1
  Al  Al10  1  0.500000  0.826021  0.881027  1
  Al  Al11  1  0.500000  0.173979  0.118973  1
  Al  Al12  1  0.500000  0.673979  0.381027  1
  Al  Al13  1  0.500000  0.326021  0.618973  1
  Sb  Sb14  1  0.500000  0.779881  0.496729  1
  Sb  Sb15  1  0.000000  0.461706  0.364661  1
  Sb  Sb16  1  0.000000  0.961706  0.135339  1
  Sb  Sb17  1  0.500000  0.526236  0.813246  1
  Sb  Sb18  1  0.500000  0.473764  0.186754  1
  Sb  Sb19  1  0.000000  0.038294  0.864661  1
  Sb  Sb20  1  0.000000  0.538294  0.635339  1
  Sb  Sb21  1  0.500000  0.973764  0.313246  1
  Sb  Sb22  1  0.500000  0.220119  0.503271  1
  Sb  Sb23  1  0.500000  0.026236  0.686754  1
  Sb  Sb24  1  0.500000  0.279881  0.003271  1
  Sb  Sb25  1  0.500000  0.720119  0.996729  1
