# generated using pymatgen
data_Lu10Cd2InRu
_symmetry_space_group_name_H-M   'P 1'
_cell_length_a   9.42878909
_cell_length_b   9.44808950
_cell_length_c   9.59503704
_cell_angle_alpha   90.00130987
_cell_angle_beta   90.00058141
_cell_angle_gamma   120.05208948
_symmetry_Int_Tables_number   1
_chemical_formula_structural   Lu10Cd2InRu
_chemical_formula_sum   'Lu20 Cd4 In2 Ru2'
_cell_volume   739.85908538
_cell_formula_units_Z   2
loop_
 _symmetry_equiv_pos_site_id
 _symmetry_equiv_pos_as_xyz
  1  'x, y, z'
loop_
 _atom_site_type_symbol
 _atom_site_label
 _atom_site_symmetry_multiplicity
 _atom_site_fract_x
 _atom_site_fract_y
 _atom_site_fract_z
 _atom_site_occupancy
  Lu  Lu0  1  0.002533  0.001540  0.503049  1
  Lu  Lu1  1  0.002027  0.000806  0.996999  1
  Lu  Lu2  1  0.209627  0.789921  0.439610  1
  Lu  Lu3  1  0.209722  0.419735  0.439697  1
  Lu  Lu4  1  0.581386  0.790716  0.439226  1
  Lu  Lu5  1  0.789755  0.210111  0.558858  1
  Lu  Lu6  1  0.789869  0.579817  0.558946  1
  Lu  Lu7  1  0.420364  0.210205  0.559406  1
  Lu  Lu8  1  0.789824  0.209964  0.941013  1
  Lu  Lu9  1  0.789860  0.579750  0.941135  1
  Lu  Lu10  1  0.420267  0.210101  0.940563  1
  Lu  Lu11  1  0.209658  0.789841  0.060318  1
  Lu  Lu12  1  0.209652  0.419604  0.060284  1
  Lu  Lu13  1  0.581169  0.790566  0.060684  1
  Lu  Lu14  1  0.535415  0.458286  0.249961  1
  Lu  Lu15  1  0.535236  0.077095  0.249904  1
  Lu  Lu16  1  0.920848  0.460400  0.249917  1
  Lu  Lu17  1  0.460929  0.540997  0.750032  1
  Lu  Lu18  1  0.460746  0.919803  0.749904  1
  Lu  Lu19  1  0.079219  0.539604  0.749963  1
  Cd  Cd20  1  0.229360  0.114969  0.249918  1
  Cd  Cd21  1  0.113642  0.884894  0.749975  1
  Cd  Cd22  1  0.113909  0.228966  0.750161  1
  Cd  Cd23  1  0.771624  0.885891  0.749739  1
  In  In24  1  0.886006  0.115966  0.249928  1
  In  In25  1  0.886133  0.770104  0.250546  1
  Ru  Ru26  1  0.333887  0.666653  0.250140  1
  Ru  Ru27  1  0.667332  0.333693  0.750126  1
