# generated using pymatgen
data_Ho4Re16Si7Ge
_symmetry_space_group_name_H-M   'P 1'
_cell_length_a   4.13760100
_cell_length_b   7.31158531
_cell_length_c   15.36662088
_cell_angle_alpha   89.97403773
_cell_angle_beta   90.00000000
_cell_angle_gamma   90.00000000
_symmetry_Int_Tables_number   1
_chemical_formula_structural   Ho4Re16Si7Ge
_chemical_formula_sum   'Ho4 Re16 Si7 Ge1'
_cell_volume   464.87746263
_cell_formula_units_Z   1
loop_
 _symmetry_equiv_pos_site_id
 _symmetry_equiv_pos_as_xyz
  1  'x, y, z'
loop_
 _atom_site_type_symbol
 _atom_site_label
 _atom_site_symmetry_multiplicity
 _atom_site_fract_x
 _atom_site_fract_y
 _atom_site_fract_z
 _atom_site_occupancy
  Ho  Ho0  1  0.000000  0.579506  0.118279  1
  Ho  Ho1  1  0.000000  0.418629  0.881692  1
  Ho  Ho2  1  0.500000  0.084160  0.380162  1
  Ho  Ho3  1  0.500000  0.921497  0.621025  1
  Re  Re4  1  0.000000  0.141783  0.050891  1
  Re  Re5  1  0.000000  0.855889  0.948965  1
  Re  Re6  1  0.500000  0.638730  0.447425  1
  Re  Re7  1  0.500000  0.357975  0.551411  1
  Re  Re8  1  0.000000  0.732952  0.320898  1
  Re  Re9  1  0.000000  0.265770  0.679093  1
  Re  Re10  1  0.500000  0.233324  0.177296  1
  Re  Re11  1  0.500000  0.764613  0.822302  1
  Re  Re12  1  0.000000  0.428748  0.417382  1
  Re  Re13  1  0.000000  0.568577  0.582049  1
  Re  Re14  1  0.500000  0.928602  0.081790  1
  Re  Re15  1  0.500000  0.069011  0.918138  1
  Re  Re16  1  0.000000  0.986831  0.205601  1
  Re  Re17  1  0.000000  0.010898  0.794353  1
  Re  Re18  1  0.500000  0.486579  0.292906  1
  Re  Re19  1  0.500000  0.511648  0.706280  1
  Si  Si20  1  0.000000  0.172540  0.524099  1
  Si  Si21  1  0.500000  0.334398  0.022428  1
  Si  Si22  1  0.500000  0.663522  0.977405  1
  Si  Si23  1  0.000000  0.289313  0.272216  1
  Si  Si24  1  0.000000  0.709068  0.727126  1
  Si  Si25  1  0.500000  0.788582  0.226592  1
  Si  Si26  1  0.500000  0.210266  0.773762  1
  Ge  Ge27  1  0.000000  0.846593  0.478437  1
