# generated using pymatgen
data_K5Ca2Ga(ReN4)2
_symmetry_space_group_name_H-M   'P 1'
_cell_length_a   6.26434984
_cell_length_b   6.64442618
_cell_length_c   10.03429564
_cell_angle_alpha   67.83424642
_cell_angle_beta   89.56242946
_cell_angle_gamma   71.86448921
_symmetry_Int_Tables_number   1
_chemical_formula_structural   K5Ca2Ga(ReN4)2
_chemical_formula_sum   'K5 Ca2 Ga1 Re2 N8'
_cell_volume   364.70464180
_cell_formula_units_Z   1
loop_
 _symmetry_equiv_pos_site_id
 _symmetry_equiv_pos_as_xyz
  1  'x, y, z'
loop_
 _atom_site_type_symbol
 _atom_site_label
 _atom_site_symmetry_multiplicity
 _atom_site_fract_x
 _atom_site_fract_y
 _atom_site_fract_z
 _atom_site_occupancy
  K  K0  1  0.677196  0.678919  0.180212  1
  K  K1  1  0.315387  0.338193  0.809929  1
  K  K2  1  0.768602  0.256880  0.027512  1
  K  K3  1  0.203193  0.763045  0.979060  1
  K  K4  1  0.787063  0.446025  0.598746  1
  Ca  Ca5  1  0.282730  0.884464  0.577373  1
  Ca  Ca6  1  0.749436  0.058134  0.421255  1
  Ga  Ga7  1  0.250397  0.428860  0.406602  1
  Re  Re8  1  0.692349  0.884102  0.746686  1
  Re  Re9  1  0.299849  0.137939  0.251047  1
  N  N10  1  0.954832  0.802342  0.664985  1
  N  N11  1  0.058573  0.206640  0.357671  1
  N  N12  1  0.741282  0.951348  0.899914  1
  N  N13  1  0.228317  0.130540  0.080332  1
  N  N14  1  0.556233  0.661571  0.789046  1
  N  N15  1  0.435660  0.360598  0.240052  1
  N  N16  1  0.507835  0.866489  0.374786  1
  N  N17  1  0.491068  0.143913  0.594793  1
