# generated using pymatgen
data_Tl2In3AgS6
_symmetry_space_group_name_H-M   'P 1'
_cell_length_a   8.01065681
_cell_length_b   8.01065631
_cell_length_c   20.67435900
_cell_angle_alpha   84.24027464
_cell_angle_beta   84.24027500
_cell_angle_gamma   89.89623786
_symmetry_Int_Tables_number   1
_chemical_formula_structural   Tl2In3AgS6
_chemical_formula_sum   'Tl8 In12 Ag4 S24'
_cell_volume   1313.27893607
_cell_formula_units_Z   4
loop_
 _symmetry_equiv_pos_site_id
 _symmetry_equiv_pos_as_xyz
  1  'x, y, z'
loop_
 _atom_site_type_symbol
 _atom_site_label
 _atom_site_symmetry_multiplicity
 _atom_site_fract_x
 _atom_site_fract_y
 _atom_site_fract_z
 _atom_site_occupancy
  Tl  Tl0  1  0.895040  0.794105  0.917447  1
  Tl  Tl1  1  0.205895  0.104960  0.582553  1
  Tl  Tl2  1  0.104960  0.205895  0.082553  1
  Tl  Tl3  1  0.794105  0.895040  0.417447  1
  Tl  Tl4  1  0.391894  0.747884  0.917550  1
  Tl  Tl5  1  0.252116  0.608106  0.582450  1
  Tl  Tl6  1  0.608106  0.252116  0.082450  1
  Tl  Tl7  1  0.747884  0.391894  0.417550  1
  In  In8  1  0.277018  0.150813  0.388710  1
  In  In9  1  0.849187  0.722982  0.111290  1
  In  In10  1  0.722982  0.849187  0.611290  1
  In  In11  1  0.150813  0.277018  0.888710  1
  In  In12  1  0.279186  0.649492  0.389144  1
  In  In13  1  0.350508  0.720814  0.110856  1
  In  In14  1  0.720814  0.350508  0.610856  1
  In  In15  1  0.649492  0.279186  0.889144  1
  In  In16  1  0.065836  0.439170  0.249854  1
  In  In17  1  0.560830  0.934164  0.250146  1
  In  In18  1  0.934164  0.560830  0.750146  1
  In  In19  1  0.439170  0.065836  0.749854  1
  Ag  Ag20  1  0.563210  0.436790  0.250000  1
  Ag  Ag21  1  0.436790  0.563210  0.750000  1
  Ag  Ag22  1  0.064232  0.935768  0.250000  1
  Ag  Ag23  1  0.935768  0.064232  0.750000  1
  S  S24  1  0.305706  0.381132  0.459773  1
  S  S25  1  0.618868  0.694294  0.040227  1
  S  S26  1  0.694294  0.618868  0.540227  1
  S  S27  1  0.381132  0.305706  0.959773  1
  S  S28  1  0.214486  0.881686  0.459441  1
  S  S29  1  0.118314  0.785514  0.040559  1
  S  S30  1  0.785514  0.118314  0.540559  1
  S  S31  1  0.881686  0.214486  0.959441  1
  S  S32  1  0.175697  0.028565  0.825006  1
  S  S33  1  0.971435  0.824303  0.674994  1
  S  S34  1  0.824303  0.971435  0.174994  1
  S  S35  1  0.028565  0.175697  0.325006  1
  S  S36  1  0.441163  0.841612  0.674823  1
  S  S37  1  0.158388  0.558837  0.825177  1
  S  S38  1  0.558837  0.158388  0.325177  1
  S  S39  1  0.841612  0.441163  0.174823  1
  S  S40  1  0.661481  0.029601  0.825521  1
  S  S41  1  0.970399  0.338519  0.674479  1
  S  S42  1  0.338519  0.970399  0.174479  1
  S  S43  1  0.029601  0.661481  0.325521  1
  S  S44  1  0.439172  0.327687  0.674726  1
  S  S45  1  0.672313  0.560828  0.825274  1
  S  S46  1  0.560828  0.672313  0.325274  1
  S  S47  1  0.327687  0.439172  0.174726  1
