# generated using pymatgen
data_Dy8Hf12Si15As
_symmetry_space_group_name_H-M   'P 1'
_cell_length_a   7.27226280
_cell_length_b   7.28488956
_cell_length_c   13.37544629
_cell_angle_alpha   89.73263544
_cell_angle_beta   89.96106813
_cell_angle_gamma   89.94266772
_symmetry_Int_Tables_number   1
_chemical_formula_structural   Dy8Hf12Si15As
_chemical_formula_sum   'Dy8 Hf12 Si15 As1'
_cell_volume   708.59123157
_cell_formula_units_Z   1
loop_
 _symmetry_equiv_pos_site_id
 _symmetry_equiv_pos_as_xyz
  1  'x, y, z'
loop_
 _atom_site_type_symbol
 _atom_site_label
 _atom_site_symmetry_multiplicity
 _atom_site_fract_x
 _atom_site_fract_y
 _atom_site_fract_z
 _atom_site_occupancy
  Dy  Dy0  1  0.995722  0.345238  0.215099  1
  Dy  Dy1  1  0.004828  0.656016  0.715270  1
  Dy  Dy2  1  0.152870  0.499187  0.466662  1
  Dy  Dy3  1  0.506775  0.842644  0.033842  1
  Dy  Dy4  1  0.844289  0.503535  0.964845  1
  Dy  Dy5  1  0.496062  0.154733  0.535627  1
  Dy  Dy6  1  0.344912  0.995988  0.785183  1
  Dy  Dy7  1  0.654641  0.004122  0.284245  1
  Hf  Hf8  1  0.174436  0.175116  0.000127  1
  Hf  Hf9  1  0.826276  0.826332  0.500063  1
  Hf  Hf10  1  0.325105  0.677665  0.249777  1
  Hf  Hf11  1  0.674457  0.325415  0.750034  1
  Hf  Hf12  1  0.149381  0.995649  0.372945  1
  Hf  Hf13  1  0.850950  0.003795  0.874737  1
  Hf  Hf14  1  0.503253  0.649947  0.624789  1
  Hf  Hf15  1  0.351163  0.496413  0.875411  1
  Hf  Hf16  1  0.494927  0.348220  0.125100  1
  Hf  Hf17  1  0.653084  0.506500  0.376775  1
  Hf  Hf18  1  0.996734  0.149866  0.625564  1
  Hf  Hf19  1  0.000973  0.848262  0.124351  1
  Si  Si20  1  0.637366  0.705237  0.816741  1
  Si  Si21  1  0.203964  0.863465  0.566421  1
  Si  Si22  1  0.137305  0.794783  0.932391  1
  Si  Si23  1  0.795016  0.138320  0.067318  1
  Si  Si24  1  0.862782  0.204308  0.432608  1
  Si  Si25  1  0.295690  0.362142  0.682800  1
  Si  Si26  1  0.703103  0.635926  0.183603  1
  Si  Si27  1  0.293679  0.039054  0.179881  1
  Si  Si28  1  0.705404  0.951087  0.685665  1
  Si  Si29  1  0.451580  0.795718  0.435829  1
  Si  Si30  1  0.204738  0.547979  0.064522  1
  Si  Si31  1  0.549118  0.204798  0.935775  1
  Si  Si32  1  0.794567  0.451320  0.565164  1
  Si  Si33  1  0.049217  0.295140  0.814159  1
  Si  Si34  1  0.951871  0.705149  0.314644  1
  As  As35  1  0.363762  0.300931  0.322029  1
