# generated using pymatgen
data_Pr8Tl3Ir
_symmetry_space_group_name_H-M   'P 1'
_cell_length_a   10.82443500
_cell_length_b   10.82443552
_cell_length_c   7.53440600
_cell_angle_alpha   90.00000000
_cell_angle_beta   90.00000000
_cell_angle_gamma   120.00000148
_symmetry_Int_Tables_number   1
_chemical_formula_structural   Pr8Tl3Ir
_chemical_formula_sum   'Pr16 Tl6 Ir2'
_cell_volume   764.52226655
_cell_formula_units_Z   2
loop_
 _symmetry_equiv_pos_site_id
 _symmetry_equiv_pos_as_xyz
  1  'x, y, z'
loop_
 _atom_site_type_symbol
 _atom_site_label
 _atom_site_symmetry_multiplicity
 _atom_site_fract_x
 _atom_site_fract_y
 _atom_site_fract_z
 _atom_site_occupancy
  Pr  Pr0  1  0.174331  0.825669  0.988990  1
  Pr  Pr1  1  0.348659  0.174331  0.488990  1
  Pr  Pr2  1  0.825669  0.651341  0.488990  1
  Pr  Pr3  1  0.174331  0.348659  0.988990  1
  Pr  Pr4  1  0.651341  0.825669  0.988990  1
  Pr  Pr5  1  0.825669  0.174331  0.488990  1
  Pr  Pr6  1  0.333333  0.666667  0.674165  1
  Pr  Pr7  1  0.666667  0.333333  0.174165  1
  Pr  Pr8  1  0.461744  0.538256  0.287332  1
  Pr  Pr9  1  0.923487  0.461744  0.787332  1
  Pr  Pr10  1  0.538256  0.076513  0.787332  1
  Pr  Pr11  1  0.461744  0.923487  0.287332  1
  Pr  Pr12  1  0.076513  0.538256  0.287332  1
  Pr  Pr13  1  0.538256  0.461744  0.787332  1
  Pr  Pr14  1  0.000000  0.000000  0.274326  1
  Pr  Pr15  1  0.000000  0.000000  0.774326  1
  Tl  Tl16  1  0.164362  0.835638  0.543158  1
  Tl  Tl17  1  0.328723  0.164362  0.043158  1
  Tl  Tl18  1  0.835638  0.671277  0.043158  1
  Tl  Tl19  1  0.164362  0.328723  0.543158  1
  Tl  Tl20  1  0.671277  0.835638  0.543158  1
  Tl  Tl21  1  0.835638  0.164362  0.043158  1
  Ir  Ir22  1  0.333333  0.666667  0.056070  1
  Ir  Ir23  1  0.666667  0.333333  0.556070  1
