# generated using pymatgen
data_YbY(AlPd)2
_symmetry_space_group_name_H-M   'P 1'
_cell_length_a   4.33539000
_cell_length_b   7.02569600
_cell_length_c   7.90484500
_cell_angle_alpha   90.00000000
_cell_angle_beta   90.00000000
_cell_angle_gamma   90.00000000
_symmetry_Int_Tables_number   1
_chemical_formula_structural   YbY(AlPd)2
_chemical_formula_sum   'Yb2 Y2 Al4 Pd4'
_cell_volume   240.77471873
_cell_formula_units_Z   2
loop_
 _symmetry_equiv_pos_site_id
 _symmetry_equiv_pos_as_xyz
  1  'x, y, z'
loop_
 _atom_site_type_symbol
 _atom_site_label
 _atom_site_symmetry_multiplicity
 _atom_site_fract_x
 _atom_site_fract_y
 _atom_site_fract_z
 _atom_site_occupancy
  Yb  Yb0  1  0.750000  0.968579  0.677795  1
  Yb  Yb1  1  0.750000  0.468579  0.822205  1
  Y  Y2  1  0.250000  0.031209  0.321301  1
  Y  Y3  1  0.250000  0.531209  0.178699  1
  Al  Al4  1  0.250000  0.139764  0.940166  1
  Al  Al5  1  0.250000  0.639764  0.559834  1
  Al  Al6  1  0.750000  0.860431  0.063876  1
  Al  Al7  1  0.750000  0.360431  0.436124  1
  Pd  Pd8  1  0.250000  0.275288  0.621343  1
  Pd  Pd9  1  0.250000  0.775288  0.878657  1
  Pd  Pd10  1  0.750000  0.724728  0.377858  1
  Pd  Pd11  1  0.750000  0.224728  0.122142  1
