# generated using pymatgen
data_Ba6Lu2RuO12
_symmetry_space_group_name_H-M   'P 1'
_cell_length_a   9.42338376
_cell_length_b   9.42338286
_cell_length_c   7.44045551
_cell_angle_alpha   67.74054627
_cell_angle_beta   67.74054883
_cell_angle_gamma   36.90041718
_symmetry_Int_Tables_number   1
_chemical_formula_structural   Ba6Lu2RuO12
_chemical_formula_sum   'Ba6 Lu2 Ru1 O12'
_cell_volume   363.70678702
_cell_formula_units_Z   1
loop_
 _symmetry_equiv_pos_site_id
 _symmetry_equiv_pos_as_xyz
  1  'x, y, z'
loop_
 _atom_site_type_symbol
 _atom_site_label
 _atom_site_symmetry_multiplicity
 _atom_site_fract_x
 _atom_site_fract_y
 _atom_site_fract_z
 _atom_site_occupancy
  Ba  Ba0  1  0.878285  0.878285  0.711862  1
  Ba  Ba1  1  0.217402  0.217402  0.708820  1
  Ba  Ba2  1  0.548722  0.548722  0.707090  1
  Ba  Ba3  1  0.451278  0.451278  0.292910  1
  Ba  Ba4  1  0.782598  0.782598  0.291180  1
  Ba  Ba5  1  0.121715  0.121715  0.288138  1
  Lu  Lu6  1  0.666003  0.666003  0.999587  1
  Lu  Lu7  1  0.333997  0.333997  0.000413  1
  Ru  Ru8  1  0.000000  0.000000  0.000000  1
  O  O9  1  0.951877  0.951877  0.292403  1
  O  O10  1  0.282407  0.282407  0.326149  1
  O  O11  1  0.607567  0.607567  0.327285  1
  O  O12  1  0.392433  0.392433  0.672715  1
  O  O13  1  0.717593  0.717593  0.673851  1
  O  O14  1  0.048123  0.048123  0.707597  1
  O  O15  1  0.500000  0.000000  0.000000  1
  O  O16  1  0.844569  0.309256  0.000878  1
  O  O17  1  0.155431  0.690744  0.999122  1
  O  O18  1  0.000000  0.500000  0.000000  1
  O  O19  1  0.309256  0.844569  0.000878  1
  O  O20  1  0.690744  0.155431  0.999122  1
