# generated using pymatgen
data_Sr3(AcSi2)2
_symmetry_space_group_name_H-M   'P 1'
_cell_length_a   8.37650500
_cell_length_b   8.37650500
_cell_length_c   16.01510600
_cell_angle_alpha   90.00000000
_cell_angle_beta   90.00000000
_cell_angle_gamma   90.00000000
_symmetry_Int_Tables_number   1
_chemical_formula_structural   Sr3(AcSi2)2
_chemical_formula_sum   'Sr12 Ac8 Si16'
_cell_volume   1123.71330136
_cell_formula_units_Z   4
loop_
 _symmetry_equiv_pos_site_id
 _symmetry_equiv_pos_as_xyz
  1  'x, y, z'
loop_
 _atom_site_type_symbol
 _atom_site_label
 _atom_site_symmetry_multiplicity
 _atom_site_fract_x
 _atom_site_fract_y
 _atom_site_fract_z
 _atom_site_occupancy
  Sr  Sr0  1  0.309693  0.309693  0.000000  1
  Sr  Sr1  1  0.190307  0.809693  0.250000  1
  Sr  Sr2  1  0.809693  0.190307  0.750000  1
  Sr  Sr3  1  0.690307  0.690307  0.500000  1
  Sr  Sr4  1  0.374460  0.010320  0.452668  1
  Sr  Sr5  1  0.489680  0.874460  0.702668  1
  Sr  Sr6  1  0.510320  0.125540  0.202668  1
  Sr  Sr7  1  0.874460  0.489680  0.297332  1
  Sr  Sr8  1  0.125540  0.510320  0.797332  1
  Sr  Sr9  1  0.625540  0.989680  0.952668  1
  Sr  Sr10  1  0.010320  0.374460  0.547332  1
  Sr  Sr11  1  0.989680  0.625540  0.047332  1
  Ac  Ac12  1  0.127185  0.987305  0.875315  1
  Ac  Ac13  1  0.512695  0.627185  0.125315  1
  Ac  Ac14  1  0.487305  0.372815  0.625315  1
  Ac  Ac15  1  0.627185  0.512695  0.874685  1
  Ac  Ac16  1  0.372815  0.487305  0.374685  1
  Ac  Ac17  1  0.872815  0.012695  0.375315  1
  Ac  Ac18  1  0.987305  0.127185  0.124685  1
  Ac  Ac19  1  0.012695  0.872815  0.624685  1
  Si  Si20  1  0.209235  0.156002  0.698745  1
  Si  Si21  1  0.343998  0.709235  0.948745  1
  Si  Si22  1  0.656002  0.290765  0.448745  1
  Si  Si23  1  0.709235  0.343998  0.051255  1
  Si  Si24  1  0.290765  0.656002  0.551255  1
  Si  Si25  1  0.790765  0.843998  0.198745  1
  Si  Si26  1  0.156002  0.209235  0.301255  1
  Si  Si27  1  0.843998  0.790765  0.801255  1
  Si  Si28  1  0.277111  0.911994  0.055008  1
  Si  Si29  1  0.588006  0.777111  0.305008  1
  Si  Si30  1  0.411994  0.222889  0.805008  1
  Si  Si31  1  0.777111  0.588006  0.694992  1
  Si  Si32  1  0.222889  0.411994  0.194992  1
  Si  Si33  1  0.722889  0.088006  0.555008  1
  Si  Si34  1  0.911994  0.277111  0.944992  1
  Si  Si35  1  0.088006  0.722889  0.444992  1
