# generated using pymatgen
data_Gd2Ho8CuPPb6
_symmetry_space_group_name_H-M   'P 1'
_cell_length_a   9.14413600
_cell_length_b   9.14413594
_cell_length_c   6.69513500
_cell_angle_alpha   90.00000000
_cell_angle_beta   90.00000000
_cell_angle_gamma   120.00000022
_symmetry_Int_Tables_number   1
_chemical_formula_structural   Gd2Ho8CuPPb6
_chemical_formula_sum   'Gd2 Ho8 Cu1 P1 Pb6'
_cell_volume   484.81418655
_cell_formula_units_Z   1
loop_
 _symmetry_equiv_pos_site_id
 _symmetry_equiv_pos_as_xyz
  1  'x, y, z'
loop_
 _atom_site_type_symbol
 _atom_site_label
 _atom_site_symmetry_multiplicity
 _atom_site_fract_x
 _atom_site_fract_y
 _atom_site_fract_z
 _atom_site_occupancy
  Gd  Gd0  1  0.246546  0.000000  0.738030  1
  Gd  Gd1  1  0.753454  0.000000  0.261970  1
  Ho  Ho2  1  0.000000  0.246546  0.738030  1
  Ho  Ho3  1  0.000000  0.753454  0.261970  1
  Ho  Ho4  1  0.753454  0.753454  0.738030  1
  Ho  Ho5  1  0.246546  0.246546  0.261970  1
  Ho  Ho6  1  0.333333  0.666667  0.500000  1
  Ho  Ho7  1  0.666667  0.333333  0.500000  1
  Ho  Ho8  1  0.666667  0.333333  0.000000  1
  Ho  Ho9  1  0.333333  0.666667  0.000000  1
  Cu  Cu10  1  0.000000  0.000000  0.000000  1
  P  P11  1  0.000000  0.000000  0.500000  1
  Pb  Pb12  1  0.605396  0.000000  0.749751  1
  Pb  Pb13  1  0.394604  0.000000  0.250249  1
  Pb  Pb14  1  0.000000  0.605396  0.749751  1
  Pb  Pb15  1  0.000000  0.394604  0.250249  1
  Pb  Pb16  1  0.394604  0.394604  0.749751  1
  Pb  Pb17  1  0.605396  0.605396  0.250249  1
