# generated using pymatgen
data_NdHo4Pd14Au
_symmetry_space_group_name_H-M   'P 1'
_cell_length_a   4.17889700
_cell_length_b   4.13131200
_cell_length_c   20.86454300
_cell_angle_alpha   90.00000000
_cell_angle_beta   90.00000000
_cell_angle_gamma   90.00000000
_symmetry_Int_Tables_number   1
_chemical_formula_structural   NdHo4Pd14Au
_chemical_formula_sum   'Nd1 Ho4 Pd14 Au1'
_cell_volume   360.21229979
_cell_formula_units_Z   1
loop_
 _symmetry_equiv_pos_site_id
 _symmetry_equiv_pos_as_xyz
  1  'x, y, z'
loop_
 _atom_site_type_symbol
 _atom_site_label
 _atom_site_symmetry_multiplicity
 _atom_site_fract_x
 _atom_site_fract_y
 _atom_site_fract_z
 _atom_site_occupancy
  Nd  Nd0  1  0.000000  0.000000  0.000000  1
  Ho  Ho1  1  0.000000  0.000000  0.201729  1
  Ho  Ho2  1  0.000000  0.000000  0.396587  1
  Ho  Ho3  1  0.000000  0.000000  0.603413  1
  Ho  Ho4  1  0.000000  0.000000  0.798271  1
  Pd  Pd5  1  0.500000  0.500000  0.000000  1
  Pd  Pd6  1  0.500000  0.500000  0.201088  1
  Pd  Pd7  1  0.500000  0.500000  0.399633  1
  Pd  Pd8  1  0.500000  0.500000  0.600367  1
  Pd  Pd9  1  0.500000  0.500000  0.798912  1
  Pd  Pd10  1  0.500000  0.000000  0.102963  1
  Pd  Pd11  1  0.500000  0.000000  0.300626  1
  Pd  Pd12  1  0.500000  0.000000  0.699374  1
  Pd  Pd13  1  0.500000  0.000000  0.897037  1
  Pd  Pd14  1  0.000000  0.500000  0.103057  1
  Pd  Pd15  1  0.000000  0.500000  0.300494  1
  Pd  Pd16  1  0.000000  0.500000  0.500000  1
  Pd  Pd17  1  0.000000  0.500000  0.699506  1
  Pd  Pd18  1  0.000000  0.500000  0.896943  1
  Au  Au19  1  0.500000  0.000000  0.500000  1
