# generated using pymatgen
data_Mn2VSi12Mo17
_symmetry_space_group_name_H-M   'P 1'
_cell_length_a   7.24764643
_cell_length_b   7.24764785
_cell_length_c   13.63280100
_cell_angle_alpha   90.00000000
_cell_angle_beta   90.00000000
_cell_angle_gamma   140.79094153
_symmetry_Int_Tables_number   1
_chemical_formula_structural   Mn2VSi12Mo17
_chemical_formula_sum   'Mn2 V1 Si12 Mo17'
_cell_volume   452.68965077
_cell_formula_units_Z   1
loop_
 _symmetry_equiv_pos_site_id
 _symmetry_equiv_pos_as_xyz
  1  'x, y, z'
loop_
 _atom_site_type_symbol
 _atom_site_label
 _atom_site_symmetry_multiplicity
 _atom_site_fract_x
 _atom_site_fract_y
 _atom_site_fract_z
 _atom_site_occupancy
  Mn  Mn0  1  0.499583  0.499583  0.000000  1
  Mn  Mn1  1  0.000855  0.000855  0.000000  1
  V  V2  1  0.500847  0.500847  0.500000  1
  Si  Si3  1  0.250037  0.750123  0.751168  1
  Si  Si4  1  0.750123  0.250037  0.248832  1
  Si  Si5  1  0.750123  0.250037  0.751168  1
  Si  Si6  1  0.250037  0.750123  0.248832  1
  Si  Si7  1  0.255626  0.255626  0.664818  1
  Si  Si8  1  0.750065  0.750065  0.156198  1
  Si  Si9  1  0.255626  0.255626  0.335182  1
  Si  Si10  1  0.750065  0.750065  0.843802  1
  Si  Si11  1  0.579232  0.909257  0.500000  1
  Si  Si12  1  0.092421  0.406915  0.000000  1
  Si  Si13  1  0.909257  0.579232  0.500000  1
  Si  Si14  1  0.406915  0.092421  0.000000  1
  Mo  Mo15  1  0.074169  0.426877  0.400630  1
  Mo  Mo16  1  0.571849  0.927797  0.903663  1
  Mo  Mo17  1  0.426877  0.074169  0.599370  1
  Mo  Mo18  1  0.927797  0.571849  0.096337  1
  Mo  Mo19  1  0.846745  0.652462  0.678920  1
  Mo  Mo20  1  0.347790  0.152191  0.175729  1
  Mo  Mo21  1  0.652462  0.846745  0.321080  1
  Mo  Mo22  1  0.152191  0.347790  0.824271  1
  Mo  Mo23  1  0.652462  0.846745  0.678920  1
  Mo  Mo24  1  0.152191  0.347790  0.175729  1
  Mo  Mo25  1  0.846745  0.652462  0.321080  1
  Mo  Mo26  1  0.347790  0.152191  0.824271  1
  Mo  Mo27  1  0.426877  0.074169  0.400630  1
  Mo  Mo28  1  0.927797  0.571849  0.903663  1
  Mo  Mo29  1  0.074169  0.426877  0.599370  1
  Mo  Mo30  1  0.571849  0.927797  0.096337  1
  Mo  Mo31  1  0.999423  0.999423  0.500000  1
