# generated using pymatgen
data_Eu(PN2)2
_symmetry_space_group_name_H-M   'P 1'
_cell_length_a   10.08306500
_cell_length_b   10.08306500
_cell_length_c   10.08306500
_cell_angle_alpha   90.00000000
_cell_angle_beta   90.00000000
_cell_angle_gamma   90.00000000
_symmetry_Int_Tables_number   1
_chemical_formula_structural   Eu(PN2)2
_chemical_formula_sum   'Eu12 P24 N48'
_cell_volume   1025.12706696
_cell_formula_units_Z   12
loop_
 _symmetry_equiv_pos_site_id
 _symmetry_equiv_pos_as_xyz
  1  'x, y, z'
loop_
 _atom_site_type_symbol
 _atom_site_label
 _atom_site_symmetry_multiplicity
 _atom_site_fract_x
 _atom_site_fract_y
 _atom_site_fract_z
 _atom_site_occupancy
  Eu  Eu0  1  0.369833  0.130167  0.869833  1
  Eu  Eu1  1  0.130167  0.869833  0.369833  1
  Eu  Eu2  1  0.869833  0.369833  0.130167  1
  Eu  Eu3  1  0.630167  0.630167  0.630167  1
  Eu  Eu4  1  0.630167  0.869833  0.130167  1
  Eu  Eu5  1  0.869833  0.130167  0.630167  1
  Eu  Eu6  1  0.130167  0.630167  0.869833  1
  Eu  Eu7  1  0.369833  0.369833  0.369833  1
  Eu  Eu8  1  0.000000  0.500000  0.500000  1
  Eu  Eu9  1  0.500000  0.500000  0.000000  1
  Eu  Eu10  1  0.500000  0.000000  0.500000  1
  Eu  Eu11  1  0.000000  0.000000  0.000000  1
  P  P12  1  0.686677  0.339545  0.388077  1
  P  P13  1  0.186677  0.160455  0.611923  1
  P  P14  1  0.313323  0.839545  0.111923  1
  P  P15  1  0.160455  0.611923  0.186677  1
  P  P16  1  0.111923  0.313323  0.839545  1
  P  P17  1  0.611923  0.186677  0.160455  1
  P  P18  1  0.339545  0.388077  0.686677  1
  P  P19  1  0.388077  0.686677  0.339545  1
  P  P20  1  0.839545  0.111923  0.313323  1
  P  P21  1  0.660455  0.888077  0.813323  1
  P  P22  1  0.888077  0.813323  0.660455  1
  P  P23  1  0.813323  0.660455  0.888077  1
  P  P24  1  0.313323  0.660455  0.611923  1
  P  P25  1  0.813323  0.839545  0.388077  1
  P  P26  1  0.686677  0.160455  0.888077  1
  P  P27  1  0.839545  0.388077  0.813323  1
  P  P28  1  0.888077  0.686677  0.160455  1
  P  P29  1  0.388077  0.813323  0.839545  1
  P  P30  1  0.660455  0.611923  0.313323  1
  P  P31  1  0.611923  0.313323  0.660455  1
  P  P32  1  0.160455  0.888077  0.686677  1
  P  P33  1  0.339545  0.111923  0.186677  1
  P  P34  1  0.111923  0.186677  0.339545  1
  P  P35  1  0.186677  0.339545  0.111923  1
  N  N36  1  0.720032  0.498064  0.413734  1
  N  N37  1  0.220032  0.001936  0.586266  1
  N  N38  1  0.279968  0.998064  0.086266  1
  N  N39  1  0.001936  0.586266  0.220032  1
  N  N40  1  0.086266  0.279968  0.998064  1
  N  N41  1  0.586266  0.220032  0.001936  1
  N  N42  1  0.498064  0.413734  0.720032  1
  N  N43  1  0.413734  0.720032  0.498064  1
  N  N44  1  0.998064  0.086266  0.279968  1
  N  N45  1  0.501936  0.913734  0.779968  1
  N  N46  1  0.913734  0.779968  0.501936  1
  N  N47  1  0.779968  0.501936  0.913734  1
  N  N48  1  0.279968  0.501936  0.586266  1
  N  N49  1  0.779968  0.998064  0.413734  1
  N  N50  1  0.720032  0.001936  0.913734  1
  N  N51  1  0.998064  0.413734  0.779968  1
  N  N52  1  0.913734  0.720032  0.001936  1
  N  N53  1  0.413734  0.779968  0.998064  1
  N  N54  1  0.501936  0.586266  0.279968  1
  N  N55  1  0.586266  0.279968  0.501936  1
  N  N56  1  0.171971  0.741397  0.614157  1
  N  N57  1  0.001936  0.913734  0.720032  1
  N  N58  1  0.086266  0.220032  0.498064  1
  N  N59  1  0.220032  0.498064  0.086266  1
  N  N60  1  0.828029  0.258603  0.385843  1
  N  N61  1  0.328029  0.241397  0.614157  1
  N  N62  1  0.171971  0.758603  0.114157  1
  N  N63  1  0.241397  0.614157  0.328029  1
  N  N64  1  0.114157  0.171971  0.758603  1
  N  N65  1  0.614157  0.328029  0.241397  1
  N  N66  1  0.258603  0.385843  0.828029  1
  N  N67  1  0.385843  0.828029  0.258603  1
  N  N68  1  0.758603  0.114157  0.171971  1
  N  N69  1  0.741397  0.885843  0.671971  1
  N  N70  1  0.885843  0.671971  0.741397  1
  N  N71  1  0.671971  0.741397  0.885843  1
  N  N72  1  0.328029  0.258603  0.114157  1
  N  N73  1  0.114157  0.328029  0.258603  1
  N  N74  1  0.258603  0.114157  0.328029  1
  N  N75  1  0.241397  0.885843  0.828029  1
  N  N76  1  0.614157  0.171971  0.741397  1
  N  N77  1  0.741397  0.614157  0.171971  1
  N  N78  1  0.385843  0.671971  0.758603  1
  N  N79  1  0.885843  0.828029  0.241397  1
  N  N80  1  0.758603  0.385843  0.671971  1
  N  N81  1  0.828029  0.241397  0.885843  1
  N  N82  1  0.671971  0.758603  0.385843  1
  N  N83  1  0.498064  0.086266  0.220032  1
