# generated using pymatgen
data_Sr9Gd11Pb16
_symmetry_space_group_name_H-M   'P 1'
_cell_length_a   8.18805300
_cell_length_b   8.70595213
_cell_length_c   16.37409700
_cell_angle_alpha   90.00000000
_cell_angle_beta   90.00000000
_cell_angle_gamma   89.86793456
_symmetry_Int_Tables_number   1
_chemical_formula_structural   Sr9Gd11Pb16
_chemical_formula_sum   'Sr9 Gd11 Pb16'
_cell_volume   1167.22108708
_cell_formula_units_Z   1
loop_
 _symmetry_equiv_pos_site_id
 _symmetry_equiv_pos_as_xyz
  1  'x, y, z'
loop_
 _atom_site_type_symbol
 _atom_site_label
 _atom_site_symmetry_multiplicity
 _atom_site_fract_x
 _atom_site_fract_y
 _atom_site_fract_z
 _atom_site_occupancy
  Sr  Sr0  1  0.495799  0.679909  0.592648  1
  Sr  Sr1  1  0.996662  0.819213  0.907413  1
  Sr  Sr2  1  0.501587  0.318699  0.091433  1
  Sr  Sr3  1  0.001864  0.181910  0.410508  1
  Sr  Sr4  1  0.501587  0.318699  0.408567  1
  Sr  Sr5  1  0.001864  0.181910  0.089492  1
  Sr  Sr6  1  0.495799  0.679909  0.907352  1
  Sr  Sr7  1  0.996662  0.819213  0.592587  1
  Sr  Sr8  1  0.671591  0.012988  0.250000  1
  Gd  Gd9  1  0.671036  0.160325  0.624557  1
  Gd  Gd10  1  0.170226  0.340155  0.876162  1
  Gd  Gd11  1  0.330224  0.839522  0.121540  1
  Gd  Gd12  1  0.830520  0.662859  0.378290  1
  Gd  Gd13  1  0.330224  0.839522  0.378460  1
  Gd  Gd14  1  0.830520  0.662859  0.121710  1
  Gd  Gd15  1  0.671036  0.160325  0.875443  1
  Gd  Gd16  1  0.170226  0.340155  0.623838  1
  Gd  Gd17  1  0.831437  0.505432  0.750000  1
  Gd  Gd18  1  0.331753  0.992831  0.750000  1
  Gd  Gd19  1  0.171723  0.493914  0.250000  1
  Pb  Pb20  1  0.671967  0.956061  0.460392  1
  Pb  Pb21  1  0.172520  0.541267  0.043542  1
  Pb  Pb22  1  0.327421  0.041774  0.955290  1
  Pb  Pb23  1  0.826988  0.458261  0.544585  1
  Pb  Pb24  1  0.327421  0.041774  0.544710  1
  Pb  Pb25  1  0.826988  0.458261  0.955415  1
  Pb  Pb26  1  0.671967  0.956061  0.039608  1
  Pb  Pb27  1  0.172520  0.541267  0.456458  1
  Pb  Pb28  1  0.471535  0.365724  0.750000  1
  Pb  Pb29  1  0.973217  0.132318  0.750000  1
  Pb  Pb30  1  0.529947  0.626181  0.250000  1
  Pb  Pb31  1  0.036873  0.858359  0.250000  1
  Pb  Pb32  1  0.701591  0.859682  0.750000  1
  Pb  Pb33  1  0.201183  0.638412  0.750000  1
  Pb  Pb34  1  0.280948  0.138289  0.250000  1
  Pb  Pb35  1  0.804573  0.375956  0.250000  1
