# generated using pymatgen
data_DyY7Mg2(SiB4)4
_symmetry_space_group_name_H-M   'P 1'
_cell_length_a   7.18156701
_cell_length_b   7.18156701
_cell_length_c   7.85922000
_cell_angle_alpha   89.99764545
_cell_angle_beta   89.99764545
_cell_angle_gamma   89.99497373
_symmetry_Int_Tables_number   1
_chemical_formula_structural   DyY7Mg2(SiB4)4
_chemical_formula_sum   'Dy1 Y7 Mg2 Si4 B16'
_cell_volume   405.33852042
_cell_formula_units_Z   1
loop_
 _symmetry_equiv_pos_site_id
 _symmetry_equiv_pos_as_xyz
  1  'x, y, z'
loop_
 _atom_site_type_symbol
 _atom_site_label
 _atom_site_symmetry_multiplicity
 _atom_site_fract_x
 _atom_site_fract_y
 _atom_site_fract_z
 _atom_site_occupancy
  Dy  Dy0  1  0.682984  0.182984  0.233424  1
  Y  Y1  1  0.317084  0.817084  0.766118  1
  Y  Y2  1  0.317113  0.817113  0.233823  1
  Y  Y3  1  0.817093  0.682895  0.233745  1
  Y  Y4  1  0.817067  0.682889  0.766256  1
  Y  Y5  1  0.682939  0.182939  0.766132  1
  Y  Y6  1  0.182889  0.317067  0.766256  1
  Y  Y7  1  0.182895  0.317093  0.233745  1
  Mg  Mg8  1  0.999961  0.000028  0.499969  1
  Mg  Mg9  1  0.500028  0.499961  0.499969  1
  Si  Si10  1  0.115309  0.615309  0.499968  1
  Si  Si11  1  0.884595  0.384595  0.499898  1
  Si  Si12  1  0.384828  0.115320  0.499891  1
  Si  Si13  1  0.615320  0.884828  0.499891  1
  B  B14  1  0.173594  0.039850  0.999993  1
  B  B15  1  0.826335  0.960274  0.000111  1
  B  B16  1  0.960077  0.173663  0.000029  1
  B  B17  1  0.326361  0.539804  0.000033  1
  B  B18  1  0.039804  0.826361  0.000033  1
  B  B19  1  0.673663  0.460077  0.000029  1
  B  B20  1  0.539850  0.673594  0.999993  1
  B  B21  1  0.460274  0.326335  0.000111  1
  B  B22  1  0.089561  0.589561  0.999987  1
  B  B23  1  0.910349  0.410349  0.000148  1
  B  B24  1  0.410449  0.089636  0.000155  1
  B  B25  1  0.589636  0.910449  0.000155  1
  B  B26  1  0.999847  0.000077  0.162083  1
  B  B27  1  0.000019  0.999999  0.837986  1
  B  B28  1  0.499999  0.500019  0.837986  1
  B  B29  1  0.500077  0.499847  0.162083  1
