# generated using pymatgen
data_Yb17Hf3Sb16
_symmetry_space_group_name_H-M   'P 1'
_cell_length_a   8.16681879
_cell_length_b   15.61884600
_cell_length_c   8.16656030
_cell_angle_alpha   90.00000000
_cell_angle_beta   89.68402944
_cell_angle_gamma   90.00000000
_symmetry_Int_Tables_number   1
_chemical_formula_structural   Yb17Hf3Sb16
_chemical_formula_sum   'Yb17 Hf3 Sb16'
_cell_volume   1041.68025328
_cell_formula_units_Z   1
loop_
 _symmetry_equiv_pos_site_id
 _symmetry_equiv_pos_as_xyz
  1  'x, y, z'
loop_
 _atom_site_type_symbol
 _atom_site_label
 _atom_site_symmetry_multiplicity
 _atom_site_fract_x
 _atom_site_fract_y
 _atom_site_fract_z
 _atom_site_occupancy
  Yb  Yb0  1  0.739290  0.750000  0.000684  1
  Yb  Yb1  1  0.918827  0.110833  0.156969  1
  Yb  Yb2  1  0.918827  0.389167  0.156969  1
  Yb  Yb3  1  0.401406  0.610994  0.152907  1
  Yb  Yb4  1  0.401406  0.889006  0.152907  1
  Yb  Yb5  1  0.896577  0.610542  0.341719  1
  Yb  Yb6  1  0.896577  0.889458  0.341719  1
  Yb  Yb7  1  0.421366  0.107518  0.340652  1
  Yb  Yb8  1  0.421366  0.392482  0.340652  1
  Yb  Yb9  1  0.580446  0.606237  0.662869  1
  Yb  Yb10  1  0.580446  0.893763  0.662869  1
  Yb  Yb11  1  0.102558  0.112503  0.654249  1
  Yb  Yb12  1  0.102558  0.387497  0.654249  1
  Yb  Yb13  1  0.603205  0.115662  0.845742  1
  Yb  Yb14  1  0.603205  0.384338  0.845742  1
  Yb  Yb15  1  0.076314  0.606587  0.843369  1
  Yb  Yb16  1  0.076314  0.893413  0.843369  1
  Hf  Hf17  1  0.239187  0.750000  0.499467  1
  Hf  Hf18  1  0.760448  0.250000  0.499780  1
  Hf  Hf19  1  0.260302  0.250000  0.000097  1
  Sb  Sb20  1  0.741417  0.548295  0.006769  1
  Sb  Sb21  1  0.741417  0.951705  0.006769  1
  Sb  Sb22  1  0.104720  0.750000  0.154833  1
  Sb  Sb23  1  0.608928  0.250000  0.153904  1
  Sb  Sb24  1  0.111304  0.250000  0.347776  1
  Sb  Sb25  1  0.583455  0.750000  0.367639  1
  Sb  Sb26  1  0.241730  0.558711  0.494965  1
  Sb  Sb27  1  0.241730  0.941289  0.494965  1
  Sb  Sb28  1  0.759002  0.061202  0.505108  1
  Sb  Sb29  1  0.759002  0.438798  0.505108  1
  Sb  Sb30  1  0.409686  0.250000  0.645951  1
  Sb  Sb31  1  0.895498  0.750000  0.637745  1
  Sb  Sb32  1  0.372851  0.750000  0.841222  1
  Sb  Sb33  1  0.912065  0.250000  0.850870  1
  Sb  Sb34  1  0.258293  0.061001  0.994698  1
  Sb  Sb35  1  0.258293  0.438999  0.994698  1
