# generated using pymatgen
data_Dy2YU5(PS)8
_symmetry_space_group_name_H-M   'P 1'
_cell_length_a   5.33690400
_cell_length_b   5.34779900
_cell_length_c   16.25109401
_cell_angle_alpha   90.00401028
_cell_angle_beta   90.00017965
_cell_angle_gamma   89.99983912
_symmetry_Int_Tables_number   1
_chemical_formula_structural   Dy2YU5(PS)8
_chemical_formula_sum   'Dy2 Y1 U5 P8 S8'
_cell_volume   463.81743340
_cell_formula_units_Z   1
loop_
 _symmetry_equiv_pos_site_id
 _symmetry_equiv_pos_as_xyz
  1  'x, y, z'
loop_
 _atom_site_type_symbol
 _atom_site_label
 _atom_site_symmetry_multiplicity
 _atom_site_fract_x
 _atom_site_fract_y
 _atom_site_fract_z
 _atom_site_occupancy
  Dy  Dy0  1  0.750003  0.000446  0.369631  1
  Dy  Dy1  1  0.750004  0.500418  0.131118  1
  Y  Y2  1  0.249998  0.500447  0.356574  1
  U  U3  1  0.250006  0.000348  0.141898  1
  U  U4  1  0.750002  0.499568  0.642048  1
  U  U5  1  0.749994  0.999569  0.859561  1
  U  U6  1  0.250009  0.999617  0.641689  1
  U  U7  1  0.249992  0.499688  0.860165  1
  P  P8  1  0.026688  0.221563  0.996757  1
  P  P9  1  0.472934  0.722104  0.504562  1
  P  P10  1  0.473219  0.778482  0.996778  1
  P  P11  1  0.027218  0.277741  0.504521  1
  P  P12  1  0.026784  0.778506  0.996776  1
  P  P13  1  0.472784  0.277750  0.504523  1
  P  P14  1  0.473273  0.221532  0.996757  1
  P  P15  1  0.027084  0.722087  0.504561  1
  S  S16  1  0.250003  0.500370  0.177896  1
  S  S17  1  0.250004  0.000465  0.315833  1
  S  S18  1  0.749991  0.499513  0.820147  1
  S  S19  1  0.750009  0.999546  0.682324  1
  S  S20  1  0.249996  0.999625  0.815504  1
  S  S21  1  0.250001  0.499593  0.685953  1
  S  S22  1  0.750006  0.000510  0.182780  1
  S  S23  1  0.749998  0.500510  0.311643  1
