# generated using pymatgen
data_Sc3B2Ir2Rh3
_symmetry_space_group_name_H-M   'P 1'
_cell_length_a   9.59527000
_cell_length_b   9.47507900
_cell_length_c   3.11263700
_cell_angle_alpha   90.00000000
_cell_angle_beta   90.00000000
_cell_angle_gamma   90.00000000
_symmetry_Int_Tables_number   1
_chemical_formula_structural   Sc3B2Ir2Rh3
_chemical_formula_sum   'Sc6 B4 Ir4 Rh6'
_cell_volume   282.98832271
_cell_formula_units_Z   2
loop_
 _symmetry_equiv_pos_site_id
 _symmetry_equiv_pos_as_xyz
  1  'x, y, z'
loop_
 _atom_site_type_symbol
 _atom_site_label
 _atom_site_symmetry_multiplicity
 _atom_site_fract_x
 _atom_site_fract_y
 _atom_site_fract_z
 _atom_site_occupancy
  Sc  Sc0  1  0.324659  0.825522  0.000000  1
  Sc  Sc1  1  0.675342  0.174478  0.000000  1
  Sc  Sc2  1  0.824659  0.674479  0.000000  1
  Sc  Sc3  1  0.175341  0.325522  0.000000  1
  Sc  Sc4  1  0.000000  0.000000  0.000000  1
  Sc  Sc5  1  0.500000  0.500000  0.000000  1
  B  B6  1  0.122705  0.620910  0.000000  1
  B  B7  1  0.877296  0.379090  0.000000  1
  B  B8  1  0.622705  0.879091  0.000000  1
  B  B9  1  0.377295  0.120910  0.000000  1
  Ir  Ir10  1  0.223871  0.071960  0.500000  1
  Ir  Ir11  1  0.776130  0.928041  0.500000  1
  Ir  Ir12  1  0.723871  0.428040  0.500000  1
  Ir  Ir13  1  0.276130  0.571959  0.500000  1
  Rh  Rh14  1  0.430265  0.278432  0.500000  1
  Rh  Rh15  1  0.569734  0.721569  0.500000  1
  Rh  Rh16  1  0.069735  0.778432  0.500000  1
  Rh  Rh17  1  0.930266  0.221569  0.500000  1
  Rh  Rh18  1  0.000000  0.500000  0.500000  1
  Rh  Rh19  1  0.500000  0.000000  0.500000  1
