# generated using pymatgen
data_Nd7ThAlPd24
_symmetry_space_group_name_H-M   'P 1'
_cell_length_a   8.49363337
_cell_length_b   8.49363272
_cell_length_c   8.49363285
_cell_angle_alpha   89.87584730
_cell_angle_beta   90.12415429
_cell_angle_gamma   90.12415433
_symmetry_Int_Tables_number   1
_chemical_formula_structural   Nd7ThAlPd24
_chemical_formula_sum   'Nd7 Th1 Al1 Pd24'
_cell_volume   612.74167271
_cell_formula_units_Z   1
loop_
 _symmetry_equiv_pos_site_id
 _symmetry_equiv_pos_as_xyz
  1  'x, y, z'
loop_
 _atom_site_type_symbol
 _atom_site_label
 _atom_site_symmetry_multiplicity
 _atom_site_fract_x
 _atom_site_fract_y
 _atom_site_fract_z
 _atom_site_occupancy
  Nd  Nd0  1  0.250927  0.252238  0.252238  1
  Nd  Nd1  1  0.747930  0.747694  0.747694  1
  Nd  Nd2  1  0.747762  0.749073  0.252238  1
  Nd  Nd3  1  0.747762  0.252238  0.749073  1
  Nd  Nd4  1  0.252306  0.252070  0.747694  1
  Nd  Nd5  1  0.252306  0.747694  0.252070  1
  Nd  Nd6  1  0.252484  0.747516  0.747516  1
  Th  Th7  1  0.746300  0.253700  0.253700  1
  Al  Al8  1  0.001614  0.998386  0.998386  1
  Pd  Pd9  1  0.259823  0.499221  0.000051  1
  Pd  Pd10  1  0.740165  0.498140  0.003791  1
  Pd  Pd11  1  0.996209  0.259835  0.498140  1
  Pd  Pd12  1  0.501860  0.259835  0.003791  1
  Pd  Pd13  1  0.999949  0.740177  0.499221  1
  Pd  Pd14  1  0.500779  0.740177  0.000051  1
  Pd  Pd15  1  0.501860  0.003791  0.259835  1
  Pd  Pd16  1  0.259823  0.000051  0.499221  1
  Pd  Pd17  1  0.500779  0.000051  0.740177  1
  Pd  Pd18  1  0.740165  0.003791  0.498140  1
  Pd  Pd19  1  0.996209  0.498140  0.259835  1
  Pd  Pd20  1  0.999949  0.499221  0.740177  1
  Pd  Pd21  1  0.252684  0.499472  0.499472  1
  Pd  Pd22  1  0.746814  0.497861  0.497861  1
  Pd  Pd23  1  0.502139  0.253186  0.497861  1
  Pd  Pd24  1  0.500528  0.747316  0.499472  1
  Pd  Pd25  1  0.502139  0.497861  0.253186  1
  Pd  Pd26  1  0.500528  0.499472  0.747316  1
  Pd  Pd27  1  0.291095  0.999959  0.999959  1
  Pd  Pd28  1  0.711076  0.002022  0.002022  1
  Pd  Pd29  1  0.997978  0.288924  0.002022  1
  Pd  Pd30  1  0.000041  0.708905  0.999959  1
  Pd  Pd31  1  0.997978  0.002022  0.288924  1
  Pd  Pd32  1  0.000041  0.999959  0.708905  1
