# generated using pymatgen
data_Dy11Ho9(Ir3Rh)3
_symmetry_space_group_name_H-M   'P 1'
_cell_length_a   10.85584400
_cell_length_b   10.85565801
_cell_length_c   6.37400100
_cell_angle_alpha   89.99628145
_cell_angle_beta   90.00159696
_cell_angle_gamma   89.99863832
_symmetry_Int_Tables_number   1
_chemical_formula_structural   Dy11Ho9(Ir3Rh)3
_chemical_formula_sum   'Dy11 Ho9 Ir9 Rh3'
_cell_volume   751.15899673
_cell_formula_units_Z   1
loop_
 _symmetry_equiv_pos_site_id
 _symmetry_equiv_pos_as_xyz
  1  'x, y, z'
loop_
 _atom_site_type_symbol
 _atom_site_label
 _atom_site_symmetry_multiplicity
 _atom_site_fract_x
 _atom_site_fract_y
 _atom_site_fract_z
 _atom_site_occupancy
  Dy  Dy0  1  0.290225  0.088509  0.378730  1
  Dy  Dy1  1  0.290147  0.911208  0.878637  1
  Dy  Dy2  1  0.709860  0.088778  0.878641  1
  Dy  Dy3  1  0.709787  0.911460  0.378771  1
  Dy  Dy4  1  0.588822  0.790141  0.878656  1
  Dy  Dy5  1  0.588483  0.209733  0.378845  1
  Dy  Dy6  1  0.411538  0.790277  0.378833  1
  Dy  Dy7  1  0.411256  0.209803  0.878734  1
  Dy  Dy8  1  0.208883  0.411615  0.620259  1
  Dy  Dy9  1  0.209192  0.588595  0.122440  1
  Dy  Dy10  1  0.790808  0.411468  0.122425  1
  Ho  Ho11  1  0.791231  0.588379  0.620049  1
  Ho  Ho12  1  0.911413  0.709205  0.122382  1
  Ho  Ho13  1  0.911658  0.291124  0.620085  1
  Ho  Ho14  1  0.088209  0.708918  0.620066  1
  Ho  Ho15  1  0.088513  0.290762  0.122380  1
  Ho  Ho16  1  0.999982  0.999986  0.500394  1
  Ho  Ho17  1  0.000001  0.000004  0.000211  1
  Ho  Ho18  1  0.500019  0.500004  0.000155  1
  Ho  Ho19  1  0.500109  0.500045  0.500380  1
  Ir  Ir20  1  0.846055  0.153289  0.249957  1
  Ir  Ir21  1  0.846156  0.846272  0.750027  1
  Ir  Ir22  1  0.153811  0.153548  0.750102  1
  Ir  Ir23  1  0.153954  0.846707  0.249972  1
  Ir  Ir24  1  0.653615  0.346082  0.749701  1
  Ir  Ir25  1  0.653402  0.654115  0.249953  1
  Ir  Ir26  1  0.346702  0.345808  0.249640  1
  Ir  Ir27  1  0.346439  0.654043  0.749792  1
  Ir  Ir28  1  0.999837  0.500065  0.377591  1
  Rh  Rh29  1  0.499998  0.000010  0.121873  1
  Rh  Rh30  1  0.500001  0.999992  0.621983  1
  Rh  Rh31  1  0.999893  0.500056  0.878339  1
