# generated using pymatgen
data_Dy2Tm5Lu3(CoSb2)2
_symmetry_space_group_name_H-M   'P 1'
_cell_length_a   7.74889613
_cell_length_b   8.72748315
_cell_length_c   12.02569900
_cell_angle_alpha   90.00000000
_cell_angle_beta   90.00000000
_cell_angle_gamma   90.02103311
_symmetry_Int_Tables_number   1
_chemical_formula_structural   Dy2Tm5Lu3(CoSb2)2
_chemical_formula_sum   'Dy4 Tm10 Lu6 Co4 Sb8'
_cell_volume   813.27825108
_cell_formula_units_Z   2
loop_
 _symmetry_equiv_pos_site_id
 _symmetry_equiv_pos_as_xyz
  1  'x, y, z'
loop_
 _atom_site_type_symbol
 _atom_site_label
 _atom_site_symmetry_multiplicity
 _atom_site_fract_x
 _atom_site_fract_y
 _atom_site_fract_z
 _atom_site_occupancy
  Dy  Dy0  1  0.621328  0.750122  0.307443  1
  Dy  Dy1  1  0.878672  0.749878  0.807443  1
  Dy  Dy2  1  0.378377  0.249929  0.692549  1
  Dy  Dy3  1  0.121623  0.250071  0.192549  1
  Tm  Tm4  1  0.155054  0.749931  0.203358  1
  Tm  Tm5  1  0.344946  0.750069  0.703358  1
  Tm  Tm6  1  0.845147  0.249995  0.796632  1
  Tm  Tm7  1  0.654853  0.250005  0.296632  1
  Tm  Tm8  1  0.449888  0.749939  0.998023  1
  Tm  Tm9  1  0.050112  0.750061  0.498023  1
  Tm  Tm10  1  0.549769  0.250115  0.001962  1
  Tm  Tm11  1  0.950231  0.249885  0.501962  1
  Tm  Tm12  1  0.823344  0.963660  0.065130  1
  Tm  Tm13  1  0.676656  0.536340  0.565130  1
  Lu  Lu14  1  0.824040  0.536365  0.065015  1
  Lu  Lu15  1  0.675960  0.963635  0.565015  1
  Lu  Lu16  1  0.176134  0.036400  0.934891  1
  Lu  Lu17  1  0.323866  0.463600  0.434891  1
  Lu  Lu18  1  0.175923  0.463599  0.934970  1
  Lu  Lu19  1  0.324077  0.036401  0.434970  1
  Co  Co20  1  0.432785  0.750242  0.491398  1
  Co  Co21  1  0.067215  0.749758  0.991398  1
  Co  Co22  1  0.566646  0.249786  0.508478  1
  Co  Co23  1  0.933354  0.250214  0.008478  1
  Sb  Sb24  1  0.930162  0.508820  0.328167  1
  Sb  Sb25  1  0.569838  0.991180  0.828167  1
  Sb  Sb26  1  0.069786  0.008885  0.671836  1
  Sb  Sb27  1  0.430214  0.491115  0.171836  1
  Sb  Sb28  1  0.070009  0.491089  0.671896  1
  Sb  Sb29  1  0.429991  0.008911  0.171896  1
  Sb  Sb30  1  0.930267  0.991181  0.328252  1
  Sb  Sb31  1  0.569733  0.508819  0.828252  1
