# generated using pymatgen
data_Y2Ga2PdPt
_symmetry_space_group_name_H-M   'P 1'
_cell_length_a   4.46129900
_cell_length_b   6.96048600
_cell_length_c   7.68377500
_cell_angle_alpha   90.00000000
_cell_angle_beta   90.00000000
_cell_angle_gamma   90.00000000
_symmetry_Int_Tables_number   1
_chemical_formula_structural   Y2Ga2PdPt
_chemical_formula_sum   'Y4 Ga4 Pd2 Pt2'
_cell_volume   238.60279925
_cell_formula_units_Z   2
loop_
 _symmetry_equiv_pos_site_id
 _symmetry_equiv_pos_as_xyz
  1  'x, y, z'
loop_
 _atom_site_type_symbol
 _atom_site_label
 _atom_site_symmetry_multiplicity
 _atom_site_fract_x
 _atom_site_fract_y
 _atom_site_fract_z
 _atom_site_occupancy
  Y  Y0  1  0.250000  0.986891  0.298990  1
  Y  Y1  1  0.250000  0.486891  0.201010  1
  Y  Y2  1  0.750000  0.016587  0.699962  1
  Y  Y3  1  0.750000  0.516587  0.800038  1
  Ga  Ga4  1  0.250000  0.321902  0.575019  1
  Ga  Ga5  1  0.250000  0.821902  0.924981  1
  Ga  Ga6  1  0.750000  0.679014  0.424624  1
  Ga  Ga7  1  0.750000  0.179014  0.075376  1
  Pd  Pd8  1  0.250000  0.217006  0.902565  1
  Pd  Pd9  1  0.250000  0.717006  0.597435  1
  Pt  Pt10  1  0.750000  0.778600  0.095861  1
  Pt  Pt11  1  0.750000  0.278600  0.404139  1
