# generated using pymatgen
data_Ta4Nb2N3
_symmetry_space_group_name_H-M   'P 1'
_cell_length_a   5.31265845
_cell_length_b   5.31265875
_cell_length_c   4.99831654
_cell_angle_alpha   89.87583645
_cell_angle_beta   89.87583516
_cell_angle_gamma   119.96417312
_symmetry_Int_Tables_number   1
_chemical_formula_structural   Ta4Nb2N3
_chemical_formula_sum   'Ta4 Nb2 N3'
_cell_volume   122.21677047
_cell_formula_units_Z   1
loop_
 _symmetry_equiv_pos_site_id
 _symmetry_equiv_pos_as_xyz
  1  'x, y, z'
loop_
 _atom_site_type_symbol
 _atom_site_label
 _atom_site_symmetry_multiplicity
 _atom_site_fract_x
 _atom_site_fract_y
 _atom_site_fract_z
 _atom_site_occupancy
  Ta  Ta0  1  0.665636  0.665637  0.246568  1
  Ta  Ta1  1  0.001108  0.666510  0.751521  1
  Ta  Ta2  1  0.333788  0.333786  0.755070  1
  Ta  Ta3  1  0.666513  0.001110  0.751522  1
  Nb  Nb4  1  0.334553  0.000425  0.246121  1
  Nb  Nb5  1  0.000424  0.334553  0.246121  1
  N  N6  1  0.335724  0.665588  0.502669  1
  N  N7  1  0.665587  0.335724  0.502669  1
  N  N8  1  0.996666  0.996666  0.997735  1
