# generated using pymatgen
data_Tm12TcNi2Os
_symmetry_space_group_name_H-M   'P 1'
_cell_length_a   6.17231849
_cell_length_b   7.08042753
_cell_length_c   9.14434200
_cell_angle_alpha   90.00000000
_cell_angle_beta   90.00000000
_cell_angle_gamma   89.69396267
_symmetry_Int_Tables_number   1
_chemical_formula_structural   Tm12TcNi2Os
_chemical_formula_sum   'Tm12 Tc1 Ni2 Os1'
_cell_volume   399.62631144
_cell_formula_units_Z   1
loop_
 _symmetry_equiv_pos_site_id
 _symmetry_equiv_pos_as_xyz
  1  'x, y, z'
loop_
 _atom_site_type_symbol
 _atom_site_label
 _atom_site_symmetry_multiplicity
 _atom_site_fract_x
 _atom_site_fract_y
 _atom_site_fract_z
 _atom_site_occupancy
  Tm  Tm0  1  0.638373  0.030749  0.250000  1
  Tm  Tm1  1  0.362344  0.968596  0.750000  1
  Tm  Tm2  1  0.117604  0.459117  0.750000  1
  Tm  Tm3  1  0.877508  0.541710  0.250000  1
  Tm  Tm4  1  0.177426  0.178918  0.066533  1
  Tm  Tm5  1  0.823206  0.823089  0.933686  1
  Tm  Tm6  1  0.669049  0.320580  0.941307  1
  Tm  Tm7  1  0.823206  0.823089  0.566314  1
  Tm  Tm8  1  0.332210  0.678304  0.059082  1
  Tm  Tm9  1  0.177426  0.178918  0.433467  1
  Tm  Tm10  1  0.332210  0.678304  0.440918  1
  Tm  Tm11  1  0.669049  0.320580  0.558693  1
  Tc  Tc12  1  0.535093  0.611959  0.750000  1
  Ni  Ni13  1  0.949024  0.112862  0.750000  1
  Ni  Ni14  1  0.052730  0.888163  0.250000  1
  Os  Os15  1  0.463542  0.385062  0.250000  1
