# generated using pymatgen
data_La11Nd(GePd)12
_symmetry_space_group_name_H-M   'P 1'
_cell_length_a   4.56757100
_cell_length_b   7.75868780
_cell_length_c   22.40765345
_cell_angle_alpha   90.03752731
_cell_angle_beta   90.00000000
_cell_angle_gamma   90.00000000
_symmetry_Int_Tables_number   1
_chemical_formula_structural   La11Nd(GePd)12
_chemical_formula_sum   'La11 Nd1 Ge12 Pd12'
_cell_volume   794.09026109
_cell_formula_units_Z   1
loop_
 _symmetry_equiv_pos_site_id
 _symmetry_equiv_pos_as_xyz
  1  'x, y, z'
loop_
 _atom_site_type_symbol
 _atom_site_label
 _atom_site_symmetry_multiplicity
 _atom_site_fract_x
 _atom_site_fract_y
 _atom_site_fract_z
 _atom_site_occupancy
  La  La0  1  0.250000  0.712060  0.333579  1
  La  La1  1  0.750000  0.289216  0.666445  1
  La  La2  1  0.750000  0.210586  0.167295  1
  La  La3  1  0.250000  0.789123  0.832644  1
  La  La4  1  0.250000  0.791652  0.166707  1
  La  La5  1  0.750000  0.208267  0.833365  1
  La  La6  1  0.750000  0.292283  0.334212  1
  La  La7  1  0.250000  0.708946  0.665927  1
  La  La8  1  0.250000  0.717649  0.002572  1
  La  La9  1  0.750000  0.282072  0.997598  1
  La  La10  1  0.750000  0.214744  0.497896  1
  Nd  Nd11  1  0.250000  0.781203  0.502111  1
  Ge  Ge12  1  0.250000  0.089739  0.071366  1
  Ge  Ge13  1  0.750000  0.910572  0.928429  1
  Ge  Ge14  1  0.750000  0.590714  0.430962  1
  Ge  Ge15  1  0.250000  0.412596  0.571161  1
  Ge  Ge16  1  0.250000  0.084752  0.271068  1
  Ge  Ge17  1  0.750000  0.915696  0.728673  1
  Ge  Ge18  1  0.750000  0.584264  0.229822  1
  Ge  Ge19  1  0.250000  0.416103  0.770317  1
  Ge  Ge20  1  0.250000  0.084361  0.397055  1
  Ge  Ge21  1  0.750000  0.914465  0.602362  1
  Ge  Ge22  1  0.750000  0.584253  0.104414  1
  Ge  Ge23  1  0.250000  0.416041  0.895501  1
  Pd  Pd24  1  0.250000  0.418229  0.239225  1
  Pd  Pd25  1  0.750000  0.581922  0.760959  1
  Pd  Pd26  1  0.750000  0.917570  0.261960  1
  Pd  Pd27  1  0.250000  0.081490  0.737947  1
  Pd  Pd28  1  0.250000  0.417628  0.434166  1
  Pd  Pd29  1  0.750000  0.583841  0.563957  1
  Pd  Pd30  1  0.750000  0.916329  0.067055  1
  Pd  Pd31  1  0.250000  0.083358  0.933102  1
  Pd  Pd32  1  0.250000  0.420482  0.093141  1
  Pd  Pd33  1  0.750000  0.578917  0.906915  1
  Pd  Pd34  1  0.750000  0.919935  0.408218  1
  Pd  Pd35  1  0.250000  0.078941  0.591873  1
