# generated using pymatgen
data_Li2Y3AlSi2Pd
_symmetry_space_group_name_H-M   'P 1'
_cell_length_a   7.04030084
_cell_length_b   7.02756318
_cell_length_c   4.22168500
_cell_angle_alpha   90.00000000
_cell_angle_beta   90.00000000
_cell_angle_gamma   119.94017954
_symmetry_Int_Tables_number   1
_chemical_formula_structural   Li2Y3AlSi2Pd
_chemical_formula_sum   'Li2 Y3 Al1 Si2 Pd1'
_cell_volume   180.99805422
_cell_formula_units_Z   1
loop_
 _symmetry_equiv_pos_site_id
 _symmetry_equiv_pos_as_xyz
  1  'x, y, z'
loop_
 _atom_site_type_symbol
 _atom_site_label
 _atom_site_symmetry_multiplicity
 _atom_site_fract_x
 _atom_site_fract_y
 _atom_site_fract_z
 _atom_site_occupancy
  Li  Li0  1  0.761654  0.001846  0.500000  1
  Li  Li1  1  0.238346  0.240192  0.500000  1
  Y  Y2  1  0.421797  0.005967  0.000000  1
  Y  Y3  1  0.000000  0.417101  0.000000  1
  Y  Y4  1  0.578203  0.584171  0.000000  1
  Al  Al5  1  0.000000  0.760985  0.500000  1
  Si  Si6  1  0.674010  0.344240  0.500000  1
  Si  Si7  1  0.325991  0.670230  0.500000  1
  Pd  Pd8  1  0.000000  0.975270  0.000000  1
