# generated using pymatgen
data_BaMn7AlO16
_symmetry_space_group_name_H-M   'P 1'
_cell_length_a   5.86925711
_cell_length_b   7.12428651
_cell_length_c   7.21979305
_cell_angle_alpha   88.41332272
_cell_angle_beta   78.23051803
_cell_angle_gamma   77.89759956
_symmetry_Int_Tables_number   1
_chemical_formula_structural   BaMn7AlO16
_chemical_formula_sum   'Ba1 Mn7 Al1 O16'
_cell_volume   288.93902106
_cell_formula_units_Z   1
loop_
 _symmetry_equiv_pos_site_id
 _symmetry_equiv_pos_as_xyz
  1  'x, y, z'
loop_
 _atom_site_type_symbol
 _atom_site_label
 _atom_site_symmetry_multiplicity
 _atom_site_fract_x
 _atom_site_fract_y
 _atom_site_fract_z
 _atom_site_occupancy
  Ba  Ba0  1  0.002400  0.993122  0.001172  1
  Mn  Mn1  1  0.082141  0.506728  0.182353  1
  Mn  Mn2  1  0.173570  0.815630  0.511434  1
  Mn  Mn3  1  0.669354  0.817108  0.517437  1
  Mn  Mn4  1  0.339318  0.186049  0.471148  1
  Mn  Mn5  1  0.837229  0.185224  0.483481  1
  Mn  Mn6  1  0.431798  0.486178  0.820176  1
  Mn  Mn7  1  0.924606  0.491850  0.819685  1
  Al  Al8  1  0.579240  0.516716  0.185298  1
  O  O9  1  0.832828  0.644147  0.058095  1
  O  O10  1  0.323745  0.642888  0.058190  1
  O  O11  1  0.982016  0.696785  0.384701  1
  O  O12  1  0.486299  0.699324  0.383449  1
  O  O13  1  0.857710  0.954427  0.643461  1
  O  O14  1  0.351354  0.958592  0.636577  1
  O  O15  1  0.346743  0.373130  0.282815  1
  O  O16  1  0.837655  0.365268  0.281480  1
  O  O17  1  0.167522  0.636883  0.719875  1
  O  O18  1  0.663221  0.636592  0.721330  1
  O  O19  1  0.143029  0.035977  0.349063  1
  O  O20  1  0.668738  0.037133  0.353537  1
  O  O21  1  0.019708  0.300738  0.620345  1
  O  O22  1  0.529320  0.303652  0.617132  1
  O  O23  1  0.176174  0.353881  0.948186  1
  O  O24  1  0.681385  0.361975  0.949579  1
