# generated using pymatgen
data_Tm2Ni7HgB2
_symmetry_space_group_name_H-M   'P 1'
_cell_length_a   4.98002900
_cell_length_b   4.97980597
_cell_length_c   14.18190300
_cell_angle_alpha   90.00000000
_cell_angle_beta   90.00000000
_cell_angle_gamma   120.00314030
_symmetry_Int_Tables_number   1
_chemical_formula_structural   Tm2Ni7HgB2
_chemical_formula_sum   'Tm4 Ni14 Hg2 B4'
_cell_volume   304.57600912
_cell_formula_units_Z   2
loop_
 _symmetry_equiv_pos_site_id
 _symmetry_equiv_pos_as_xyz
  1  'x, y, z'
loop_
 _atom_site_type_symbol
 _atom_site_label
 _atom_site_symmetry_multiplicity
 _atom_site_fract_x
 _atom_site_fract_y
 _atom_site_fract_z
 _atom_site_occupancy
  Tm  Tm0  1  0.666665  0.333328  0.471093  1
  Tm  Tm1  1  0.333335  0.666672  0.971093  1
  Tm  Tm2  1  0.333333  0.666667  0.743290  1
  Tm  Tm3  1  0.666667  0.333333  0.243290  1
  Ni  Ni4  1  0.000000  0.999999  0.999998  1
  Ni  Ni5  1  0.000000  0.000001  0.499998  1
  Ni  Ni6  1  0.165577  0.331154  0.148299  1
  Ni  Ni7  1  0.834423  0.668846  0.648299  1
  Ni  Ni8  1  0.668841  0.834420  0.148295  1
  Ni  Ni9  1  0.165577  0.834422  0.148295  1
  Ni  Ni10  1  0.834423  0.165578  0.648295  1
  Ni  Ni11  1  0.331159  0.165580  0.648295  1
  Ni  Ni12  1  0.834193  0.668386  0.851838  1
  Ni  Ni13  1  0.834201  0.165799  0.851827  1
  Ni  Ni14  1  0.331606  0.165803  0.851831  1
  Ni  Ni15  1  0.668394  0.834197  0.351831  1
  Ni  Ni16  1  0.165799  0.834201  0.351827  1
  Ni  Ni17  1  0.165807  0.331614  0.351838  1
  Hg  Hg18  1  0.333333  0.666668  0.532483  1
  Hg  Hg19  1  0.666667  0.333332  0.032483  1
  B  B20  1  0.333335  0.666667  0.250232  1
  B  B21  1  0.666665  0.333333  0.750232  1
  B  B22  1  0.999998  0.999996  0.252519  1
  B  B23  1  0.000002  0.000004  0.752519  1
