# generated using pymatgen
data_Nd5Sm2As12Pd17
_symmetry_space_group_name_H-M   'P 1'
_cell_length_a   12.77886133
_cell_length_b   12.77886139
_cell_length_c   13.97054154
_cell_angle_alpha   68.62592021
_cell_angle_beta   68.62591991
_cell_angle_gamma   18.80264221
_symmetry_Int_Tables_number   1
_chemical_formula_structural   Nd5Sm2As12Pd17
_chemical_formula_sum   'Nd5 Sm2 As12 Pd17'
_cell_volume   683.29677581
_cell_formula_units_Z   1
loop_
 _symmetry_equiv_pos_site_id
 _symmetry_equiv_pos_as_xyz
  1  'x, y, z'
loop_
 _atom_site_type_symbol
 _atom_site_label
 _atom_site_symmetry_multiplicity
 _atom_site_fract_x
 _atom_site_fract_y
 _atom_site_fract_z
 _atom_site_occupancy
  Nd  Nd0  1  0.500000  0.500000  0.500000  1
  Nd  Nd1  1  0.233444  0.233444  0.312686  1
  Nd  Nd2  1  0.766556  0.766556  0.687314  1
  Nd  Nd3  1  0.418752  0.418752  0.259724  1
  Nd  Nd4  1  0.581248  0.581248  0.740276  1
  Sm  Sm5  1  0.367469  0.367469  0.000278  1
  Sm  Sm6  1  0.632531  0.632531  0.999722  1
  As  As7  1  0.062329  0.062329  0.925168  1
  As  As8  1  0.937671  0.937671  0.074832  1
  As  As9  1  0.884767  0.884767  0.830342  1
  As  As10  1  0.115233  0.115233  0.169658  1
  As  As11  1  0.189453  0.189453  0.620447  1
  As  As12  1  0.810547  0.810547  0.379553  1
  As  As13  1  0.365733  0.365733  0.579567  1
  As  As14  1  0.634267  0.634267  0.420433  1
  As  As15  1  0.011954  0.011954  0.668429  1
  As  As16  1  0.988046  0.988046  0.331571  1
  As  As17  1  0.233053  0.233053  0.883354  1
  As  As18  1  0.766947  0.766947  0.116646  1
  Pd  Pd19  1  0.838554  0.838554  0.192678  1
  Pd  Pd20  1  0.161446  0.161446  0.807322  1
  Pd  Pd21  1  0.025171  0.025171  0.127070  1
  Pd  Pd22  1  0.974829  0.974829  0.872930  1
  Pd  Pd23  1  0.887624  0.887624  0.459074  1
  Pd  Pd24  1  0.112376  0.112376  0.540926  1
  Pd  Pd25  1  0.500000  0.500000  0.000000  1
  Pd  Pd26  1  0.547941  0.547941  0.253128  1
  Pd  Pd27  1  0.452059  0.452059  0.746872  1
  Pd  Pd28  1  0.295294  0.295294  0.490146  1
  Pd  Pd29  1  0.704706  0.704706  0.509854  1
  Pd  Pd30  1  0.663972  0.663972  0.224684  1
  Pd  Pd31  1  0.336028  0.336028  0.775316  1
  Pd  Pd32  1  0.909791  0.909791  0.638554  1
  Pd  Pd33  1  0.090209  0.090209  0.361446  1
  Pd  Pd34  1  0.219915  0.219915  0.071091  1
  Pd  Pd35  1  0.780085  0.780085  0.928909  1
