# generated using pymatgen
data_Sc3AlCu2C
_symmetry_space_group_name_H-M   'P 1'
_cell_length_a   8.58292244
_cell_length_b   8.58292239
_cell_length_c   8.58292100
_cell_angle_alpha   60.00000149
_cell_angle_beta   60.00000170
_cell_angle_gamma   60.00000315
_symmetry_Int_Tables_number   1
_chemical_formula_structural   Sc3AlCu2C
_chemical_formula_sum   'Sc12 Al4 Cu8 C4'
_cell_volume   447.08542450
_cell_formula_units_Z   4
loop_
 _symmetry_equiv_pos_site_id
 _symmetry_equiv_pos_as_xyz
  1  'x, y, z'
loop_
 _atom_site_type_symbol
 _atom_site_label
 _atom_site_symmetry_multiplicity
 _atom_site_fract_x
 _atom_site_fract_y
 _atom_site_fract_z
 _atom_site_occupancy
  Sc  Sc0  1  0.694406  0.305594  0.305594  1
  Sc  Sc1  1  0.944406  0.944406  0.555594  1
  Sc  Sc2  1  0.694406  0.694406  0.305594  1
  Sc  Sc3  1  0.694406  0.305594  0.694406  1
  Sc  Sc4  1  0.305594  0.694406  0.305594  1
  Sc  Sc5  1  0.555594  0.944406  0.555594  1
  Sc  Sc6  1  0.555594  0.944406  0.944406  1
  Sc  Sc7  1  0.944406  0.555594  0.555594  1
  Sc  Sc8  1  0.944406  0.555594  0.944406  1
  Sc  Sc9  1  0.305594  0.305594  0.694406  1
  Sc  Sc10  1  0.555594  0.555594  0.944406  1
  Sc  Sc11  1  0.305594  0.694406  0.694406  1
  Al  Al12  1  0.125000  0.125000  0.125000  1
  Al  Al13  1  0.625000  0.125000  0.125000  1
  Al  Al14  1  0.125000  0.125000  0.625000  1
  Al  Al15  1  0.125000  0.625000  0.125000  1
  Cu  Cu16  1  0.921541  0.921541  0.235377  1
  Cu  Cu17  1  0.328459  0.328459  0.328459  1
  Cu  Cu18  1  0.235377  0.921541  0.921541  1
  Cu  Cu19  1  0.328459  0.014623  0.328459  1
  Cu  Cu20  1  0.014623  0.328459  0.328459  1
  Cu  Cu21  1  0.328459  0.328459  0.014623  1
  Cu  Cu22  1  0.921541  0.921541  0.921541  1
  Cu  Cu23  1  0.921541  0.235377  0.921541  1
  C  C24  1  0.625000  0.625000  0.625000  1
  C  C25  1  0.625000  0.625000  0.125000  1
  C  C26  1  0.125000  0.625000  0.625000  1
  C  C27  1  0.625000  0.125000  0.625000  1
