# generated using pymatgen
data_Zr6SiP
_symmetry_space_group_name_H-M   'P 1'
_cell_length_a   10.94528700
_cell_length_b   10.94528700
_cell_length_c   5.41604000
_cell_angle_alpha   90.00000000
_cell_angle_beta   90.00000000
_cell_angle_gamma   90.00000000
_symmetry_Int_Tables_number   1
_chemical_formula_structural   Zr6SiP
_chemical_formula_sum   'Zr24 Si4 P4'
_cell_volume   648.83784146
_cell_formula_units_Z   4
loop_
 _symmetry_equiv_pos_site_id
 _symmetry_equiv_pos_as_xyz
  1  'x, y, z'
loop_
 _atom_site_type_symbol
 _atom_site_label
 _atom_site_symmetry_multiplicity
 _atom_site_fract_x
 _atom_site_fract_y
 _atom_site_fract_z
 _atom_site_occupancy
  Zr  Zr0  1  0.026392  0.859714  0.278857  1
  Zr  Zr1  1  0.359714  0.473608  0.778857  1
  Zr  Zr2  1  0.640286  0.526392  0.778857  1
  Zr  Zr3  1  0.973608  0.140286  0.278857  1
  Zr  Zr4  1  0.473424  0.635270  0.221336  1
  Zr  Zr5  1  0.135270  0.026576  0.721336  1
  Zr  Zr6  1  0.864730  0.973424  0.721336  1
  Zr  Zr7  1  0.526576  0.364730  0.221336  1
  Zr  Zr8  1  0.283298  0.818652  0.988214  1
  Zr  Zr9  1  0.318652  0.216702  0.488214  1
  Zr  Zr10  1  0.681348  0.783298  0.488214  1
  Zr  Zr11  1  0.716702  0.181348  0.988214  1
  Zr  Zr12  1  0.213876  0.679194  0.512159  1
  Zr  Zr13  1  0.179194  0.286124  0.012159  1
  Zr  Zr14  1  0.820806  0.713876  0.012159  1
  Zr  Zr15  1  0.786124  0.320806  0.512159  1
  Zr  Zr16  1  0.891725  0.416422  0.035788  1
  Zr  Zr17  1  0.916422  0.608275  0.535788  1
  Zr  Zr18  1  0.083578  0.391725  0.535788  1
  Zr  Zr19  1  0.108275  0.583578  0.035788  1
  Zr  Zr20  1  0.607769  0.082659  0.463835  1
  Zr  Zr21  1  0.582659  0.892231  0.963835  1
  Zr  Zr22  1  0.417341  0.107769  0.963835  1
  Zr  Zr23  1  0.392231  0.917341  0.463835  1
  Si  Si24  1  0.541140  0.295461  0.713121  1
  Si  Si25  1  0.795461  0.958860  0.213121  1
  Si  Si26  1  0.204539  0.041140  0.213121  1
  Si  Si27  1  0.458860  0.704539  0.713121  1
  P  P28  1  0.958950  0.207060  0.786690  1
  P  P29  1  0.707060  0.541050  0.286690  1
  P  P30  1  0.292940  0.458950  0.286690  1
  P  P31  1  0.041050  0.792940  0.786690  1
