# generated using pymatgen
data_YbLu(ThPt2)2
_symmetry_space_group_name_H-M   'P 1'
_cell_length_a   4.62073500
_cell_length_b   5.62436322
_cell_length_c   7.12009887
_cell_angle_alpha   89.15869414
_cell_angle_beta   90.00000000
_cell_angle_gamma   90.00000000
_symmetry_Int_Tables_number   1
_chemical_formula_structural   YbLu(ThPt2)2
_chemical_formula_sum   'Yb1 Lu1 Th2 Pt4'
_cell_volume   185.02210878
_cell_formula_units_Z   1
loop_
 _symmetry_equiv_pos_site_id
 _symmetry_equiv_pos_as_xyz
  1  'x, y, z'
loop_
 _atom_site_type_symbol
 _atom_site_label
 _atom_site_symmetry_multiplicity
 _atom_site_fract_x
 _atom_site_fract_y
 _atom_site_fract_z
 _atom_site_occupancy
  Yb  Yb0  1  0.250000  0.353476  0.685398  1
  Lu  Lu1  1  0.250000  0.143931  0.182665  1
  Th  Th2  1  0.750000  0.641278  0.315759  1
  Th  Th3  1  0.750000  0.859576  0.815737  1
  Pt  Pt4  1  0.750000  0.155799  0.443886  1
  Pt  Pt5  1  0.250000  0.846087  0.540425  1
  Pt  Pt6  1  0.250000  0.664725  0.046878  1
  Pt  Pt7  1  0.750000  0.335127  0.969252  1
