# generated using pymatgen
data_YHoPa(ZnPd)3
_symmetry_space_group_name_H-M   'P 1'
_cell_length_a   7.37520770
_cell_length_b   7.38527217
_cell_length_c   3.77276400
_cell_angle_alpha   90.00000000
_cell_angle_beta   90.00000000
_cell_angle_gamma   119.57342962
_symmetry_Int_Tables_number   1
_chemical_formula_structural   YHoPa(ZnPd)3
_chemical_formula_sum   'Y1 Ho1 Pa1 Zn3 Pd3'
_cell_volume   178.72355852
_cell_formula_units_Z   1
loop_
 _symmetry_equiv_pos_site_id
 _symmetry_equiv_pos_as_xyz
  1  'x, y, z'
loop_
 _atom_site_type_symbol
 _atom_site_label
 _atom_site_symmetry_multiplicity
 _atom_site_fract_x
 _atom_site_fract_y
 _atom_site_fract_z
 _atom_site_occupancy
  Y  Y0  1  0.597063  0.995645  0.000000  1
  Ho  Ho1  1  0.995593  0.597337  0.000000  1
  Pa  Pa2  1  0.405567  0.405646  0.000000  1
  Zn  Zn3  1  0.753635  0.753096  0.500000  1
  Zn  Zn4  1  0.256875  0.992058  0.500000  1
  Zn  Zn5  1  0.992550  0.257569  0.500000  1
  Pd  Pd6  1  0.012073  0.010702  0.000000  1
  Pd  Pd7  1  0.653746  0.336662  0.500000  1
  Pd  Pd8  1  0.332899  0.651286  0.500000  1
