# generated using pymatgen
data_Ac3In4Se
_symmetry_space_group_name_H-M   'P 1'
_cell_length_a   8.89529644
_cell_length_b   8.89529504
_cell_length_c   8.89529467
_cell_angle_alpha   119.15317657
_cell_angle_beta   119.15316999
_cell_angle_gamma   91.47311348
_symmetry_Int_Tables_number   1
_chemical_formula_structural   Ac3In4Se
_chemical_formula_sum   'Ac6 In8 Se2'
_cell_volume   503.88845371
_cell_formula_units_Z   2
loop_
 _symmetry_equiv_pos_site_id
 _symmetry_equiv_pos_as_xyz
  1  'x, y, z'
loop_
 _atom_site_type_symbol
 _atom_site_label
 _atom_site_symmetry_multiplicity
 _atom_site_fract_x
 _atom_site_fract_y
 _atom_site_fract_z
 _atom_site_occupancy
  Ac  Ac0  1  0.750000  0.750000  0.000000  1
  Ac  Ac1  1  0.250000  0.250000  0.000000  1
  Ac  Ac2  1  0.334580  0.834580  0.169160  1
  Ac  Ac3  1  0.665420  0.165420  0.830840  1
  Ac  Ac4  1  0.834580  0.665420  0.500000  1
  Ac  Ac5  1  0.165420  0.334580  0.500000  1
  In  In6  1  0.950514  0.450514  0.784402  1
  In  In7  1  0.666113  0.166113  0.215598  1
  In  In8  1  0.450514  0.666113  0.500000  1
  In  In9  1  0.166113  0.950514  0.500000  1
  In  In10  1  0.049486  0.549486  0.215598  1
  In  In11  1  0.333887  0.833887  0.784402  1
  In  In12  1  0.549486  0.333887  0.500000  1
  In  In13  1  0.833887  0.049486  0.500000  1
  Se  Se14  1  0.000000  0.000000  0.000000  1
  Se  Se15  1  0.500000  0.500000  0.000000  1
