# generated using pymatgen
data_Tb3Mg2InPdPb2
_symmetry_space_group_name_H-M   'P 1'
_cell_length_a   7.56787100
_cell_length_b   7.54603374
_cell_length_c   4.55878300
_cell_angle_alpha   90.00000000
_cell_angle_beta   90.00000000
_cell_angle_gamma   120.09578796
_symmetry_Int_Tables_number   1
_chemical_formula_structural   Tb3Mg2InPdPb2
_chemical_formula_sum   'Tb3 Mg2 In1 Pd1 Pb2'
_cell_volume   225.24336889
_cell_formula_units_Z   1
loop_
 _symmetry_equiv_pos_site_id
 _symmetry_equiv_pos_as_xyz
  1  'x, y, z'
loop_
 _atom_site_type_symbol
 _atom_site_label
 _atom_site_symmetry_multiplicity
 _atom_site_fract_x
 _atom_site_fract_y
 _atom_site_fract_z
 _atom_site_occupancy
  Tb  Tb0  1  0.598627  0.000000  0.000000  1
  Tb  Tb1  1  0.001982  0.602162  0.000000  1
  Tb  Tb2  1  0.399820  0.397838  0.000000  1
  Mg  Mg3  1  0.998432  0.228398  0.500000  1
  Mg  Mg4  1  0.770034  0.771602  0.500000  1
  In  In5  1  0.228385  0.000000  0.500000  1
  Pd  Pd6  1  0.994623  0.000000  0.000000  1
  Pb  Pb7  1  0.335279  0.662461  0.500000  1
  Pb  Pb8  1  0.672818  0.337539  0.500000  1
