# generated using pymatgen
data_La18Er2Ir5Pt7
_symmetry_space_group_name_H-M   'P 1'
_cell_length_a   11.56158498
_cell_length_b   11.56158475
_cell_length_c   6.57194200
_cell_angle_alpha   90.05826421
_cell_angle_beta   90.05826421
_cell_angle_gamma   90.08511936
_symmetry_Int_Tables_number   1
_chemical_formula_structural   La18Er2Ir5Pt7
_chemical_formula_sum   'La18 Er2 Ir5 Pt7'
_cell_volume   878.47121554
_cell_formula_units_Z   1
loop_
 _symmetry_equiv_pos_site_id
 _symmetry_equiv_pos_as_xyz
  1  'x, y, z'
loop_
 _atom_site_type_symbol
 _atom_site_label
 _atom_site_symmetry_multiplicity
 _atom_site_fract_x
 _atom_site_fract_y
 _atom_site_fract_z
 _atom_site_occupancy
  La  La0  1  0.295229  0.088322  0.376137  1
  La  La1  1  0.296152  0.906577  0.876162  1
  La  La2  1  0.703773  0.087932  0.875680  1
  La  La3  1  0.703543  0.910139  0.375134  1
  La  La4  1  0.585259  0.788392  0.877576  1
  La  La5  1  0.588488  0.209286  0.378859  1
  La  La6  1  0.409458  0.788173  0.384263  1
  La  La7  1  0.411016  0.207506  0.879113  1
  La  La8  1  0.211608  0.414741  0.622424  1
  La  La9  1  0.211827  0.590542  0.115737  1
  La  La10  1  0.790714  0.411512  0.121141  1
  La  La11  1  0.792494  0.588984  0.620887  1
  La  La12  1  0.911678  0.704771  0.123863  1
  La  La13  1  0.912068  0.296227  0.624320  1
  La  La14  1  0.093423  0.703848  0.623838  1
  La  La15  1  0.089861  0.296457  0.124866  1
  La  La16  1  0.998982  0.999502  0.500565  1
  La  La17  1  0.000498  0.001018  0.999435  1
  Er  Er18  1  0.497852  0.501010  0.999085  1
  Er  Er19  1  0.498990  0.502148  0.500915  1
  Ir  Ir20  1  0.354483  0.645517  0.750000  1
  Ir  Ir21  1  0.500149  0.999768  0.116303  1
  Ir  Ir22  1  0.499869  0.000898  0.614638  1
  Ir  Ir23  1  0.999102  0.500131  0.885362  1
  Ir  Ir24  1  0.000232  0.499851  0.383697  1
  Pt  Pt25  1  0.844318  0.155682  0.250000  1
  Pt  Pt26  1  0.843594  0.845047  0.750808  1
  Pt  Pt27  1  0.154953  0.156406  0.749192  1
  Pt  Pt28  1  0.154802  0.845198  0.250000  1
  Pt  Pt29  1  0.644395  0.355605  0.750000  1
  Pt  Pt30  1  0.645750  0.644556  0.250229  1
  Pt  Pt31  1  0.355444  0.354250  0.249771  1
