# generated using pymatgen
data_NdSc4Ni19
_symmetry_space_group_name_H-M   'P 1'
_cell_length_a   4.89263412
_cell_length_b   4.89263496
_cell_length_c   16.29316400
_cell_angle_alpha   81.36473763
_cell_angle_beta   81.36473613
_cell_angle_gamma   60.00000461
_symmetry_Int_Tables_number   1
_chemical_formula_structural   NdSc4Ni19
_chemical_formula_sum   'Nd1 Sc4 Ni19'
_cell_volume   332.65542787
_cell_formula_units_Z   1
loop_
 _symmetry_equiv_pos_site_id
 _symmetry_equiv_pos_as_xyz
  1  'x, y, z'
loop_
 _atom_site_type_symbol
 _atom_site_label
 _atom_site_symmetry_multiplicity
 _atom_site_fract_x
 _atom_site_fract_y
 _atom_site_fract_z
 _atom_site_occupancy
  Nd  Nd0  1  0.000037  0.999982  0.999979  1
  Sc  Sc1  1  0.920403  0.920460  0.238366  1
  Sc  Sc2  1  0.079549  0.079555  0.761616  1
  Sc  Sc3  1  0.847419  0.847446  0.457718  1
  Sc  Sc4  1  0.152562  0.152591  0.542252  1
  Ni  Ni5  1  0.500001  0.499994  0.499995  1
  Ni  Ni6  1  0.750760  0.750611  0.748391  1
  Ni  Ni7  1  0.249300  0.249308  0.251689  1
  Ni  Ni8  1  0.666847  0.666817  0.999658  1
  Ni  Ni9  1  0.333212  0.333057  0.000407  1
  Ni  Ni10  1  0.582666  0.582766  0.251521  1
  Ni  Ni11  1  0.417317  0.417215  0.748428  1
  Ni  Ni12  1  0.373417  0.373393  0.375984  1
  Ni  Ni13  1  0.877003  0.373393  0.375980  1
  Ni  Ni14  1  0.373506  0.876970  0.375997  1
  Ni  Ni15  1  0.626563  0.626575  0.624082  1
  Ni  Ni16  1  0.122920  0.626534  0.624049  1
  Ni  Ni17  1  0.626548  0.122917  0.624053  1
  Ni  Ni18  1  0.457599  0.457729  0.126929  1
  Ni  Ni19  1  0.957190  0.457969  0.126827  1
  Ni  Ni20  1  0.457878  0.957463  0.126927  1
  Ni  Ni21  1  0.542311  0.542367  0.873064  1
  Ni  Ni22  1  0.042572  0.542368  0.873055  1
  Ni  Ni23  1  0.542417  0.042520  0.873033  1
