# generated using pymatgen
data_Hf18Re3Mo5PPd
_symmetry_space_group_name_H-M   'P 1'
_cell_length_a   8.67617000
_cell_length_b   8.67617082
_cell_length_c   8.56531600
_cell_angle_alpha   90.00000000
_cell_angle_beta   90.00000000
_cell_angle_gamma   120.00000449
_symmetry_Int_Tables_number   1
_chemical_formula_structural   Hf18Re3Mo5PPd
_chemical_formula_sum   'Hf18 Re3 Mo5 P1 Pd1'
_cell_volume   558.38037897
_cell_formula_units_Z   1
loop_
 _symmetry_equiv_pos_site_id
 _symmetry_equiv_pos_as_xyz
  1  'x, y, z'
loop_
 _atom_site_type_symbol
 _atom_site_label
 _atom_site_symmetry_multiplicity
 _atom_site_fract_x
 _atom_site_fract_y
 _atom_site_fract_z
 _atom_site_occupancy
  Hf  Hf0  1  0.195637  0.804363  0.447282  1
  Hf  Hf1  1  0.195637  0.391272  0.447282  1
  Hf  Hf2  1  0.608728  0.804363  0.447282  1
  Hf  Hf3  1  0.802972  0.197028  0.546010  1
  Hf  Hf4  1  0.802972  0.605943  0.546010  1
  Hf  Hf5  1  0.394057  0.197028  0.546010  1
  Hf  Hf6  1  0.802972  0.197028  0.953990  1
  Hf  Hf7  1  0.802972  0.605943  0.953990  1
  Hf  Hf8  1  0.394057  0.197028  0.953990  1
  Hf  Hf9  1  0.195637  0.804363  0.052718  1
  Hf  Hf10  1  0.195637  0.391272  0.052718  1
  Hf  Hf11  1  0.608728  0.804363  0.052718  1
  Hf  Hf12  1  0.542299  0.457701  0.250000  1
  Hf  Hf13  1  0.542299  0.084596  0.250000  1
  Hf  Hf14  1  0.915404  0.457701  0.250000  1
  Hf  Hf15  1  0.460603  0.539397  0.750000  1
  Hf  Hf16  1  0.460603  0.921208  0.750000  1
  Hf  Hf17  1  0.078792  0.539397  0.750000  1
  Re  Re18  1  0.888755  0.111245  0.250000  1
  Re  Re19  1  0.888755  0.777509  0.250000  1
  Re  Re20  1  0.222491  0.111245  0.250000  1
  Mo  Mo21  1  0.111051  0.888949  0.750000  1
  Mo  Mo22  1  0.111051  0.222102  0.750000  1
  Mo  Mo23  1  0.777898  0.888949  0.750000  1
  Mo  Mo24  1  0.000000  0.000000  0.501178  1
  Mo  Mo25  1  0.000000  0.000000  0.998822  1
  P  P26  1  0.666667  0.333333  0.750000  1
  Pd  Pd27  1  0.333333  0.666667  0.250000  1
