# generated using pymatgen
data_Tb2SiCO7
_symmetry_space_group_name_H-M   'P 1'
_cell_length_a   6.65342444
_cell_length_b   6.74516887
_cell_length_c   6.54384632
_cell_angle_alpha   116.46555009
_cell_angle_beta   92.53759032
_cell_angle_gamma   95.62785309
_symmetry_Int_Tables_number   1
_chemical_formula_structural   Tb2SiCO7
_chemical_formula_sum   'Tb4 Si2 C2 O14'
_cell_volume   260.35497608
_cell_formula_units_Z   2
loop_
 _symmetry_equiv_pos_site_id
 _symmetry_equiv_pos_as_xyz
  1  'x, y, z'
loop_
 _atom_site_type_symbol
 _atom_site_label
 _atom_site_symmetry_multiplicity
 _atom_site_fract_x
 _atom_site_fract_y
 _atom_site_fract_z
 _atom_site_occupancy
  Tb  Tb0  1  0.913226  0.701576  0.251431  1
  Tb  Tb1  1  0.667412  0.189793  0.257144  1
  Tb  Tb2  1  0.332587  0.810206  0.742855  1
  Tb  Tb3  1  0.086773  0.298424  0.748568  1
  Si  Si4  1  0.157401  0.240885  0.262975  1
  Si  Si5  1  0.842599  0.759115  0.737025  1
  C  C6  1  0.410181  0.733586  0.194199  1
  C  C7  1  0.589819  0.266414  0.805800  1
  O  O8  1  0.646878  0.377254  0.022798  1
  O  O9  1  0.032910  0.341143  0.114711  1
  O  O10  1  0.330975  0.092524  0.126028  1
  O  O11  1  0.595894  0.834627  0.264896  1
  O  O12  1  0.983479  0.089363  0.332655  1
  O  O13  1  0.283669  0.749235  0.342621  1
  O  O14  1  0.750367  0.563936  0.480540  1
  O  O15  1  0.249634  0.436064  0.519460  1
  O  O16  1  0.716330  0.250765  0.657378  1
  O  O17  1  0.016521  0.910638  0.667345  1
  O  O18  1  0.404105  0.165372  0.735104  1
  O  O19  1  0.669025  0.907475  0.873971  1
  O  O20  1  0.967090  0.658858  0.885288  1
  O  O21  1  0.353122  0.622746  0.977201  1
