# generated using pymatgen
data_Sr2Mg3V3(PO4)6
_symmetry_space_group_name_H-M   'P 1'
_cell_length_a   9.18106151
_cell_length_b   9.18106272
_cell_length_c   9.17867578
_cell_angle_alpha   137.59205756
_cell_angle_beta   109.89894904
_cell_angle_gamma   85.50088794
_symmetry_Int_Tables_number   1
_chemical_formula_structural   Sr2Mg3V3(PO4)6
_chemical_formula_sum   'Sr2 Mg3 V3 P6 O24'
_cell_volume   472.04436761
_cell_formula_units_Z   1
loop_
 _symmetry_equiv_pos_site_id
 _symmetry_equiv_pos_as_xyz
  1  'x, y, z'
loop_
 _atom_site_type_symbol
 _atom_site_label
 _atom_site_symmetry_multiplicity
 _atom_site_fract_x
 _atom_site_fract_y
 _atom_site_fract_z
 _atom_site_occupancy
  Sr  Sr0  1  0.750353  0.149533  0.400158  1
  Sr  Sr1  1  0.249375  0.850195  0.599842  1
  Mg  Mg2  1  0.615601  0.615601  0.500000  1
  Mg  Mg3  1  0.384083  0.384083  0.500000  1
  Mg  Mg4  1  0.117484  0.617484  0.000000  1
  V  V5  1  0.882895  0.382895  0.000000  1
  V  V6  1  0.999856  0.001138  0.001974  1
  V  V7  1  0.499164  0.497881  0.998026  1
  P  P8  1  0.322537  0.822537  0.000000  1
  P  P9  1  0.750128  0.659187  0.907228  1
  P  P10  1  0.178033  0.178033  0.500000  1
  P  P11  1  0.674866  0.174866  0.000000  1
  P  P12  1  0.251959  0.342900  0.092772  1
  P  P13  1  0.821189  0.821189  0.500000  1
  O  O14  1  0.573633  0.930156  0.776951  1
  O  O15  1  0.076159  0.298432  0.642953  1
  O  O16  1  0.840826  0.889489  0.044812  1
  O  O17  1  0.344664  0.701964  0.777147  1
  O  O18  1  0.145296  0.209362  0.343819  1
  O  O19  1  0.344678  0.296014  0.955188  1
  O  O20  1  0.634543  0.695614  0.341589  1
  O  O21  1  0.854024  0.792954  0.658411  1
  O  O22  1  0.368800  0.484925  0.353600  1
  O  O23  1  0.155479  0.933206  0.357047  1
  O  O24  1  0.640554  0.296682  0.933781  1
  O  O25  1  0.631325  0.515200  0.646400  1
  O  O26  1  0.862901  0.206773  0.066219  1
  O  O27  1  0.842338  0.063901  0.636684  1
  O  O28  1  0.356024  0.698789  0.063639  1
  O  O29  1  0.365543  0.301477  0.656181  1
  O  O30  1  0.659072  0.698744  0.042854  1
  O  O31  1  0.927217  0.705654  0.363316  1
  O  O32  1  0.155890  0.116217  0.957146  1
  O  O33  1  0.870861  0.518316  0.878835  1
  O  O34  1  0.139480  0.492025  0.121165  1
  O  O35  1  0.135150  0.792385  0.936361  1
  O  O36  1  0.653205  0.296683  0.223049  1
  O  O37  1  0.424816  0.067517  0.222853  1
