# generated using pymatgen
data_Dy4Ho4Lu4Co5Bi
_symmetry_space_group_name_H-M   'P 1'
_cell_length_a   8.25261875
_cell_length_b   8.25336514
_cell_length_c   8.25261951
_cell_angle_alpha   110.87748850
_cell_angle_beta   110.69948206
_cell_angle_gamma   106.86419372
_symmetry_Int_Tables_number   1
_chemical_formula_structural   Dy4Ho4Lu4Co5Bi
_chemical_formula_sum   'Dy4 Ho4 Lu4 Co5 Bi1'
_cell_volume   432.05630786
_cell_formula_units_Z   1
loop_
 _symmetry_equiv_pos_site_id
 _symmetry_equiv_pos_as_xyz
  1  'x, y, z'
loop_
 _atom_site_type_symbol
 _atom_site_label
 _atom_site_symmetry_multiplicity
 _atom_site_fract_x
 _atom_site_fract_y
 _atom_site_fract_z
 _atom_site_occupancy
  Dy  Dy0  1  0.815741  0.712017  0.527520  1
  Dy  Dy1  1  0.184259  0.287983  0.472480  1
  Dy  Dy2  1  0.184498  0.712017  0.896276  1
  Dy  Dy3  1  0.815502  0.287983  0.103724  1
  Ho  Ho4  1  0.597109  0.791857  0.805420  1
  Ho  Ho5  1  0.402891  0.208143  0.194580  1
  Ho  Ho6  1  0.986437  0.791857  0.194747  1
  Ho  Ho7  1  0.013563  0.208143  0.805253  1
  Lu  Lu8  1  0.687055  0.374942  0.687887  1
  Lu  Lu9  1  0.312945  0.625058  0.312113  1
  Lu  Lu10  1  0.687152  0.999224  0.312072  1
  Lu  Lu11  1  0.312848  0.000776  0.687928  1
  Co  Co12  1  0.623557  0.000000  0.623557  1
  Co  Co13  1  0.376443  0.000000  0.376443  1
  Co  Co14  1  0.112060  0.611873  0.499813  1
  Co  Co15  1  0.887940  0.388127  0.500187  1
  Co  Co16  1  0.000000  0.000000  0.000000  1
  Bi  Bi17  1  0.500000  0.500000  0.000000  1
