# generated using pymatgen
data_Ta12Al8Pd3WC4
_symmetry_space_group_name_H-M   'P 1'
_cell_length_a   8.39943845
_cell_length_b   8.33478680
_cell_length_c   8.33478700
_cell_angle_alpha   60.00000319
_cell_angle_beta   60.25429749
_cell_angle_gamma   60.25429771
_symmetry_Int_Tables_number   1
_chemical_formula_structural   Ta12Al8Pd3WC4
_chemical_formula_sum   'Ta12 Al8 Pd3 W1 C4'
_cell_volume   414.17407985
_cell_formula_units_Z   1
loop_
 _symmetry_equiv_pos_site_id
 _symmetry_equiv_pos_as_xyz
  1  'x, y, z'
loop_
 _atom_site_type_symbol
 _atom_site_label
 _atom_site_symmetry_multiplicity
 _atom_site_fract_x
 _atom_site_fract_y
 _atom_site_fract_z
 _atom_site_occupancy
  Ta  Ta0  1  0.571760  0.938629  0.550982  1
  Ta  Ta1  1  0.319881  0.681514  0.681514  1
  Ta  Ta2  1  0.678240  0.311371  0.311371  1
  Ta  Ta3  1  0.319881  0.681514  0.317092  1
  Ta  Ta4  1  0.678240  0.699018  0.311371  1
  Ta  Ta5  1  0.319881  0.317092  0.681514  1
  Ta  Ta6  1  0.571760  0.550982  0.938629  1
  Ta  Ta7  1  0.930119  0.568486  0.568486  1
  Ta  Ta8  1  0.571760  0.938629  0.938629  1
  Ta  Ta9  1  0.930119  0.932908  0.568486  1
  Ta  Ta10  1  0.678240  0.311371  0.699018  1
  Ta  Ta11  1  0.930119  0.568486  0.932908  1
  Al  Al12  1  0.922540  0.913246  0.913246  1
  Al  Al13  1  0.988678  0.337107  0.337107  1
  Al  Al14  1  0.327460  0.999030  0.336754  1
  Al  Al15  1  0.327460  0.336754  0.999030  1
  Al  Al16  1  0.922540  0.250970  0.913246  1
  Al  Al17  1  0.922540  0.913246  0.250970  1
  Al  Al18  1  0.261322  0.912893  0.912893  1
  Al  Al19  1  0.327460  0.336754  0.336754  1
  Pd  Pd20  1  0.125000  0.125000  0.125000  1
  Pd  Pd21  1  0.125000  0.625000  0.125000  1
  Pd  Pd22  1  0.125000  0.125000  0.625000  1
  W  W23  1  0.625000  0.125000  0.125000  1
  C  C24  1  0.625000  0.625000  0.625000  1
  C  C25  1  0.125000  0.625000  0.625000  1
  C  C26  1  0.625000  0.125000  0.625000  1
  C  C27  1  0.625000  0.625000  0.125000  1
