# generated using pymatgen
data_NaNi4P3Rh
_symmetry_space_group_name_H-M   'P 1'
_cell_length_a   3.68657000
_cell_length_b   10.48012300
_cell_length_c   11.86431500
_cell_angle_alpha   90.00000000
_cell_angle_beta   90.00000000
_cell_angle_gamma   90.00000000
_symmetry_Int_Tables_number   1
_chemical_formula_structural   NaNi4P3Rh
_chemical_formula_sum   'Na4 Ni16 P12 Rh4'
_cell_volume   458.38619867
_cell_formula_units_Z   4
loop_
 _symmetry_equiv_pos_site_id
 _symmetry_equiv_pos_as_xyz
  1  'x, y, z'
loop_
 _atom_site_type_symbol
 _atom_site_label
 _atom_site_symmetry_multiplicity
 _atom_site_fract_x
 _atom_site_fract_y
 _atom_site_fract_z
 _atom_site_occupancy
  Na  Na0  1  0.250000  0.584230  0.705109  1
  Na  Na1  1  0.250000  0.915770  0.205109  1
  Na  Na2  1  0.750000  0.415770  0.294891  1
  Na  Na3  1  0.750000  0.084230  0.794891  1
  Ni  Ni4  1  0.250000  0.409042  0.485675  1
  Ni  Ni5  1  0.250000  0.090958  0.985675  1
  Ni  Ni6  1  0.750000  0.590958  0.514325  1
  Ni  Ni7  1  0.750000  0.909042  0.014325  1
  Ni  Ni8  1  0.250000  0.218549  0.177896  1
  Ni  Ni9  1  0.250000  0.281451  0.677896  1
  Ni  Ni10  1  0.750000  0.781451  0.822104  1
  Ni  Ni11  1  0.750000  0.718549  0.322104  1
  Ni  Ni12  1  0.250000  0.885597  0.701905  1
  Ni  Ni13  1  0.250000  0.614403  0.201905  1
  Ni  Ni14  1  0.750000  0.114403  0.298095  1
  Ni  Ni15  1  0.750000  0.385597  0.798095  1
  Ni  Ni16  1  0.250000  0.465020  0.930452  1
  Ni  Ni17  1  0.250000  0.034980  0.430452  1
  Ni  Ni18  1  0.750000  0.534980  0.069548  1
  Ni  Ni19  1  0.750000  0.965020  0.569548  1
  P  P20  1  0.250000  0.416688  0.114669  1
  P  P21  1  0.250000  0.083312  0.614669  1
  P  P22  1  0.750000  0.583312  0.885331  1
  P  P23  1  0.750000  0.916688  0.385331  1
  P  P24  1  0.250000  0.266213  0.867460  1
  P  P25  1  0.250000  0.233787  0.367460  1
  P  P26  1  0.750000  0.733787  0.132540  1
  P  P27  1  0.750000  0.766213  0.632540  1
  P  P28  1  0.250000  0.594550  0.389781  1
  P  P29  1  0.250000  0.905450  0.889781  1
  P  P30  1  0.750000  0.405450  0.610219  1
  P  P31  1  0.750000  0.094550  0.110219  1
  Rh  Rh32  1  0.250000  0.712489  0.988247  1
  Rh  Rh33  1  0.250000  0.787511  0.488247  1
  Rh  Rh34  1  0.750000  0.287511  0.011753  1
  Rh  Rh35  1  0.750000  0.212489  0.511753  1
