# generated using pymatgen
data_DyHo3BeOs7
_symmetry_space_group_name_H-M   'P 1'
_cell_length_a   5.25420927
_cell_length_b   5.25421725
_cell_length_c   8.78218600
_cell_angle_alpha   90.00005892
_cell_angle_beta   90.00045739
_cell_angle_gamma   118.98899650
_symmetry_Int_Tables_number   1
_chemical_formula_structural   DyHo3BeOs7
_chemical_formula_sum   'Dy1 Ho3 Be1 Os7'
_cell_volume   212.07208360
_cell_formula_units_Z   1
loop_
 _symmetry_equiv_pos_site_id
 _symmetry_equiv_pos_as_xyz
  1  'x, y, z'
loop_
 _atom_site_type_symbol
 _atom_site_label
 _atom_site_symmetry_multiplicity
 _atom_site_fract_x
 _atom_site_fract_y
 _atom_site_fract_z
 _atom_site_occupancy
  Dy  Dy0  1  0.333281  0.666719  0.065096  1
  Ho  Ho1  1  0.333285  0.666711  0.435139  1
  Ho  Ho2  1  0.669564  0.330443  0.563465  1
  Ho  Ho3  1  0.669581  0.330423  0.936400  1
  Be  Be4  1  0.828901  0.171094  0.250068  1
  Os  Os5  1  0.003869  0.996119  0.495837  1
  Os  Os6  1  0.003893  0.996105  0.004112  1
  Os  Os7  1  0.820059  0.655198  0.250199  1
  Os  Os8  1  0.344811  0.179941  0.250196  1
  Os  Os9  1  0.165869  0.834144  0.749837  1
  Os  Os10  1  0.173952  0.347062  0.749825  1
  Os  Os11  1  0.652935  0.826041  0.749826  1
