# generated using pymatgen
data_DyEr(Tm2Os)2
_symmetry_space_group_name_H-M   'P 1'
_cell_length_a   7.35950149
_cell_length_b   8.90399100
_cell_length_c   6.24622743
_cell_angle_alpha   90.00000000
_cell_angle_beta   90.11206405
_cell_angle_gamma   90.00000000
_symmetry_Int_Tables_number   1
_chemical_formula_structural   DyEr(Tm2Os)2
_chemical_formula_sum   'Dy2 Er2 Tm8 Os4'
_cell_volume   409.30784843
_cell_formula_units_Z   2
loop_
 _symmetry_equiv_pos_site_id
 _symmetry_equiv_pos_as_xyz
  1  'x, y, z'
loop_
 _atom_site_type_symbol
 _atom_site_label
 _atom_site_symmetry_multiplicity
 _atom_site_fract_x
 _atom_site_fract_y
 _atom_site_fract_z
 _atom_site_occupancy
  Dy  Dy0  1  0.039066  0.250000  0.628883  1
  Dy  Dy1  1  0.960934  0.750000  0.371117  1
  Er  Er2  1  0.460069  0.750000  0.129500  1
  Er  Er3  1  0.539931  0.250000  0.870500  1
  Tm  Tm4  1  0.175741  0.062573  0.164842  1
  Tm  Tm5  1  0.824259  0.937427  0.835158  1
  Tm  Tm6  1  0.326787  0.937453  0.667423  1
  Tm  Tm7  1  0.824259  0.562573  0.835158  1
  Tm  Tm8  1  0.673213  0.062547  0.332577  1
  Tm  Tm9  1  0.175741  0.437427  0.164842  1
  Tm  Tm10  1  0.673213  0.437453  0.332577  1
  Tm  Tm11  1  0.326787  0.562547  0.667423  1
  Os  Os12  1  0.383031  0.250000  0.460251  1
  Os  Os13  1  0.616969  0.750000  0.539749  1
  Os  Os14  1  0.117913  0.750000  0.958779  1
  Os  Os15  1  0.882087  0.250000  0.041221  1
