# generated using pymatgen
data_YbSmTiSbO7
_symmetry_space_group_name_H-M   'P 1'
_cell_length_a   7.33407000
_cell_length_b   7.33407000
_cell_length_c   10.34685600
_cell_angle_alpha   90.00000000
_cell_angle_beta   90.00000000
_cell_angle_gamma   90.00000000
_symmetry_Int_Tables_number   1
_chemical_formula_structural   YbSmTiSbO7
_chemical_formula_sum   'Yb4 Sm4 Ti4 Sb4 O28'
_cell_volume   556.54272031
_cell_formula_units_Z   4
loop_
 _symmetry_equiv_pos_site_id
 _symmetry_equiv_pos_as_xyz
  1  'x, y, z'
loop_
 _atom_site_type_symbol
 _atom_site_label
 _atom_site_symmetry_multiplicity
 _atom_site_fract_x
 _atom_site_fract_y
 _atom_site_fract_z
 _atom_site_occupancy
  Yb  Yb0  1  0.000000  0.758451  0.000000  1
  Yb  Yb1  1  0.758451  0.000000  0.750000  1
  Yb  Yb2  1  0.000000  0.241549  0.500000  1
  Yb  Yb3  1  0.241549  0.000000  0.250000  1
  Sm  Sm4  1  0.500000  0.234579  0.500000  1
  Sm  Sm5  1  0.500000  0.765421  0.000000  1
  Sm  Sm6  1  0.765421  0.500000  0.750000  1
  Sm  Sm7  1  0.234579  0.500000  0.250000  1
  Ti  Ti8  1  0.760375  0.000000  0.250000  1
  Ti  Ti9  1  0.000000  0.760375  0.500000  1
  Ti  Ti10  1  0.000000  0.239625  0.000000  1
  Ti  Ti11  1  0.239625  0.000000  0.750000  1
  Sb  Sb12  1  0.245416  0.500000  0.750000  1
  Sb  Sb13  1  0.500000  0.754584  0.500000  1
  Sb  Sb14  1  0.500000  0.245416  0.000000  1
  Sb  Sb15  1  0.754584  0.500000  0.250000  1
  O  O16  1  0.248615  0.751385  0.125000  1
  O  O17  1  0.549449  0.952314  0.374277  1
  O  O18  1  0.751339  0.745164  0.575276  1
  O  O19  1  0.751385  0.248615  0.625000  1
  O  O20  1  0.745164  0.751339  0.174724  1
  O  O21  1  0.942943  0.942943  0.375000  1
  O  O22  1  0.057057  0.057057  0.875000  1
  O  O23  1  0.057057  0.942943  0.625000  1
  O  O24  1  0.047686  0.450551  0.875723  1
  O  O25  1  0.248661  0.254836  0.075276  1
  O  O26  1  0.248661  0.745164  0.424724  1
  O  O27  1  0.254836  0.751339  0.825276  1
  O  O28  1  0.254836  0.248661  0.674724  1
  O  O29  1  0.450551  0.047686  0.874277  1
  O  O30  1  0.450551  0.952314  0.625723  1
  O  O31  1  0.455345  0.455345  0.875000  1
  O  O32  1  0.544655  0.544655  0.375000  1
  O  O33  1  0.549449  0.047686  0.125723  1
  O  O34  1  0.544655  0.455345  0.125000  1
  O  O35  1  0.745164  0.248661  0.325276  1
  O  O36  1  0.751339  0.254836  0.924724  1
  O  O37  1  0.942943  0.057057  0.125000  1
  O  O38  1  0.952314  0.549449  0.375723  1
  O  O39  1  0.952314  0.450551  0.124277  1
  O  O40  1  0.047686  0.549449  0.624277  1
  O  O41  1  0.248615  0.248615  0.375000  1
  O  O42  1  0.455345  0.544655  0.625000  1
  O  O43  1  0.751385  0.751385  0.875000  1
