# generated using pymatgen
data_Dy4Hf3Sc3Ga8
_symmetry_space_group_name_H-M   'P 1'
_cell_length_a   7.18632100
_cell_length_b   7.55004817
_cell_length_c   14.35981279
_cell_angle_alpha   89.98882752
_cell_angle_beta   89.91737169
_cell_angle_gamma   89.91290925
_symmetry_Int_Tables_number   1
_chemical_formula_structural   Dy4Hf3Sc3Ga8
_chemical_formula_sum   'Dy8 Hf6 Sc6 Ga16'
_cell_volume   779.11963815
_cell_formula_units_Z   2
loop_
 _symmetry_equiv_pos_site_id
 _symmetry_equiv_pos_as_xyz
  1  'x, y, z'
loop_
 _atom_site_type_symbol
 _atom_site_label
 _atom_site_symmetry_multiplicity
 _atom_site_fract_x
 _atom_site_fract_y
 _atom_site_fract_z
 _atom_site_occupancy
  Dy  Dy0  1  0.009645  0.177183  0.093156  1
  Dy  Dy1  1  0.990355  0.822817  0.906844  1
  Dy  Dy2  1  0.490866  0.676335  0.906030  1
  Dy  Dy3  1  0.990809  0.824887  0.592717  1
  Dy  Dy4  1  0.509134  0.323665  0.093970  1
  Dy  Dy5  1  0.009191  0.175113  0.407283  1
  Dy  Dy6  1  0.508988  0.325369  0.406862  1
  Dy  Dy7  1  0.491012  0.674631  0.593138  1
  Hf  Hf8  1  0.328504  0.175903  0.623734  1
  Hf  Hf9  1  0.671496  0.824097  0.376266  1
  Hf  Hf10  1  0.171475  0.676025  0.376792  1
  Hf  Hf11  1  0.671791  0.826994  0.124332  1
  Hf  Hf12  1  0.828525  0.323975  0.623208  1
  Hf  Hf13  1  0.328209  0.173006  0.875668  1
  Sc  Sc14  1  0.161455  0.505738  0.750258  1
  Sc  Sc15  1  0.838545  0.494262  0.249742  1
  Sc  Sc16  1  0.337755  0.004405  0.249625  1
  Sc  Sc17  1  0.662245  0.995595  0.750375  1
  Sc  Sc18  1  0.827455  0.326562  0.877194  1
  Sc  Sc19  1  0.172545  0.673438  0.122806  1
  Ga  Ga20  1  0.030500  0.120392  0.749004  1
  Ga  Ga21  1  0.969500  0.879608  0.250996  1
  Ga  Ga22  1  0.470134  0.621168  0.251299  1
  Ga  Ga23  1  0.529866  0.378832  0.748701  1
  Ga  Ga24  1  0.285175  0.876176  0.748904  1
  Ga  Ga25  1  0.714825  0.123824  0.251096  1
  Ga  Ga26  1  0.215671  0.374235  0.251987  1
  Ga  Ga27  1  0.784329  0.625765  0.748013  1
  Ga  Ga28  1  0.161794  0.461741  0.539932  1
  Ga  Ga29  1  0.838206  0.538259  0.460068  1
  Ga  Ga30  1  0.338964  0.961716  0.460146  1
  Ga  Ga31  1  0.837713  0.538303  0.041728  1
  Ga  Ga32  1  0.661036  0.038284  0.539854  1
  Ga  Ga33  1  0.162287  0.461697  0.958272  1
  Ga  Ga34  1  0.659763  0.035830  0.959668  1
  Ga  Ga35  1  0.340237  0.964170  0.040332  1
