# generated using pymatgen
data_Nb9(FeS3)2
_symmetry_space_group_name_H-M   'P 1'
_cell_length_a   10.51694900
_cell_length_b   10.51694875
_cell_length_c   6.63349500
_cell_angle_alpha   90.00000000
_cell_angle_beta   90.00000000
_cell_angle_gamma   119.99999765
_symmetry_Int_Tables_number   1
_chemical_formula_structural   Nb9(FeS3)2
_chemical_formula_sum   'Nb18 Fe4 S12'
_cell_volume   635.40784632
_cell_formula_units_Z   2
loop_
 _symmetry_equiv_pos_site_id
 _symmetry_equiv_pos_as_xyz
  1  'x, y, z'
loop_
 _atom_site_type_symbol
 _atom_site_label
 _atom_site_symmetry_multiplicity
 _atom_site_fract_x
 _atom_site_fract_y
 _atom_site_fract_z
 _atom_site_occupancy
  Nb  Nb0  1  0.785245  0.528840  0.999945  1
  Nb  Nb1  1  0.743595  0.214755  0.999945  1
  Nb  Nb2  1  0.471160  0.256405  0.999945  1
  Nb  Nb3  1  0.256404  0.471106  0.000072  1
  Nb  Nb4  1  0.528894  0.785298  0.000072  1
  Nb  Nb5  1  0.214702  0.743596  0.000072  1
  Nb  Nb6  1  0.736088  0.191277  0.499941  1
  Nb  Nb7  1  0.808723  0.544810  0.499941  1
  Nb  Nb8  1  0.455190  0.263912  0.499941  1
  Nb  Nb9  1  0.263914  0.455222  0.500051  1
  Nb  Nb10  1  0.544778  0.808692  0.500051  1
  Nb  Nb11  1  0.191308  0.736086  0.500051  1
  Nb  Nb12  1  0.459384  0.000077  0.753166  1
  Nb  Nb13  1  0.540634  0.540683  0.246838  1
  Nb  Nb14  1  0.000049  0.459366  0.246838  1
  Nb  Nb15  1  0.999923  0.459307  0.753166  1
  Nb  Nb16  1  0.540693  0.540616  0.753166  1
  Nb  Nb17  1  0.459317  0.999951  0.246838  1
  Fe  Fe18  1  0.666667  0.333333  0.281222  1
  Fe  Fe19  1  0.666667  0.333333  0.718475  1
  Fe  Fe20  1  0.333333  0.666667  0.718711  1
  Fe  Fe21  1  0.333333  0.666667  0.281559  1
  S  S22  1  0.698034  0.000054  0.764853  1
  S  S23  1  0.301994  0.302004  0.235148  1
  S  S24  1  0.000010  0.698006  0.235148  1
  S  S25  1  0.999946  0.697981  0.764853  1
  S  S26  1  0.302019  0.301966  0.764853  1
  S  S27  1  0.697996  0.999990  0.235148  1
  S  S28  1  0.999982  0.281178  0.499989  1
  S  S29  1  0.718822  0.718804  0.499989  1
  S  S30  1  0.281196  0.000018  0.499989  1
  S  S31  1  0.999971  0.279494  0.000008  1
  S  S32  1  0.720506  0.720478  0.000008  1
  S  S33  1  0.279522  0.000029  0.000008  1
