# generated using pymatgen
data_Pr4ScMn4Ag3O20
_symmetry_space_group_name_H-M   'P 1'
_cell_length_a   5.88693100
_cell_length_b   7.90397388
_cell_length_c   8.93062176
_cell_angle_alpha   89.03006465
_cell_angle_beta   90.00000000
_cell_angle_gamma   90.00000000
_symmetry_Int_Tables_number   1
_chemical_formula_structural   Pr4ScMn4Ag3O20
_chemical_formula_sum   'Pr4 Sc1 Mn4 Ag3 O20'
_cell_volume   415.48361892
_cell_formula_units_Z   1
loop_
 _symmetry_equiv_pos_site_id
 _symmetry_equiv_pos_as_xyz
  1  'x, y, z'
loop_
 _atom_site_type_symbol
 _atom_site_label
 _atom_site_symmetry_multiplicity
 _atom_site_fract_x
 _atom_site_fract_y
 _atom_site_fract_z
 _atom_site_occupancy
  Pr  Pr0  1  0.000000  0.359881  0.677038  1
  Pr  Pr1  1  0.000000  0.642742  0.323802  1
  Pr  Pr2  1  0.000000  0.848405  0.827534  1
  Pr  Pr3  1  0.000000  0.156552  0.169104  1
  Sc  Sc4  1  0.500000  0.387311  0.355035  1
  Mn  Mn5  1  0.258724  0.498960  0.003271  1
  Mn  Mn6  1  0.746168  0.001793  0.498675  1
  Mn  Mn7  1  0.741276  0.498960  0.003271  1
  Mn  Mn8  1  0.253832  0.001793  0.498675  1
  Ag  Ag9  1  0.500000  0.067116  0.840552  1
  Ag  Ag10  1  0.500000  0.932783  0.156593  1
  Ag  Ag11  1  0.500000  0.568812  0.655060  1
  O  O12  1  0.233641  0.909482  0.299067  1
  O  O13  1  0.234935  0.095693  0.697984  1
  O  O14  1  0.759962  0.405838  0.205180  1
  O  O15  1  0.763812  0.594686  0.799370  1
  O  O16  1  0.765065  0.095693  0.697984  1
  O  O17  1  0.766359  0.909482  0.299067  1
  O  O18  1  0.236188  0.594686  0.799370  1
  O  O19  1  0.240038  0.405838  0.205180  1
  O  O20  1  0.500000  0.357400  0.946324  1
  O  O21  1  0.500000  0.640930  0.060499  1
  O  O22  1  0.500000  0.864058  0.557252  1
  O  O23  1  0.500000  0.149459  0.434458  1
  O  O24  1  0.257893  0.999672  0.998335  1
  O  O25  1  0.738342  0.501575  0.498399  1
  O  O26  1  0.742107  0.999672  0.998335  1
  O  O27  1  0.261658  0.501575  0.498399  1
  O  O28  1  0.000000  0.158568  0.448259  1
  O  O29  1  0.000000  0.850380  0.548902  1
  O  O30  1  0.000000  0.654308  0.050400  1
  O  O31  1  0.000000  0.345905  0.948624  1
