# generated using pymatgen
data_HoMgScB2Ir5
_symmetry_space_group_name_H-M   'P 1'
_cell_length_a   3.07631200
_cell_length_b   9.65692029
_cell_length_c   9.65692029
_cell_angle_alpha   88.50366914
_cell_angle_beta   90.00000000
_cell_angle_gamma   90.00000000
_symmetry_Int_Tables_number   1
_chemical_formula_structural   HoMgScB2Ir5
_chemical_formula_sum   'Ho2 Mg2 Sc2 B4 Ir10'
_cell_volume   286.78706069
_cell_formula_units_Z   2
loop_
 _symmetry_equiv_pos_site_id
 _symmetry_equiv_pos_as_xyz
  1  'x, y, z'
loop_
 _atom_site_type_symbol
 _atom_site_label
 _atom_site_symmetry_multiplicity
 _atom_site_fract_x
 _atom_site_fract_y
 _atom_site_fract_z
 _atom_site_occupancy
  Ho  Ho0  1  0.000000  0.179265  0.679265  1
  Ho  Ho1  1  0.000000  0.820735  0.320735  1
  Mg  Mg2  1  0.000000  0.000000  0.000000  1
  Mg  Mg3  1  0.000000  0.500000  0.500000  1
  Sc  Sc4  1  0.000000  0.323257  0.176743  1
  Sc  Sc5  1  0.000000  0.676743  0.823257  1
  B  B6  1  0.000000  0.623174  0.123174  1
  B  B7  1  0.000000  0.376826  0.876826  1
  B  B8  1  0.000000  0.873540  0.626460  1
  B  B9  1  0.000000  0.126460  0.373540  1
  Ir  Ir10  1  0.500000  0.076170  0.219150  1
  Ir  Ir11  1  0.500000  0.923830  0.780850  1
  Ir  Ir12  1  0.500000  0.774697  0.061429  1
  Ir  Ir13  1  0.500000  0.438571  0.725303  1
  Ir  Ir14  1  0.500000  0.225303  0.938571  1
  Ir  Ir15  1  0.500000  0.561429  0.274697  1
  Ir  Ir16  1  0.500000  0.719150  0.576170  1
  Ir  Ir17  1  0.500000  0.280850  0.423830  1
  Ir  Ir18  1  0.500000  0.000000  0.500000  1
  Ir  Ir19  1  0.500000  0.500000  0.000000  1
