# generated using pymatgen
data_ScTi(SnRu2)2
_symmetry_space_group_name_H-M   'P 1'
_cell_length_a   7.79648826
_cell_length_b   7.79648783
_cell_length_c   7.79648780
_cell_angle_alpha   33.56686693
_cell_angle_beta   33.56687431
_cell_angle_gamma   33.56685163
_symmetry_Int_Tables_number   1
_chemical_formula_structural   ScTi(SnRu2)2
_chemical_formula_sum   'Sc1 Ti1 Sn2 Ru4'
_cell_volume   129.04919490
_cell_formula_units_Z   1
loop_
 _symmetry_equiv_pos_site_id
 _symmetry_equiv_pos_as_xyz
  1  'x, y, z'
loop_
 _atom_site_type_symbol
 _atom_site_label
 _atom_site_symmetry_multiplicity
 _atom_site_fract_x
 _atom_site_fract_y
 _atom_site_fract_z
 _atom_site_occupancy
  Sc  Sc0  1  0.000000  0.000000  0.000000  1
  Ti  Ti1  1  0.500000  0.500000  0.500000  1
  Sn  Sn2  1  0.250408  0.250408  0.250408  1
  Sn  Sn3  1  0.749592  0.749592  0.749592  1
  Ru  Ru4  1  0.622227  0.622227  0.622227  1
  Ru  Ru5  1  0.127252  0.127252  0.127252  1
  Ru  Ru6  1  0.872748  0.872748  0.872748  1
  Ru  Ru7  1  0.377773  0.377773  0.377773  1
