# generated using pymatgen
data_Pr2Re13W4C3
_symmetry_space_group_name_H-M   'P 1'
_cell_length_a   7.09017511
_cell_length_b   7.09017588
_cell_length_c   7.12667600
_cell_angle_alpha   82.83124459
_cell_angle_beta   82.83124473
_cell_angle_gamma   82.75731413
_symmetry_Int_Tables_number   1
_chemical_formula_structural   Pr2Re13W4C3
_chemical_formula_sum   'Pr2 Re13 W4 C3'
_cell_volume   350.45409844
_cell_formula_units_Z   1
loop_
 _symmetry_equiv_pos_site_id
 _symmetry_equiv_pos_as_xyz
  1  'x, y, z'
loop_
 _atom_site_type_symbol
 _atom_site_label
 _atom_site_symmetry_multiplicity
 _atom_site_fract_x
 _atom_site_fract_y
 _atom_site_fract_z
 _atom_site_occupancy
  Pr  Pr0  1  0.648963  0.648963  0.648913  1
  Pr  Pr1  1  0.351037  0.351037  0.351087  1
  Re  Re2  1  0.000000  0.000000  0.500000  1
  Re  Re3  1  0.500000  0.000000  0.000000  1
  Re  Re4  1  0.000000  0.500000  0.000000  1
  Re  Re5  1  0.717680  0.282320  0.000000  1
  Re  Re6  1  0.001096  0.719991  0.281358  1
  Re  Re7  1  0.280009  0.998904  0.718642  1
  Re  Re8  1  0.998904  0.280009  0.718642  1
  Re  Re9  1  0.719991  0.001096  0.281358  1
  Re  Re10  1  0.282320  0.717680  0.000000  1
  Re  Re11  1  0.862881  0.347720  0.348193  1
  Re  Re12  1  0.347720  0.862881  0.348193  1
  Re  Re13  1  0.137119  0.652280  0.651807  1
  Re  Re14  1  0.652280  0.137119  0.651807  1
  W  W15  1  0.344011  0.344011  0.860332  1
  W  W16  1  0.655989  0.655989  0.139668  1
  W  W17  1  0.902512  0.902512  0.899639  1
  W  W18  1  0.097488  0.097488  0.100361  1
  C  C19  1  0.500000  0.500000  0.000000  1
  C  C20  1  0.000000  0.500000  0.500000  1
  C  C21  1  0.500000  0.000000  0.500000  1
