# generated using pymatgen
data_CaTmBO4
_symmetry_space_group_name_H-M   'P 1'
_cell_length_a   3.55845100
_cell_length_b   9.60370100
_cell_length_c   10.48824900
_cell_angle_alpha   90.00000000
_cell_angle_beta   90.00000000
_cell_angle_gamma   90.00000000
_symmetry_Int_Tables_number   1
_chemical_formula_structural   CaTmBO4
_chemical_formula_sum   'Ca4 Tm4 B4 O16'
_cell_volume   358.42856179
_cell_formula_units_Z   4
loop_
 _symmetry_equiv_pos_site_id
 _symmetry_equiv_pos_as_xyz
  1  'x, y, z'
loop_
 _atom_site_type_symbol
 _atom_site_label
 _atom_site_symmetry_multiplicity
 _atom_site_fract_x
 _atom_site_fract_y
 _atom_site_fract_z
 _atom_site_occupancy
  Ca  Ca0  1  0.250000  0.669216  0.083950  1
  Ca  Ca1  1  0.750000  0.330784  0.916050  1
  Ca  Ca2  1  0.750000  0.169216  0.416050  1
  Ca  Ca3  1  0.250000  0.830784  0.583950  1
  Tm  Tm4  1  0.250000  0.086763  0.111173  1
  Tm  Tm5  1  0.750000  0.913237  0.888827  1
  Tm  Tm6  1  0.750000  0.586763  0.388827  1
  Tm  Tm7  1  0.250000  0.413237  0.611173  1
  B  B8  1  0.250000  0.367403  0.200528  1
  B  B9  1  0.750000  0.632597  0.799472  1
  B  B10  1  0.750000  0.867403  0.299472  1
  B  B11  1  0.250000  0.132597  0.700528  1
  O  O12  1  0.250000  0.499586  0.253995  1
  O  O13  1  0.750000  0.500414  0.746005  1
  O  O14  1  0.750000  0.999586  0.246005  1
  O  O15  1  0.250000  0.000414  0.753995  1
  O  O16  1  0.250000  0.246721  0.274747  1
  O  O17  1  0.750000  0.753279  0.725253  1
  O  O18  1  0.750000  0.746721  0.225253  1
  O  O19  1  0.250000  0.253279  0.774747  1
  O  O20  1  0.250000  0.351180  0.067971  1
  O  O21  1  0.750000  0.648820  0.932029  1
  O  O22  1  0.750000  0.851180  0.432029  1
  O  O23  1  0.250000  0.148820  0.567971  1
  O  O24  1  0.250000  0.613068  0.505774  1
  O  O25  1  0.750000  0.386932  0.494226  1
  O  O26  1  0.750000  0.113068  0.994226  1
  O  O27  1  0.250000  0.886932  0.005774  1
