# generated using pymatgen
data_Y3MgGe6Ir7
_symmetry_space_group_name_H-M   'P 1'
_cell_length_a   7.20458302
_cell_length_b   7.35280626
_cell_length_c   7.20458308
_cell_angle_alpha   109.88852182
_cell_angle_beta   109.05072407
_cell_angle_gamma   109.88851221
_symmetry_Int_Tables_number   1
_chemical_formula_structural   Y3MgGe6Ir7
_chemical_formula_sum   'Y3 Mg1 Ge6 Ir7'
_cell_volume   292.27141185
_cell_formula_units_Z   1
loop_
 _symmetry_equiv_pos_site_id
 _symmetry_equiv_pos_as_xyz
  1  'x, y, z'
loop_
 _atom_site_type_symbol
 _atom_site_label
 _atom_site_symmetry_multiplicity
 _atom_site_fract_x
 _atom_site_fract_y
 _atom_site_fract_z
 _atom_site_occupancy
  Y  Y0  1  0.000000  0.000000  0.500000  1
  Y  Y1  1  0.500000  0.000000  0.000000  1
  Y  Y2  1  0.500000  0.500000  0.500000  1
  Mg  Mg3  1  0.000000  0.500000  0.000000  1
  Ge  Ge4  1  0.686209  0.680081  0.000000  1
  Ge  Ge5  1  0.313791  0.993873  0.313791  1
  Ge  Ge6  1  0.000000  0.319919  0.313791  1
  Ge  Ge7  1  0.313791  0.319919  0.000000  1
  Ge  Ge8  1  0.686209  0.006127  0.686209  1
  Ge  Ge9  1  0.000000  0.680081  0.686209  1
  Ir  Ir10  1  0.753725  0.253725  0.507450  1
  Ir  Ir11  1  0.753725  0.500000  0.246275  1
  Ir  Ir12  1  0.507450  0.253725  0.753725  1
  Ir  Ir13  1  0.246275  0.500000  0.753725  1
  Ir  Ir14  1  0.246275  0.746275  0.492550  1
  Ir  Ir15  1  0.492550  0.746275  0.246275  1
  Ir  Ir16  1  0.000000  0.000000  0.000000  1
