# generated using pymatgen
data_Tb4PtPb3O14
_symmetry_space_group_name_H-M   'P 1'
_cell_length_a   7.52758029
_cell_length_b   7.53270407
_cell_length_c   7.53270400
_cell_angle_alpha   60.00000032
_cell_angle_beta   59.97748144
_cell_angle_gamma   59.97748536
_symmetry_Int_Tables_number   1
_chemical_formula_structural   Tb4PtPb3O14
_chemical_formula_sum   'Tb4 Pt1 Pb3 O14'
_cell_volume   301.92169220
_cell_formula_units_Z   1
loop_
 _symmetry_equiv_pos_site_id
 _symmetry_equiv_pos_as_xyz
  1  'x, y, z'
loop_
 _atom_site_type_symbol
 _atom_site_label
 _atom_site_symmetry_multiplicity
 _atom_site_fract_x
 _atom_site_fract_y
 _atom_site_fract_z
 _atom_site_occupancy
  Tb  Tb0  1  0.625000  0.625000  0.125000  1
  Tb  Tb1  1  0.625000  0.125000  0.625000  1
  Tb  Tb2  1  0.125000  0.625000  0.625000  1
  Tb  Tb3  1  0.625000  0.625000  0.625000  1
  Pt  Pt4  1  0.625000  0.125000  0.125000  1
  Pb  Pb5  1  0.125000  0.125000  0.625000  1
  Pb  Pb6  1  0.125000  0.625000  0.125000  1
  Pb  Pb7  1  0.125000  0.125000  0.125000  1
  O  O8  1  0.503152  0.498949  0.498949  1
  O  O9  1  0.746848  0.751051  0.751051  1
  O  O10  1  0.477833  0.033375  0.455417  1
  O  O11  1  0.234201  0.772372  0.221054  1
  O  O12  1  0.477833  0.455417  0.033375  1
  O  O13  1  0.015799  0.477628  0.477628  1
  O  O14  1  0.477833  0.033375  0.033375  1
  O  O15  1  0.015799  0.028946  0.477628  1
  O  O16  1  0.015799  0.477628  0.028946  1
  O  O17  1  0.772167  0.216625  0.216625  1
  O  O18  1  0.234201  0.772372  0.772372  1
  O  O19  1  0.772167  0.216625  0.794583  1
  O  O20  1  0.234201  0.221054  0.772372  1
  O  O21  1  0.772167  0.794583  0.216625  1
