# generated using pymatgen
data_Pr3PaAl17GaIr6
_symmetry_space_group_name_H-M   'P 1'
_cell_length_a   7.63038757
_cell_length_b   7.61833138
_cell_length_c   9.55707800
_cell_angle_alpha   90.00000000
_cell_angle_beta   90.00000000
_cell_angle_gamma   119.47629224
_symmetry_Int_Tables_number   1
_chemical_formula_structural   Pr3PaAl17GaIr6
_chemical_formula_sum   'Pr3 Pa1 Al17 Ga1 Ir6'
_cell_volume   483.64865514
_cell_formula_units_Z   1
loop_
 _symmetry_equiv_pos_site_id
 _symmetry_equiv_pos_as_xyz
  1  'x, y, z'
loop_
 _atom_site_type_symbol
 _atom_site_label
 _atom_site_symmetry_multiplicity
 _atom_site_fract_x
 _atom_site_fract_y
 _atom_site_fract_z
 _atom_site_occupancy
  Pr  Pr0  1  0.005415  0.327432  0.750000  1
  Pr  Pr1  1  0.671328  0.994663  0.250000  1
  Pr  Pr2  1  0.327707  0.004955  0.750000  1
  Pa  Pa3  1  0.996254  0.672528  0.250000  1
  Al  Al4  1  0.134146  0.131306  0.250000  1
  Al  Al5  1  0.002452  0.334645  0.075509  1
  Al  Al6  1  0.996942  0.664312  0.926873  1
  Al  Al7  1  0.996942  0.664312  0.573127  1
  Al  Al8  1  0.337211  0.003893  0.424462  1
  Al  Al9  1  0.002452  0.334645  0.424491  1
  Al  Al10  1  0.664773  0.997384  0.572690  1
  Al  Al11  1  0.664773  0.997384  0.927310  1
  Al  Al12  1  0.337211  0.003893  0.075538  1
  Al  Al13  1  0.334566  0.334537  0.547811  1
  Al  Al14  1  0.663687  0.664589  0.448195  1
  Al  Al15  1  0.663687  0.664589  0.051805  1
  Al  Al16  1  0.334566  0.334537  0.952189  1
  Al  Al17  1  0.336598  0.545088  0.250000  1
  Al  Al18  1  0.660908  0.452809  0.750000  1
  Al  Al19  1  0.548100  0.345211  0.250000  1
  Al  Al20  1  0.452983  0.661240  0.750000  1
  Ga  Ga21  1  0.866385  0.866695  0.750000  1
  Ir  Ir22  1  0.673734  0.332038  0.002975  1
  Ir  Ir23  1  0.326992  0.671437  0.003107  1
  Ir  Ir24  1  0.326992  0.671437  0.496893  1
  Ir  Ir25  1  0.673734  0.332038  0.497025  1
  Ir  Ir26  1  0.999732  0.996202  0.007070  1
  Ir  Ir27  1  0.999732  0.996202  0.492930  1
