# generated using pymatgen
data_Pr2MnSi2IrC
_symmetry_space_group_name_H-M   'P 1'
_cell_length_a   5.90610427
_cell_length_b   5.90610419
_cell_length_c   7.07628589
_cell_angle_alpha   125.87594441
_cell_angle_beta   125.87594416
_cell_angle_gamma   40.67005061
_symmetry_Int_Tables_number   1
_chemical_formula_structural   Pr2MnSi2IrC
_chemical_formula_sum   'Pr2 Mn1 Si2 Ir1 C1'
_cell_volume   125.57593969
_cell_formula_units_Z   1
loop_
 _symmetry_equiv_pos_site_id
 _symmetry_equiv_pos_as_xyz
  1  'x, y, z'
loop_
 _atom_site_type_symbol
 _atom_site_label
 _atom_site_symmetry_multiplicity
 _atom_site_fract_x
 _atom_site_fract_y
 _atom_site_fract_z
 _atom_site_occupancy
  Pr  Pr0  1  0.562288  0.562288  0.298478  1
  Pr  Pr1  1  0.438802  0.438802  0.698325  1
  Mn  Mn2  1  0.800484  0.800484  0.909136  1
  Si  Si3  1  0.837438  0.837438  0.277576  1
  Si  Si4  1  0.173285  0.173285  0.729267  1
  Ir  Ir5  1  0.200882  0.200882  0.096795  1
  C  C6  1  0.986819  0.986819  0.990422  1
