# generated using pymatgen
data_Dy4Cr3GeF28
_symmetry_space_group_name_H-M   'P 1'
_cell_length_a   5.49327496
_cell_length_b   8.78833994
_cell_length_c   11.72453400
_cell_angle_alpha   62.69592950
_cell_angle_beta   90.09122229
_cell_angle_gamma   90.01692722
_symmetry_Int_Tables_number   1
_chemical_formula_structural   Dy4Cr3GeF28
_chemical_formula_sum   'Dy4 Cr3 Ge1 F28'
_cell_volume   502.95829838
_cell_formula_units_Z   1
loop_
 _symmetry_equiv_pos_site_id
 _symmetry_equiv_pos_as_xyz
  1  'x, y, z'
loop_
 _atom_site_type_symbol
 _atom_site_label
 _atom_site_symmetry_multiplicity
 _atom_site_fract_x
 _atom_site_fract_y
 _atom_site_fract_z
 _atom_site_occupancy
  Dy  Dy0  1  0.264911  0.810951  0.264742  1
  Dy  Dy1  1  0.732617  0.187379  0.736713  1
  Dy  Dy2  1  0.766010  0.192125  0.233957  1
  Dy  Dy3  1  0.235540  0.809727  0.765457  1
  Cr  Cr4  1  0.242173  0.274468  0.956283  1
  Cr  Cr5  1  0.257958  0.274425  0.456568  1
  Cr  Cr6  1  0.742372  0.725416  0.543659  1
  Ge  Ge7  1  0.757610  0.726106  0.043099  1
  F  F8  1  0.934377  0.707731  0.422007  1
  F  F9  1  0.065568  0.292413  0.577684  1
  F  F10  1  0.433694  0.292119  0.078103  1
  F  F11  1  0.563638  0.706501  0.923810  1
  F  F12  1  0.487727  0.730525  0.134119  1
  F  F13  1  0.522525  0.271029  0.863592  1
  F  F14  1  0.977817  0.270020  0.363950  1
  F  F15  1  0.022895  0.729458  0.636907  1
  F  F16  1  0.950352  0.742865  0.166364  1
  F  F17  1  0.050938  0.256675  0.831598  1
  F  F18  1  0.449692  0.256259  0.331810  1
  F  F19  1  0.550454  0.743857  0.667999  1
  F  F20  1  0.766990  0.493288  0.136348  1
  F  F21  1  0.232062  0.510020  0.862930  1
  F  F22  1  0.268272  0.510140  0.361288  1
  F  F23  1  0.733402  0.490249  0.637881  1
  F  F24  1  0.954883  0.281637  0.044358  1
  F  F25  1  0.036423  0.716543  0.958599  1
  F  F26  1  0.454704  0.718302  0.454906  1
  F  F27  1  0.545153  0.281506  0.544937  1
  F  F28  1  0.742178  0.959315  0.453014  1
  F  F29  1  0.259116  0.040164  0.547034  1
  F  F30  1  0.243318  0.040091  0.046984  1
  F  F31  1  0.760733  0.958513  0.953209  1
  F  F32  1  0.588275  0.974175  0.227319  1
  F  F33  1  0.406368  0.027884  0.772382  1
  F  F34  1  0.088375  0.026143  0.272874  1
  F  F35  1  0.910877  0.971983  0.727517  1
