# generated using pymatgen
data_Zr12Al9Pd3O4
_symmetry_space_group_name_H-M   'P 1'
_cell_length_a   8.64998153
_cell_length_b   8.64998294
_cell_length_c   8.64998200
_cell_angle_alpha   60.07684137
_cell_angle_beta   60.07683600
_cell_angle_gamma   60.07683156
_symmetry_Int_Tables_number   1
_chemical_formula_structural   Zr12Al9Pd3O4
_chemical_formula_sum   'Zr12 Al9 Pd3 O4'
_cell_volume   458.44388459
_cell_formula_units_Z   1
loop_
 _symmetry_equiv_pos_site_id
 _symmetry_equiv_pos_as_xyz
  1  'x, y, z'
loop_
 _atom_site_type_symbol
 _atom_site_label
 _atom_site_symmetry_multiplicity
 _atom_site_fract_x
 _atom_site_fract_y
 _atom_site_fract_z
 _atom_site_occupancy
  Zr  Zr0  1  0.813913  0.187329  0.187329  1
  Zr  Zr1  1  0.187329  0.813913  0.187329  1
  Zr  Zr2  1  0.810568  0.810568  0.194063  1
  Zr  Zr3  1  0.194063  0.810568  0.810568  1
  Zr  Zr4  1  0.810568  0.194063  0.810568  1
  Zr  Zr5  1  0.187329  0.187329  0.813913  1
  Zr  Zr6  1  0.436087  0.062671  0.062671  1
  Zr  Zr7  1  0.062671  0.436087  0.062671  1
  Zr  Zr8  1  0.439432  0.439432  0.055937  1
  Zr  Zr9  1  0.055937  0.439432  0.439432  1
  Zr  Zr10  1  0.439432  0.055937  0.439432  1
  Zr  Zr11  1  0.062671  0.062671  0.436087  1
  Al  Al12  1  0.412840  0.412840  0.749153  1
  Al  Al13  1  0.417431  0.417431  0.417431  1
  Al  Al14  1  0.749153  0.412840  0.412840  1
  Al  Al15  1  0.412840  0.749153  0.412840  1
  Al  Al16  1  0.837160  0.837160  0.500847  1
  Al  Al17  1  0.832569  0.832569  0.832569  1
  Al  Al18  1  0.500847  0.837160  0.837160  1
  Al  Al19  1  0.837160  0.500847  0.837160  1
  Al  Al20  1  0.625000  0.625000  0.625000  1
  Pd  Pd21  1  0.625000  0.625000  0.125000  1
  Pd  Pd22  1  0.125000  0.625000  0.625000  1
  Pd  Pd23  1  0.625000  0.125000  0.625000  1
  O  O24  1  0.125000  0.125000  0.625000  1
  O  O25  1  0.125000  0.125000  0.125000  1
  O  O26  1  0.625000  0.125000  0.125000  1
  O  O27  1  0.125000  0.625000  0.125000  1
