# generated using pymatgen
data_Sr4LaPr3(BO4)4
_symmetry_space_group_name_H-M   'P 1'
_cell_length_a   3.85825900
_cell_length_b   10.06590451
_cell_length_c   11.10326177
_cell_angle_alpha   90.08100713
_cell_angle_beta   90.00000000
_cell_angle_gamma   90.00000000
_symmetry_Int_Tables_number   1
_chemical_formula_structural   Sr4LaPr3(BO4)4
_chemical_formula_sum   'Sr4 La1 Pr3 B4 O16'
_cell_volume   431.21546635
_cell_formula_units_Z   1
loop_
 _symmetry_equiv_pos_site_id
 _symmetry_equiv_pos_as_xyz
  1  'x, y, z'
loop_
 _atom_site_type_symbol
 _atom_site_label
 _atom_site_symmetry_multiplicity
 _atom_site_fract_x
 _atom_site_fract_y
 _atom_site_fract_z
 _atom_site_occupancy
  Sr  Sr0  1  0.250000  0.669657  0.078999  1
  Sr  Sr1  1  0.750000  0.330068  0.921197  1
  Sr  Sr2  1  0.750000  0.169308  0.421048  1
  Sr  Sr3  1  0.250000  0.831430  0.578837  1
  La  La4  1  0.250000  0.417378  0.617344  1
  Pr  Pr5  1  0.250000  0.084821  0.116721  1
  Pr  Pr6  1  0.750000  0.915123  0.883374  1
  Pr  Pr7  1  0.750000  0.585337  0.381931  1
  B  B8  1  0.250000  0.367035  0.201591  1
  B  B9  1  0.750000  0.633353  0.799045  1
  B  B10  1  0.750000  0.867280  0.298195  1
  B  B11  1  0.250000  0.131579  0.701624  1
  O  O12  1  0.250000  0.495949  0.247271  1
  O  O13  1  0.750000  0.504254  0.754079  1
  O  O14  1  0.750000  0.995971  0.252553  1
  O  O15  1  0.250000  0.002991  0.748016  1
  O  O16  1  0.250000  0.256082  0.277635  1
  O  O17  1  0.750000  0.743704  0.722261  1
  O  O18  1  0.750000  0.756219  0.221867  1
  O  O19  1  0.250000  0.242653  0.777786  1
  O  O20  1  0.250000  0.346978  0.076014  1
  O  O21  1  0.750000  0.653955  0.924445  1
  O  O22  1  0.750000  0.847081  0.423704  1
  O  O23  1  0.250000  0.150143  0.575933  1
  O  O24  1  0.250000  0.611863  0.497435  1
  O  O25  1  0.750000  0.389785  0.500703  1
  O  O26  1  0.750000  0.111406  0.001583  1
  O  O27  1  0.250000  0.888598  0.998811  1
