# generated using pymatgen
data_Li3Ce8Si12Ir
_symmetry_space_group_name_H-M   'P 1'
_cell_length_a   8.25505600
_cell_length_b   8.25505755
_cell_length_c   8.22618600
_cell_angle_alpha   90.00000000
_cell_angle_beta   90.00000000
_cell_angle_gamma   119.99999377
_symmetry_Int_Tables_number   1
_chemical_formula_structural   Li3Ce8Si12Ir
_chemical_formula_sum   'Li3 Ce8 Si12 Ir1'
_cell_volume   485.47773065
_cell_formula_units_Z   1
loop_
 _symmetry_equiv_pos_site_id
 _symmetry_equiv_pos_as_xyz
  1  'x, y, z'
loop_
 _atom_site_type_symbol
 _atom_site_label
 _atom_site_symmetry_multiplicity
 _atom_site_fract_x
 _atom_site_fract_y
 _atom_site_fract_z
 _atom_site_occupancy
  Li  Li0  1  0.666667  0.333333  0.502589  1
  Li  Li1  1  0.666667  0.333333  0.997708  1
  Li  Li2  1  0.333333  0.666667  0.004356  1
  Ce  Ce3  1  0.000000  0.000000  0.249520  1
  Ce  Ce4  1  0.000000  0.000000  0.750314  1
  Ce  Ce5  1  0.497026  0.502974  0.254274  1
  Ce  Ce6  1  0.497026  0.994052  0.254274  1
  Ce  Ce7  1  0.005948  0.502974  0.254274  1
  Ce  Ce8  1  0.495654  0.504346  0.745816  1
  Ce  Ce9  1  0.495654  0.991307  0.745816  1
  Ce  Ce10  1  0.008693  0.504346  0.745816  1
  Si  Si11  1  0.164679  0.835321  0.500080  1
  Si  Si12  1  0.164679  0.329360  0.500080  1
  Si  Si13  1  0.670640  0.835321  0.500080  1
  Si  Si14  1  0.834229  0.165771  0.499768  1
  Si  Si15  1  0.834229  0.668457  0.499768  1
  Si  Si16  1  0.331543  0.165771  0.499768  1
  Si  Si17  1  0.834584  0.165416  0.000089  1
  Si  Si18  1  0.834584  0.669166  0.000089  1
  Si  Si19  1  0.330834  0.165416  0.000089  1
  Si  Si20  1  0.165584  0.834416  0.999605  1
  Si  Si21  1  0.165584  0.331168  0.999605  1
  Si  Si22  1  0.668832  0.834416  0.999605  1
  Ir  Ir23  1  0.333333  0.666667  0.496614  1
