# generated using pymatgen
data_Y3HoTh6(Ge5Rh2)4
_symmetry_space_group_name_H-M   'P 1'
_cell_length_a   13.13876502
_cell_length_b   13.13924902
_cell_length_c   4.38946200
_cell_angle_alpha   90.00000000
_cell_angle_beta   90.00000000
_cell_angle_gamma   89.99305770
_symmetry_Int_Tables_number   1
_chemical_formula_structural   Y3HoTh6(Ge5Rh2)4
_chemical_formula_sum   'Y3 Ho1 Th6 Ge20 Rh8'
_cell_volume   757.76820685
_cell_formula_units_Z   1
loop_
 _symmetry_equiv_pos_site_id
 _symmetry_equiv_pos_as_xyz
  1  'x, y, z'
loop_
 _atom_site_type_symbol
 _atom_site_label
 _atom_site_symmetry_multiplicity
 _atom_site_fract_x
 _atom_site_fract_y
 _atom_site_fract_z
 _atom_site_occupancy
  Y  Y0  1  0.324928  0.824931  0.500000  1
  Y  Y1  1  0.824912  0.675084  0.500000  1
  Y  Y2  1  0.175082  0.324914  0.500000  1
  Ho  Ho3  1  0.674964  0.174970  0.500000  1
  Th  Th4  1  0.499999  0.499999  0.000000  1
  Th  Th5  1  0.999993  0.000003  0.000000  1
  Th  Th6  1  0.887565  0.387565  0.500000  1
  Th  Th7  1  0.387727  0.112377  0.500000  1
  Th  Th8  1  0.612376  0.887726  0.500000  1
  Th  Th9  1  0.112368  0.612367  0.500000  1
  Ge  Ge10  1  0.433220  0.933217  0.000000  1
  Ge  Ge11  1  0.933199  0.566811  0.000000  1
  Ge  Ge12  1  0.066819  0.433201  0.000000  1
  Ge  Ge13  1  0.566928  0.066930  0.000000  1
  Ge  Ge14  1  0.337806  0.300501  0.000000  1
  Ge  Ge15  1  0.662245  0.699496  0.000000  1
  Ge  Ge16  1  0.699460  0.337536  0.000000  1
  Ge  Ge17  1  0.300514  0.662229  0.000000  1
  Ge  Ge18  1  0.800504  0.837803  0.000000  1
  Ge  Ge19  1  0.837534  0.199459  0.000000  1
  Ge  Ge20  1  0.162231  0.800514  0.000000  1
  Ge  Ge21  1  0.199497  0.162240  0.000000  1
  Ge  Ge22  1  0.337787  0.497220  0.500000  1
  Ge  Ge23  1  0.662237  0.502754  0.500000  1
  Ge  Ge24  1  0.502940  0.337671  0.500000  1
  Ge  Ge25  1  0.497240  0.662222  0.500000  1
  Ge  Ge26  1  0.997217  0.837787  0.500000  1
  Ge  Ge27  1  0.837671  0.002942  0.500000  1
  Ge  Ge28  1  0.002751  0.162242  0.500000  1
  Ge  Ge29  1  0.162225  0.997240  0.500000  1
  Rh  Rh30  1  0.255773  0.477537  0.000000  1
  Rh  Rh31  1  0.744221  0.522449  0.000000  1
  Rh  Rh32  1  0.522582  0.255734  0.000000  1
  Rh  Rh33  1  0.477540  0.744201  0.000000  1
  Rh  Rh34  1  0.977541  0.755791  0.000000  1
  Rh  Rh35  1  0.755749  0.022583  0.000000  1
  Rh  Rh36  1  0.244191  0.977544  0.000000  1
  Rh  Rh37  1  0.022461  0.244211  0.000000  1
