# generated using pymatgen
data_Ti10Zn2(SnSb)3
_symmetry_space_group_name_H-M   'P 1'
_cell_length_a   8.23802200
_cell_length_b   8.23600532
_cell_length_c   5.54765900
_cell_angle_alpha   90.00000000
_cell_angle_beta   90.00000000
_cell_angle_gamma   120.00810830
_symmetry_Int_Tables_number   1
_chemical_formula_structural   Ti10Zn2(SnSb)3
_chemical_formula_sum   'Ti10 Zn2 Sn3 Sb3'
_cell_volume   325.94510742
_cell_formula_units_Z   1
loop_
 _symmetry_equiv_pos_site_id
 _symmetry_equiv_pos_as_xyz
  1  'x, y, z'
loop_
 _atom_site_type_symbol
 _atom_site_label
 _atom_site_symmetry_multiplicity
 _atom_site_fract_x
 _atom_site_fract_y
 _atom_site_fract_z
 _atom_site_occupancy
  Ti  Ti0  1  0.728041  0.729369  0.250000  1
  Ti  Ti1  1  0.729556  0.000000  0.750000  1
  Ti  Ti2  1  0.998673  0.270631  0.250000  1
  Ti  Ti3  1  0.998391  0.728471  0.750000  1
  Ti  Ti4  1  0.269921  0.271529  0.750000  1
  Ti  Ti5  1  0.271777  0.000000  0.250000  1
  Ti  Ti6  1  0.334157  0.666576  0.499892  1
  Ti  Ti7  1  0.667581  0.333424  0.000108  1
  Ti  Ti8  1  0.667581  0.333424  0.499892  1
  Ti  Ti9  1  0.334157  0.666576  0.000108  1
  Zn  Zn10  1  0.002676  0.000000  0.001212  1
  Zn  Zn11  1  0.002676  0.000000  0.498788  1
  Sn  Sn12  1  0.381770  0.000000  0.750000  1
  Sn  Sn13  1  0.382518  0.381950  0.250000  1
  Sn  Sn14  1  0.000568  0.618050  0.250000  1
  Sb  Sb15  1  0.000814  0.386009  0.750000  1
  Sb  Sb16  1  0.614805  0.613991  0.750000  1
  Sb  Sb17  1  0.614338  0.000000  0.250000  1
