# generated using pymatgen
data_BaNaCrH6
_symmetry_space_group_name_H-M   'P 1'
_cell_length_a   5.53539415
_cell_length_b   5.53539360
_cell_length_c   5.53539300
_cell_angle_alpha   59.99999761
_cell_angle_beta   60.00000091
_cell_angle_gamma   60.00000421
_symmetry_Int_Tables_number   1
_chemical_formula_structural   BaNaCrH6
_chemical_formula_sum   'Ba1 Na1 Cr1 H6'
_cell_volume   119.93074437
_cell_formula_units_Z   1
loop_
 _symmetry_equiv_pos_site_id
 _symmetry_equiv_pos_as_xyz
  1  'x, y, z'
loop_
 _atom_site_type_symbol
 _atom_site_label
 _atom_site_symmetry_multiplicity
 _atom_site_fract_x
 _atom_site_fract_y
 _atom_site_fract_z
 _atom_site_occupancy
  Ba  Ba0  1  0.750000  0.750000  0.750000  1
  Na  Na1  1  0.250000  0.250000  0.250000  1
  Cr  Cr2  1  0.000000  0.000000  0.000000  1
  H  H3  1  0.779264  0.220736  0.220736  1
  H  H4  1  0.220736  0.779264  0.220736  1
  H  H5  1  0.779264  0.779264  0.220736  1
  H  H6  1  0.220736  0.779264  0.779264  1
  H  H7  1  0.779264  0.220736  0.779264  1
  H  H8  1  0.220736  0.220736  0.779264  1
