# generated using pymatgen
data_Ac2CdSi2
_symmetry_space_group_name_H-M   'P 1'
_cell_length_a   7.77940900
_cell_length_b   7.77940900
_cell_length_c   4.62070000
_cell_angle_alpha   90.00000000
_cell_angle_beta   90.00000000
_cell_angle_gamma   90.00000000
_symmetry_Int_Tables_number   1
_chemical_formula_structural   Ac2CdSi2
_chemical_formula_sum   'Ac4 Cd2 Si4'
_cell_volume   279.64108772
_cell_formula_units_Z   2
loop_
 _symmetry_equiv_pos_site_id
 _symmetry_equiv_pos_as_xyz
  1  'x, y, z'
loop_
 _atom_site_type_symbol
 _atom_site_label
 _atom_site_symmetry_multiplicity
 _atom_site_fract_x
 _atom_site_fract_y
 _atom_site_fract_z
 _atom_site_occupancy
  Ac  Ac0  1  0.681829  0.181829  0.500000  1
  Ac  Ac1  1  0.318171  0.818171  0.500000  1
  Ac  Ac2  1  0.181829  0.318171  0.500000  1
  Ac  Ac3  1  0.818171  0.681829  0.500000  1
  Cd  Cd4  1  0.500000  0.500000  0.000000  1
  Cd  Cd5  1  0.000000  0.000000  0.000000  1
  Si  Si6  1  0.110099  0.610099  0.000000  1
  Si  Si7  1  0.889901  0.389901  0.000000  1
  Si  Si8  1  0.610099  0.889901  0.000000  1
  Si  Si9  1  0.389901  0.110099  0.000000  1
