# generated using pymatgen
data_Er2HfZr(SiMo)4
_symmetry_space_group_name_H-M   'P 1'
_cell_length_a   3.58243300
_cell_length_b   7.13743684
_cell_length_c   8.33164161
_cell_angle_alpha   90.17848313
_cell_angle_beta   90.00000000
_cell_angle_gamma   90.00000000
_symmetry_Int_Tables_number   1
_chemical_formula_structural   Er2HfZr(SiMo)4
_chemical_formula_sum   'Er2 Hf1 Zr1 Si4 Mo4'
_cell_volume   213.03395410
_cell_formula_units_Z   1
loop_
 _symmetry_equiv_pos_site_id
 _symmetry_equiv_pos_as_xyz
  1  'x, y, z'
loop_
 _atom_site_type_symbol
 _atom_site_label
 _atom_site_symmetry_multiplicity
 _atom_site_fract_x
 _atom_site_fract_y
 _atom_site_fract_z
 _atom_site_occupancy
  Er  Er0  1  0.250000  0.043116  0.331931  1
  Er  Er1  1  0.750000  0.957183  0.668208  1
  Hf  Hf2  1  0.750000  0.457472  0.834734  1
  Zr  Zr3  1  0.250000  0.541998  0.164672  1
  Si  Si4  1  0.250000  0.267842  0.640491  1
  Si  Si5  1  0.750000  0.732633  0.360227  1
  Si  Si6  1  0.250000  0.752618  0.867069  1
  Si  Si7  1  0.750000  0.246451  0.132343  1
  Mo  Mo8  1  0.750000  0.374975  0.441411  1
  Mo  Mo9  1  0.250000  0.624683  0.559865  1
  Mo  Mo10  1  0.750000  0.869160  0.059696  1
  Mo  Mo11  1  0.250000  0.131868  0.939353  1
