# generated using pymatgen
data_Nb8Fe8Si13Ge
_symmetry_space_group_name_H-M   'P 1'
_cell_length_a   5.03780442
_cell_length_b   9.26033392
_cell_length_c   9.26033454
_cell_angle_alpha   85.79953400
_cell_angle_beta   74.18484005
_cell_angle_gamma   74.18482690
_symmetry_Int_Tables_number   1
_chemical_formula_structural   Nb8Fe8Si13Ge
_chemical_formula_sum   'Nb8 Fe8 Si13 Ge1'
_cell_volume   399.92284423
_cell_formula_units_Z   1
loop_
 _symmetry_equiv_pos_site_id
 _symmetry_equiv_pos_as_xyz
  1  'x, y, z'
loop_
 _atom_site_type_symbol
 _atom_site_label
 _atom_site_symmetry_multiplicity
 _atom_site_fract_x
 _atom_site_fract_y
 _atom_site_fract_z
 _atom_site_occupancy
  Nb  Nb0  1  0.135044  0.000267  0.726295  1
  Nb  Nb1  1  0.860913  0.999790  0.273711  1
  Nb  Nb2  1  0.860913  0.273711  0.999790  1
  Nb  Nb3  1  0.135044  0.726295  0.000267  1
  Nb  Nb4  1  0.502136  0.194489  0.805580  1
  Nb  Nb5  1  0.502136  0.805580  0.194489  1
  Nb  Nb6  1  0.307598  0.194561  0.194561  1
  Nb  Nb7  1  0.696686  0.805439  0.805439  1
  Fe  Fe8  1  0.400152  0.499246  0.200561  1
  Fe  Fe9  1  0.100654  0.500064  0.798859  1
  Fe  Fe10  1  0.100654  0.798859  0.500064  1
  Fe  Fe11  1  0.400152  0.200561  0.499246  1
  Fe  Fe12  1  0.600159  0.799538  0.499904  1
  Fe  Fe13  1  0.898827  0.201201  0.500713  1
  Fe  Fe14  1  0.898827  0.500713  0.201201  1
  Fe  Fe15  1  0.600159  0.499904  0.799538  1
  Si  Si16  1  0.289758  0.000101  0.417921  1
  Si  Si17  1  0.708289  0.000139  0.582057  1
  Si  Si18  1  0.708289  0.582057  0.000139  1
  Si  Si19  1  0.289758  0.417921  0.000101  1
  Si  Si20  1  0.000936  0.298365  0.701319  1
  Si  Si21  1  0.000936  0.701319  0.298365  1
  Si  Si22  1  0.703084  0.298576  0.298576  1
  Si  Si23  1  0.298978  0.701571  0.701571  1
  Si  Si24  1  0.499986  0.405861  0.593958  1
  Si  Si25  1  0.499986  0.593958  0.405861  1
  Si  Si26  1  0.092880  0.405937  0.405937  1
  Si  Si27  1  0.906468  0.593962  0.593962  1
  Si  Si28  1  0.750891  0.000006  0.000006  1
  Ge  Ge29  1  0.249710  0.000010  0.000010  1
