# generated using pymatgen
data_Sr4TbPr2Ag
_symmetry_space_group_name_H-M   'P 1'
_cell_length_a   6.35686320
_cell_length_b   8.24328000
_cell_length_c   20.21652756
_cell_angle_alpha   91.00083887
_cell_angle_beta   89.83728229
_cell_angle_gamma   101.23006354
_symmetry_Int_Tables_number   1
_chemical_formula_structural   Sr4TbPr2Ag
_chemical_formula_sum   'Sr4 Tb1 Pr2 Ag1'
_cell_volume   1038.93198697
_cell_formula_units_Z   1
loop_
 _symmetry_equiv_pos_site_id
 _symmetry_equiv_pos_as_xyz
  1  'x, y, z'
loop_
 _atom_site_type_symbol
 _atom_site_label
 _atom_site_symmetry_multiplicity
 _atom_site_fract_x
 _atom_site_fract_y
 _atom_site_fract_z
 _atom_site_occupancy
  Sr  Sr0  1  0.549696  0.344534  0.634299  1
  Sr  Sr1  1  0.340279  0.288047  0.857421  1
  Sr  Sr2  1  0.052548  0.415330  0.748894  1
  Sr  Sr3  1  0.834883  0.260471  0.231713  1
  Tb  Tb4  1  0.025264  0.946022  0.403053  1
  Pr  Pr5  1  0.827659  0.215097  0.170811  1
  Pr  Pr6  1  0.815904  0.061687  0.172810  1
  Ag  Ag7  1  0.100277  0.919067  0.043921  1
