# generated using pymatgen
data_SmDyRe7Si4Mo
_symmetry_space_group_name_H-M   'P 1'
_cell_length_a   7.72875964
_cell_length_b   7.14679587
_cell_length_c   4.17689100
_cell_angle_alpha   90.00000000
_cell_angle_beta   90.00000000
_cell_angle_gamma   90.33845560
_symmetry_Int_Tables_number   1
_chemical_formula_structural   SmDyRe7Si4Mo
_chemical_formula_sum   'Sm1 Dy1 Re7 Si4 Mo1'
_cell_volume   230.71017254
_cell_formula_units_Z   1
loop_
 _symmetry_equiv_pos_site_id
 _symmetry_equiv_pos_as_xyz
  1  'x, y, z'
loop_
 _atom_site_type_symbol
 _atom_site_label
 _atom_site_symmetry_multiplicity
 _atom_site_fract_x
 _atom_site_fract_y
 _atom_site_fract_z
 _atom_site_occupancy
  Sm  Sm0  1  0.999978  0.001025  0.500000  1
  Dy  Dy1  1  0.501114  0.499282  0.000000  1
  Re  Re2  1  0.606447  0.154629  0.500000  1
  Re  Re3  1  0.395043  0.843648  0.500000  1
  Re  Re4  1  0.891424  0.655497  0.000000  1
  Re  Re5  1  0.160661  0.580286  0.500000  1
  Re  Re6  1  0.835236  0.421339  0.500000  1
  Re  Re7  1  0.343482  0.080286  0.000000  1
  Re  Re8  1  0.658939  0.917407  0.000000  1
  Si  Si9  1  0.692045  0.723481  0.500000  1
  Si  Si10  1  0.309298  0.276083  0.500000  1
  Si  Si11  1  0.194417  0.773535  0.000000  1
  Si  Si12  1  0.803706  0.224804  0.000000  1
  Mo  Mo13  1  0.108210  0.348699  0.000000  1
