# generated using pymatgen
data_Lu8Si16(TcW3)3
_symmetry_space_group_name_H-M   'P 1'
_cell_length_a   6.71053750
_cell_length_b   6.85782138
_cell_length_c   12.75101726
_cell_angle_alpha   89.96757600
_cell_angle_beta   90.04775485
_cell_angle_gamma   90.05933170
_symmetry_Int_Tables_number   1
_chemical_formula_structural   Lu8Si16(TcW3)3
_chemical_formula_sum   'Lu8 Si16 Tc3 W9'
_cell_volume   586.79696319
_cell_formula_units_Z   1
loop_
 _symmetry_equiv_pos_site_id
 _symmetry_equiv_pos_as_xyz
  1  'x, y, z'
loop_
 _atom_site_type_symbol
 _atom_site_label
 _atom_site_symmetry_multiplicity
 _atom_site_fract_x
 _atom_site_fract_y
 _atom_site_fract_z
 _atom_site_occupancy
  Lu  Lu0  1  0.494479  0.332992  0.092635  1
  Lu  Lu1  1  0.992842  0.166525  0.405989  1
  Lu  Lu2  1  0.505506  0.666068  0.593076  1
  Lu  Lu3  1  0.007442  0.833904  0.906580  1
  Lu  Lu4  1  0.503094  0.669475  0.906549  1
  Lu  Lu5  1  0.003466  0.830931  0.593599  1
  Lu  Lu6  1  0.495291  0.331009  0.406569  1
  Lu  Lu7  1  0.998379  0.170658  0.093917  1
  Si  Si8  1  0.659638  0.041407  0.546494  1
  Si  Si9  1  0.158247  0.457304  0.952817  1
  Si  Si10  1  0.340191  0.958336  0.046278  1
  Si  Si11  1  0.839190  0.540336  0.455185  1
  Si  Si12  1  0.334771  0.957627  0.454892  1
  Si  Si13  1  0.837312  0.547068  0.047529  1
  Si  Si14  1  0.665865  0.046492  0.953062  1
  Si  Si15  1  0.163489  0.451907  0.547692  1
  Si  Si16  1  0.531039  0.368506  0.747553  1
  Si  Si17  1  0.031878  0.133392  0.754018  1
  Si  Si18  1  0.470058  0.630152  0.246020  1
  Si  Si19  1  0.965608  0.869121  0.249120  1
  Si  Si20  1  0.804495  0.636710  0.751569  1
  Si  Si21  1  0.304087  0.863775  0.748485  1
  Si  Si22  1  0.198090  0.362287  0.251172  1
  Si  Si23  1  0.696668  0.135573  0.249032  1
  Tc  Tc24  1  0.673322  0.847420  0.121200  1
  Tc  Tc25  1  0.821100  0.347652  0.878730  1
  Tc  Tc26  1  0.326595  0.153132  0.622781  1
  W  W27  1  0.830053  0.338142  0.628856  1
  W  W28  1  0.333624  0.158747  0.872157  1
  W  W29  1  0.171597  0.657470  0.124884  1
  W  W30  1  0.666373  0.837780  0.373169  1
  W  W31  1  0.173178  0.658306  0.376957  1
  W  W32  1  0.668324  0.998060  0.750555  1
  W  W33  1  0.167866  0.503717  0.750408  1
  W  W34  1  0.332478  0.001954  0.250029  1
  W  W35  1  0.834366  0.496065  0.250442  1
