# generated using pymatgen
data_Zr4Si3AsPd4
_symmetry_space_group_name_H-M   'P 1'
_cell_length_a   3.94871600
_cell_length_b   6.67995578
_cell_length_c   7.69346096
_cell_angle_alpha   90.59656225
_cell_angle_beta   90.00000000
_cell_angle_gamma   90.00000000
_symmetry_Int_Tables_number   1
_chemical_formula_structural   Zr4Si3AsPd4
_chemical_formula_sum   'Zr4 Si3 As1 Pd4'
_cell_volume   202.92132993
_cell_formula_units_Z   1
loop_
 _symmetry_equiv_pos_site_id
 _symmetry_equiv_pos_as_xyz
  1  'x, y, z'
loop_
 _atom_site_type_symbol
 _atom_site_label
 _atom_site_symmetry_multiplicity
 _atom_site_fract_x
 _atom_site_fract_y
 _atom_site_fract_z
 _atom_site_occupancy
  Zr  Zr0  1  0.250000  0.025845  0.318366  1
  Zr  Zr1  1  0.250000  0.528053  0.178376  1
  Zr  Zr2  1  0.750000  0.967538  0.683213  1
  Zr  Zr3  1  0.750000  0.472714  0.819857  1
  Si  Si4  1  0.250000  0.760788  0.878071  1
  Si  Si5  1  0.750000  0.741495  0.375909  1
  Si  Si6  1  0.750000  0.239792  0.120111  1
  As  As7  1  0.250000  0.257617  0.627744  1
  Pd  Pd8  1  0.250000  0.138921  0.948732  1
  Pd  Pd9  1  0.250000  0.654626  0.559372  1
  Pd  Pd10  1  0.750000  0.853194  0.062140  1
  Pd  Pd11  1  0.750000  0.359418  0.428110  1
