# generated using pymatgen
data_Er4Zr4IrPt3
_symmetry_space_group_name_H-M   'P 1'
_cell_length_a   4.68251000
_cell_length_b   7.05196221
_cell_length_c   8.23505492
_cell_angle_alpha   90.30411578
_cell_angle_beta   90.00000000
_cell_angle_gamma   90.00000000
_symmetry_Int_Tables_number   1
_chemical_formula_structural   Er4Zr4IrPt3
_chemical_formula_sum   'Er4 Zr4 Ir1 Pt3'
_cell_volume   271.92495925
_cell_formula_units_Z   1
loop_
 _symmetry_equiv_pos_site_id
 _symmetry_equiv_pos_as_xyz
  1  'x, y, z'
loop_
 _atom_site_type_symbol
 _atom_site_label
 _atom_site_symmetry_multiplicity
 _atom_site_fract_x
 _atom_site_fract_y
 _atom_site_fract_z
 _atom_site_occupancy
  Er  Er0  1  0.250000  0.484122  0.180439  1
  Er  Er1  1  0.750000  0.518829  0.821309  1
  Er  Er2  1  0.750000  0.013919  0.675046  1
  Er  Er3  1  0.250000  0.981814  0.323577  1
  Zr  Zr4  1  0.250000  0.851236  0.919371  1
  Zr  Zr5  1  0.750000  0.148586  0.077941  1
  Zr  Zr6  1  0.750000  0.647906  0.424328  1
  Zr  Zr7  1  0.250000  0.356688  0.581352  1
  Ir  Ir8  1  0.250000  0.730692  0.591594  1
  Pt  Pt9  1  0.750000  0.266245  0.404330  1
  Pt  Pt10  1  0.750000  0.768754  0.094948  1
  Pt  Pt11  1  0.250000  0.231210  0.905766  1
