# generated using pymatgen
data_Li4PrNd(TmSi3)2
_symmetry_space_group_name_H-M   'P 1'
_cell_length_a   9.31376304
_cell_length_b   9.31376332
_cell_length_c   6.82091500
_cell_angle_alpha   90.00000000
_cell_angle_beta   90.00000000
_cell_angle_gamma   153.29728940
_symmetry_Int_Tables_number   1
_chemical_formula_structural   Li4PrNd(TmSi3)2
_chemical_formula_sum   'Li4 Pr1 Nd1 Tm2 Si6'
_cell_volume   265.88182467
_cell_formula_units_Z   1
loop_
 _symmetry_equiv_pos_site_id
 _symmetry_equiv_pos_as_xyz
  1  'x, y, z'
loop_
 _atom_site_type_symbol
 _atom_site_label
 _atom_site_symmetry_multiplicity
 _atom_site_fract_x
 _atom_site_fract_y
 _atom_site_fract_z
 _atom_site_occupancy
  Li  Li0  1  0.191077  0.808923  0.059830  1
  Li  Li1  1  0.191077  0.808923  0.440170  1
  Li  Li2  1  0.808957  0.191043  0.940111  1
  Li  Li3  1  0.808957  0.191043  0.559889  1
  Pr  Pr4  1  0.554257  0.445743  0.250000  1
  Nd  Nd5  1  0.445739  0.554261  0.750000  1
  Tm  Tm6  1  0.344521  0.655479  0.250000  1
  Tm  Tm7  1  0.655469  0.344531  0.750000  1
  Si  Si8  1  0.724502  0.275498  0.250000  1
  Si  Si9  1  0.275655  0.724345  0.750000  1
  Si  Si10  1  0.059888  0.940112  0.924438  1
  Si  Si11  1  0.940007  0.059993  0.074864  1
  Si  Si12  1  0.940007  0.059993  0.425136  1
  Si  Si13  1  0.059888  0.940112  0.575562  1
