# generated using pymatgen
data_V6Ga3SiTc6
_symmetry_space_group_name_H-M   'P 1'
_cell_length_a   4.79186680
_cell_length_b   4.79212922
_cell_length_c   9.57085054
_cell_angle_alpha   89.81376104
_cell_angle_beta   89.82025154
_cell_angle_gamma   89.74384173
_symmetry_Int_Tables_number   1
_chemical_formula_structural   V6Ga3SiTc6
_chemical_formula_sum   'V6 Ga3 Si1 Tc6'
_cell_volume   219.77335618
_cell_formula_units_Z   1
loop_
 _symmetry_equiv_pos_site_id
 _symmetry_equiv_pos_as_xyz
  1  'x, y, z'
loop_
 _atom_site_type_symbol
 _atom_site_label
 _atom_site_symmetry_multiplicity
 _atom_site_fract_x
 _atom_site_fract_y
 _atom_site_fract_z
 _atom_site_occupancy
  V  V0  1  0.499068  0.001173  0.125684  1
  V  V1  1  0.497081  0.001427  0.623720  1
  V  V2  1  0.249888  0.498628  0.001178  1
  V  V3  1  0.248957  0.496552  0.500641  1
  V  V4  1  0.001290  0.248131  0.251799  1
  V  V5  1  0.001468  0.248992  0.745859  1
  Ga  Ga6  1  0.497838  0.497863  0.248982  1
  Ga  Ga7  1  0.497994  0.497922  0.748864  1
  Ga  Ga8  1  0.001976  0.002189  0.000810  1
  Si  Si9  1  0.001358  0.000664  0.500736  1
  Tc  Tc10  1  0.497886  0.000727  0.377582  1
  Tc  Tc11  1  0.499559  0.000313  0.875102  1
  Tc  Tc12  1  0.749904  0.500351  0.000033  1
  Tc  Tc13  1  0.755130  0.497071  0.500043  1
  Tc  Tc14  1  0.000329  0.753752  0.252573  1
  Tc  Tc15  1  0.000274  0.754245  0.746393  1
