# generated using pymatgen
data_Tm12CdTc2Ni3
_symmetry_space_group_name_H-M   'P 1'
_cell_length_a   8.27974728
_cell_length_b   8.27978247
_cell_length_c   8.27974700
_cell_angle_alpha   111.08494921
_cell_angle_beta   111.95569698
_cell_angle_gamma   105.44755815
_symmetry_Int_Tables_number   1
_chemical_formula_structural   Tm12CdTc2Ni3
_chemical_formula_sum   'Tm12 Cd1 Tc2 Ni3'
_cell_volume   435.32174604
_cell_formula_units_Z   1
loop_
 _symmetry_equiv_pos_site_id
 _symmetry_equiv_pos_as_xyz
  1  'x, y, z'
loop_
 _atom_site_type_symbol
 _atom_site_label
 _atom_site_symmetry_multiplicity
 _atom_site_fract_x
 _atom_site_fract_y
 _atom_site_fract_z
 _atom_site_occupancy
  Tm  Tm0  1  0.268402  0.181993  0.450479  1
  Tm  Tm1  1  0.726849  0.818588  0.545503  1
  Tm  Tm2  1  0.273085  0.818588  0.091737  1
  Tm  Tm3  1  0.731514  0.181993  0.913593  1
  Tm  Tm4  1  0.619064  0.310365  0.298746  1
  Tm  Tm5  1  0.380866  0.679598  0.691313  1
  Tm  Tm6  1  0.011619  0.310365  0.691301  1
  Tm  Tm7  1  0.988283  0.679598  0.298732  1
  Tm  Tm8  1  0.228621  0.419721  0.191101  1
  Tm  Tm9  1  0.773040  0.578472  0.805431  1
  Tm  Tm10  1  0.226969  0.032446  0.805477  1
  Tm  Tm11  1  0.771272  0.962373  0.191100  1
  Cd  Cd12  1  0.499992  0.496889  0.996897  1
  Tc  Tc13  1  0.000017  0.379642  0.379625  1
  Tc  Tc14  1  0.999964  0.000311  0.000347  1
  Ni  Ni15  1  0.000196  0.651281  0.651085  1
  Ni  Ni16  1  0.385558  0.884305  0.498746  1
  Ni  Ni17  1  0.614689  0.113478  0.498789  1
