# generated using pymatgen
data_Ce12Al6Tc5Ir
_symmetry_space_group_name_H-M   'P 1'
_cell_length_a   7.89598708
_cell_length_b   7.90778378
_cell_length_c   9.69978900
_cell_angle_alpha   89.86918978
_cell_angle_beta   89.70021118
_cell_angle_gamma   119.72965621
_symmetry_Int_Tables_number   1
_chemical_formula_structural   Ce12Al6Tc5Ir
_chemical_formula_sum   'Ce12 Al6 Tc5 Ir1'
_cell_volume   525.91794795
_cell_formula_units_Z   1
loop_
 _symmetry_equiv_pos_site_id
 _symmetry_equiv_pos_as_xyz
  1  'x, y, z'
loop_
 _atom_site_type_symbol
 _atom_site_label
 _atom_site_symmetry_multiplicity
 _atom_site_fract_x
 _atom_site_fract_y
 _atom_site_fract_z
 _atom_site_occupancy
  Ce  Ce0  1  0.998195  0.571364  0.502824  1
  Ce  Ce1  1  0.571756  0.998438  0.502473  1
  Ce  Ce2  1  0.423907  0.424114  0.502617  1
  Ce  Ce3  1  0.997586  0.419397  0.001349  1
  Ce  Ce4  1  0.419524  0.997707  0.001324  1
  Ce  Ce5  1  0.599457  0.599555  0.007134  1
  Ce  Ce6  1  0.001473  0.744012  0.178648  1
  Ce  Ce7  1  0.743877  0.001461  0.178714  1
  Ce  Ce8  1  0.267015  0.267068  0.172100  1
  Ce  Ce9  1  0.991058  0.263925  0.674132  1
  Ce  Ce10  1  0.263958  0.990695  0.674097  1
  Ce  Ce11  1  0.740192  0.739781  0.678329  1
  Al  Al12  1  0.667605  0.334340  0.266327  1
  Al  Al13  1  0.334361  0.667520  0.266311  1
  Al  Al14  1  0.332604  0.658218  0.771743  1
  Al  Al15  1  0.657955  0.332592  0.771732  1
  Al  Al16  1  0.002957  0.002876  0.425986  1
  Al  Al17  1  0.003012  0.003180  0.921541  1
  Tc  Tc18  1  0.000443  0.343363  0.336410  1
  Tc  Tc19  1  0.343596  0.000343  0.336429  1
  Tc  Tc20  1  0.655641  0.655584  0.343040  1
  Tc  Tc21  1  0.997793  0.654355  0.840326  1
  Tc  Tc22  1  0.654317  0.998119  0.840193  1
  Ir  Ir23  1  0.331716  0.331994  0.835477  1
