# generated using pymatgen
data_Y5TiRhO12
_symmetry_space_group_name_H-M   'P 1'
_cell_length_a   6.83554629
_cell_length_b   6.83554452
_cell_length_c   7.38591600
_cell_angle_alpha   74.22463623
_cell_angle_beta   74.22464298
_cell_angle_gamma   50.72744372
_symmetry_Int_Tables_number   1
_chemical_formula_structural   Y5TiRhO12
_chemical_formula_sum   'Y5 Ti1 Rh1 O12'
_cell_volume   254.78178272
_cell_formula_units_Z   1
loop_
 _symmetry_equiv_pos_site_id
 _symmetry_equiv_pos_as_xyz
  1  'x, y, z'
loop_
 _atom_site_type_symbol
 _atom_site_label
 _atom_site_symmetry_multiplicity
 _atom_site_fract_x
 _atom_site_fract_y
 _atom_site_fract_z
 _atom_site_occupancy
  Y  Y0  1  0.684461  0.693637  0.671995  1
  Y  Y1  1  0.699758  0.691883  0.140383  1
  Y  Y2  1  0.003445  0.996555  0.000000  1
  Y  Y3  1  0.308117  0.300242  0.859617  1
  Y  Y4  1  0.306363  0.315539  0.328005  1
  Ti  Ti5  1  0.773535  0.226465  0.500000  1
  Rh  Rh6  1  0.245251  0.754749  0.500000  1
  O  O7  1  0.403614  0.902169  0.927375  1
  O  O8  1  0.570924  0.100536  0.581844  1
  O  O9  1  0.899464  0.429076  0.418156  1
  O  O10  1  0.097831  0.596386  0.072625  1
  O  O11  1  0.996194  0.003696  0.310059  1
  O  O12  1  0.501046  0.498512  0.684538  1
  O  O13  1  0.903575  0.404728  0.922937  1
  O  O14  1  0.093591  0.580235  0.583354  1
  O  O15  1  0.419765  0.906409  0.416646  1
  O  O16  1  0.595272  0.096425  0.077063  1
  O  O17  1  0.501488  0.498954  0.315462  1
  O  O18  1  0.996304  0.003806  0.689941  1
