# generated using pymatgen
data_Nd7Sm(SI6)2
_symmetry_space_group_name_H-M   'P 1'
_cell_length_a   4.24402100
_cell_length_b   14.10499346
_cell_length_c   14.84628400
_cell_angle_alpha   90.19352249
_cell_angle_beta   90.00000000
_cell_angle_gamma   90.00000000
_symmetry_Int_Tables_number   1
_chemical_formula_structural   Nd7Sm(SI6)2
_chemical_formula_sum   'Nd7 Sm1 S2 I12'
_cell_volume   888.72152707
_cell_formula_units_Z   1
loop_
 _symmetry_equiv_pos_site_id
 _symmetry_equiv_pos_as_xyz
  1  'x, y, z'
loop_
 _atom_site_type_symbol
 _atom_site_label
 _atom_site_symmetry_multiplicity
 _atom_site_fract_x
 _atom_site_fract_y
 _atom_site_fract_z
 _atom_site_occupancy
  Nd  Nd0  1  0.500000  0.114240  0.348760  1
  Nd  Nd1  1  0.500000  0.886554  0.651871  1
  Nd  Nd2  1  0.500000  0.613287  0.150996  1
  Nd  Nd3  1  0.000000  0.108705  0.573610  1
  Nd  Nd4  1  0.000000  0.892167  0.427472  1
  Nd  Nd5  1  0.000000  0.607929  0.926996  1
  Nd  Nd6  1  0.000000  0.391613  0.072353  1
  Sm  Sm7  1  0.500000  0.386863  0.848801  1
  S  S8  1  0.500000  0.000584  0.500450  1
  S  S9  1  0.500000  0.499039  0.998696  1
  I  I10  1  0.500000  0.243521  0.160904  1
  I  I11  1  0.500000  0.755067  0.837624  1
  I  I12  1  0.500000  0.744199  0.338166  1
  I  I13  1  0.500000  0.256409  0.663762  1
  I  I14  1  0.000000  0.264305  0.417778  1
  I  I15  1  0.000000  0.736320  0.583093  1
  I  I16  1  0.000000  0.763440  0.083319  1
  I  I17  1  0.000000  0.239053  0.913568  1
  I  I18  1  0.000000  0.995751  0.236426  1
  I  I19  1  0.000000  0.004537  0.764599  1
  I  I20  1  0.000000  0.495854  0.263599  1
  I  I21  1  0.000000  0.500562  0.737157  1
