# generated using pymatgen
data_LiDyNi3Ir
_symmetry_space_group_name_H-M   'P 1'
_cell_length_a   5.04241949
_cell_length_b   5.04241871
_cell_length_c   5.04241800
_cell_angle_alpha   58.36174471
_cell_angle_beta   58.36174267
_cell_angle_gamma   58.36175047
_symmetry_Int_Tables_number   1
_chemical_formula_structural   LiDyNi3Ir
_chemical_formula_sum   'Li1 Dy1 Ni3 Ir1'
_cell_volume   87.25694994
_cell_formula_units_Z   1
loop_
 _symmetry_equiv_pos_site_id
 _symmetry_equiv_pos_as_xyz
  1  'x, y, z'
loop_
 _atom_site_type_symbol
 _atom_site_label
 _atom_site_symmetry_multiplicity
 _atom_site_fract_x
 _atom_site_fract_y
 _atom_site_fract_z
 _atom_site_occupancy
  Li  Li0  1  0.248571  0.248571  0.248571  1
  Dy  Dy1  1  0.999597  0.999597  0.999597  1
  Ni  Ni2  1  0.625343  0.625343  0.126550  1
  Ni  Ni3  1  0.625343  0.126550  0.625343  1
  Ni  Ni4  1  0.126550  0.625343  0.625343  1
  Ir  Ir5  1  0.624596  0.624596  0.624596  1
