# generated using pymatgen
data_Ta2Ti22P8H
_symmetry_space_group_name_H-M   'P 1'
_cell_length_a   5.00061200
_cell_length_b   9.95495040
_cell_length_c   9.98077400
_cell_angle_alpha   90.09044206
_cell_angle_beta   90.00000000
_cell_angle_gamma   90.00000000
_symmetry_Int_Tables_number   1
_chemical_formula_structural   Ta2Ti22P8H
_chemical_formula_sum   'Ta2 Ti22 P8 H1'
_cell_volume   496.85073890
_cell_formula_units_Z   1
loop_
 _symmetry_equiv_pos_site_id
 _symmetry_equiv_pos_as_xyz
  1  'x, y, z'
loop_
 _atom_site_type_symbol
 _atom_site_label
 _atom_site_symmetry_multiplicity
 _atom_site_fract_x
 _atom_site_fract_y
 _atom_site_fract_z
 _atom_site_occupancy
  Ta  Ta0  1  0.788006  0.393504  0.914575  1
  Ta  Ta1  1  0.788006  0.606496  0.085425  1
  Ti  Ti2  1  0.287715  0.583764  0.893161  1
  Ti  Ti3  1  0.287715  0.416236  0.106839  1
  Ti  Ti4  1  0.220660  0.109856  0.585626  1
  Ti  Ti5  1  0.220660  0.890144  0.414374  1
  Ti  Ti6  1  0.713082  0.913409  0.610029  1
  Ti  Ti7  1  0.713082  0.086591  0.389971  1
  Ti  Ti8  1  0.972739  0.028971  0.861144  1
  Ti  Ti9  1  0.972739  0.971029  0.138856  1
  Ti  Ti10  1  0.473635  0.640816  0.528211  1
  Ti  Ti11  1  0.473635  0.359184  0.471789  1
  Ti  Ti12  1  0.030413  0.472247  0.639017  1
  Ti  Ti13  1  0.030413  0.527753  0.360983  1
  Ti  Ti14  1  0.530413  0.860209  0.971029  1
  Ti  Ti15  1  0.530413  0.139791  0.028971  1
  Ti  Ti16  1  0.265675  0.284250  0.819412  1
  Ti  Ti17  1  0.265675  0.715750  0.180588  1
  Ti  Ti18  1  0.764507  0.680607  0.783717  1
  Ti  Ti19  1  0.764507  0.319393  0.216283  1
  Ti  Ti20  1  0.741144  0.217229  0.681976  1
  Ti  Ti21  1  0.741144  0.782771  0.318024  1
  Ti  Ti22  1  0.239100  0.817913  0.717795  1
  Ti  Ti23  1  0.239100  0.182087  0.282205  1
  P  P24  1  0.466295  0.040492  0.793358  1
  P  P25  1  0.466295  0.959508  0.206642  1
  P  P26  1  0.966555  0.706586  0.540477  1
  P  P27  1  0.966555  0.293414  0.459523  1
  P  P28  1  0.535062  0.460666  0.704422  1
  P  P29  1  0.535062  0.539334  0.295578  1
  P  P30  1  0.039775  0.794324  0.958477  1
  P  P31  1  0.039775  0.205676  0.041523  1
  H  H32  1  0.966044  0.000000  0.500000  1
