# generated using pymatgen
data_La4Hg3Au10
_symmetry_space_group_name_H-M   'P 1'
_cell_length_a   8.89995287
_cell_length_b   8.89995198
_cell_length_c   10.49615000
_cell_angle_alpha   90.00000000
_cell_angle_beta   90.00000000
_cell_angle_gamma   109.27794535
_symmetry_Int_Tables_number   1
_chemical_formula_structural   La4Hg3Au10
_chemical_formula_sum   'La8 Hg6 Au20'
_cell_volume   784.77347592
_cell_formula_units_Z   2
loop_
 _symmetry_equiv_pos_site_id
 _symmetry_equiv_pos_as_xyz
  1  'x, y, z'
loop_
 _atom_site_type_symbol
 _atom_site_label
 _atom_site_symmetry_multiplicity
 _atom_site_fract_x
 _atom_site_fract_y
 _atom_site_fract_z
 _atom_site_occupancy
  La  La0  1  0.703257  0.296743  0.000000  1
  La  La1  1  0.296743  0.703257  0.000000  1
  La  La2  1  0.796743  0.203257  0.500000  1
  La  La3  1  0.203257  0.796743  0.500000  1
  La  La4  1  0.300137  0.300137  0.205337  1
  La  La5  1  0.699863  0.699863  0.794663  1
  La  La6  1  0.199863  0.199863  0.705337  1
  La  La7  1  0.800137  0.800137  0.294663  1
  Hg  Hg8  1  0.018988  0.518988  0.250000  1
  Hg  Hg9  1  0.981012  0.481012  0.750000  1
  Hg  Hg10  1  0.481012  0.981012  0.750000  1
  Hg  Hg11  1  0.518988  0.018988  0.250000  1
  Hg  Hg12  1  0.000000  0.000000  0.000000  1
  Hg  Hg13  1  0.500000  0.500000  0.500000  1
  Au  Au14  1  0.096063  0.096063  0.405701  1
  Au  Au15  1  0.903937  0.903937  0.594299  1
  Au  Au16  1  0.403937  0.403937  0.905701  1
  Au  Au17  1  0.596063  0.596063  0.094299  1
  Au  Au18  1  0.890102  0.164717  0.209628  1
  Au  Au19  1  0.109898  0.835283  0.790372  1
  Au  Au20  1  0.609898  0.335283  0.709628  1
  Au  Au21  1  0.664717  0.390102  0.290372  1
  Au  Au22  1  0.390102  0.664717  0.290372  1
  Au  Au23  1  0.335283  0.609898  0.709628  1
  Au  Au24  1  0.835283  0.109898  0.790372  1
  Au  Au25  1  0.164717  0.890102  0.209628  1
  Au  Au26  1  0.927569  0.656130  0.019785  1
  Au  Au27  1  0.072431  0.343870  0.980215  1
  Au  Au28  1  0.572431  0.843870  0.519785  1
  Au  Au29  1  0.156130  0.427569  0.480215  1
  Au  Au30  1  0.427569  0.156130  0.480215  1
  Au  Au31  1  0.843870  0.572431  0.519785  1
  Au  Au32  1  0.343870  0.072431  0.980215  1
  Au  Au33  1  0.656130  0.927569  0.019785  1
