# generated using pymatgen
data_Sm5P12Pd3Ru16
_symmetry_space_group_name_H-M   'P 1'
_cell_length_a   12.65909600
_cell_length_b   12.65909537
_cell_length_c   3.99790800
_cell_angle_alpha   90.00000000
_cell_angle_beta   90.00000000
_cell_angle_gamma   120.00000164
_symmetry_Int_Tables_number   1
_chemical_formula_structural   Sm5P12Pd3Ru16
_chemical_formula_sum   'Sm5 P12 Pd3 Ru16'
_cell_volume   554.84130631
_cell_formula_units_Z   1
loop_
 _symmetry_equiv_pos_site_id
 _symmetry_equiv_pos_as_xyz
  1  'x, y, z'
loop_
 _atom_site_type_symbol
 _atom_site_label
 _atom_site_symmetry_multiplicity
 _atom_site_fract_x
 _atom_site_fract_y
 _atom_site_fract_z
 _atom_site_occupancy
  Sm  Sm0  1  0.181880  0.181880  0.500000  1
  Sm  Sm1  1  0.818120  0.000000  0.500000  1
  Sm  Sm2  1  0.000000  0.818120  0.500000  1
  Sm  Sm3  1  0.333333  0.666667  0.000000  1
  Sm  Sm4  1  0.666667  0.333333  0.000000  1
  P  P5  1  0.813035  0.813035  0.000000  1
  P  P6  1  0.186965  0.000000  0.000000  1
  P  P7  1  0.000000  0.186965  0.000000  1
  P  P8  1  0.178757  0.478840  0.500000  1
  P  P9  1  0.521160  0.699916  0.500000  1
  P  P10  1  0.300084  0.821243  0.500000  1
  P  P11  1  0.699916  0.521160  0.500000  1
  P  P12  1  0.821243  0.300084  0.500000  1
  P  P13  1  0.478840  0.178757  0.500000  1
  P  P14  1  0.367853  0.367853  0.000000  1
  P  P15  1  0.632147  0.000000  0.000000  1
  P  P16  1  0.000000  0.632147  0.000000  1
  Pd  Pd17  1  0.553691  0.553691  0.000000  1
  Pd  Pd18  1  0.446309  0.000000  0.000000  1
  Pd  Pd19  1  0.000000  0.446309  0.000000  1
  Ru  Ru20  1  0.712012  0.712012  0.500000  1
  Ru  Ru21  1  0.287988  0.000000  0.500000  1
  Ru  Ru22  1  0.000000  0.287988  0.500000  1
  Ru  Ru23  1  0.185635  0.379088  0.000000  1
  Ru  Ru24  1  0.620912  0.806547  0.000000  1
  Ru  Ru25  1  0.193453  0.814365  0.000000  1
  Ru  Ru26  1  0.806547  0.620912  0.000000  1
  Ru  Ru27  1  0.814365  0.193453  0.000000  1
  Ru  Ru28  1  0.379088  0.185635  0.000000  1
  Ru  Ru29  1  0.369084  0.492326  0.500000  1
  Ru  Ru30  1  0.507674  0.876758  0.500000  1
  Ru  Ru31  1  0.123242  0.630916  0.500000  1
  Ru  Ru32  1  0.876758  0.507674  0.500000  1
  Ru  Ru33  1  0.630916  0.123242  0.500000  1
  Ru  Ru34  1  0.492326  0.369084  0.500000  1
  Ru  Ru35  1  0.000000  0.000000  0.000000  1
