# generated using pymatgen
data_DyEr2NiSn3Ir2
_symmetry_space_group_name_H-M   'P 1'
_cell_length_a   7.50229372
_cell_length_b   7.50229301
_cell_length_c   3.80786000
_cell_angle_alpha   90.00000000
_cell_angle_beta   90.00000000
_cell_angle_gamma   120.09760941
_symmetry_Int_Tables_number   1
_chemical_formula_structural   DyEr2NiSn3Ir2
_chemical_formula_sum   'Dy1 Er2 Ni1 Sn3 Ir2'
_cell_volume   185.42645112
_cell_formula_units_Z   1
loop_
 _symmetry_equiv_pos_site_id
 _symmetry_equiv_pos_as_xyz
  1  'x, y, z'
loop_
 _atom_site_type_symbol
 _atom_site_label
 _atom_site_symmetry_multiplicity
 _atom_site_fract_x
 _atom_site_fract_y
 _atom_site_fract_z
 _atom_site_occupancy
  Dy  Dy0  1  0.407955  0.407955  0.500000  1
  Er  Er1  1  0.592379  0.000170  0.500000  1
  Er  Er2  1  0.000170  0.592379  0.500000  1
  Ni  Ni3  1  0.998259  0.998259  0.500000  1
  Sn  Sn4  1  0.745456  0.745456  0.000000  1
  Sn  Sn5  1  0.254779  0.999663  0.000000  1
  Sn  Sn6  1  0.999663  0.254779  0.000000  1
  Ir  Ir7  1  0.668368  0.332971  0.000000  1
  Ir  Ir8  1  0.332971  0.668368  0.000000  1
