# generated using pymatgen
data_Lu4MnSi4Os
_symmetry_space_group_name_H-M   'P 1'
_cell_length_a   5.61918005
_cell_length_b   5.61918047
_cell_length_c   9.79572077
_cell_angle_alpha   116.29386298
_cell_angle_beta   116.29386723
_cell_angle_gamma   43.11822039
_symmetry_Int_Tables_number   1
_chemical_formula_structural   Lu4MnSi4Os
_chemical_formula_sum   'Lu4 Mn1 Si4 Os1'
_cell_volume   185.88908588
_cell_formula_units_Z   1
loop_
 _symmetry_equiv_pos_site_id
 _symmetry_equiv_pos_as_xyz
  1  'x, y, z'
loop_
 _atom_site_type_symbol
 _atom_site_label
 _atom_site_symmetry_multiplicity
 _atom_site_fract_x
 _atom_site_fract_y
 _atom_site_fract_z
 _atom_site_occupancy
  Lu  Lu0  1  0.006963  0.006963  0.177002  1
  Lu  Lu1  1  0.813979  0.813979  0.389826  1
  Lu  Lu2  1  0.186244  0.186244  0.611018  1
  Lu  Lu3  1  0.994674  0.994674  0.823533  1
  Mn  Mn4  1  0.271759  0.271759  0.128077  1
  Si  Si5  1  0.638532  0.638532  0.060900  1
  Si  Si6  1  0.505296  0.505296  0.375758  1
  Si  Si7  1  0.492938  0.492938  0.622318  1
  Si  Si8  1  0.360384  0.360384  0.940475  1
  Os  Os9  1  0.729231  0.729231  0.871095  1
