# generated using pymatgen
data_Rb4CePrI10
_symmetry_space_group_name_H-M   'P 1'
_cell_length_a   9.49495749
_cell_length_b   10.11205400
_cell_length_c   15.13100633
_cell_angle_alpha   90.00000000
_cell_angle_beta   90.20071494
_cell_angle_gamma   90.00000000
_symmetry_Int_Tables_number   1
_chemical_formula_structural   Rb4CePrI10
_chemical_formula_sum   'Rb8 Ce2 Pr2 I20'
_cell_volume   1452.77230813
_cell_formula_units_Z   2
loop_
 _symmetry_equiv_pos_site_id
 _symmetry_equiv_pos_as_xyz
  1  'x, y, z'
loop_
 _atom_site_type_symbol
 _atom_site_label
 _atom_site_symmetry_multiplicity
 _atom_site_fract_x
 _atom_site_fract_y
 _atom_site_fract_z
 _atom_site_occupancy
  Rb  Rb0  1  0.945459  0.003974  0.827377  1
  Rb  Rb1  1  0.054541  0.996026  0.172623  1
  Rb  Rb2  1  0.445340  0.996039  0.672634  1
  Rb  Rb3  1  0.054541  0.503974  0.172623  1
  Rb  Rb4  1  0.554660  0.003961  0.327366  1
  Rb  Rb5  1  0.945459  0.496026  0.827377  1
  Rb  Rb6  1  0.554660  0.496039  0.327366  1
  Rb  Rb7  1  0.445340  0.503961  0.672634  1
  Ce  Ce8  1  0.423854  0.250000  0.995689  1
  Ce  Ce9  1  0.576146  0.750000  0.004311  1
  Pr  Pr10  1  0.923045  0.750000  0.504448  1
  Pr  Pr11  1  0.076955  0.250000  0.495552  1
  I  I12  1  0.122783  0.750000  0.676075  1
  I  I13  1  0.877217  0.250000  0.323925  1
  I  I14  1  0.622499  0.250000  0.823887  1
  I  I15  1  0.377501  0.750000  0.176113  1
  I  I16  1  0.836683  0.044275  0.574433  1
  I  I17  1  0.163317  0.955725  0.425567  1
  I  I18  1  0.336667  0.955656  0.925428  1
  I  I19  1  0.163317  0.544275  0.425567  1
  I  I20  1  0.663333  0.044344  0.074572  1
  I  I21  1  0.836683  0.455725  0.574433  1
  I  I22  1  0.663333  0.455656  0.074572  1
  I  I23  1  0.336667  0.544344  0.925428  1
  I  I24  1  0.580747  0.750000  0.509453  1
  I  I25  1  0.419253  0.250000  0.490547  1
  I  I26  1  0.080397  0.250000  0.990557  1
  I  I27  1  0.919603  0.750000  0.009443  1
  I  I28  1  0.660001  0.750000  0.799362  1
  I  I29  1  0.339999  0.250000  0.200638  1
  I  I30  1  0.159987  0.250000  0.700795  1
  I  I31  1  0.840013  0.750000  0.299205  1
