# generated using pymatgen
data_La2DyThPt4
_symmetry_space_group_name_H-M   'P 1'
_cell_length_a   4.66069800
_cell_length_b   5.72136133
_cell_length_c   7.33718230
_cell_angle_alpha   90.28589102
_cell_angle_beta   90.00000000
_cell_angle_gamma   90.00000000
_symmetry_Int_Tables_number   1
_chemical_formula_structural   La2DyThPt4
_chemical_formula_sum   'La2 Dy1 Th1 Pt4'
_cell_volume   195.64747253
_cell_formula_units_Z   1
loop_
 _symmetry_equiv_pos_site_id
 _symmetry_equiv_pos_as_xyz
  1  'x, y, z'
loop_
 _atom_site_type_symbol
 _atom_site_label
 _atom_site_symmetry_multiplicity
 _atom_site_fract_x
 _atom_site_fract_y
 _atom_site_fract_z
 _atom_site_occupancy
  La  La0  1  0.250000  0.141754  0.182640  1
  La  La1  1  0.750000  0.646440  0.315474  1
  Dy  Dy2  1  0.750000  0.855184  0.815619  1
  Th  Th3  1  0.250000  0.354202  0.687473  1
  Pt  Pt4  1  0.250000  0.840139  0.562753  1
  Pt  Pt5  1  0.250000  0.660507  0.022494  1
  Pt  Pt6  1  0.750000  0.161230  0.472986  1
  Pt  Pt7  1  0.750000  0.340543  0.940561  1
