# generated using pymatgen
data_TmLu2ThAlCo
_symmetry_space_group_name_H-M   'P 1'
_cell_length_a   9.38420848
_cell_length_b   9.38601682
_cell_length_c   9.38601680
_cell_angle_alpha   59.96501220
_cell_angle_beta   60.01116932
_cell_angle_gamma   60.01116011
_symmetry_Int_Tables_number   1
_chemical_formula_structural   TmLu2ThAlCo
_chemical_formula_sum   'Tm4 Lu8 Th4 Al4 Co4'
_cell_volume   584.52564149
_cell_formula_units_Z   4
loop_
 _symmetry_equiv_pos_site_id
 _symmetry_equiv_pos_as_xyz
  1  'x, y, z'
loop_
 _atom_site_type_symbol
 _atom_site_label
 _atom_site_symmetry_multiplicity
 _atom_site_fract_x
 _atom_site_fract_y
 _atom_site_fract_z
 _atom_site_occupancy
  Tm  Tm0  1  0.565680  0.934344  0.565569  1
  Tm  Tm1  1  0.934507  0.565579  0.934434  1
  Tm  Tm2  1  0.565680  0.565569  0.934344  1
  Tm  Tm3  1  0.934507  0.934434  0.565579  1
  Lu  Lu4  1  0.811331  0.188521  0.188521  1
  Lu  Lu5  1  0.188927  0.811441  0.811441  1
  Lu  Lu6  1  0.188787  0.811275  0.188376  1
  Lu  Lu7  1  0.811180  0.188568  0.811672  1
  Lu  Lu8  1  0.188787  0.188376  0.811275  1
  Lu  Lu9  1  0.811180  0.811672  0.188568  1
  Lu  Lu10  1  0.935782  0.564477  0.564477  1
  Lu  Lu11  1  0.564357  0.935528  0.935528  1
  Th  Th12  1  0.347782  0.348099  0.348099  1
  Th  Th13  1  0.348081  0.348147  0.955931  1
  Th  Th14  1  0.348081  0.955931  0.348147  1
  Th  Th15  1  0.956256  0.347857  0.347857  1
  Al  Al16  1  0.579408  0.579261  0.579261  1
  Al  Al17  1  0.579223  0.579459  0.262151  1
  Al  Al18  1  0.579223  0.262151  0.579459  1
  Al  Al19  1  0.262281  0.579095  0.579095  1
  Co  Co20  1  0.143377  0.142563  0.142563  1
  Co  Co21  1  0.142240  0.143761  0.571446  1
  Co  Co22  1  0.142240  0.571446  0.143761  1
  Co  Co23  1  0.571106  0.142446  0.142446  1
