# generated using pymatgen
data_HoEr4(In2Ir)2
_symmetry_space_group_name_H-M   'P 1'
_cell_length_a   3.62333000
_cell_length_b   7.97407900
_cell_length_c   18.18913100
_cell_angle_alpha   90.00000000
_cell_angle_beta   90.00000000
_cell_angle_gamma   90.00000000
_symmetry_Int_Tables_number   1
_chemical_formula_structural   HoEr4(In2Ir)2
_chemical_formula_sum   'Ho2 Er8 In8 Ir4'
_cell_volume   525.53346290
_cell_formula_units_Z   2
loop_
 _symmetry_equiv_pos_site_id
 _symmetry_equiv_pos_as_xyz
  1  'x, y, z'
loop_
 _atom_site_type_symbol
 _atom_site_label
 _atom_site_symmetry_multiplicity
 _atom_site_fract_x
 _atom_site_fract_y
 _atom_site_fract_z
 _atom_site_occupancy
  Ho  Ho0  1  0.000000  0.000000  0.000000  1
  Ho  Ho1  1  0.000000  0.500000  0.500000  1
  Er  Er2  1  0.000000  0.115840  0.411198  1
  Er  Er3  1  0.000000  0.884160  0.588802  1
  Er  Er4  1  0.000000  0.384160  0.911198  1
  Er  Er5  1  0.000000  0.615840  0.088802  1
  Er  Er6  1  0.000000  0.244300  0.221247  1
  Er  Er7  1  0.000000  0.755700  0.778753  1
  Er  Er8  1  0.000000  0.255700  0.721247  1
  Er  Er9  1  0.000000  0.744300  0.278753  1
  In  In10  1  0.500000  0.425426  0.350254  1
  In  In11  1  0.500000  0.574574  0.649746  1
  In  In12  1  0.500000  0.074574  0.850254  1
  In  In13  1  0.500000  0.925426  0.149746  1
  In  In14  1  0.500000  0.294010  0.067413  1
  In  In15  1  0.500000  0.705990  0.932587  1
  In  In16  1  0.500000  0.205990  0.567413  1
  In  In17  1  0.500000  0.794010  0.432587  1
  Ir  Ir18  1  0.500000  0.022328  0.304181  1
  Ir  Ir19  1  0.500000  0.977672  0.695819  1
  Ir  Ir20  1  0.500000  0.477672  0.804181  1
  Ir  Ir21  1  0.500000  0.522328  0.195819  1
