# generated using pymatgen
data_Dy6Ho2Sc12Si15Ag
_symmetry_space_group_name_H-M   'P 1'
_cell_length_a   7.12016122
_cell_length_b   7.36288426
_cell_length_c   14.04872905
_cell_angle_alpha   89.88584499
_cell_angle_beta   89.61513949
_cell_angle_gamma   90.18637973
_symmetry_Int_Tables_number   1
_chemical_formula_structural   Dy6Ho2Sc12Si15Ag
_chemical_formula_sum   'Dy6 Ho2 Sc12 Si15 Ag1'
_cell_volume   736.48153296
_cell_formula_units_Z   1
loop_
 _symmetry_equiv_pos_site_id
 _symmetry_equiv_pos_as_xyz
  1  'x, y, z'
loop_
 _atom_site_type_symbol
 _atom_site_label
 _atom_site_symmetry_multiplicity
 _atom_site_fract_x
 _atom_site_fract_y
 _atom_site_fract_z
 _atom_site_occupancy
  Dy  Dy0  1  0.012331  0.175381  0.097745  1
  Dy  Dy1  1  0.987578  0.825757  0.903771  1
  Dy  Dy2  1  0.487224  0.676697  0.903641  1
  Dy  Dy3  1  0.988388  0.830536  0.597704  1
  Dy  Dy4  1  0.512150  0.323792  0.096633  1
  Dy  Dy5  1  0.009154  0.171959  0.399074  1
  Ho  Ho6  1  0.512155  0.322920  0.400134  1
  Ho  Ho7  1  0.493717  0.678240  0.599833  1
  Sc  Sc8  1  0.163104  0.501659  0.752933  1
  Sc  Sc9  1  0.837720  0.498496  0.250961  1
  Sc  Sc10  1  0.337917  0.000313  0.248982  1
  Sc  Sc11  1  0.664579  0.996231  0.751177  1
  Sc  Sc12  1  0.341194  0.173312  0.626757  1
  Sc  Sc13  1  0.665168  0.823047  0.373845  1
  Sc  Sc14  1  0.167539  0.675100  0.372137  1
  Sc  Sc15  1  0.669882  0.824295  0.124831  1
  Sc  Sc16  1  0.826160  0.325391  0.625277  1
  Sc  Sc17  1  0.328960  0.175265  0.876003  1
  Sc  Sc18  1  0.830336  0.322705  0.875867  1
  Sc  Sc19  1  0.169039  0.676526  0.125205  1
  Si  Si20  1  0.035900  0.120849  0.750039  1
  Si  Si21  1  0.965464  0.883281  0.248930  1
  Si  Si22  1  0.466598  0.615385  0.248354  1
  Si  Si23  1  0.534311  0.385796  0.751946  1
  Si  Si24  1  0.285245  0.873553  0.750716  1
  Si  Si25  1  0.712566  0.127578  0.248644  1
  Si  Si26  1  0.214644  0.371043  0.248745  1
  Si  Si27  1  0.787994  0.627596  0.752183  1
  Si  Si28  1  0.834609  0.537349  0.459280  1
  Si  Si29  1  0.338253  0.962268  0.460791  1
  Si  Si30  1  0.843487  0.535367  0.039056  1
  Si  Si31  1  0.658849  0.036043  0.537881  1
  Si  Si32  1  0.155556  0.464564  0.961763  1
  Si  Si33  1  0.657181  0.035000  0.960661  1
  Si  Si34  1  0.342633  0.964509  0.039778  1
  Ag  Ag35  1  0.162418  0.462200  0.538722  1
