# generated using pymatgen
data_Ho2TmNb3(B2Ru5)2
_symmetry_space_group_name_H-M   'P 1'
_cell_length_a   9.58866940
_cell_length_b   9.58866955
_cell_length_c   3.12202300
_cell_angle_alpha   90.00000000
_cell_angle_beta   90.00000000
_cell_angle_gamma   90.42470715
_symmetry_Int_Tables_number   1
_chemical_formula_structural   Ho2TmNb3(B2Ru5)2
_chemical_formula_sum   'Ho2 Tm1 Nb3 B4 Ru10'
_cell_volume   287.03897044
_cell_formula_units_Z   1
loop_
 _symmetry_equiv_pos_site_id
 _symmetry_equiv_pos_as_xyz
  1  'x, y, z'
loop_
 _atom_site_type_symbol
 _atom_site_label
 _atom_site_symmetry_multiplicity
 _atom_site_fract_x
 _atom_site_fract_y
 _atom_site_fract_z
 _atom_site_occupancy
  Ho  Ho0  1  0.824161  0.675285  0.000000  1
  Ho  Ho1  1  0.175285  0.324161  0.000000  1
  Tm  Tm2  1  0.325562  0.825562  0.000000  1
  Nb  Nb3  1  0.675422  0.175422  0.000000  1
  Nb  Nb4  1  0.498144  0.503162  0.000000  1
  Nb  Nb5  1  0.003162  0.998144  0.000000  1
  B  B6  1  0.622750  0.880818  0.000000  1
  B  B7  1  0.380818  0.122750  0.000000  1
  B  B8  1  0.119563  0.619563  0.000000  1
  B  B9  1  0.876482  0.376482  0.000000  1
  Ru  Ru10  1  0.570360  0.722290  0.500000  1
  Ru  Ru11  1  0.440507  0.280001  0.500000  1
  Ru  Ru12  1  0.070363  0.780607  0.500000  1
  Ru  Ru13  1  0.916150  0.213645  0.500000  1
  Ru  Ru14  1  0.280607  0.570363  0.500000  1
  Ru  Ru15  1  0.713645  0.416150  0.500000  1
  Ru  Ru16  1  0.222290  0.070360  0.500000  1
  Ru  Ru17  1  0.780001  0.940507  0.500000  1
  Ru  Ru18  1  0.508403  0.008403  0.500000  1
  Ru  Ru19  1  0.996324  0.496324  0.500000  1
