# generated using pymatgen
data_Sr2Co9Mo3P7
_symmetry_space_group_name_H-M   'P 1'
_cell_length_a   3.73763300
_cell_length_b   9.18513590
_cell_length_c   9.18513500
_cell_angle_alpha   120.00000035
_cell_angle_beta   90.00000000
_cell_angle_gamma   90.00000000
_symmetry_Int_Tables_number   1
_chemical_formula_structural   Sr2Co9Mo3P7
_chemical_formula_sum   'Sr2 Co9 Mo3 P7'
_cell_volume   273.08535846
_cell_formula_units_Z   1
loop_
 _symmetry_equiv_pos_site_id
 _symmetry_equiv_pos_as_xyz
  1  'x, y, z'
loop_
 _atom_site_type_symbol
 _atom_site_label
 _atom_site_symmetry_multiplicity
 _atom_site_fract_x
 _atom_site_fract_y
 _atom_site_fract_z
 _atom_site_occupancy
  Sr  Sr0  1  0.000000  0.666667  0.333333  1
  Sr  Sr1  1  0.500000  0.333333  0.666667  1
  Co  Co2  1  0.000000  0.571726  0.943347  1
  Co  Co3  1  0.000000  0.371620  0.428274  1
  Co  Co4  1  0.000000  0.056653  0.628380  1
  Co  Co5  1  0.000000  0.879372  0.155142  1
  Co  Co6  1  0.000000  0.275770  0.120628  1
  Co  Co7  1  0.000000  0.844858  0.724230  1
  Co  Co8  1  0.500000  0.950691  0.384245  1
  Co  Co9  1  0.500000  0.433553  0.049309  1
  Co  Co10  1  0.500000  0.615755  0.566447  1
  Mo  Mo11  1  0.500000  0.783269  0.901489  1
  Mo  Mo12  1  0.500000  0.118220  0.216731  1
  Mo  Mo13  1  0.500000  0.098511  0.881780  1
  P  P14  1  0.000000  0.000000  0.000000  1
  P  P15  1  0.500000  0.707831  0.112027  1
  P  P16  1  0.500000  0.404197  0.292169  1
  P  P17  1  0.500000  0.887973  0.595803  1
  P  P18  1  0.000000  0.591775  0.697030  1
  P  P19  1  0.000000  0.105257  0.408225  1
  P  P20  1  0.000000  0.302970  0.894743  1
