# generated using pymatgen
data_Sr6Co2(RhO5)3
_symmetry_space_group_name_H-M   'P 1'
_cell_length_a   7.09662336
_cell_length_b   7.09662276
_cell_length_c   7.09662341
_cell_angle_alpha   86.41621981
_cell_angle_beta   86.41622057
_cell_angle_gamma   86.41620732
_symmetry_Int_Tables_number   1
_chemical_formula_structural   Sr6Co2(RhO5)3
_chemical_formula_sum   'Sr6 Co2 Rh3 O15'
_cell_volume   355.38750260
_cell_formula_units_Z   1
loop_
 _symmetry_equiv_pos_site_id
 _symmetry_equiv_pos_as_xyz
  1  'x, y, z'
loop_
 _atom_site_type_symbol
 _atom_site_label
 _atom_site_symmetry_multiplicity
 _atom_site_fract_x
 _atom_site_fract_y
 _atom_site_fract_z
 _atom_site_occupancy
  Sr  Sr0  1  0.500000  0.861396  0.138604  1
  Sr  Sr1  1  0.138604  0.500000  0.861396  1
  Sr  Sr2  1  0.861396  0.138604  0.500000  1
  Sr  Sr3  1  0.000000  0.691913  0.308087  1
  Sr  Sr4  1  0.308087  0.000000  0.691913  1
  Sr  Sr5  1  0.691913  0.308087  0.000000  1
  Co  Co6  1  0.904916  0.904916  0.904916  1
  Co  Co7  1  0.095084  0.095084  0.095084  1
  Rh  Rh8  1  0.706327  0.706327  0.706327  1
  Rh  Rh9  1  0.293673  0.293673  0.293673  1
  Rh  Rh10  1  0.500000  0.500000  0.500000  1
  O  O11  1  0.344350  0.572487  0.271320  1
  O  O12  1  0.271320  0.344350  0.572487  1
  O  O13  1  0.572487  0.271320  0.344350  1
  O  O14  1  0.655650  0.728680  0.427513  1
  O  O15  1  0.427513  0.655650  0.728680  1
  O  O16  1  0.728680  0.427513  0.655650  1
  O  O17  1  0.207143  0.023565  0.339594  1
  O  O18  1  0.339594  0.207143  0.023565  1
  O  O19  1  0.023565  0.339594  0.207143  1
  O  O20  1  0.792857  0.660406  0.976435  1
  O  O21  1  0.976435  0.792857  0.660406  1
  O  O22  1  0.152214  0.847786  0.000000  1
  O  O23  1  0.847786  0.000000  0.152214  1
  O  O24  1  0.000000  0.152214  0.847786  1
  O  O25  1  0.660406  0.976435  0.792857  1
