# generated using pymatgen
data_Er8Tm4ZnCo4Bi
_symmetry_space_group_name_H-M   'P 1'
_cell_length_a   8.26730679
_cell_length_b   8.26770427
_cell_length_c   8.26730559
_cell_angle_alpha   111.44997253
_cell_angle_beta   109.66393044
_cell_angle_gamma   107.32412980
_symmetry_Int_Tables_number   1
_chemical_formula_structural   Er8Tm4ZnCo4Bi
_chemical_formula_sum   'Er8 Tm4 Zn1 Co4 Bi1'
_cell_volume   434.44658599
_cell_formula_units_Z   1
loop_
 _symmetry_equiv_pos_site_id
 _symmetry_equiv_pos_as_xyz
  1  'x, y, z'
loop_
 _atom_site_type_symbol
 _atom_site_label
 _atom_site_symmetry_multiplicity
 _atom_site_fract_x
 _atom_site_fract_y
 _atom_site_fract_z
 _atom_site_occupancy
  Er  Er0  1  0.427130  0.219892  0.207239  1
  Er  Er1  1  0.572870  0.780108  0.792761  1
  Er  Er2  1  0.012653  0.219892  0.792762  1
  Er  Er3  1  0.987347  0.780108  0.207238  1
  Er  Er4  1  0.181859  0.285182  0.467024  1
  Er  Er5  1  0.818141  0.714818  0.532976  1
  Er  Er6  1  0.181843  0.714818  0.896677  1
  Er  Er7  1  0.818157  0.285182  0.103323  1
  Tm  Tm8  1  0.314201  0.622562  0.308360  1
  Tm  Tm9  1  0.685799  0.377439  0.691640  1
  Tm  Tm10  1  0.314202  0.005831  0.691630  1
  Tm  Tm11  1  0.685798  0.994169  0.308370  1
  Zn  Zn12  1  0.000000  0.000000  0.000000  1
  Co  Co13  1  0.112931  0.612934  0.500003  1
  Co  Co14  1  0.887070  0.387067  0.499997  1
  Co  Co15  1  0.376691  0.000000  0.376691  1
  Co  Co16  1  0.623309  0.000000  0.623309  1
  Bi  Bi17  1  0.500000  0.500000  0.000000  1
