# generated using pymatgen
data_Dy5TiP12(RuRh)9
_symmetry_space_group_name_H-M   'P 1'
_cell_length_a   12.66810145
_cell_length_b   12.63323844
_cell_length_c   3.93111300
_cell_angle_alpha   90.00000000
_cell_angle_beta   90.00000000
_cell_angle_gamma   119.91441242
_symmetry_Int_Tables_number   1
_chemical_formula_structural   Dy5TiP12(RuRh)9
_chemical_formula_sum   'Dy5 Ti1 P12 Ru9 Rh9'
_cell_volume   545.31355257
_cell_formula_units_Z   1
loop_
 _symmetry_equiv_pos_site_id
 _symmetry_equiv_pos_as_xyz
  1  'x, y, z'
loop_
 _atom_site_type_symbol
 _atom_site_label
 _atom_site_symmetry_multiplicity
 _atom_site_fract_x
 _atom_site_fract_y
 _atom_site_fract_z
 _atom_site_occupancy
  Dy  Dy0  1  0.666711  0.333296  0.000000  1
  Dy  Dy1  1  0.332935  0.666657  0.000000  1
  Dy  Dy2  1  0.812755  0.000641  0.500000  1
  Dy  Dy3  1  0.185713  0.188488  0.500000  1
  Dy  Dy4  1  0.999202  0.811869  0.500000  1
  Ti  Ti5  1  0.440847  0.000274  0.000000  1
  P  P6  1  0.635603  0.997877  0.000000  1
  P  P7  1  0.365888  0.373719  0.000000  1
  P  P8  1  0.004196  0.632175  0.000000  1
  P  P9  1  0.686651  0.518745  0.500000  1
  P  P10  1  0.832399  0.307712  0.500000  1
  P  P11  1  0.315003  0.831781  0.500000  1
  P  P12  1  0.519743  0.685580  0.500000  1
  P  P13  1  0.180402  0.001514  0.000000  1
  P  P14  1  0.820019  0.817807  0.000000  1
  P  P15  1  0.997850  0.181612  0.000000  1
  P  P16  1  0.479873  0.167045  0.500000  1
  P  P17  1  0.168242  0.483949  0.500000  1
  Ru  Ru18  1  0.124991  0.640338  0.500000  1
  Ru  Ru19  1  0.360625  0.488430  0.500000  1
  Ru  Ru20  1  0.515508  0.871722  0.500000  1
  Ru  Ru21  1  0.718203  0.714346  0.500000  1
  Ru  Ru22  1  0.003222  0.286317  0.500000  1
  Ru  Ru23  1  0.552645  0.548071  0.000000  1
  Ru  Ru24  1  0.999090  0.448775  0.000000  1
  Ru  Ru25  1  0.819568  0.195073  0.000000  1
  Ru  Ru26  1  0.280823  0.001979  0.500000  1
  Rh  Rh27  1  0.626487  0.802793  0.000000  1
  Rh  Rh28  1  0.181205  0.377354  0.000000  1
  Rh  Rh29  1  0.374397  0.185930  0.000000  1
  Rh  Rh30  1  0.194401  0.819984  0.000000  1
  Rh  Rh31  1  0.807604  0.622542  0.000000  1
  Rh  Rh32  1  0.869132  0.506320  0.500000  1
  Rh  Rh33  1  0.489884  0.360832  0.500000  1
  Rh  Rh34  1  0.638944  0.128288  0.500000  1
  Rh  Rh35  1  0.999243  0.000161  0.000000  1
