# generated using pymatgen
data_Y15Ho(ZnCo)4
_symmetry_space_group_name_H-M   'P 1'
_cell_length_a   9.41841196
_cell_length_b   9.40365047
_cell_length_c   9.40365000
_cell_angle_alpha   60.00000166
_cell_angle_beta   60.05183402
_cell_angle_gamma   60.05184035
_symmetry_Int_Tables_number   1
_chemical_formula_structural   Y15Ho(ZnCo)4
_chemical_formula_sum   'Y15 Ho1 Zn4 Co4'
_cell_volume   589.38008722
_cell_formula_units_Z   1
loop_
 _symmetry_equiv_pos_site_id
 _symmetry_equiv_pos_as_xyz
  1  'x, y, z'
loop_
 _atom_site_type_symbol
 _atom_site_label
 _atom_site_symmetry_multiplicity
 _atom_site_fract_x
 _atom_site_fract_y
 _atom_site_fract_z
 _atom_site_occupancy
  Y  Y0  1  0.937177  0.937697  0.562563  1
  Y  Y1  1  0.809873  0.190183  0.190183  1
  Y  Y2  1  0.937177  0.562563  0.562563  1
  Y  Y3  1  0.937177  0.562563  0.937697  1
  Y  Y4  1  0.809873  0.809763  0.190183  1
  Y  Y5  1  0.350333  0.349958  0.349958  1
  Y  Y6  1  0.563372  0.936815  0.936815  1
  Y  Y7  1  0.563372  0.936815  0.562998  1
  Y  Y8  1  0.189671  0.810194  0.810194  1
  Y  Y9  1  0.189671  0.189941  0.810194  1
  Y  Y10  1  0.350333  0.349958  0.949751  1
  Y  Y11  1  0.350333  0.949751  0.349958  1
  Y  Y12  1  0.809873  0.190183  0.809763  1
  Y  Y13  1  0.563372  0.562998  0.936815  1
  Y  Y14  1  0.189671  0.810194  0.189941  1
  Ho  Ho15  1  0.951107  0.349631  0.349631  1
  Zn  Zn16  1  0.577158  0.576645  0.269553  1
  Zn  Zn17  1  0.269452  0.576849  0.576849  1
  Zn  Zn18  1  0.577158  0.576645  0.576645  1
  Zn  Zn19  1  0.577158  0.269553  0.576645  1
  Co  Co20  1  0.574883  0.141706  0.141706  1
  Co  Co21  1  0.140605  0.142938  0.142938  1
  Co  Co22  1  0.140605  0.573520  0.142938  1
  Co  Co23  1  0.140605  0.142938  0.573520  1
