# generated using pymatgen
data_TbGdI6
_symmetry_space_group_name_H-M   'P 1'
_cell_length_a   8.84801427
_cell_length_b   8.84801488
_cell_length_c   8.84801350
_cell_angle_alpha   52.14687754
_cell_angle_beta   52.14687923
_cell_angle_gamma   52.14687892
_symmetry_Int_Tables_number   1
_chemical_formula_structural   TbGdI6
_chemical_formula_sum   'Tb1 Gd1 I6'
_cell_volume   399.40875432
_cell_formula_units_Z   1
loop_
 _symmetry_equiv_pos_site_id
 _symmetry_equiv_pos_as_xyz
  1  'x, y, z'
loop_
 _atom_site_type_symbol
 _atom_site_label
 _atom_site_symmetry_multiplicity
 _atom_site_fract_x
 _atom_site_fract_y
 _atom_site_fract_z
 _atom_site_occupancy
  Tb  Tb0  1  0.166469  0.166469  0.166469  1
  Gd  Gd1  1  0.833509  0.833509  0.833509  1
  I  I2  1  0.575897  0.220401  0.936375  1
  I  I3  1  0.780754  0.064904  0.421691  1
  I  I4  1  0.064904  0.421691  0.780754  1
  I  I5  1  0.421691  0.780754  0.064904  1
  I  I6  1  0.936375  0.575897  0.220401  1
  I  I7  1  0.220401  0.936375  0.575897  1
