# generated using pymatgen
data_Hf4Ta2Ga5Sn
_symmetry_space_group_name_H-M   'P 1'
_cell_length_a   5.57412700
_cell_length_b   8.60638397
_cell_length_c   9.17859171
_cell_angle_alpha   89.44454726
_cell_angle_beta   90.00000000
_cell_angle_gamma   90.00000000
_symmetry_Int_Tables_number   1
_chemical_formula_structural   Hf4Ta2Ga5Sn
_chemical_formula_sum   'Hf8 Ta4 Ga10 Sn2'
_cell_volume   440.30459780
_cell_formula_units_Z   2
loop_
 _symmetry_equiv_pos_site_id
 _symmetry_equiv_pos_as_xyz
  1  'x, y, z'
loop_
 _atom_site_type_symbol
 _atom_site_label
 _atom_site_symmetry_multiplicity
 _atom_site_fract_x
 _atom_site_fract_y
 _atom_site_fract_z
 _atom_site_occupancy
  Hf  Hf0  1  0.750000  0.470046  0.624506  1
  Hf  Hf1  1  0.250000  0.529954  0.375494  1
  Hf  Hf2  1  0.750000  0.969435  0.392291  1
  Hf  Hf3  1  0.250000  0.030565  0.607709  1
  Hf  Hf4  1  0.750000  0.380644  0.183767  1
  Hf  Hf5  1  0.250000  0.619356  0.816233  1
  Hf  Hf6  1  0.750000  0.861492  0.806080  1
  Hf  Hf7  1  0.250000  0.138508  0.193920  1
  Ta  Ta8  1  0.000402  0.737983  0.114315  1
  Ta  Ta9  1  0.500402  0.262017  0.885685  1
  Ta  Ta10  1  0.999598  0.262017  0.885685  1
  Ta  Ta11  1  0.499598  0.737983  0.114315  1
  Ga  Ga12  1  0.006867  0.745537  0.571968  1
  Ga  Ga13  1  0.506867  0.254463  0.428032  1
  Ga  Ga14  1  0.993133  0.254463  0.428032  1
  Ga  Ga15  1  0.493133  0.745537  0.571968  1
  Ga  Ga16  1  0.750000  0.549362  0.919850  1
  Ga  Ga17  1  0.250000  0.450638  0.080150  1
  Ga  Ga18  1  0.750000  0.136302  0.655423  1
  Ga  Ga19  1  0.250000  0.863698  0.344577  1
  Ga  Ga20  1  0.750000  0.636225  0.353437  1
  Ga  Ga21  1  0.250000  0.363775  0.646563  1
  Sn  Sn22  1  0.750000  0.046972  0.083518  1
  Sn  Sn23  1  0.250000  0.953028  0.916482  1
