# generated using pymatgen
data_Y5Er5(GaSb)3
_symmetry_space_group_name_H-M   'P 1'
_cell_length_a   8.74879000
_cell_length_b   8.75212420
_cell_length_c   6.43776800
_cell_angle_alpha   90.00000000
_cell_angle_beta   90.00000000
_cell_angle_gamma   119.98741388
_symmetry_Int_Tables_number   1
_chemical_formula_structural   Y5Er5(GaSb)3
_chemical_formula_sum   'Y5 Er5 Ga3 Sb3'
_cell_volume   426.95537344
_cell_formula_units_Z   1
loop_
 _symmetry_equiv_pos_site_id
 _symmetry_equiv_pos_as_xyz
  1  'x, y, z'
loop_
 _atom_site_type_symbol
 _atom_site_label
 _atom_site_symmetry_multiplicity
 _atom_site_fract_x
 _atom_site_fract_y
 _atom_site_fract_z
 _atom_site_occupancy
  Y  Y0  1  0.243383  0.231963  0.750000  1
  Y  Y1  1  0.011420  0.768037  0.750000  1
  Y  Y2  1  0.012351  0.249091  0.250000  1
  Y  Y3  1  0.763259  0.750909  0.250000  1
  Y  Y4  1  0.753554  0.000000  0.750000  1
  Er  Er5  1  0.327087  0.666876  0.003244  1
  Er  Er6  1  0.660211  0.333124  0.496756  1
  Er  Er7  1  0.660211  0.333124  0.003244  1
  Er  Er8  1  0.327087  0.666876  0.496756  1
  Er  Er9  1  0.236044  0.000000  0.250000  1
  Ga  Ga10  1  0.999335  0.602989  0.250000  1
  Ga  Ga11  1  0.396346  0.397011  0.250000  1
  Ga  Ga12  1  0.398930  0.000000  0.750000  1
  Sb  Sb13  1  0.608643  0.000000  0.250000  1
  Sb  Sb14  1  0.604446  0.606754  0.750000  1
  Sb  Sb15  1  0.997692  0.393246  0.750000  1
