# generated using pymatgen
data_La3PrGd2In6O18
_symmetry_space_group_name_H-M   'P 1'
_cell_length_a   6.56670100
_cell_length_b   6.56670222
_cell_length_c   12.52372000
_cell_angle_alpha   90.00000000
_cell_angle_beta   90.00000000
_cell_angle_gamma   119.99999891
_symmetry_Int_Tables_number   1
_chemical_formula_structural   La3PrGd2In6O18
_chemical_formula_sum   'La3 Pr1 Gd2 In6 O18'
_cell_volume   467.69050214
_cell_formula_units_Z   1
loop_
 _symmetry_equiv_pos_site_id
 _symmetry_equiv_pos_as_xyz
  1  'x, y, z'
loop_
 _atom_site_type_symbol
 _atom_site_label
 _atom_site_symmetry_multiplicity
 _atom_site_fract_x
 _atom_site_fract_y
 _atom_site_fract_z
 _atom_site_occupancy
  La  La0  1  0.666667  0.333333  0.964759  1
  La  La1  1  0.333333  0.666667  0.463444  1
  La  La2  1  0.666667  0.333333  0.463858  1
  Pr  Pr3  1  0.333333  0.666667  0.961561  1
  Gd  Gd4  1  0.000000  0.000000  0.997583  1
  Gd  Gd5  1  0.000000  0.000000  0.497445  1
  In  In6  1  0.669804  0.669604  0.727584  1
  In  In7  1  0.999800  0.330196  0.727584  1
  In  In8  1  0.330423  0.330851  0.227091  1
  In  In9  1  0.000428  0.669577  0.227091  1
  In  In10  1  0.330396  0.000200  0.727584  1
  In  In11  1  0.669149  0.999572  0.227091  1
  O  O12  1  0.699534  0.700540  0.895939  1
  O  O13  1  0.001006  0.300466  0.895939  1
  O  O14  1  0.299415  0.299086  0.395794  1
  O  O15  1  0.999672  0.700585  0.395794  1
  O  O16  1  0.299460  0.998994  0.895939  1
  O  O17  1  0.700914  0.000328  0.395794  1
  O  O18  1  0.650758  0.651284  0.559468  1
  O  O19  1  0.000526  0.349242  0.559468  1
  O  O20  1  0.348572  0.351083  0.059078  1
  O  O21  1  0.002510  0.651428  0.059078  1
  O  O22  1  0.348716  0.999474  0.559468  1
  O  O23  1  0.648917  0.997490  0.059078  1
  O  O24  1  0.000000  0.000000  0.697195  1
  O  O25  1  0.000000  0.000000  0.196869  1
  O  O26  1  0.666667  0.333333  0.747877  1
  O  O27  1  0.333333  0.666667  0.248504  1
  O  O28  1  0.666667  0.333333  0.247505  1
  O  O29  1  0.333333  0.666667  0.750315  1
