# generated using pymatgen
data_Sr3Lu2Si12Ir19
_symmetry_space_group_name_H-M   'P 1'
_cell_length_a   12.89360116
_cell_length_b   12.90197417
_cell_length_c   4.02453100
_cell_angle_alpha   90.00000000
_cell_angle_beta   90.00000000
_cell_angle_gamma   120.07070475
_symmetry_Int_Tables_number   1
_chemical_formula_structural   Sr3Lu2Si12Ir19
_chemical_formula_sum   'Sr3 Lu2 Si12 Ir19'
_cell_volume   579.38393190
_cell_formula_units_Z   1
loop_
 _symmetry_equiv_pos_site_id
 _symmetry_equiv_pos_as_xyz
  1  'x, y, z'
loop_
 _atom_site_type_symbol
 _atom_site_label
 _atom_site_symmetry_multiplicity
 _atom_site_fract_x
 _atom_site_fract_y
 _atom_site_fract_z
 _atom_site_occupancy
  Sr  Sr0  1  0.183939  0.183339  0.500000  1
  Sr  Sr1  1  0.816533  0.000814  0.500000  1
  Sr  Sr2  1  0.666036  0.333777  0.000000  1
  Lu  Lu3  1  0.999210  0.818079  0.500000  1
  Lu  Lu4  1  0.334136  0.667931  0.000000  1
  Si  Si5  1  0.001722  0.186527  0.000000  1
  Si  Si6  1  0.816774  0.815749  0.000000  1
  Si  Si7  1  0.181019  0.994234  0.000000  1
  Si  Si8  1  0.520643  0.690379  0.500000  1
  Si  Si9  1  0.310524  0.828432  0.500000  1
  Si  Si10  1  0.172216  0.482851  0.500000  1
  Si  Si11  1  0.475917  0.164242  0.500000  1
  Si  Si12  1  0.687463  0.521246  0.500000  1
  Si  Si13  1  0.833903  0.313504  0.500000  1
  Si  Si14  1  0.998736  0.631669  0.000000  1
  Si  Si15  1  0.371851  0.370318  0.000000  1
  Si  Si16  1  0.629268  0.000941  0.000000  1
  Ir  Ir17  1  0.002534  0.288386  0.500000  1
  Ir  Ir18  1  0.716567  0.715724  0.500000  1
  Ir  Ir19  1  0.280694  0.993830  0.500000  1
  Ir  Ir20  1  0.618086  0.802709  0.000000  1
  Ir  Ir21  1  0.191417  0.812674  0.000000  1
  Ir  Ir22  1  0.187282  0.384984  0.000000  1
  Ir  Ir23  1  0.376861  0.179451  0.000000  1
  Ir  Ir24  1  0.808473  0.626455  0.000000  1
  Ir  Ir25  1  0.817601  0.197826  0.000000  1
  Ir  Ir26  1  0.508309  0.870562  0.500000  1
  Ir  Ir27  1  0.129364  0.637901  0.500000  1
  Ir  Ir28  1  0.364810  0.493228  0.500000  1
  Ir  Ir29  1  0.483736  0.360523  0.500000  1
  Ir  Ir30  1  0.877442  0.517462  0.500000  1
  Ir  Ir31  1  0.636835  0.122500  0.500000  1
  Ir  Ir32  1  0.000084  0.994621  0.000000  1
  Ir  Ir33  1  0.001648  0.450035  0.000000  1
  Ir  Ir34  1  0.554714  0.552648  0.000000  1
  Ir  Ir35  1  0.443652  0.994449  0.000000  1
