# generated using pymatgen
data_ZrSc2Mn8Nb
_symmetry_space_group_name_H-M   'P 1'
_cell_length_a   4.85427400
_cell_length_b   4.85427348
_cell_length_c   8.15214000
_cell_angle_alpha   90.00000000
_cell_angle_beta   90.00000000
_cell_angle_gamma   120.00000355
_symmetry_Int_Tables_number   1
_chemical_formula_structural   ZrSc2Mn8Nb
_chemical_formula_sum   'Zr1 Sc2 Mn8 Nb1'
_cell_volume   166.36071259
_cell_formula_units_Z   1
loop_
 _symmetry_equiv_pos_site_id
 _symmetry_equiv_pos_as_xyz
  1  'x, y, z'
loop_
 _atom_site_type_symbol
 _atom_site_label
 _atom_site_symmetry_multiplicity
 _atom_site_fract_x
 _atom_site_fract_y
 _atom_site_fract_z
 _atom_site_occupancy
  Zr  Zr0  1  0.333333  0.666667  0.064125  1
  Sc  Sc1  1  0.666667  0.333333  0.935261  1
  Sc  Sc2  1  0.333333  0.666667  0.439257  1
  Mn  Mn3  1  0.000000  0.000000  0.998745  1
  Mn  Mn4  1  0.000000  0.000000  0.499018  1
  Mn  Mn5  1  0.829324  0.658648  0.252818  1
  Mn  Mn6  1  0.169996  0.830004  0.746362  1
  Mn  Mn7  1  0.660009  0.830004  0.746362  1
  Mn  Mn8  1  0.341352  0.170676  0.252818  1
  Mn  Mn9  1  0.829324  0.170676  0.252818  1
  Mn  Mn10  1  0.169996  0.339991  0.746362  1
  Nb  Nb11  1  0.666667  0.333333  0.566053  1
