# generated using pymatgen
data_Ti8Al14AsOs7
_symmetry_space_group_name_H-M   'P 1'
_cell_length_a   8.67063003
_cell_length_b   8.67062964
_cell_length_c   8.67062909
_cell_angle_alpha   120.10267600
_cell_angle_beta   119.92634398
_cell_angle_gamma   89.97493855
_symmetry_Int_Tables_number   1
_chemical_formula_structural   Ti8Al14AsOs7
_chemical_formula_sum   'Ti8 Al14 As1 Os7'
_cell_volume   460.82953793
_cell_formula_units_Z   1
loop_
 _symmetry_equiv_pos_site_id
 _symmetry_equiv_pos_as_xyz
  1  'x, y, z'
loop_
 _atom_site_type_symbol
 _atom_site_label
 _atom_site_symmetry_multiplicity
 _atom_site_fract_x
 _atom_site_fract_y
 _atom_site_fract_z
 _atom_site_occupancy
  Ti  Ti0  1  0.793996  0.289600  0.075447  1
  Ti  Ti1  1  0.214153  0.289600  0.495605  1
  Ti  Ti2  1  0.209413  0.709413  0.500000  1
  Ti  Ti3  1  0.214153  0.718548  0.924553  1
  Ti  Ti4  1  0.793996  0.718548  0.504395  1
  Ti  Ti5  1  0.783872  0.283872  0.500000  1
  Ti  Ti6  1  0.379237  0.120025  0.740788  1
  Ti  Ti7  1  0.379237  0.638449  0.259212  1
  Al  Al8  1  0.160068  0.339231  0.179162  1
  Al  Al9  1  0.160068  0.980907  0.820838  1
  Al  Al10  1  0.157803  0.341159  0.816645  1
  Al  Al11  1  0.524513  0.341159  0.183355  1
  Al  Al12  1  0.841120  0.658545  0.817426  1
  Al  Al13  1  0.841120  0.023694  0.182574  1
  Al  Al14  1  0.838960  0.659400  0.179560  1
  Al  Al15  1  0.479840  0.659400  0.820440  1
  Al  Al16  1  0.380143  0.120111  0.260032  1
  Al  Al17  1  0.860080  0.120111  0.739968  1
  Al  Al18  1  0.619198  0.877630  0.258432  1
  Al  Al19  1  0.619198  0.360765  0.741568  1
  Al  Al20  1  0.619759  0.879333  0.740426  1
  Al  Al21  1  0.138906  0.879333  0.259574  1
  As  As22  1  0.997509  0.497509  0.500000  1
  Os  Os23  1  0.999261  0.999252  0.500453  1
  Os  Os24  1  0.498799  0.999252  0.999991  1
  Os  Os25  1  0.498438  0.498438  0.000000  1
  Os  Os26  1  0.498799  0.498808  0.499547  1
  Os  Os27  1  0.999261  0.498808  0.000009  1
  Os  Os28  1  0.000088  0.000088  0.000000  1
  Os  Os29  1  0.499009  0.999009  0.500000  1
