# generated using pymatgen
data_U3Bi8TeO24
_symmetry_space_group_name_H-M   'P 1'
_cell_length_a   5.61237776
_cell_length_b   5.61654918
_cell_length_c   17.15981882
_cell_angle_alpha   89.70940281
_cell_angle_beta   90.85333821
_cell_angle_gamma   89.86372223
_symmetry_Int_Tables_number   1
_chemical_formula_structural   U3Bi8TeO24
_chemical_formula_sum   'U3 Bi8 Te1 O24'
_cell_volume   540.84658988
_cell_formula_units_Z   1
loop_
 _symmetry_equiv_pos_site_id
 _symmetry_equiv_pos_as_xyz
  1  'x, y, z'
loop_
 _atom_site_type_symbol
 _atom_site_label
 _atom_site_symmetry_multiplicity
 _atom_site_fract_x
 _atom_site_fract_y
 _atom_site_fract_z
 _atom_site_occupancy
  U  U0  1  0.000000  0.500000  0.500000  1
  U  U1  1  0.000000  0.000000  0.000000  1
  U  U2  1  0.500000  0.500000  0.000000  1
  Bi  Bi3  1  0.944948  0.982797  0.672731  1
  Bi  Bi4  1  0.968188  0.478939  0.820299  1
  Bi  Bi5  1  0.055052  0.017203  0.327269  1
  Bi  Bi6  1  0.031812  0.521061  0.179701  1
  Bi  Bi7  1  0.539810  0.971106  0.179574  1
  Bi  Bi8  1  0.460190  0.028894  0.820426  1
  Bi  Bi9  1  0.457751  0.533929  0.674282  1
  Bi  Bi10  1  0.542249  0.466071  0.325718  1
  Te  Te11  1  0.500000  0.000000  0.500000  1
  O  O12  1  0.057943  0.116128  0.890917  1
  O  O13  1  0.980431  0.411267  0.390242  1
  O  O14  1  0.777784  0.238088  0.251914  1
  O  O15  1  0.019569  0.588733  0.609758  1
  O  O16  1  0.697222  0.280940  0.524320  1
  O  O17  1  0.779771  0.810767  0.470409  1
  O  O18  1  0.455263  0.092427  0.391935  1
  O  O19  1  0.445861  0.611838  0.108568  1
  O  O20  1  0.942057  0.883872  0.109083  1
  O  O21  1  0.277885  0.252927  0.251916  1
  O  O22  1  0.772981  0.733787  0.253455  1
  O  O23  1  0.222216  0.761912  0.748086  1
  O  O24  1  0.302778  0.719060  0.475680  1
  O  O25  1  0.192562  0.674460  0.963087  1
  O  O26  1  0.272473  0.754214  0.254051  1
  O  O27  1  0.544737  0.907573  0.608065  1
  O  O28  1  0.220229  0.189233  0.529591  1
  O  O29  1  0.227019  0.266213  0.746545  1
  O  O30  1  0.727527  0.245786  0.745949  1
  O  O31  1  0.694229  0.828204  0.963307  1
  O  O32  1  0.305771  0.171796  0.036693  1
  O  O33  1  0.554139  0.388162  0.891432  1
  O  O34  1  0.722115  0.747073  0.748084  1
  O  O35  1  0.807438  0.325540  0.036913  1
