# generated using pymatgen
data_Tb13Dy7(Bi2Ir)4
_symmetry_space_group_name_H-M   'P 1'
_cell_length_a   8.03865509
_cell_length_b   9.03323406
_cell_length_c   12.54985911
_cell_angle_alpha   90.00767297
_cell_angle_beta   89.98682586
_cell_angle_gamma   90.01055201
_symmetry_Int_Tables_number   1
_chemical_formula_structural   Tb13Dy7(Bi2Ir)4
_chemical_formula_sum   'Tb13 Dy7 Bi8 Ir4'
_cell_volume   911.30863576
_cell_formula_units_Z   1
loop_
 _symmetry_equiv_pos_site_id
 _symmetry_equiv_pos_as_xyz
  1  'x, y, z'
loop_
 _atom_site_type_symbol
 _atom_site_label
 _atom_site_symmetry_multiplicity
 _atom_site_fract_x
 _atom_site_fract_y
 _atom_site_fract_z
 _atom_site_occupancy
  Tb  Tb0  1  0.840978  0.749978  0.793142  1
  Tb  Tb1  1  0.159039  0.250004  0.206846  1
  Tb  Tb2  1  0.340866  0.250035  0.706893  1
  Tb  Tb3  1  0.659053  0.749988  0.293096  1
  Tb  Tb4  1  0.376522  0.749967  0.693257  1
  Tb  Tb5  1  0.623356  0.250059  0.306727  1
  Tb  Tb6  1  0.876645  0.250004  0.806826  1
  Tb  Tb7  1  0.123404  0.749995  0.193230  1
  Tb  Tb8  1  0.946409  0.749942  0.501370  1
  Tb  Tb9  1  0.053750  0.250052  0.498621  1
  Tb  Tb10  1  0.446269  0.250004  0.998626  1
  Tb  Tb11  1  0.553690  0.750005  0.001379  1
  Tb  Tb12  1  0.676662  0.041735  0.566140  1
  Dy  Dy13  1  0.323690  0.958233  0.433880  1
  Dy  Dy14  1  0.176166  0.958308  0.933944  1
  Dy  Dy15  1  0.323832  0.541784  0.433922  1
  Dy  Dy16  1  0.823854  0.041772  0.066051  1
  Dy  Dy17  1  0.676184  0.458310  0.566052  1
  Dy  Dy18  1  0.823846  0.458227  0.066059  1
  Dy  Dy19  1  0.176163  0.541700  0.933945  1
  Bi  Bi20  1  0.569186  0.491173  0.827356  1
  Bi  Bi21  1  0.430811  0.508830  0.172634  1
  Bi  Bi22  1  0.069171  0.508828  0.672647  1
  Bi  Bi23  1  0.430819  0.991159  0.172646  1
  Bi  Bi24  1  0.930811  0.491170  0.327357  1
  Bi  Bi25  1  0.569146  0.008814  0.827414  1
  Bi  Bi26  1  0.930788  0.008823  0.327350  1
  Bi  Bi27  1  0.069325  0.991140  0.672691  1
  Ir  Ir28  1  0.569951  0.749773  0.508977  1
  Ir  Ir29  1  0.429610  0.250189  0.490920  1
  Ir  Ir30  1  0.070102  0.249995  0.991005  1
  Ir  Ir31  1  0.929903  0.750006  0.008996  1
