# generated using pymatgen
data_Ho10IrRu2Rh3
_symmetry_space_group_name_H-M   'P 1'
_cell_length_a   10.81007916
_cell_length_b   10.81049800
_cell_length_c   6.39941209
_cell_angle_alpha   90.00000000
_cell_angle_beta   90.01950089
_cell_angle_gamma   90.00000000
_symmetry_Int_Tables_number   1
_chemical_formula_structural   Ho10IrRu2Rh3
_chemical_formula_sum   'Ho20 Ir2 Ru4 Rh6'
_cell_volume   747.85022271
_cell_formula_units_Z   2
loop_
 _symmetry_equiv_pos_site_id
 _symmetry_equiv_pos_as_xyz
  1  'x, y, z'
loop_
 _atom_site_type_symbol
 _atom_site_label
 _atom_site_symmetry_multiplicity
 _atom_site_fract_x
 _atom_site_fract_y
 _atom_site_fract_z
 _atom_site_occupancy
  Ho  Ho0  1  0.294274  0.087582  0.376911  1
  Ho  Ho1  1  0.294274  0.912418  0.876911  1
  Ho  Ho2  1  0.705683  0.086459  0.876780  1
  Ho  Ho3  1  0.705683  0.913541  0.376780  1
  Ho  Ho4  1  0.585280  0.793816  0.876841  1
  Ho  Ho5  1  0.585280  0.206184  0.376841  1
  Ho  Ho6  1  0.412859  0.793681  0.377999  1
  Ho  Ho7  1  0.412859  0.206319  0.877999  1
  Ho  Ho8  1  0.207032  0.414215  0.622246  1
  Ho  Ho9  1  0.207032  0.585785  0.122246  1
  Ho  Ho10  1  0.794490  0.413306  0.122913  1
  Ho  Ho11  1  0.794490  0.586694  0.622913  1
  Ho  Ho12  1  0.913577  0.705817  0.122939  1
  Ho  Ho13  1  0.913577  0.294183  0.622939  1
  Ho  Ho14  1  0.087689  0.705693  0.623404  1
  Ho  Ho15  1  0.087689  0.294307  0.123404  1
  Ho  Ho16  1  0.999976  0.999997  0.499984  1
  Ho  Ho17  1  0.999976  0.000003  0.999984  1
  Ho  Ho18  1  0.499589  0.500082  0.999992  1
  Ho  Ho19  1  0.499589  0.499918  0.499992  1
  Ir  Ir20  1  0.347732  0.347250  0.249879  1
  Ir  Ir21  1  0.347732  0.652750  0.749879  1
  Ru  Ru22  1  0.500522  0.000031  0.122121  1
  Ru  Ru23  1  0.500522  0.999969  0.622121  1
  Ru  Ru24  1  0.999024  0.500018  0.877931  1
  Ru  Ru25  1  0.999024  0.499982  0.377931  1
  Rh  Rh26  1  0.847889  0.152112  0.249917  1
  Rh  Rh27  1  0.847889  0.847888  0.749917  1
  Rh  Rh28  1  0.151715  0.151691  0.750056  1
  Rh  Rh29  1  0.151715  0.848309  0.250056  1
  Rh  Rh30  1  0.652668  0.347798  0.750089  1
  Rh  Rh31  1  0.652668  0.652202  0.250089  1
