# generated using pymatgen
data_Cs4HfS4
_symmetry_space_group_name_H-M   'P 1'
_cell_length_a   8.76668576
_cell_length_b   10.38033718
_cell_length_c   15.43100400
_cell_angle_alpha   89.46372551
_cell_angle_beta   89.65845270
_cell_angle_gamma   90.32130465
_symmetry_Int_Tables_number   1
_chemical_formula_structural   Cs4HfS4
_chemical_formula_sum   'Cs16 Hf4 S16'
_cell_volume   1404.13019308
_cell_formula_units_Z   4
loop_
 _symmetry_equiv_pos_site_id
 _symmetry_equiv_pos_as_xyz
  1  'x, y, z'
loop_
 _atom_site_type_symbol
 _atom_site_label
 _atom_site_symmetry_multiplicity
 _atom_site_fract_x
 _atom_site_fract_y
 _atom_site_fract_z
 _atom_site_occupancy
  Cs  Cs0  1  0.999945  0.998985  0.999780  1
  Cs  Cs1  1  0.499772  0.000194  0.499803  1
  Cs  Cs2  1  0.001060  0.498776  0.000421  1
  Cs  Cs3  1  0.500432  0.500289  0.500063  1
  Cs  Cs4  1  0.995525  0.749991  0.425794  1
  Cs  Cs5  1  0.495649  0.250434  0.073140  1
  Cs  Cs6  1  0.004770  0.250494  0.574448  1
  Cs  Cs7  1  0.504145  0.749662  0.926570  1
  Cs  Cs8  1  0.834296  0.058528  0.282034  1
  Cs  Cs9  1  0.333225  0.942001  0.218484  1
  Cs  Cs10  1  0.164542  0.559024  0.717557  1
  Cs  Cs11  1  0.666316  0.440557  0.783040  1
  Cs  Cs12  1  0.165534  0.941968  0.717559  1
  Cs  Cs13  1  0.665444  0.058099  0.781049  1
  Cs  Cs14  1  0.836111  0.441150  0.282579  1
  Cs  Cs15  1  0.333432  0.560156  0.217239  1
  Hf  Hf16  1  0.756716  0.750490  0.666534  1
  Hf  Hf17  1  0.243724  0.249551  0.333284  1
  Hf  Hf18  1  0.743079  0.749708  0.167305  1
  Hf  Hf19  1  0.256768  0.250051  0.833109  1
  S  S20  1  0.983283  0.248591  0.826203  1
  S  S21  1  0.517021  0.249834  0.324830  1
  S  S22  1  0.483279  0.750593  0.674404  1
  S  S23  1  0.016724  0.749976  0.174609  1
  S  S24  1  0.657335  0.561932  0.093912  1
  S  S25  1  0.160223  0.437980  0.406655  1
  S  S26  1  0.342171  0.061597  0.907135  1
  S  S27  1  0.842643  0.939320  0.591632  1
  S  S28  1  0.340618  0.438181  0.906913  1
  S  S29  1  0.841587  0.562739  0.592974  1
  S  S30  1  0.657299  0.938058  0.093171  1
  S  S31  1  0.157565  0.060347  0.407820  1
  S  S32  1  0.636053  0.748526  0.311507  1
  S  S33  1  0.138691  0.251061  0.189094  1
  S  S34  1  0.363203  0.251526  0.688621  1
  S  S35  1  0.861820  0.749634  0.810725  1
