# generated using pymatgen
data_Ca2La5Pr5(GaRh)8
_symmetry_space_group_name_H-M   'P 1'
_cell_length_a   5.76297025
_cell_length_b   8.26319563
_cell_length_c   13.69856140
_cell_angle_alpha   90.07477719
_cell_angle_beta   90.03359257
_cell_angle_gamma   90.10026691
_symmetry_Int_Tables_number   1
_chemical_formula_structural   Ca2La5Pr5(GaRh)8
_chemical_formula_sum   'Ca2 La5 Pr5 Ga8 Rh8'
_cell_volume   652.33136813
_cell_formula_units_Z   1
loop_
 _symmetry_equiv_pos_site_id
 _symmetry_equiv_pos_as_xyz
  1  'x, y, z'
loop_
 _atom_site_type_symbol
 _atom_site_label
 _atom_site_symmetry_multiplicity
 _atom_site_fract_x
 _atom_site_fract_y
 _atom_site_fract_z
 _atom_site_occupancy
  Ca  Ca0  1  0.857890  0.600167  0.899278  1
  Ca  Ca1  1  0.850503  0.605675  0.602165  1
  La  La2  1  0.846729  0.898651  0.405269  1
  La  La3  1  0.144729  0.403369  0.408157  1
  La  La4  1  0.158914  0.098818  0.597818  1
  La  La5  1  0.155987  0.106962  0.904277  1
  La  La6  1  0.845848  0.896178  0.092550  1
  Pr  Pr7  1  0.630596  0.253667  0.249056  1
  Pr  Pr8  1  0.369526  0.743070  0.751469  1
  Pr  Pr9  1  0.363595  0.748379  0.248048  1
  Pr  Pr10  1  0.639600  0.253236  0.750467  1
  Pr  Pr11  1  0.142884  0.400094  0.096173  1
  Ga  Ga12  1  0.136320  0.102992  0.249226  1
  Ga  Ga13  1  0.863489  0.899451  0.752305  1
  Ga  Ga14  1  0.854411  0.601412  0.249287  1
  Ga  Ga15  1  0.140176  0.400051  0.748310  1
  Ga  Ga16  1  0.630137  0.252633  0.001149  1
  Ga  Ga17  1  0.374633  0.743938  0.996852  1
  Ga  Ga18  1  0.378589  0.748703  0.502126  1
  Ga  Ga19  1  0.631055  0.251635  0.501047  1
  Rh  Rh20  1  0.354432  0.026916  0.089676  1
  Rh  Rh21  1  0.638718  0.970557  0.908939  1
  Rh  Rh22  1  0.643936  0.971259  0.592775  1
  Rh  Rh23  1  0.634472  0.529520  0.408598  1
  Rh  Rh24  1  0.357865  0.028753  0.408761  1
  Rh  Rh25  1  0.357171  0.467667  0.588272  1
  Rh  Rh26  1  0.364498  0.464599  0.907487  1
  Rh  Rh27  1  0.633298  0.531648  0.090463  1
