# generated using pymatgen
data_Ce2Ni9Mo3As7
_symmetry_space_group_name_H-M   'P 1'
_cell_length_a   9.49653900
_cell_length_b   9.49653877
_cell_length_c   3.91629900
_cell_angle_alpha   90.00000000
_cell_angle_beta   90.00000000
_cell_angle_gamma   120.00000990
_symmetry_Int_Tables_number   1
_chemical_formula_structural   Ce2Ni9Mo3As7
_chemical_formula_sum   'Ce2 Ni9 Mo3 As7'
_cell_volume   305.87017510
_cell_formula_units_Z   1
loop_
 _symmetry_equiv_pos_site_id
 _symmetry_equiv_pos_as_xyz
  1  'x, y, z'
loop_
 _atom_site_type_symbol
 _atom_site_label
 _atom_site_symmetry_multiplicity
 _atom_site_fract_x
 _atom_site_fract_y
 _atom_site_fract_z
 _atom_site_occupancy
  Ce  Ce0  1  0.333333  0.666667  0.000000  1
  Ce  Ce1  1  0.000000  0.000000  0.500000  1
  Ni  Ni2  1  0.284913  0.389823  0.500000  1
  Ni  Ni3  1  0.610177  0.895089  0.500000  1
  Ni  Ni4  1  0.104911  0.715087  0.500000  1
  Ni  Ni5  1  0.511671  0.461029  0.000000  1
  Ni  Ni6  1  0.538971  0.050643  0.000000  1
  Ni  Ni7  1  0.949357  0.488329  0.000000  1
  Ni  Ni8  1  0.723422  0.761140  0.000000  1
  Ni  Ni9  1  0.238860  0.962281  0.000000  1
  Ni  Ni10  1  0.037719  0.276578  0.000000  1
  Mo  Mo11  1  0.771583  0.546262  0.500000  1
  Mo  Mo12  1  0.453738  0.225321  0.500000  1
  Mo  Mo13  1  0.774679  0.228417  0.500000  1
  As  As14  1  0.964836  0.744237  0.000000  1
  As  As15  1  0.255763  0.220598  0.000000  1
  As  As16  1  0.779402  0.035164  0.000000  1
  As  As17  1  0.666667  0.333333  0.000000  1
  As  As18  1  0.553666  0.624116  0.500000  1
  As  As19  1  0.375884  0.929551  0.500000  1
  As  As20  1  0.070449  0.446334  0.500000  1
