# generated using pymatgen
data_Dy11Mg(In2Ru)4
_symmetry_space_group_name_H-M   'P 1'
_cell_length_a   3.79926600
_cell_length_b   12.89562592
_cell_length_c   12.89562572
_cell_angle_alpha   112.49446381
_cell_angle_beta   90.00000000
_cell_angle_gamma   90.00000000
_symmetry_Int_Tables_number   1
_chemical_formula_structural   Dy11Mg(In2Ru)4
_chemical_formula_sum   'Dy11 Mg1 In8 Ru4'
_cell_volume   583.73706828
_cell_formula_units_Z   1
loop_
 _symmetry_equiv_pos_site_id
 _symmetry_equiv_pos_as_xyz
  1  'x, y, z'
loop_
 _atom_site_type_symbol
 _atom_site_label
 _atom_site_symmetry_multiplicity
 _atom_site_fract_x
 _atom_site_fract_y
 _atom_site_fract_z
 _atom_site_occupancy
  Dy  Dy0  1  0.000000  0.912176  0.581124  1
  Dy  Dy1  1  0.000000  0.087824  0.418876  1
  Dy  Dy2  1  0.000000  0.581124  0.912176  1
  Dy  Dy3  1  0.000000  0.418876  0.087824  1
  Dy  Dy4  1  0.000000  0.163151  0.836849  1
  Dy  Dy5  1  0.000000  0.836849  0.163151  1
  Dy  Dy6  1  0.000000  0.366989  0.633011  1
  Dy  Dy7  1  0.000000  0.633011  0.366989  1
  Dy  Dy8  1  0.000000  0.699803  0.699803  1
  Dy  Dy9  1  0.000000  0.300197  0.300197  1
  Dy  Dy10  1  0.000000  0.000000  0.000000  1
  Mg  Mg11  1  0.500000  0.500000  0.500000  1
  In  In12  1  0.500000  0.151825  0.630570  1
  In  In13  1  0.500000  0.848175  0.369430  1
  In  In14  1  0.500000  0.630570  0.151825  1
  In  In15  1  0.500000  0.369430  0.848175  1
  In  In16  1  0.500000  0.930380  0.782982  1
  In  In17  1  0.500000  0.069620  0.217018  1
  In  In18  1  0.500000  0.782982  0.930380  1
  In  In19  1  0.500000  0.217018  0.069620  1
  Ru  Ru20  1  0.500000  0.735159  0.546637  1
  Ru  Ru21  1  0.500000  0.264841  0.453363  1
  Ru  Ru22  1  0.500000  0.546637  0.735159  1
  Ru  Ru23  1  0.500000  0.453363  0.264841  1
