# generated using pymatgen
data_Y4Tm16Cd6NiRh
_symmetry_space_group_name_H-M   'P 1'
_cell_length_a   9.52565721
_cell_length_b   9.52219632
_cell_length_c   9.65264000
_cell_angle_alpha   90.00000000
_cell_angle_beta   90.00000000
_cell_angle_gamma   119.98798115
_symmetry_Int_Tables_number   1
_chemical_formula_structural   Y4Tm16Cd6NiRh
_chemical_formula_sum   'Y4 Tm16 Cd6 Ni1 Rh1'
_cell_volume   758.33553194
_cell_formula_units_Z   1
loop_
 _symmetry_equiv_pos_site_id
 _symmetry_equiv_pos_as_xyz
  1  'x, y, z'
loop_
 _atom_site_type_symbol
 _atom_site_label
 _atom_site_symmetry_multiplicity
 _atom_site_fract_x
 _atom_site_fract_y
 _atom_site_fract_z
 _atom_site_occupancy
  Y  Y0  1  0.542211  0.458060  0.250000  1
  Y  Y1  1  0.542211  0.084152  0.250000  1
  Y  Y2  1  0.916111  0.458056  0.250000  1
  Y  Y3  1  0.086558  0.543279  0.750000  1
  Tm  Tm4  1  0.999946  0.999973  0.499407  1
  Tm  Tm5  1  0.999946  0.999973  0.000593  1
  Tm  Tm6  1  0.457803  0.543093  0.750000  1
  Tm  Tm7  1  0.457803  0.914710  0.750000  1
  Tm  Tm8  1  0.209727  0.791481  0.441088  1
  Tm  Tm9  1  0.209727  0.418247  0.441088  1
  Tm  Tm10  1  0.581475  0.790738  0.441599  1
  Tm  Tm11  1  0.788310  0.209812  0.563415  1
  Tm  Tm12  1  0.788310  0.578497  0.563415  1
  Tm  Tm13  1  0.421371  0.210685  0.563737  1
  Tm  Tm14  1  0.788310  0.209812  0.936585  1
  Tm  Tm15  1  0.788310  0.578497  0.936585  1
  Tm  Tm16  1  0.421371  0.210685  0.936263  1
  Tm  Tm17  1  0.209727  0.791481  0.058912  1
  Tm  Tm18  1  0.209727  0.418247  0.058912  1
  Tm  Tm19  1  0.581475  0.790738  0.058401  1
  Cd  Cd20  1  0.885867  0.113766  0.250000  1
  Cd  Cd21  1  0.885867  0.772101  0.250000  1
  Cd  Cd22  1  0.228075  0.114038  0.250000  1
  Cd  Cd23  1  0.115655  0.885972  0.750000  1
  Cd  Cd24  1  0.115655  0.229683  0.750000  1
  Cd  Cd25  1  0.769231  0.884616  0.750000  1
  Ni  Ni26  1  0.666101  0.333050  0.750000  1
  Rh  Rh27  1  0.333120  0.666560  0.250000  1
