# generated using pymatgen
data_ZnCd2In9Ir4
_symmetry_space_group_name_H-M   'P 1'
_cell_length_a   7.17661710
_cell_length_b   7.01410347
_cell_length_c   7.22960200
_cell_angle_alpha   90.00000000
_cell_angle_beta   90.00000000
_cell_angle_gamma   89.13822479
_symmetry_Int_Tables_number   1
_chemical_formula_structural   ZnCd2In9Ir4
_chemical_formula_sum   'Zn1 Cd2 In9 Ir4'
_cell_volume   363.87917967
_cell_formula_units_Z   1
loop_
 _symmetry_equiv_pos_site_id
 _symmetry_equiv_pos_as_xyz
  1  'x, y, z'
loop_
 _atom_site_type_symbol
 _atom_site_label
 _atom_site_symmetry_multiplicity
 _atom_site_fract_x
 _atom_site_fract_y
 _atom_site_fract_z
 _atom_site_occupancy
  Zn  Zn0  1  0.000000  0.500000  0.000000  1
  Cd  Cd1  1  0.500000  0.000000  0.000000  1
  Cd  Cd2  1  0.000000  0.500000  0.500000  1
  In  In3  1  0.334930  0.350298  0.259673  1
  In  In4  1  0.159528  0.835410  0.770582  1
  In  In5  1  0.159528  0.835410  0.229418  1
  In  In6  1  0.840472  0.164590  0.229418  1
  In  In7  1  0.840472  0.164590  0.770582  1
  In  In8  1  0.665070  0.649702  0.259673  1
  In  In9  1  0.665070  0.649702  0.740327  1
  In  In10  1  0.334930  0.350298  0.740327  1
  In  In11  1  0.500000  0.000000  0.500000  1
  Ir  Ir12  1  0.145969  0.162534  0.000000  1
  Ir  Ir13  1  0.649357  0.341175  0.500000  1
  Ir  Ir14  1  0.350643  0.658825  0.500000  1
  Ir  Ir15  1  0.854031  0.837466  0.000000  1
