# generated using pymatgen
data_AcPa2F12
_symmetry_space_group_name_H-M   'P 1'
_cell_length_a   8.63871963
_cell_length_b   8.63871984
_cell_length_c   8.57440302
_cell_angle_alpha   63.49328710
_cell_angle_beta   63.49328340
_cell_angle_gamma   80.60771016
_symmetry_Int_Tables_number   1
_chemical_formula_structural   AcPa2F12
_chemical_formula_sum   'Ac2 Pa4 F24'
_cell_volume   511.91183287
_cell_formula_units_Z   2
loop_
 _symmetry_equiv_pos_site_id
 _symmetry_equiv_pos_as_xyz
  1  'x, y, z'
loop_
 _atom_site_type_symbol
 _atom_site_label
 _atom_site_symmetry_multiplicity
 _atom_site_fract_x
 _atom_site_fract_y
 _atom_site_fract_z
 _atom_site_occupancy
  Ac  Ac0  1  0.788458  0.211542  0.250000  1
  Ac  Ac1  1  0.211542  0.788458  0.750000  1
  Pa  Pa2  1  0.632171  0.776449  0.164560  1
  Pa  Pa3  1  0.776449  0.632171  0.664560  1
  Pa  Pa4  1  0.367829  0.223551  0.835440  1
  Pa  Pa5  1  0.223551  0.367829  0.335440  1
  F  F6  1  0.738997  0.684805  0.395191  1
  F  F7  1  0.583972  0.192876  0.587875  1
  F  F8  1  0.726743  0.512622  0.221634  1
  F  F9  1  0.315195  0.261003  0.104809  1
  F  F10  1  0.086326  0.172217  0.029926  1
  F  F11  1  0.192876  0.583972  0.087875  1
  F  F12  1  0.416028  0.807124  0.412125  1
  F  F13  1  0.395889  0.604111  0.250000  1
  F  F14  1  0.604111  0.395889  0.750000  1
  F  F15  1  0.512622  0.726743  0.721634  1
  F  F16  1  0.827783  0.913674  0.470074  1
  F  F17  1  0.172217  0.086326  0.529926  1
  F  F18  1  0.273257  0.487378  0.778366  1
  F  F19  1  0.261003  0.315195  0.604809  1
  F  F20  1  0.712573  0.017535  0.147826  1
  F  F21  1  0.000000  0.500000  0.500000  1
  F  F22  1  0.982465  0.287427  0.352174  1
  F  F23  1  0.807124  0.416028  0.912125  1
  F  F24  1  0.487378  0.273257  0.278366  1
  F  F25  1  0.913674  0.827783  0.970074  1
  F  F26  1  0.287427  0.982465  0.852174  1
  F  F27  1  0.684805  0.738997  0.895191  1
  F  F28  1  0.017535  0.712573  0.647826  1
  F  F29  1  0.500000  0.000000  0.000000  1
