# generated using pymatgen
data_Tb9Tm(Al2Ru3)2
_symmetry_space_group_name_H-M   'P 1'
_cell_length_a   8.36625702
_cell_length_b   8.36625660
_cell_length_c   8.36625802
_cell_angle_alpha   109.47495379
_cell_angle_beta   109.47494754
_cell_angle_gamma   109.47495741
_symmetry_Int_Tables_number   1
_chemical_formula_structural   Tb9Tm(Al2Ru3)2
_chemical_formula_sum   'Tb9 Tm1 Al4 Ru6'
_cell_volume   450.72507480
_cell_formula_units_Z   1
loop_
 _symmetry_equiv_pos_site_id
 _symmetry_equiv_pos_as_xyz
  1  'x, y, z'
loop_
 _atom_site_type_symbol
 _atom_site_label
 _atom_site_symmetry_multiplicity
 _atom_site_fract_x
 _atom_site_fract_y
 _atom_site_fract_z
 _atom_site_occupancy
  Tb  Tb0  1  0.319256  0.568822  0.750149  1
  Tb  Tb1  1  0.750149  0.319256  0.568822  1
  Tb  Tb2  1  0.568822  0.750149  0.319256  1
  Tb  Tb3  1  0.714353  0.500494  0.999545  1
  Tb  Tb4  1  0.999545  0.714353  0.500494  1
  Tb  Tb5  1  0.500494  0.999545  0.714353  1
  Tb  Tb6  1  0.249397  0.181188  0.931703  1
  Tb  Tb7  1  0.931703  0.249397  0.181188  1
  Tb  Tb8  1  0.181188  0.931703  0.249397  1
  Tm  Tm9  1  0.787867  0.787867  0.787867  1
  Al  Al10  1  0.412044  0.412044  0.412044  1
  Al  Al11  1  0.089314  0.499762  0.999612  1
  Al  Al12  1  0.999612  0.089314  0.499762  1
  Al  Al13  1  0.499762  0.999612  0.089314  1
  Ru  Ru14  1  0.877253  0.125856  0.749855  1
  Ru  Ru15  1  0.749855  0.877253  0.125856  1
  Ru  Ru16  1  0.125856  0.749855  0.877253  1
  Ru  Ru17  1  0.249808  0.622001  0.371721  1
  Ru  Ru18  1  0.371721  0.249808  0.622001  1
  Ru  Ru19  1  0.622001  0.371721  0.249808  1
