# generated using pymatgen
data_Hf7Sc(Si4Mo)2
_symmetry_space_group_name_H-M   'P 1'
_cell_length_a   6.96574203
_cell_length_b   6.96832103
_cell_length_c   12.72493500
_cell_angle_alpha   90.00000000
_cell_angle_beta   90.00000000
_cell_angle_gamma   90.00985217
_symmetry_Int_Tables_number   1
_chemical_formula_structural   Hf7Sc(Si4Mo)2
_chemical_formula_sum   'Hf14 Sc2 Si16 Mo4'
_cell_volume   617.66231201
_cell_formula_units_Z   2
loop_
 _symmetry_equiv_pos_site_id
 _symmetry_equiv_pos_as_xyz
  1  'x, y, z'
loop_
 _atom_site_type_symbol
 _atom_site_label
 _atom_site_symmetry_multiplicity
 _atom_site_fract_x
 _atom_site_fract_y
 _atom_site_fract_z
 _atom_site_occupancy
  Hf  Hf0  1  0.655029  0.003625  0.281072  1
  Hf  Hf1  1  0.344971  0.996375  0.781072  1
  Hf  Hf2  1  0.845787  0.503009  0.969019  1
  Hf  Hf3  1  0.154213  0.496991  0.469019  1
  Hf  Hf4  1  0.003944  0.654416  0.719528  1
  Hf  Hf5  1  0.996056  0.345584  0.219528  1
  Hf  Hf6  1  0.496653  0.356679  0.125044  1
  Hf  Hf7  1  0.503347  0.643321  0.625044  1
  Hf  Hf8  1  0.856747  0.003092  0.874646  1
  Hf  Hf9  1  0.143253  0.996908  0.374646  1
  Hf  Hf10  1  0.644664  0.503098  0.374727  1
  Hf  Hf11  1  0.355336  0.496902  0.874727  1
  Hf  Hf12  1  0.002708  0.856648  0.125619  1
  Hf  Hf13  1  0.997292  0.143352  0.625619  1
  Sc  Sc14  1  0.496217  0.154853  0.530883  1
  Sc  Sc15  1  0.503783  0.845147  0.030883  1
  Si  Si16  1  0.796941  0.146643  0.071464  1
  Si  Si17  1  0.203059  0.853357  0.571464  1
  Si  Si18  1  0.647237  0.702450  0.820751  1
  Si  Si19  1  0.352763  0.297550  0.320751  1
  Si  Si20  1  0.854327  0.203713  0.428123  1
  Si  Si21  1  0.145673  0.796287  0.928123  1
  Si  Si22  1  0.703150  0.647089  0.178603  1
  Si  Si23  1  0.296850  0.352911  0.678603  1
  Si  Si24  1  0.547130  0.196754  0.933219  1
  Si  Si25  1  0.452870  0.803246  0.433219  1
  Si  Si26  1  0.696405  0.953518  0.683125  1
  Si  Si27  1  0.303595  0.046482  0.183125  1
  Si  Si28  1  0.803425  0.452911  0.566962  1
  Si  Si29  1  0.196575  0.547089  0.066962  1
  Si  Si30  1  0.953485  0.696670  0.316681  1
  Si  Si31  1  0.046515  0.303330  0.816681  1
  Mo  Mo32  1  0.673587  0.327681  0.750288  1
  Mo  Mo33  1  0.326413  0.672319  0.250288  1
  Mo  Mo34  1  0.826526  0.824592  0.500246  1
  Mo  Mo35  1  0.173474  0.175408  0.000246  1
