# generated using pymatgen
data_Nb4Si3Os2
_symmetry_space_group_name_H-M   'P 1'
_cell_length_a   7.54692316
_cell_length_b   7.54692355
_cell_length_c   7.54692400
_cell_angle_alpha   126.97697041
_cell_angle_beta   124.07385214
_cell_angle_gamma   80.69121703
_symmetry_Int_Tables_number   1
_chemical_formula_structural   Nb4Si3Os2
_chemical_formula_sum   'Nb8 Si6 Os4'
_cell_volume   274.28184937
_cell_formula_units_Z   2
loop_
 _symmetry_equiv_pos_site_id
 _symmetry_equiv_pos_as_xyz
  1  'x, y, z'
loop_
 _atom_site_type_symbol
 _atom_site_label
 _atom_site_symmetry_multiplicity
 _atom_site_fract_x
 _atom_site_fract_y
 _atom_site_fract_z
 _atom_site_occupancy
  Nb  Nb0  1  0.558404  0.092282  0.033878  1
  Nb  Nb1  1  0.441596  0.475474  0.533878  1
  Nb  Nb2  1  0.961753  0.484716  0.022962  1
  Nb  Nb3  1  0.038247  0.061210  0.522962  1
  Nb  Nb4  1  0.753723  0.917186  0.663464  1
  Nb  Nb5  1  0.246277  0.909741  0.163464  1
  Nb  Nb6  1  0.500000  0.251666  0.751666  1
  Nb  Nb7  1  0.000000  0.251666  0.251666  1
  Si  Si8  1  0.784652  0.561012  0.276361  1
  Si  Si9  1  0.215348  0.491710  0.776361  1
  Si  Si10  1  0.335771  0.817189  0.494250  1
  Si  Si11  1  0.664229  0.158477  0.481416  1
  Si  Si12  1  0.822940  0.817189  0.981416  1
  Si  Si13  1  0.177060  0.158477  0.994250  1
  Os  Os14  1  0.165882  0.750186  0.662797  1
  Os  Os15  1  0.834118  0.496917  0.584305  1
  Os  Os16  1  0.587389  0.750186  0.084305  1
  Os  Os17  1  0.412611  0.496917  0.162797  1
