# generated using pymatgen
data_Li8TbY7(SnSb)4
_symmetry_space_group_name_H-M   'P 1'
_cell_length_a   9.38431700
_cell_length_b   9.39254269
_cell_length_c   7.21888900
_cell_angle_alpha   89.90980957
_cell_angle_beta   90.00000000
_cell_angle_gamma   119.97103758
_symmetry_Int_Tables_number   1
_chemical_formula_structural   Li8TbY7(SnSb)4
_chemical_formula_sum   'Li8 Tb1 Y7 Sn4 Sb4'
_cell_volume   551.20455578
_cell_formula_units_Z   1
loop_
 _symmetry_equiv_pos_site_id
 _symmetry_equiv_pos_as_xyz
  1  'x, y, z'
loop_
 _atom_site_type_symbol
 _atom_site_label
 _atom_site_symmetry_multiplicity
 _atom_site_fract_x
 _atom_site_fract_y
 _atom_site_fract_z
 _atom_site_occupancy
  Li  Li0  1  0.167009  0.334017  0.283097  1
  Li  Li1  1  0.167712  0.833544  0.283942  1
  Li  Li2  1  0.665832  0.833544  0.283942  1
  Li  Li3  1  0.832478  0.664955  0.785680  1
  Li  Li4  1  0.832773  0.167293  0.785263  1
  Li  Li5  1  0.334519  0.167293  0.785263  1
  Li  Li6  1  0.333330  0.666660  0.674594  1
  Li  Li7  1  0.666712  0.333423  0.177061  1
  Tb  Tb8  1  0.000996  0.001991  0.003847  1
  Y  Y9  1  0.512917  0.025834  0.491241  1
  Y  Y10  1  0.510609  0.487204  0.491283  1
  Y  Y11  1  0.976596  0.487204  0.491283  1
  Y  Y12  1  0.489610  0.979221  0.994566  1
  Y  Y13  1  0.487305  0.509681  0.993877  1
  Y  Y14  1  0.022375  0.509681  0.993877  1
  Y  Y15  1  0.001412  0.002825  0.500335  1
  Sn  Sn16  1  0.833547  0.166616  0.233092  1
  Sn  Sn17  1  0.333070  0.166616  0.233092  1
  Sn  Sn18  1  0.332767  0.665536  0.259871  1
  Sn  Sn19  1  0.666595  0.333188  0.759661  1
  Sb  Sb20  1  0.166314  0.332628  0.734768  1
  Sb  Sb21  1  0.165578  0.832295  0.734141  1
  Sb  Sb22  1  0.666717  0.832295  0.734141  1
  Sb  Sb23  1  0.833229  0.666457  0.234083  1
