# generated using pymatgen
data_Zr4Mn4GeAs3
_symmetry_space_group_name_H-M   'P 1'
_cell_length_a   3.74931200
_cell_length_b   6.66144105
_cell_length_c   7.82030106
_cell_angle_alpha   90.01394464
_cell_angle_beta   90.00000000
_cell_angle_gamma   90.00000000
_symmetry_Int_Tables_number   1
_chemical_formula_structural   Zr4Mn4GeAs3
_chemical_formula_sum   'Zr4 Mn4 Ge1 As3'
_cell_volume   195.31843254
_cell_formula_units_Z   1
loop_
 _symmetry_equiv_pos_site_id
 _symmetry_equiv_pos_as_xyz
  1  'x, y, z'
loop_
 _atom_site_type_symbol
 _atom_site_label
 _atom_site_symmetry_multiplicity
 _atom_site_fract_x
 _atom_site_fract_y
 _atom_site_fract_z
 _atom_site_occupancy
  Zr  Zr0  1  0.250000  0.534956  0.676551  1
  Zr  Zr1  1  0.250000  0.034726  0.823443  1
  Zr  Zr2  1  0.750000  0.965307  0.176980  1
  Zr  Zr3  1  0.750000  0.465523  0.322603  1
  Mn  Mn4  1  0.750000  0.865116  0.561773  1
  Mn  Mn5  1  0.250000  0.132951  0.437806  1
  Mn  Mn6  1  0.750000  0.367103  0.939748  1
  Mn  Mn7  1  0.250000  0.633858  0.062069  1
  Ge  Ge8  1  0.750000  0.237232  0.625434  1
  As  As9  1  0.750000  0.736879  0.873268  1
  As  As10  1  0.250000  0.763603  0.373074  1
  As  As11  1  0.250000  0.262746  0.127250  1
