# generated using pymatgen
data_PAu(SCl)2
_symmetry_space_group_name_H-M   'P 1'
_cell_length_a   6.88937072
_cell_length_b   9.43315652
_cell_length_c   7.86410345
_cell_angle_alpha   80.57905622
_cell_angle_beta   76.35663576
_cell_angle_gamma   88.75124880
_symmetry_Int_Tables_number   1
_chemical_formula_structural   PAu(SCl)2
_chemical_formula_sum   'P2 Au2 S4 Cl4'
_cell_volume   489.88113762
_cell_formula_units_Z   2
loop_
 _symmetry_equiv_pos_site_id
 _symmetry_equiv_pos_as_xyz
  1  'x, y, z'
loop_
 _atom_site_type_symbol
 _atom_site_label
 _atom_site_symmetry_multiplicity
 _atom_site_fract_x
 _atom_site_fract_y
 _atom_site_fract_z
 _atom_site_occupancy
  P  P0  1  0.751034  0.252392  0.254453  1
  P  P1  1  0.248966  0.747608  0.745547  1
  Au  Au2  1  0.500000  0.500000  0.500000  1
  Au  Au3  1  0.000000  0.000000  0.000000  1
  S  S4  1  0.042498  0.901355  0.743901  1
  S  S5  1  0.957502  0.098645  0.256099  1
  S  S6  1  0.207171  0.623764  0.571895  1
  S  S7  1  0.792829  0.376236  0.428105  1
  Cl  Cl8  1  0.234104  0.633437  0.991738  1
  Cl  Cl9  1  0.765896  0.366563  0.008262  1
  Cl  Cl10  1  0.467455  0.170831  0.312804  1
  Cl  Cl11  1  0.532545  0.829169  0.687196  1
