# generated using pymatgen
data_Ho10AlSb5
_symmetry_space_group_name_H-M   'P 1'
_cell_length_a   8.89291100
_cell_length_b   8.89097589
_cell_length_c   6.36554700
_cell_angle_alpha   90.00000000
_cell_angle_beta   90.00000000
_cell_angle_gamma   120.00720374
_symmetry_Int_Tables_number   1
_chemical_formula_structural   Ho10AlSb5
_chemical_formula_sum   'Ho10 Al1 Sb5'
_cell_volume   435.84112765
_cell_formula_units_Z   1
loop_
 _symmetry_equiv_pos_site_id
 _symmetry_equiv_pos_as_xyz
  1  'x, y, z'
loop_
 _atom_site_type_symbol
 _atom_site_label
 _atom_site_symmetry_multiplicity
 _atom_site_fract_x
 _atom_site_fract_y
 _atom_site_fract_z
 _atom_site_occupancy
  Ho  Ho0  1  0.334859  0.673601  0.998799  1
  Ho  Ho1  1  0.661259  0.326399  0.501201  1
  Ho  Ho2  1  0.661259  0.326399  0.998799  1
  Ho  Ho3  1  0.334859  0.673601  0.501201  1
  Ho  Ho4  1  0.752101  0.000000  0.750000  1
  Ho  Ho5  1  0.755542  0.756415  0.250000  1
  Ho  Ho6  1  0.999127  0.243585  0.250000  1
  Ho  Ho7  1  0.009425  0.763906  0.750000  1
  Ho  Ho8  1  0.245519  0.236094  0.750000  1
  Ho  Ho9  1  0.242244  0.000000  0.250000  1
  Al  Al10  1  0.396600  0.000000  0.750000  1
  Sb  Sb11  1  0.389553  0.392502  0.250000  1
  Sb  Sb12  1  0.997051  0.607498  0.250000  1
  Sb  Sb13  1  0.001949  0.390558  0.750000  1
  Sb  Sb14  1  0.611391  0.609442  0.750000  1
  Sb  Sb15  1  0.607261  0.000000  0.250000  1
