# generated using pymatgen
data_La12Ga(RuBr4)3
_symmetry_space_group_name_H-M   'P 1'
_cell_length_a   10.70503125
_cell_length_b   10.70503051
_cell_length_c   10.49377900
_cell_angle_alpha   109.07195635
_cell_angle_beta   109.07195499
_cell_angle_gamma   109.86751695
_symmetry_Int_Tables_number   1
_chemical_formula_structural   La12Ga(RuBr4)3
_chemical_formula_sum   'La12 Ga1 Ru3 Br12'
_cell_volume   930.25531328
_cell_formula_units_Z   1
loop_
 _symmetry_equiv_pos_site_id
 _symmetry_equiv_pos_as_xyz
  1  'x, y, z'
loop_
 _atom_site_type_symbol
 _atom_site_label
 _atom_site_symmetry_multiplicity
 _atom_site_fract_x
 _atom_site_fract_y
 _atom_site_fract_z
 _atom_site_occupancy
  La  La0  1  0.257491  0.731680  0.228369  1
  La  La1  1  0.474189  0.731680  0.003311  1
  La  La2  1  0.234113  0.468226  0.484113  1
  La  La3  1  0.013300  0.026603  0.263300  1
  La  La4  1  0.234113  0.265887  0.750000  1
  La  La5  1  0.013300  0.486700  0.750000  1
  La  La6  1  0.474189  0.242509  0.470877  1
  La  La7  1  0.257491  0.025811  0.029123  1
  La  La8  1  0.768320  0.242509  0.271631  1
  La  La9  1  0.768320  0.025811  0.496689  1
  La  La10  1  0.473397  0.486700  0.236700  1
  La  La11  1  0.031774  0.265887  0.015887  1
  Ga  Ga12  1  0.500000  0.000000  0.250000  1
  Ru  Ru13  1  0.251527  0.503055  0.001527  1
  Ru  Ru14  1  0.996945  0.248473  0.498473  1
  Ru  Ru15  1  0.251527  0.248473  0.250000  1
  Br  Br16  1  0.249065  0.993689  0.502272  1
  Br  Br17  1  0.514545  0.507272  0.757272  1
  Br  Br18  1  0.249065  0.755376  0.746793  1
  Br  Br19  1  0.991886  0.745944  0.995944  1
  Br  Br20  1  0.992728  0.507272  0.250000  1
  Br  Br21  1  0.744624  0.993689  0.991416  1
  Br  Br22  1  0.754056  0.745944  0.250000  1
  Br  Br23  1  0.506311  0.755376  0.508584  1
  Br  Br24  1  0.506311  0.250935  0.997728  1
  Br  Br25  1  0.754056  0.508114  0.504056  1
  Br  Br26  1  0.744624  0.250935  0.753207  1
  Br  Br27  1  0.992728  0.985455  0.742728  1
