# generated using pymatgen
data_Tm7LuMn(B8Os)3
_symmetry_space_group_name_H-M   'P 1'
_cell_length_a   3.59361600
_cell_length_b   9.05614202
_cell_length_c   11.42746400
_cell_angle_alpha   90.03686807
_cell_angle_beta   90.00000000
_cell_angle_gamma   90.00000000
_symmetry_Int_Tables_number   1
_chemical_formula_structural   Tm7LuMn(B8Os)3
_chemical_formula_sum   'Tm7 Lu1 Mn1 B24 Os3'
_cell_volume   371.89870406
_cell_formula_units_Z   1
loop_
 _symmetry_equiv_pos_site_id
 _symmetry_equiv_pos_as_xyz
  1  'x, y, z'
loop_
 _atom_site_type_symbol
 _atom_site_label
 _atom_site_symmetry_multiplicity
 _atom_site_fract_x
 _atom_site_fract_y
 _atom_site_fract_z
 _atom_site_occupancy
  Tm  Tm0  1  0.000000  0.324830  0.412554  1
  Tm  Tm1  1  0.000000  0.677223  0.581982  1
  Tm  Tm2  1  0.000000  0.819073  0.088640  1
  Tm  Tm3  1  0.000000  0.179040  0.915008  1
  Tm  Tm4  1  0.000000  0.939397  0.371726  1
  Tm  Tm5  1  0.000000  0.056825  0.626854  1
  Tm  Tm6  1  0.000000  0.446095  0.130212  1
  Lu  Lu7  1  0.000000  0.557031  0.872643  1
  Mn  Mn8  1  0.000000  0.637318  0.320850  1
  B  B9  1  0.500000  0.553858  0.431892  1
  B  B10  1  0.500000  0.447211  0.565908  1
  B  B11  1  0.500000  0.053334  0.066840  1
  B  B12  1  0.500000  0.946872  0.933665  1
  B  B13  1  0.500000  0.746211  0.417835  1
  B  B14  1  0.500000  0.251716  0.579552  1
  B  B15  1  0.500000  0.249522  0.080805  1
  B  B16  1  0.500000  0.751105  0.920186  1
  B  B17  1  0.500000  0.789233  0.266357  1
  B  B18  1  0.500000  0.209030  0.734168  1
  B  B19  1  0.500000  0.291880  0.234730  1
  B  B20  1  0.500000  0.708347  0.765758  1
  B  B21  1  0.500000  0.631040  0.186793  1
  B  B22  1  0.500000  0.369648  0.815431  1
  B  B23  1  0.500000  0.130447  0.314928  1
  B  B24  1  0.500000  0.868662  0.684587  1
  B  B25  1  0.500000  0.981027  0.212800  1
  B  B26  1  0.500000  0.018301  0.787403  1
  B  B27  1  0.500000  0.484378  0.288343  1
  B  B28  1  0.500000  0.518679  0.712759  1
  B  B29  1  0.500000  0.605683  0.029296  1
  B  B30  1  0.500000  0.395627  0.971097  1
  B  B31  1  0.500000  0.105098  0.470276  1
  B  B32  1  0.500000  0.893720  0.528787  1
  Os  Os33  1  0.000000  0.362774  0.679563  1
  Os  Os34  1  0.000000  0.137491  0.178323  1
  Os  Os35  1  0.000000  0.862275  0.821447  1
