# generated using pymatgen
data_TmU2(SnRu)3
_symmetry_space_group_name_H-M   'P 1'
_cell_length_a   7.48240414
_cell_length_b   7.22939499
_cell_length_c   3.95010000
_cell_angle_alpha   90.00000000
_cell_angle_beta   90.00000000
_cell_angle_gamma   118.88761132
_symmetry_Int_Tables_number   1
_chemical_formula_structural   TmU2(SnRu)3
_chemical_formula_sum   'Tm1 U2 Sn3 Ru3'
_cell_volume   187.08612681
_cell_formula_units_Z   1
loop_
 _symmetry_equiv_pos_site_id
 _symmetry_equiv_pos_as_xyz
  1  'x, y, z'
loop_
 _atom_site_type_symbol
 _atom_site_label
 _atom_site_symmetry_multiplicity
 _atom_site_fract_x
 _atom_site_fract_y
 _atom_site_fract_z
 _atom_site_occupancy
  Tm  Tm0  1  0.000000  0.407299  0.500000  1
  U  U1  1  0.587259  0.586269  0.500000  1
  U  U2  1  0.412741  0.999011  0.500000  1
  Sn  Sn3  1  0.000000  0.729772  0.000000  1
  Sn  Sn4  1  0.241644  0.255397  0.000000  1
  Sn  Sn5  1  0.758356  0.013753  0.000000  1
  Ru  Ru6  1  0.364028  0.694717  0.000000  1
  Ru  Ru7  1  0.635972  0.330688  0.000000  1
  Ru  Ru8  1  0.000000  0.983095  0.500000  1
