# generated using pymatgen
data_Tb2Ho3RuRh
_symmetry_space_group_name_H-M   'P 1'
_cell_length_a   6.39344523
_cell_length_b   7.22624970
_cell_length_c   8.54582551
_cell_angle_alpha   96.79534758
_cell_angle_beta   111.96673604
_cell_angle_gamma   90.00000457
_symmetry_Int_Tables_number   1
_chemical_formula_structural   Tb2Ho3RuRh
_chemical_formula_sum   'Tb4 Ho6 Ru2 Rh2'
_cell_volume   363.16646044
_cell_formula_units_Z   2
loop_
 _symmetry_equiv_pos_site_id
 _symmetry_equiv_pos_as_xyz
  1  'x, y, z'
loop_
 _atom_site_type_symbol
 _atom_site_label
 _atom_site_symmetry_multiplicity
 _atom_site_fract_x
 _atom_site_fract_y
 _atom_site_fract_z
 _atom_site_occupancy
  Tb  Tb0  1  0.981222  0.918277  0.189815  1
  Tb  Tb1  1  0.791407  0.581723  0.810185  1
  Tb  Tb2  1  0.024115  0.084999  0.812871  1
  Tb  Tb3  1  0.211244  0.415001  0.187129  1
  Ho  Ho4  1  0.641648  0.815863  0.433732  1
  Ho  Ho5  1  0.207915  0.684137  0.566268  1
  Ho  Ho6  1  0.355873  0.187709  0.563607  1
  Ho  Ho7  1  0.792267  0.312291  0.436393  1
  Ho  Ho8  1  0.422055  0.750000  0.000000  1
  Ho  Ho9  1  0.575978  0.250000  0.000000  1
  Ru  Ru10  1  0.178261  0.425783  0.778872  1
  Ru  Ru11  1  0.399388  0.074217  0.221128  1
  Rh  Rh12  1  0.820555  0.575701  0.222486  1
  Rh  Rh13  1  0.598070  0.924299  0.777514  1
