# generated using pymatgen
data_Dy3Bi3(WO7)2
_symmetry_space_group_name_H-M   'P 1'
_cell_length_a   6.44479108
_cell_length_b   6.72691815
_cell_length_c   7.64235244
_cell_angle_alpha   106.70392023
_cell_angle_beta   89.87817008
_cell_angle_gamma   98.21020821
_symmetry_Int_Tables_number   1
_chemical_formula_structural   Dy3Bi3(WO7)2
_chemical_formula_sum   'Dy3 Bi3 W2 O14'
_cell_volume   313.82512800
_cell_formula_units_Z   1
loop_
 _symmetry_equiv_pos_site_id
 _symmetry_equiv_pos_as_xyz
  1  'x, y, z'
loop_
 _atom_site_type_symbol
 _atom_site_label
 _atom_site_symmetry_multiplicity
 _atom_site_fract_x
 _atom_site_fract_y
 _atom_site_fract_z
 _atom_site_occupancy
  Dy  Dy0  1  0.546753  0.991988  0.749272  1
  Dy  Dy1  1  0.457704  0.006535  0.254439  1
  Dy  Dy2  1  0.253139  0.534936  0.884707  1
  Bi  Bi3  1  0.746414  0.480296  0.113424  1
  Bi  Bi4  1  0.724462  0.457909  0.615827  1
  Bi  Bi5  1  0.265320  0.538800  0.385513  1
  W  W6  1  0.003838  0.007482  0.502092  1
  W  W7  1  0.004936  0.001960  0.999881  1
  O  O8  1  0.444166  0.652450  0.164703  1
  O  O9  1  0.542913  0.343652  0.827568  1
  O  O10  1  0.290006  0.923604  0.948591  1
  O  O11  1  0.712774  0.047468  0.049971  1
  O  O12  1  0.294257  0.916836  0.509454  1
  O  O13  1  0.707308  0.086840  0.493271  1
  O  O14  1  0.529458  0.357489  0.346877  1
  O  O15  1  0.454761  0.640901  0.661701  1
  O  O16  1  0.934068  0.677572  0.953402  1
  O  O17  1  0.083298  0.311195  0.035543  1
  O  O18  1  0.095635  0.302991  0.624882  1
  O  O19  1  0.901460  0.712313  0.377917  1
  O  O20  1  0.899976  0.944072  0.736326  1
  O  O21  1  0.107353  0.062711  0.264640  1
