# generated using pymatgen
data_TbNd5CoBr10
_symmetry_space_group_name_H-M   'P 1'
_cell_length_a   7.56110864
_cell_length_b   9.37624247
_cell_length_c   9.56396370
_cell_angle_alpha   108.49611172
_cell_angle_beta   96.49499825
_cell_angle_gamma   105.46209136
_symmetry_Int_Tables_number   1
_chemical_formula_structural   TbNd5CoBr10
_chemical_formula_sum   'Tb1 Nd5 Co1 Br10'
_cell_volume   605.06930163
_cell_formula_units_Z   1
loop_
 _symmetry_equiv_pos_site_id
 _symmetry_equiv_pos_as_xyz
  1  'x, y, z'
loop_
 _atom_site_type_symbol
 _atom_site_label
 _atom_site_symmetry_multiplicity
 _atom_site_fract_x
 _atom_site_fract_y
 _atom_site_fract_z
 _atom_site_occupancy
  Tb  Tb0  1  0.645716  0.868748  0.325351  1
  Nd  Nd1  1  0.029204  0.711990  0.408600  1
  Nd  Nd2  1  0.966883  0.286529  0.588840  1
  Nd  Nd3  1  0.868741  0.949384  0.744274  1
  Nd  Nd4  1  0.125863  0.046981  0.253783  1
  Nd  Nd5  1  0.361831  0.136264  0.680418  1
  Co  Co6  1  0.999443  0.999494  0.500351  1
  Br  Br7  1  0.452552  0.820131  0.574902  1
  Br  Br8  1  0.549511  0.173591  0.415632  1
  Br  Br9  1  0.913093  0.629364  0.669443  1
  Br  Br10  1  0.084814  0.368104  0.327697  1
  Br  Br11  1  0.246433  0.080611  0.951781  1
  Br  Br12  1  0.743876  0.913886  0.052927  1
  Br  Br13  1  0.349945  0.455732  0.768503  1
  Br  Br14  1  0.643577  0.553954  0.228584  1
  Br  Br15  1  0.789280  0.256150  0.848973  1
  Br  Br16  1  0.229239  0.749089  0.159942  1
