# generated using pymatgen
data_Lu5Bi2Ru
_symmetry_space_group_name_H-M   'P 1'
_cell_length_a   7.81276000
_cell_length_b   8.91618300
_cell_length_c   12.26705700
_cell_angle_alpha   90.00000000
_cell_angle_beta   90.00000000
_cell_angle_gamma   90.00000000
_symmetry_Int_Tables_number   1
_chemical_formula_structural   Lu5Bi2Ru
_chemical_formula_sum   'Lu20 Bi8 Ru4'
_cell_volume   854.52316480
_cell_formula_units_Z   4
loop_
 _symmetry_equiv_pos_site_id
 _symmetry_equiv_pos_as_xyz
  1  'x, y, z'
loop_
 _atom_site_type_symbol
 _atom_site_label
 _atom_site_symmetry_multiplicity
 _atom_site_fract_x
 _atom_site_fract_y
 _atom_site_fract_z
 _atom_site_occupancy
  Lu  Lu0  1  0.340805  0.750000  0.708103  1
  Lu  Lu1  1  0.659195  0.250000  0.291897  1
  Lu  Lu2  1  0.840805  0.250000  0.791897  1
  Lu  Lu3  1  0.159195  0.750000  0.208103  1
  Lu  Lu4  1  0.880025  0.750000  0.810836  1
  Lu  Lu5  1  0.119975  0.250000  0.189164  1
  Lu  Lu6  1  0.380025  0.250000  0.689164  1
  Lu  Lu7  1  0.619975  0.750000  0.310836  1
  Lu  Lu8  1  0.672975  0.542947  0.564612  1
  Lu  Lu9  1  0.327025  0.457053  0.435388  1
  Lu  Lu10  1  0.172975  0.457053  0.935388  1
  Lu  Lu11  1  0.327025  0.042947  0.435388  1
  Lu  Lu12  1  0.827025  0.542947  0.064612  1
  Lu  Lu13  1  0.672975  0.957053  0.564612  1
  Lu  Lu14  1  0.827025  0.957053  0.064612  1
  Lu  Lu15  1  0.172975  0.042947  0.935388  1
  Lu  Lu16  1  0.057899  0.750000  0.495936  1
  Lu  Lu17  1  0.942101  0.250000  0.504064  1
  Lu  Lu18  1  0.557899  0.250000  0.004064  1
  Lu  Lu19  1  0.442101  0.750000  0.995936  1
  Bi  Bi20  1  0.567603  0.507475  0.828210  1
  Bi  Bi21  1  0.432397  0.492525  0.171790  1
  Bi  Bi22  1  0.067603  0.492525  0.671790  1
  Bi  Bi23  1  0.432397  0.007475  0.171790  1
  Bi  Bi24  1  0.932397  0.507475  0.328210  1
  Bi  Bi25  1  0.567603  0.992525  0.828210  1
  Bi  Bi26  1  0.932397  0.992525  0.328210  1
  Bi  Bi27  1  0.067603  0.007475  0.671790  1
  Ru  Ru28  1  0.073437  0.750000  0.991139  1
  Ru  Ru29  1  0.926563  0.250000  0.008861  1
  Ru  Ru30  1  0.573437  0.250000  0.508861  1
  Ru  Ru31  1  0.426563  0.750000  0.491139  1
