# generated using pymatgen
data_Tb6YbCo2Sn23Rh4
_symmetry_space_group_name_H-M   'P 1'
_cell_length_a   9.83415806
_cell_length_b   9.83369287
_cell_length_c   10.07059909
_cell_angle_alpha   90.00000070
_cell_angle_beta   90.01117525
_cell_angle_gamma   119.99843497
_symmetry_Int_Tables_number   1
_chemical_formula_structural   Tb6YbCo2Sn23Rh4
_chemical_formula_sum   'Tb6 Yb1 Co2 Sn23 Rh4'
_cell_volume   843.42525441
_cell_formula_units_Z   1
loop_
 _symmetry_equiv_pos_site_id
 _symmetry_equiv_pos_as_xyz
  1  'x, y, z'
loop_
 _atom_site_type_symbol
 _atom_site_label
 _atom_site_symmetry_multiplicity
 _atom_site_fract_x
 _atom_site_fract_y
 _atom_site_fract_z
 _atom_site_occupancy
  Tb  Tb0  1  0.478869  0.521327  0.307511  1
  Tb  Tb1  1  0.521131  0.478673  0.692489  1
  Tb  Tb2  1  0.478869  0.957541  0.307511  1
  Tb  Tb3  1  0.521131  0.042459  0.692489  1
  Tb  Tb4  1  0.042350  0.521175  0.307166  1
  Tb  Tb5  1  0.957650  0.478825  0.692834  1
  Yb  Yb6  1  0.000000  0.000000  0.000000  1
  Co  Co7  1  0.340010  0.170005  0.200336  1
  Co  Co8  1  0.659990  0.829995  0.799664  1
  Sn  Sn9  1  0.350111  0.004805  0.004459  1
  Sn  Sn10  1  0.649889  0.995195  0.995541  1
  Sn  Sn11  1  0.000000  0.349636  0.000000  1
  Sn  Sn12  1  0.000000  0.650364  0.000000  1
  Sn  Sn13  1  0.649889  0.654694  0.995541  1
  Sn  Sn14  1  0.350111  0.345306  0.004459  1
  Sn  Sn15  1  0.338918  0.669459  0.816147  1
  Sn  Sn16  1  0.661082  0.330541  0.183853  1
  Sn  Sn17  1  0.000000  0.000000  0.500000  1
  Sn  Sn18  1  0.778968  0.220929  0.456470  1
  Sn  Sn19  1  0.221032  0.779071  0.543530  1
  Sn  Sn20  1  0.778968  0.558039  0.456470  1
  Sn  Sn21  1  0.221032  0.441961  0.543530  1
  Sn  Sn22  1  0.438417  0.219209  0.450680  1
  Sn  Sn23  1  0.561583  0.780791  0.549320  1
  Sn  Sn24  1  0.333247  0.666624  0.117408  1
  Sn  Sn25  1  0.666753  0.333376  0.882592  1
  Sn  Sn26  1  0.122416  0.887483  0.276298  1
  Sn  Sn27  1  0.877584  0.112517  0.723702  1
  Sn  Sn28  1  0.122416  0.234934  0.276298  1
  Sn  Sn29  1  0.877584  0.765066  0.723702  1
  Sn  Sn30  1  0.761596  0.880799  0.281399  1
  Sn  Sn31  1  0.238404  0.119201  0.718601  1
  Rh  Rh32  1  0.829817  0.168449  0.199151  1
  Rh  Rh33  1  0.170183  0.831551  0.800849  1
  Rh  Rh34  1  0.829817  0.661368  0.199151  1
  Rh  Rh35  1  0.170183  0.338632  0.800849  1
