# generated using pymatgen
data_Tb8CdIn(PbAu4)2
_symmetry_space_group_name_H-M   'P 1'
_cell_length_a   8.11434000
_cell_length_b   8.11434000
_cell_length_c   7.37354300
_cell_angle_alpha   90.00000000
_cell_angle_beta   90.00000000
_cell_angle_gamma   90.00000000
_symmetry_Int_Tables_number   1
_chemical_formula_structural   Tb8CdIn(PbAu4)2
_chemical_formula_sum   'Tb8 Cd1 In1 Pb2 Au8'
_cell_volume   485.49260552
_cell_formula_units_Z   1
loop_
 _symmetry_equiv_pos_site_id
 _symmetry_equiv_pos_as_xyz
  1  'x, y, z'
loop_
 _atom_site_type_symbol
 _atom_site_label
 _atom_site_symmetry_multiplicity
 _atom_site_fract_x
 _atom_site_fract_y
 _atom_site_fract_z
 _atom_site_occupancy
  Tb  Tb0  1  0.842228  0.156186  0.500486  1
  Tb  Tb1  1  0.157772  0.843814  0.500486  1
  Tb  Tb2  1  0.343814  0.342228  0.999514  1
  Tb  Tb3  1  0.656186  0.657772  0.999514  1
  Tb  Tb4  1  0.680309  0.681992  0.500464  1
  Tb  Tb5  1  0.319691  0.318008  0.500464  1
  Tb  Tb6  1  0.181993  0.819691  0.999536  1
  Tb  Tb7  1  0.818008  0.180310  0.999536  1
  Cd  Cd8  1  0.500000  0.000000  0.750000  1
  In  In9  1  0.000000  0.500000  0.250000  1
  Pb  Pb10  1  0.500000  0.000000  0.250000  1
  Pb  Pb11  1  0.000000  0.500000  0.750000  1
  Au  Au12  1  0.631747  0.376615  0.274965  1
  Au  Au13  1  0.368253  0.623385  0.274965  1
  Au  Au14  1  0.132721  0.122879  0.774727  1
  Au  Au15  1  0.867279  0.877121  0.774727  1
  Au  Au16  1  0.377121  0.632721  0.725273  1
  Au  Au17  1  0.622879  0.367279  0.725273  1
  Au  Au18  1  0.876615  0.868253  0.225035  1
  Au  Au19  1  0.123385  0.131747  0.225035  1
