# generated using pymatgen
data_Zr10AlGa2Bi5
_symmetry_space_group_name_H-M   'P 1'
_cell_length_a   8.84002980
_cell_length_b   8.84002992
_cell_length_c   5.92430600
_cell_angle_alpha   90.00000000
_cell_angle_beta   90.00000000
_cell_angle_gamma   120.43502369
_symmetry_Int_Tables_number   1
_chemical_formula_structural   Zr10AlGa2Bi5
_chemical_formula_sum   'Zr10 Al1 Ga2 Bi5'
_cell_volume   399.16740518
_cell_formula_units_Z   1
loop_
 _symmetry_equiv_pos_site_id
 _symmetry_equiv_pos_as_xyz
  1  'x, y, z'
loop_
 _atom_site_type_symbol
 _atom_site_label
 _atom_site_symmetry_multiplicity
 _atom_site_fract_x
 _atom_site_fract_y
 _atom_site_fract_z
 _atom_site_occupancy
  Zr  Zr0  1  0.001680  0.261858  0.250000  1
  Zr  Zr1  1  0.726246  0.985053  0.750000  1
  Zr  Zr2  1  0.737353  0.737353  0.250000  1
  Zr  Zr3  1  0.665159  0.340249  0.505151  1
  Zr  Zr4  1  0.985053  0.726246  0.750000  1
  Zr  Zr5  1  0.275408  0.275408  0.750000  1
  Zr  Zr6  1  0.340249  0.665159  0.994849  1
  Zr  Zr7  1  0.665159  0.340249  0.994849  1
  Zr  Zr8  1  0.340249  0.665159  0.505151  1
  Zr  Zr9  1  0.261858  0.001680  0.250000  1
  Al  Al10  1  0.610566  0.610566  0.750000  1
  Ga  Ga11  1  0.000830  0.000830  0.993131  1
  Ga  Ga12  1  0.000830  0.000830  0.506869  1
  Bi  Bi13  1  0.610024  0.001887  0.250000  1
  Bi  Bi14  1  0.383722  0.998738  0.750000  1
  Bi  Bi15  1  0.394988  0.394988  0.250000  1
  Bi  Bi16  1  0.001887  0.610024  0.250000  1
  Bi  Bi17  1  0.998738  0.383722  0.750000  1
