# generated using pymatgen
data_Rb2BeH4
_symmetry_space_group_name_H-M   'P 1'
_cell_length_a   5.85822200
_cell_length_b   7.94571900
_cell_length_c   10.27135800
_cell_angle_alpha   90.00000000
_cell_angle_beta   90.00000000
_cell_angle_gamma   90.00000000
_symmetry_Int_Tables_number   1
_chemical_formula_structural   Rb2BeH4
_chemical_formula_sum   'Rb8 Be4 H16'
_cell_volume   478.10897259
_cell_formula_units_Z   4
loop_
 _symmetry_equiv_pos_site_id
 _symmetry_equiv_pos_as_xyz
  1  'x, y, z'
loop_
 _atom_site_type_symbol
 _atom_site_label
 _atom_site_symmetry_multiplicity
 _atom_site_fract_x
 _atom_site_fract_y
 _atom_site_fract_z
 _atom_site_occupancy
  Rb  Rb0  1  0.250000  0.656924  0.095798  1
  Rb  Rb1  1  0.250000  0.156924  0.404202  1
  Rb  Rb2  1  0.750000  0.343076  0.904202  1
  Rb  Rb3  1  0.750000  0.843076  0.595798  1
  Rb  Rb4  1  0.250000  0.986410  0.816326  1
  Rb  Rb5  1  0.250000  0.486410  0.683674  1
  Rb  Rb6  1  0.750000  0.013590  0.183674  1
  Rb  Rb7  1  0.750000  0.513590  0.316326  1
  Be  Be8  1  0.250000  0.742484  0.416454  1
  Be  Be9  1  0.250000  0.242484  0.083546  1
  Be  Be10  1  0.750000  0.257516  0.583546  1
  Be  Be11  1  0.750000  0.757516  0.916454  1
  H  H12  1  0.046193  0.809144  0.351813  1
  H  H13  1  0.453807  0.309144  0.148187  1
  H  H14  1  0.546193  0.190856  0.648187  1
  H  H15  1  0.953807  0.690856  0.851813  1
  H  H16  1  0.953807  0.190856  0.648187  1
  H  H17  1  0.546193  0.690856  0.851813  1
  H  H18  1  0.453807  0.809144  0.351813  1
  H  H19  1  0.046193  0.309144  0.148187  1
  H  H20  1  0.250000  0.559239  0.408253  1
  H  H21  1  0.250000  0.059239  0.091747  1
  H  H22  1  0.750000  0.440761  0.591747  1
  H  H23  1  0.750000  0.940761  0.908253  1
  H  H24  1  0.250000  0.300947  0.947906  1
  H  H25  1  0.250000  0.800947  0.552094  1
  H  H26  1  0.750000  0.699053  0.052094  1
  H  H27  1  0.750000  0.199053  0.447906  1
