# generated using pymatgen
data_RbCl27
_symmetry_space_group_name_H-M   'P 1'
_cell_length_a   5.31952737
_cell_length_b   18.11158500
_cell_length_c   17.50694908
_cell_angle_alpha   121.80993544
_cell_angle_beta   103.10782569
_cell_angle_gamma   95.18427788
_symmetry_Int_Tables_number   1
_chemical_formula_structural   RbCl27
_chemical_formula_sum   'Rb1 Cl27'
_cell_volume   1350.38188754
_cell_formula_units_Z   1
loop_
 _symmetry_equiv_pos_site_id
 _symmetry_equiv_pos_as_xyz
  1  'x, y, z'
loop_
 _atom_site_type_symbol
 _atom_site_label
 _atom_site_symmetry_multiplicity
 _atom_site_fract_x
 _atom_site_fract_y
 _atom_site_fract_z
 _atom_site_occupancy
  Rb  Rb0  1  0.644679  0.020393  0.109293  1
  Cl  Cl1  1  0.244165  0.369214  0.034824  1
  Cl  Cl2  1  0.445603  0.737209  0.999915  1
  Cl  Cl3  1  0.340599  0.503319  0.100514  1
  Cl  Cl4  1  0.446322  0.785623  0.196161  1
  Cl  Cl5  1  0.619018  0.691261  0.194024  1
  Cl  Cl6  1  0.754688  0.305473  0.178293  1
  Cl  Cl7  1  0.682750  0.257139  0.254868  1
  Cl  Cl8  1  0.741881  0.572000  0.326607  1
  Cl  Cl9  1  0.174220  0.901277  0.384445  1
  Cl  Cl10  1  0.588629  0.193426  0.372507  1
  Cl  Cl11  1  0.196240  0.957830  0.310289  1
  Cl  Cl12  1  0.347657  0.792042  0.480713  1
  Cl  Cl13  1  0.811198  0.596133  0.456426  1
  Cl  Cl14  1  0.369760  0.139886  0.522146  1
  Cl  Cl15  1  0.871669  0.296515  0.499710  1
  Cl  Cl16  1  0.860351  0.608342  0.642764  1
  Cl  Cl17  1  0.346690  0.821421  0.607344  1
  Cl  Cl18  1  0.839407  0.474745  0.579189  1
  Cl  Cl19  1  0.482982  0.238637  0.660136  1
  Cl  Cl20  1  0.462357  0.021963  0.735859  1
  Cl  Cl21  1  0.554890  0.156163  0.828988  1
  Cl  Cl22  1  0.189298  0.445861  0.776585  1
  Cl  Cl23  1  0.441597  0.695215  0.867636  1
  Cl  Cl24  1  0.217522  0.384874  0.844324  1
  Cl  Cl25  1  0.057270  0.060661  0.938174  1
  Cl  Cl26  1  0.232094  0.044203  0.215658  1
  Cl  Cl27  1  0.989380  0.929176  0.882611  1
