# generated using pymatgen
data_LiBe2(Ru2W)3
_symmetry_space_group_name_H-M   'P 1'
_cell_length_a   4.24068900
_cell_length_b   6.03261000
_cell_length_c   12.72524901
_cell_angle_alpha   90.00000000
_cell_angle_beta   90.00384564
_cell_angle_gamma   90.00000000
_symmetry_Int_Tables_number   1
_chemical_formula_structural   LiBe2(Ru2W)3
_chemical_formula_sum   'Li2 Be4 Ru12 W6'
_cell_volume   325.54270066
_cell_formula_units_Z   2
loop_
 _symmetry_equiv_pos_site_id
 _symmetry_equiv_pos_as_xyz
  1  'x, y, z'
loop_
 _atom_site_type_symbol
 _atom_site_label
 _atom_site_symmetry_multiplicity
 _atom_site_fract_x
 _atom_site_fract_y
 _atom_site_fract_z
 _atom_site_occupancy
  Li  Li0  1  0.000009  0.000000  0.999778  1
  Li  Li1  1  0.499364  0.500000  0.166662  1
  Be  Be2  1  0.999102  0.000000  0.333672  1
  Be  Be3  1  0.499997  0.500000  0.500296  1
  Be  Be4  1  0.000888  0.000000  0.666425  1
  Be  Be5  1  0.500890  0.500000  0.833061  1
  Ru  Ru6  1  0.499987  0.251709  0.998333  1
  Ru  Ru7  1  0.499987  0.748291  0.998333  1
  Ru  Ru8  1  0.999398  0.248288  0.168240  1
  Ru  Ru9  1  0.999398  0.751713  0.168240  1
  Ru  Ru10  1  0.499398  0.249264  0.335590  1
  Ru  Ru11  1  0.499398  0.750737  0.335590  1
  Ru  Ru12  1  0.999992  0.249643  0.500730  1
  Ru  Ru13  1  0.999992  0.750356  0.500730  1
  Ru  Ru14  1  0.500545  0.250390  0.666056  1
  Ru  Ru15  1  0.500545  0.749611  0.666056  1
  Ru  Ru16  1  0.000584  0.250690  0.831096  1
  Ru  Ru17  1  0.000584  0.749311  0.831096  1
  W  W18  1  0.999955  0.500000  0.000071  1
  W  W19  1  0.499442  0.000000  0.166701  1
  W  W20  1  0.999383  0.500000  0.332868  1
  W  W21  1  0.499993  0.000000  0.499774  1
  W  W22  1  0.000598  0.500000  0.666815  1
  W  W23  1  0.500566  0.000000  0.833787  1
