# generated using pymatgen
data_Sc4Co7Ni13P12
_symmetry_space_group_name_H-M   'P 1'
_cell_length_a   3.61739600
_cell_length_b   10.19843815
_cell_length_c   11.73963708
_cell_angle_alpha   89.94817753
_cell_angle_beta   90.00000000
_cell_angle_gamma   90.00000000
_symmetry_Int_Tables_number   1
_chemical_formula_structural   Sc4Co7Ni13P12
_chemical_formula_sum   'Sc4 Co7 Ni13 P12'
_cell_volume   433.09604141
_cell_formula_units_Z   1
loop_
 _symmetry_equiv_pos_site_id
 _symmetry_equiv_pos_as_xyz
  1  'x, y, z'
loop_
 _atom_site_type_symbol
 _atom_site_label
 _atom_site_symmetry_multiplicity
 _atom_site_fract_x
 _atom_site_fract_y
 _atom_site_fract_z
 _atom_site_occupancy
  Sc  Sc0  1  0.250000  0.578077  0.704910  1
  Sc  Sc1  1  0.250000  0.920735  0.204856  1
  Sc  Sc2  1  0.750000  0.420703  0.294445  1
  Sc  Sc3  1  0.750000  0.079754  0.794830  1
  Co  Co4  1  0.250000  0.622104  0.200091  1
  Co  Co5  1  0.750000  0.122430  0.300252  1
  Co  Co6  1  0.750000  0.378465  0.800246  1
  Co  Co7  1  0.250000  0.465451  0.932302  1
  Co  Co8  1  0.250000  0.035185  0.431633  1
  Co  Co9  1  0.750000  0.535640  0.067879  1
  Co  Co10  1  0.750000  0.964232  0.567619  1
  Ni  Ni11  1  0.250000  0.715172  0.991058  1
  Ni  Ni12  1  0.250000  0.783826  0.491292  1
  Ni  Ni13  1  0.750000  0.285742  0.009864  1
  Ni  Ni14  1  0.750000  0.213997  0.510795  1
  Ni  Ni15  1  0.250000  0.407331  0.483699  1
  Ni  Ni16  1  0.250000  0.093001  0.984488  1
  Ni  Ni17  1  0.750000  0.590212  0.514891  1
  Ni  Ni18  1  0.750000  0.908378  0.016316  1
  Ni  Ni19  1  0.250000  0.225746  0.175914  1
  Ni  Ni20  1  0.250000  0.275255  0.676320  1
  Ni  Ni21  1  0.750000  0.773885  0.822849  1
  Ni  Ni22  1  0.750000  0.725473  0.324088  1
  Ni  Ni23  1  0.250000  0.878018  0.700396  1
  P  P24  1  0.250000  0.426449  0.116849  1
  P  P25  1  0.250000  0.075603  0.615693  1
  P  P26  1  0.750000  0.574342  0.883268  1
  P  P27  1  0.750000  0.926247  0.382984  1
  P  P28  1  0.250000  0.266276  0.866644  1
  P  P29  1  0.250000  0.234258  0.365783  1
  P  P30  1  0.750000  0.734427  0.133879  1
  P  P31  1  0.750000  0.763179  0.631411  1
  P  P32  1  0.250000  0.598924  0.387667  1
  P  P33  1  0.250000  0.901329  0.890483  1
  P  P34  1  0.750000  0.400073  0.612101  1
  P  P35  1  0.750000  0.100083  0.112208  1
