# generated using pymatgen
data_Nd8Al(Si4Rh)3
_symmetry_space_group_name_H-M   'P 1'
_cell_length_a   8.26209800
_cell_length_b   8.26209821
_cell_length_c   8.48135700
_cell_angle_alpha   90.00000000
_cell_angle_beta   90.00000000
_cell_angle_gamma   119.99999916
_symmetry_Int_Tables_number   1
_chemical_formula_structural   Nd8Al(Si4Rh)3
_chemical_formula_sum   'Nd8 Al1 Si12 Rh3'
_cell_volume   501.39116217
_cell_formula_units_Z   1
loop_
 _symmetry_equiv_pos_site_id
 _symmetry_equiv_pos_as_xyz
  1  'x, y, z'
loop_
 _atom_site_type_symbol
 _atom_site_label
 _atom_site_symmetry_multiplicity
 _atom_site_fract_x
 _atom_site_fract_y
 _atom_site_fract_z
 _atom_site_occupancy
  Nd  Nd0  1  0.000000  0.000000  0.747745  1
  Nd  Nd1  1  0.000000  0.000000  0.252072  1
  Nd  Nd2  1  0.496921  0.503079  0.745976  1
  Nd  Nd3  1  0.496921  0.993843  0.745976  1
  Nd  Nd4  1  0.006157  0.503079  0.745976  1
  Nd  Nd5  1  0.499542  0.500458  0.253809  1
  Nd  Nd6  1  0.000917  0.500458  0.253809  1
  Nd  Nd7  1  0.499542  0.999083  0.253809  1
  Al  Al8  1  0.666667  0.333333  0.994636  1
  Si  Si9  1  0.838469  0.161531  0.999517  1
  Si  Si10  1  0.838469  0.676939  0.999517  1
  Si  Si11  1  0.323061  0.161531  0.999517  1
  Si  Si12  1  0.832485  0.167515  0.501456  1
  Si  Si13  1  0.832485  0.664969  0.501456  1
  Si  Si14  1  0.335031  0.167515  0.501456  1
  Si  Si15  1  0.166898  0.833102  0.498604  1
  Si  Si16  1  0.666205  0.833102  0.498604  1
  Si  Si17  1  0.166898  0.333795  0.498604  1
  Si  Si18  1  0.169343  0.830657  0.001013  1
  Si  Si19  1  0.661314  0.830657  0.001013  1
  Si  Si20  1  0.169343  0.338686  0.001013  1
  Rh  Rh21  1  0.666667  0.333333  0.504314  1
  Rh  Rh22  1  0.333333  0.666667  0.496505  1
  Rh  Rh23  1  0.333333  0.666667  0.003603  1
