# generated using pymatgen
data_Y2Fe3P6Rh7
_symmetry_space_group_name_H-M   'P 1'
_cell_length_a   3.82955600
_cell_length_b   10.64916700
_cell_length_c   12.35464500
_cell_angle_alpha   90.00000000
_cell_angle_beta   90.00000000
_cell_angle_gamma   90.00000000
_symmetry_Int_Tables_number   1
_chemical_formula_structural   Y2Fe3P6Rh7
_chemical_formula_sum   'Y4 Fe6 P12 Rh14'
_cell_volume   503.84196049
_cell_formula_units_Z   2
loop_
 _symmetry_equiv_pos_site_id
 _symmetry_equiv_pos_as_xyz
  1  'x, y, z'
loop_
 _atom_site_type_symbol
 _atom_site_label
 _atom_site_symmetry_multiplicity
 _atom_site_fract_x
 _atom_site_fract_y
 _atom_site_fract_z
 _atom_site_occupancy
  Y  Y0  1  0.250000  0.577056  0.711102  1
  Y  Y1  1  0.250000  0.922944  0.211102  1
  Y  Y2  1  0.750000  0.415605  0.290859  1
  Y  Y3  1  0.750000  0.084395  0.790859  1
  Fe  Fe4  1  0.750000  0.123181  0.302425  1
  Fe  Fe5  1  0.750000  0.376819  0.802425  1
  Fe  Fe6  1  0.250000  0.459783  0.933136  1
  Fe  Fe7  1  0.250000  0.040217  0.433136  1
  Fe  Fe8  1  0.750000  0.539433  0.064711  1
  Fe  Fe9  1  0.750000  0.960567  0.564711  1
  P  P10  1  0.250000  0.430175  0.105768  1
  P  P11  1  0.250000  0.069825  0.605768  1
  P  P12  1  0.750000  0.559272  0.888527  1
  P  P13  1  0.750000  0.940728  0.388527  1
  P  P14  1  0.250000  0.274622  0.863974  1
  P  P15  1  0.250000  0.225378  0.363974  1
  P  P16  1  0.750000  0.731068  0.130069  1
  P  P17  1  0.750000  0.768932  0.630069  1
  P  P18  1  0.250000  0.600457  0.389925  1
  P  P19  1  0.250000  0.899543  0.889925  1
  P  P20  1  0.750000  0.397308  0.619952  1
  P  P21  1  0.750000  0.102692  0.119952  1
  Rh  Rh22  1  0.250000  0.715917  0.991455  1
  Rh  Rh23  1  0.250000  0.784083  0.491455  1
  Rh  Rh24  1  0.750000  0.285723  0.009281  1
  Rh  Rh25  1  0.750000  0.214277  0.509281  1
  Rh  Rh26  1  0.250000  0.405322  0.477585  1
  Rh  Rh27  1  0.250000  0.094678  0.977585  1
  Rh  Rh28  1  0.750000  0.588627  0.519807  1
  Rh  Rh29  1  0.750000  0.911373  0.019807  1
  Rh  Rh30  1  0.250000  0.228058  0.174460  1
  Rh  Rh31  1  0.250000  0.271942  0.674460  1
  Rh  Rh32  1  0.750000  0.765098  0.825663  1
  Rh  Rh33  1  0.750000  0.734902  0.325663  1
  Rh  Rh34  1  0.250000  0.881438  0.701300  1
  Rh  Rh35  1  0.250000  0.618562  0.201300  1
