# generated using pymatgen
data_Nd3ErAu5
_symmetry_space_group_name_H-M   'P 1'
_cell_length_a   8.21839304
_cell_length_b   8.21839343
_cell_length_c   8.21839322
_cell_angle_alpha   65.70498216
_cell_angle_beta   65.70498147
_cell_angle_gamma   65.70495736
_symmetry_Int_Tables_number   1
_chemical_formula_structural   Nd3ErAu5
_chemical_formula_sum   'Nd6 Er2 Au10'
_cell_volume   441.09579016
_cell_formula_units_Z   2
loop_
 _symmetry_equiv_pos_site_id
 _symmetry_equiv_pos_as_xyz
  1  'x, y, z'
loop_
 _atom_site_type_symbol
 _atom_site_label
 _atom_site_symmetry_multiplicity
 _atom_site_fract_x
 _atom_site_fract_y
 _atom_site_fract_z
 _atom_site_occupancy
  Nd  Nd0  1  0.892382  0.185431  0.621210  1
  Nd  Nd1  1  0.621210  0.892382  0.185431  1
  Nd  Nd2  1  0.185431  0.621210  0.892382  1
  Nd  Nd3  1  0.107618  0.814569  0.378790  1
  Nd  Nd4  1  0.378790  0.107618  0.814569  1
  Nd  Nd5  1  0.814569  0.378790  0.107618  1
  Er  Er6  1  0.656895  0.656895  0.656895  1
  Er  Er7  1  0.343105  0.343105  0.343105  1
  Au  Au8  1  0.000000  0.000000  0.000000  1
  Au  Au9  1  0.500000  0.500000  0.500000  1
  Au  Au10  1  0.804099  0.804099  0.804099  1
  Au  Au11  1  0.195901  0.195901  0.195901  1
  Au  Au12  1  0.940053  0.548200  0.320838  1
  Au  Au13  1  0.320838  0.940053  0.548200  1
  Au  Au14  1  0.548200  0.320838  0.940053  1
  Au  Au15  1  0.059947  0.451800  0.679162  1
  Au  Au16  1  0.679162  0.059947  0.451800  1
  Au  Au17  1  0.451800  0.679162  0.059947  1
