# generated using pymatgen
data_Mn3Nb4Si3Os2
_symmetry_space_group_name_H-M   'P 1'
_cell_length_a   4.97014000
_cell_length_b   4.91414950
_cell_length_c   8.09594000
_cell_angle_alpha   90.00000000
_cell_angle_beta   90.00000000
_cell_angle_gamma   120.37762279
_symmetry_Int_Tables_number   1
_chemical_formula_structural   Mn3Nb4Si3Os2
_chemical_formula_sum   'Mn3 Nb4 Si3 Os2'
_cell_volume   170.58848930
_cell_formula_units_Z   1
loop_
 _symmetry_equiv_pos_site_id
 _symmetry_equiv_pos_as_xyz
  1  'x, y, z'
loop_
 _atom_site_type_symbol
 _atom_site_label
 _atom_site_symmetry_multiplicity
 _atom_site_fract_x
 _atom_site_fract_y
 _atom_site_fract_z
 _atom_site_occupancy
  Mn  Mn0  1  0.659664  0.829176  0.750000  1
  Mn  Mn1  1  0.831916  0.663832  0.250000  1
  Mn  Mn2  1  0.169512  0.829176  0.750000  1
  Nb  Nb3  1  0.330080  0.660162  0.433681  1
  Nb  Nb4  1  0.664104  0.328207  0.931370  1
  Nb  Nb5  1  0.664104  0.328207  0.568630  1
  Nb  Nb6  1  0.330080  0.660162  0.066319  1
  Si  Si7  1  0.175530  0.351061  0.750000  1
  Si  Si8  1  0.829406  0.176981  0.250000  1
  Si  Si9  1  0.347576  0.176981  0.250000  1
  Os  Os10  1  0.999014  0.998028  0.000065  1
  Os  Os11  1  0.999014  0.998028  0.499935  1
