# generated using pymatgen
data_Tb2Ho18Sn13Bi3
_symmetry_space_group_name_H-M   'P 1'
_cell_length_a   8.12206322
_cell_length_b   8.16376302
_cell_length_c   15.42274824
_cell_angle_alpha   90.09416098
_cell_angle_beta   89.60570119
_cell_angle_gamma   90.04423927
_symmetry_Int_Tables_number   1
_chemical_formula_structural   Tb2Ho18Sn13Bi3
_chemical_formula_sum   'Tb2 Ho18 Sn13 Bi3'
_cell_volume   1022.60409643
_cell_formula_units_Z   1
loop_
 _symmetry_equiv_pos_site_id
 _symmetry_equiv_pos_as_xyz
  1  'x, y, z'
loop_
 _atom_site_type_symbol
 _atom_site_label
 _atom_site_symmetry_multiplicity
 _atom_site_fract_x
 _atom_site_fract_y
 _atom_site_fract_z
 _atom_site_occupancy
  Tb  Tb0  1  0.529003  0.326008  0.603569  1
  Tb  Tb1  1  0.026660  0.180631  0.898647  1
  Ho  Ho2  1  0.377622  0.833916  0.877296  1
  Ho  Ho3  1  0.882964  0.661138  0.623355  1
  Ho  Ho4  1  0.618701  0.160077  0.375589  1
  Ho  Ho5  1  0.123191  0.341308  0.122694  1
  Ho  Ho6  1  0.629293  0.161448  0.122262  1
  Ho  Ho7  1  0.126145  0.337232  0.378018  1
  Ho  Ho8  1  0.374514  0.837411  0.621895  1
  Ho  Ho9  1  0.875358  0.661999  0.877658  1
  Ho  Ho10  1  0.537568  0.330026  0.897406  1
  Ho  Ho11  1  0.049564  0.173691  0.607046  1
  Ho  Ho12  1  0.450757  0.673634  0.393680  1
  Ho  Ho13  1  0.958417  0.821257  0.102963  1
  Ho  Ho14  1  0.469494  0.670088  0.100718  1
  Ho  Ho15  1  0.969843  0.828276  0.395080  1
  Ho  Ho16  1  0.206514  0.501648  0.750856  1
  Ho  Ho17  1  0.706106  0.999052  0.754352  1
  Ho  Ho18  1  0.793296  0.498542  0.246556  1
  Ho  Ho19  1  0.293721  0.000905  0.252397  1
  Sn  Sn20  1  0.216252  0.531287  0.957569  1
  Sn  Sn21  1  0.715704  0.965754  0.957975  1
  Sn  Sn22  1  0.217320  0.530820  0.542789  1
  Sn  Sn23  1  0.282437  0.031359  0.457467  1
  Sn  Sn24  1  0.787189  0.465516  0.041977  1
  Sn  Sn25  1  0.573191  0.624236  0.747561  1
  Sn  Sn26  1  0.073054  0.877166  0.751030  1
  Sn  Sn27  1  0.427858  0.376302  0.248526  1
  Sn  Sn28  1  0.928381  0.123114  0.250730  1
  Sn  Sn29  1  0.343088  0.146937  0.752681  1
  Sn  Sn30  1  0.841011  0.353256  0.748396  1
  Sn  Sn31  1  0.656411  0.850715  0.250001  1
  Sn  Sn32  1  0.156455  0.647521  0.248703  1
  Bi  Bi33  1  0.281617  0.028834  0.043483  1
  Bi  Bi34  1  0.776991  0.474875  0.455651  1
  Bi  Bi35  1  0.724306  0.974021  0.543426  1
