# generated using pymatgen
data_TmZr5(SnIr)6
_symmetry_space_group_name_H-M   'P 1'
_cell_length_a   7.45400539
_cell_length_b   7.47791343
_cell_length_c   7.37028600
_cell_angle_alpha   90.00000000
_cell_angle_beta   90.00000000
_cell_angle_gamma   120.10252212
_symmetry_Int_Tables_number   1
_chemical_formula_structural   TmZr5(SnIr)6
_chemical_formula_sum   'Tm1 Zr5 Sn6 Ir6'
_cell_volume   355.41480882
_cell_formula_units_Z   1
loop_
 _symmetry_equiv_pos_site_id
 _symmetry_equiv_pos_as_xyz
  1  'x, y, z'
loop_
 _atom_site_type_symbol
 _atom_site_label
 _atom_site_symmetry_multiplicity
 _atom_site_fract_x
 _atom_site_fract_y
 _atom_site_fract_z
 _atom_site_occupancy
  Tm  Tm0  1  0.593191  0.609558  0.750000  1
  Zr  Zr1  1  0.400289  0.012680  0.250000  1
  Zr  Zr2  1  0.613807  0.600466  0.250000  1
  Zr  Zr3  1  0.982753  0.385310  0.250000  1
  Zr  Zr4  1  0.012364  0.401417  0.750000  1
  Zr  Zr5  1  0.389432  0.988283  0.750000  1
  Sn  Sn6  1  0.270390  0.272049  0.494450  1
  Sn  Sn7  1  0.270390  0.272049  0.005550  1
  Sn  Sn8  1  0.730380  0.998155  0.999169  1
  Sn  Sn9  1  0.000267  0.730530  0.501624  1
  Sn  Sn10  1  0.730380  0.998155  0.500831  1
  Sn  Sn11  1  0.000267  0.730530  0.998376  1
  Ir  Ir12  1  0.668067  0.328863  0.520962  1
  Ir  Ir13  1  0.668067  0.328863  0.979038  1
  Ir  Ir14  1  0.330687  0.667814  0.036458  1
  Ir  Ir15  1  0.330687  0.667814  0.463542  1
  Ir  Ir16  1  0.009734  0.009111  0.750000  1
  Ir  Ir17  1  0.998845  0.998351  0.250000  1
