# generated using pymatgen
data_Ca2Al20Os3Rh
_symmetry_space_group_name_H-M   'P 1'
_cell_length_a   6.88807994
_cell_length_b   6.88828203
_cell_length_c   9.15550361
_cell_angle_alpha   90.10428336
_cell_angle_beta   90.30413165
_cell_angle_gamma   96.47932954
_symmetry_Int_Tables_number   1
_chemical_formula_structural   Ca2Al20Os3Rh
_chemical_formula_sum   'Ca2 Al20 Os3 Rh1'
_cell_volume   431.61947845
_cell_formula_units_Z   1
loop_
 _symmetry_equiv_pos_site_id
 _symmetry_equiv_pos_as_xyz
  1  'x, y, z'
loop_
 _atom_site_type_symbol
 _atom_site_label
 _atom_site_symmetry_multiplicity
 _atom_site_fract_x
 _atom_site_fract_y
 _atom_site_fract_z
 _atom_site_occupancy
  Ca  Ca0  1  0.874795  0.128218  0.749628  1
  Ca  Ca1  1  0.125205  0.871782  0.250372  1
  Al  Al2  1  0.519533  0.780702  0.747779  1
  Al  Al3  1  0.782861  0.519627  0.248933  1
  Al  Al4  1  0.480467  0.219298  0.252221  1
  Al  Al5  1  0.217139  0.480373  0.751067  1
  Al  Al6  1  0.624429  0.378480  0.954266  1
  Al  Al7  1  0.375571  0.621520  0.045734  1
  Al  Al8  1  0.624223  0.376439  0.544212  1
  Al  Al9  1  0.375777  0.623561  0.455788  1
  Al  Al10  1  0.416402  0.146839  0.749588  1
  Al  Al11  1  0.145575  0.415516  0.250228  1
  Al  Al12  1  0.583598  0.853161  0.250412  1
  Al  Al13  1  0.854425  0.584484  0.749772  1
  Al  Al14  1  0.843052  0.155473  0.400226  1
  Al  Al15  1  0.156948  0.844527  0.599774  1
  Al  Al16  1  0.844840  0.157364  0.101668  1
  Al  Al17  1  0.155160  0.842636  0.898332  1
  Al  Al18  1  0.775469  0.774990  0.000850  1
  Al  Al19  1  0.776347  0.775790  0.499044  1
  Al  Al20  1  0.224531  0.225010  0.999150  1
  Al  Al21  1  0.223653  0.224210  0.500956  1
  Os  Os22  1  0.000000  0.500000  0.000000  1
  Os  Os23  1  0.500000  0.000000  0.500000  1
  Os  Os24  1  0.000000  0.500000  0.500000  1
  Rh  Rh25  1  0.500000  0.000000  0.000000  1
