# generated using pymatgen
data_DyHo2Tm17Bi12
_symmetry_space_group_name_H-M   'P 1'
_cell_length_a   8.18186537
_cell_length_b   9.45117900
_cell_length_c   11.90403201
_cell_angle_alpha   90.00000000
_cell_angle_beta   90.01555494
_cell_angle_gamma   90.00000000
_symmetry_Int_Tables_number   1
_chemical_formula_structural   DyHo2Tm17Bi12
_chemical_formula_sum   'Dy1 Ho2 Tm17 Bi12'
_cell_volume   920.51821692
_cell_formula_units_Z   1
loop_
 _symmetry_equiv_pos_site_id
 _symmetry_equiv_pos_as_xyz
  1  'x, y, z'
loop_
 _atom_site_type_symbol
 _atom_site_label
 _atom_site_symmetry_multiplicity
 _atom_site_fract_x
 _atom_site_fract_y
 _atom_site_fract_z
 _atom_site_occupancy
  Dy  Dy0  1  0.686152  0.750000  0.781867  1
  Ho  Ho1  1  0.813677  0.250000  0.281970  1
  Ho  Ho2  1  0.186100  0.750000  0.718105  1
  Tm  Tm3  1  0.353686  0.750000  0.217363  1
  Tm  Tm4  1  0.853651  0.750000  0.282635  1
  Tm  Tm5  1  0.646319  0.250000  0.782732  1
  Tm  Tm6  1  0.146434  0.250000  0.717360  1
  Tm  Tm7  1  0.692389  0.565675  0.059492  1
  Tm  Tm8  1  0.192253  0.934330  0.440464  1
  Tm  Tm9  1  0.307681  0.065651  0.940643  1
  Tm  Tm10  1  0.807792  0.434354  0.559419  1
  Tm  Tm11  1  0.307681  0.434349  0.940643  1
  Tm  Tm12  1  0.807792  0.065646  0.559419  1
  Tm  Tm13  1  0.692389  0.934325  0.059492  1
  Tm  Tm14  1  0.192253  0.565670  0.440464  1
  Tm  Tm15  1  0.476698  0.250000  0.489129  1
  Tm  Tm16  1  0.976973  0.250000  0.010828  1
  Tm  Tm17  1  0.523094  0.750000  0.510588  1
  Tm  Tm18  1  0.023271  0.750000  0.989464  1
  Tm  Tm19  1  0.313608  0.250000  0.217639  1
  Bi  Bi20  1  0.404279  0.750000  0.958286  1
  Bi  Bi21  1  0.904417  0.750000  0.541775  1
  Bi  Bi22  1  0.595069  0.250000  0.042394  1
  Bi  Bi23  1  0.095967  0.250000  0.457956  1
  Bi  Bi24  1  0.565642  0.995909  0.325623  1
  Bi  Bi25  1  0.066632  0.503960  0.174241  1
  Bi  Bi26  1  0.433921  0.495529  0.674161  1
  Bi  Bi27  1  0.933990  0.004551  0.825915  1
  Bi  Bi28  1  0.433921  0.004471  0.674161  1
  Bi  Bi29  1  0.933990  0.495449  0.825915  1
  Bi  Bi30  1  0.565642  0.504091  0.325623  1
  Bi  Bi31  1  0.066632  0.996040  0.174241  1
