# generated using pymatgen
data_Ca2Si2BOs2
_symmetry_space_group_name_H-M   'P 1'
_cell_length_a   5.74391202
_cell_length_b   5.74391157
_cell_length_c   7.16647500
_cell_angle_alpha   126.54981964
_cell_angle_beta   126.54982872
_cell_angle_gamma   43.17983548
_symmetry_Int_Tables_number   1
_chemical_formula_structural   Ca2Si2BOs2
_chemical_formula_sum   'Ca2 Si2 B1 Os2'
_cell_volume   124.25685657
_cell_formula_units_Z   1
loop_
 _symmetry_equiv_pos_site_id
 _symmetry_equiv_pos_as_xyz
  1  'x, y, z'
loop_
 _atom_site_type_symbol
 _atom_site_label
 _atom_site_symmetry_multiplicity
 _atom_site_fract_x
 _atom_site_fract_y
 _atom_site_fract_z
 _atom_site_occupancy
  Ca  Ca0  1  0.427072  0.427072  0.160092  1
  Ca  Ca1  1  0.572928  0.572928  0.839908  1
  Si  Si2  1  0.846022  0.846022  0.402125  1
  Si  Si3  1  0.153978  0.153978  0.597875  1
  B  B4  1  0.000000  0.000000  0.000000  1
  Os  Os5  1  0.214242  0.214242  0.327228  1
  Os  Os6  1  0.785757  0.785757  0.672772  1
