# generated using pymatgen
data_Ac4ZnCoSi6
_symmetry_space_group_name_H-M   'P 1'
_cell_length_a   8.34112300
_cell_length_b   8.34112153
_cell_length_c   4.64527800
_cell_angle_alpha   90.00000000
_cell_angle_beta   90.00000000
_cell_angle_gamma   120.00000188
_symmetry_Int_Tables_number   1
_chemical_formula_structural   Ac4ZnCoSi6
_chemical_formula_sum   'Ac4 Zn1 Co1 Si6'
_cell_volume   279.89252969
_cell_formula_units_Z   1
loop_
 _symmetry_equiv_pos_site_id
 _symmetry_equiv_pos_as_xyz
  1  'x, y, z'
loop_
 _atom_site_type_symbol
 _atom_site_label
 _atom_site_symmetry_multiplicity
 _atom_site_fract_x
 _atom_site_fract_y
 _atom_site_fract_z
 _atom_site_occupancy
  Ac  Ac0  1  0.504756  0.495244  0.000000  1
  Ac  Ac1  1  0.990487  0.495244  0.000000  1
  Ac  Ac2  1  0.504756  0.009513  0.000000  1
  Ac  Ac3  1  0.000000  0.000000  0.000000  1
  Zn  Zn4  1  0.333333  0.666667  0.500000  1
  Co  Co5  1  0.666667  0.333333  0.500000  1
  Si  Si6  1  0.825621  0.651240  0.500000  1
  Si  Si7  1  0.162256  0.837744  0.500000  1
  Si  Si8  1  0.675487  0.837744  0.500000  1
  Si  Si9  1  0.162256  0.324513  0.500000  1
  Si  Si10  1  0.825621  0.174379  0.500000  1
  Si  Si11  1  0.348760  0.174379  0.500000  1
