# generated using pymatgen
data_Tb5Ho3Re(TcB8)3
_symmetry_space_group_name_H-M   'P 1'
_cell_length_a   3.69276400
_cell_length_b   9.17379925
_cell_length_c   11.56707000
_cell_angle_alpha   90.03004710
_cell_angle_beta   90.00000000
_cell_angle_gamma   90.00000000
_symmetry_Int_Tables_number   1
_chemical_formula_structural   Tb5Ho3Re(TcB8)3
_chemical_formula_sum   'Tb5 Ho3 Re1 Tc3 B24'
_cell_volume   391.85382411
_cell_formula_units_Z   1
loop_
 _symmetry_equiv_pos_site_id
 _symmetry_equiv_pos_as_xyz
  1  'x, y, z'
loop_
 _atom_site_type_symbol
 _atom_site_label
 _atom_site_symmetry_multiplicity
 _atom_site_fract_x
 _atom_site_fract_y
 _atom_site_fract_z
 _atom_site_occupancy
  Tb  Tb0  1  0.000000  0.323823  0.414284  1
  Tb  Tb1  1  0.000000  0.676349  0.585902  1
  Tb  Tb2  1  0.000000  0.823483  0.085737  1
  Tb  Tb3  1  0.000000  0.176845  0.914273  1
  Tb  Tb4  1  0.000000  0.942368  0.369233  1
  Ho  Ho5  1  0.000000  0.058453  0.630598  1
  Ho  Ho6  1  0.000000  0.442242  0.130855  1
  Ho  Ho7  1  0.000000  0.556696  0.869415  1
  Re  Re8  1  0.000000  0.861635  0.820476  1
  Tc  Tc9  1  0.000000  0.637889  0.320123  1
  Tc  Tc10  1  0.000000  0.361531  0.679950  1
  Tc  Tc11  1  0.000000  0.139083  0.179346  1
  B  B12  1  0.500000  0.553040  0.432529  1
  B  B13  1  0.500000  0.446527  0.567666  1
  B  B14  1  0.500000  0.053698  0.067282  1
  B  B15  1  0.500000  0.946658  0.932690  1
  B  B16  1  0.500000  0.747892  0.417856  1
  B  B17  1  0.500000  0.251405  0.582205  1
  B  B18  1  0.500000  0.249113  0.081858  1
  B  B19  1  0.500000  0.750632  0.918101  1
  B  B20  1  0.500000  0.790568  0.264914  1
  B  B21  1  0.500000  0.208723  0.734813  1
  B  B22  1  0.500000  0.291648  0.234636  1
  B  B23  1  0.500000  0.708295  0.765361  1
  B  B24  1  0.500000  0.629760  0.185386  1
  B  B25  1  0.500000  0.369780  0.814443  1
  B  B26  1  0.500000  0.130895  0.314024  1
  B  B27  1  0.500000  0.870014  0.685593  1
  B  B28  1  0.500000  0.982701  0.211282  1
  B  B29  1  0.500000  0.018083  0.788037  1
  B  B30  1  0.500000  0.481910  0.287994  1
  B  B31  1  0.500000  0.517767  0.712044  1
  B  B32  1  0.500000  0.598614  0.027591  1
  B  B33  1  0.500000  0.400882  0.972416  1
  B  B34  1  0.500000  0.100193  0.472641  1
  B  B35  1  0.500000  0.900807  0.528445  1
