# generated using pymatgen
data_DySi(PRh2)3
_symmetry_space_group_name_H-M   'P 1'
_cell_length_a   7.06082600
_cell_length_b   7.06082627
_cell_length_c   3.75365400
_cell_angle_alpha   90.00000000
_cell_angle_beta   90.00000000
_cell_angle_gamma   119.99999873
_symmetry_Int_Tables_number   1
_chemical_formula_structural   DySi(PRh2)3
_chemical_formula_sum   'Dy1 Si1 P3 Rh6'
_cell_volume   162.06749173
_cell_formula_units_Z   1
loop_
 _symmetry_equiv_pos_site_id
 _symmetry_equiv_pos_as_xyz
  1  'x, y, z'
loop_
 _atom_site_type_symbol
 _atom_site_label
 _atom_site_symmetry_multiplicity
 _atom_site_fract_x
 _atom_site_fract_y
 _atom_site_fract_z
 _atom_site_occupancy
  Dy  Dy0  1  0.000000  0.000000  0.000000  1
  Si  Si1  1  0.666667  0.333333  0.000000  1
  P  P2  1  0.198165  0.374770  0.500000  1
  P  P3  1  0.176603  0.801835  0.500000  1
  P  P4  1  0.625230  0.823397  0.500000  1
  Rh  Rh5  1  0.496912  0.929481  0.000000  1
  Rh  Rh6  1  0.432568  0.503088  0.000000  1
  Rh  Rh7  1  0.070519  0.567432  0.000000  1
  Rh  Rh8  1  0.784474  0.606229  0.500000  1
  Rh  Rh9  1  0.821755  0.215526  0.500000  1
  Rh  Rh10  1  0.393771  0.178245  0.500000  1
