# generated using pymatgen
data_Rb2Ir3PtS8
_symmetry_space_group_name_H-M   'P 1'
_cell_length_a   6.26661800
_cell_length_b   7.25898000
_cell_length_c   15.78929500
_cell_angle_alpha   90.00000000
_cell_angle_beta   90.00000000
_cell_angle_gamma   90.00000000
_symmetry_Int_Tables_number   1
_chemical_formula_structural   Rb2Ir3PtS8
_chemical_formula_sum   'Rb4 Ir6 Pt2 S16'
_cell_volume   718.24326226
_cell_formula_units_Z   2
loop_
 _symmetry_equiv_pos_site_id
 _symmetry_equiv_pos_as_xyz
  1  'x, y, z'
loop_
 _atom_site_type_symbol
 _atom_site_label
 _atom_site_symmetry_multiplicity
 _atom_site_fract_x
 _atom_site_fract_y
 _atom_site_fract_z
 _atom_site_occupancy
  Rb  Rb0  1  0.359437  0.000000  0.000000  1
  Rb  Rb1  1  0.643013  0.500000  0.500000  1
  Rb  Rb2  1  0.037040  0.000000  0.500000  1
  Rb  Rb3  1  0.966077  0.500000  0.000000  1
  Ir  Ir4  1  0.001013  0.000000  0.249937  1
  Ir  Ir5  1  0.001013  0.000000  0.750063  1
  Ir  Ir6  1  0.499682  0.250347  0.249945  1
  Ir  Ir7  1  0.499682  0.749653  0.750055  1
  Ir  Ir8  1  0.499682  0.749653  0.249945  1
  Ir  Ir9  1  0.499682  0.250347  0.750055  1
  Pt  Pt10  1  0.998742  0.500000  0.250000  1
  Pt  Pt11  1  0.998742  0.500000  0.750000  1
  S  S12  1  0.832029  0.248121  0.325073  1
  S  S13  1  0.832029  0.751879  0.674927  1
  S  S14  1  0.167502  0.752060  0.174849  1
  S  S15  1  0.167502  0.247940  0.825151  1
  S  S16  1  0.167502  0.247940  0.174849  1
  S  S17  1  0.167502  0.752060  0.825151  1
  S  S18  1  0.832029  0.751879  0.325073  1
  S  S19  1  0.832029  0.248121  0.674927  1
  S  S20  1  0.665803  0.000000  0.176292  1
  S  S21  1  0.665803  0.000000  0.823708  1
  S  S22  1  0.333589  0.500000  0.325903  1
  S  S23  1  0.333589  0.500000  0.674097  1
  S  S24  1  0.337170  0.000000  0.323925  1
  S  S25  1  0.337170  0.000000  0.676075  1
  S  S26  1  0.662474  0.500000  0.174223  1
  S  S27  1  0.662474  0.500000  0.825777  1
