# generated using pymatgen
data_LaPr7(SeO5)4
_symmetry_space_group_name_H-M   'P 1'
_cell_length_a   8.87895447
_cell_length_b   8.94298882
_cell_length_c   11.30808300
_cell_angle_alpha   89.95009757
_cell_angle_beta   90.08367591
_cell_angle_gamma   142.81247016
_symmetry_Int_Tables_number   1
_chemical_formula_structural   LaPr7(SeO5)4
_chemical_formula_sum   'La1 Pr7 Se4 O20'
_cell_volume   542.72014333
_cell_formula_units_Z   1
loop_
 _symmetry_equiv_pos_site_id
 _symmetry_equiv_pos_as_xyz
  1  'x, y, z'
loop_
 _atom_site_type_symbol
 _atom_site_label
 _atom_site_symmetry_multiplicity
 _atom_site_fract_x
 _atom_site_fract_y
 _atom_site_fract_z
 _atom_site_occupancy
  La  La0  1  0.568673  0.427178  0.393047  1
  Pr  Pr1  1  0.747887  0.265675  0.608704  1
  Pr  Pr2  1  0.247842  0.765762  0.391500  1
  Pr  Pr3  1  0.257779  0.745979  0.883426  1
  Pr  Pr4  1  0.757126  0.245601  0.116712  1
  Pr  Pr5  1  0.876483  0.074465  0.386912  1
  Pr  Pr6  1  0.068691  0.926777  0.607675  1
  Pr  Pr7  1  0.377088  0.574930  0.613935  1
  Se  Se8  1  0.396088  0.572909  0.129512  1
  Se  Se9  1  0.575053  0.382462  0.865238  1
  Se  Se10  1  0.896439  0.072946  0.870697  1
  Se  Se11  1  0.074137  0.880513  0.133608  1
  O  O12  1  0.149922  0.453793  0.211471  1
  O  O13  1  0.438157  0.125312  0.785226  1
  O  O14  1  0.649618  0.952606  0.788463  1
  O  O15  1  0.938356  0.624610  0.214025  1
  O  O16  1  0.567201  0.918644  0.514482  1
  O  O17  1  0.901730  0.593665  0.500020  1
  O  O18  1  0.067228  0.418762  0.485542  1
  O  O19  1  0.401146  0.092868  0.500888  1
  O  O20  1  0.131734  0.582727  0.712803  1
  O  O21  1  0.631068  0.080851  0.286904  1
  O  O22  1  0.510662  0.820095  0.052878  1
  O  O23  1  0.823150  0.489710  0.936658  1
  O  O24  1  0.216375  0.090953  0.243955  1
  O  O25  1  0.113198  0.208079  0.762561  1
  O  O26  1  0.716563  0.592653  0.754620  1
  O  O27  1  0.613406  0.709016  0.237517  1
  O  O28  1  0.230225  0.253997  0.498800  1
  O  O29  1  0.730383  0.754486  0.502990  1
  O  O30  1  0.322268  0.987192  0.062718  1
  O  O31  1  0.009370  0.319829  0.946514  1
