# generated using pymatgen
data_Y4Ga4IrRh3
_symmetry_space_group_name_H-M   'P 1'
_cell_length_a   4.36605700
_cell_length_b   6.84880244
_cell_length_c   7.75246152
_cell_angle_alpha   90.04161370
_cell_angle_beta   90.00000000
_cell_angle_gamma   90.00000000
_symmetry_Int_Tables_number   1
_chemical_formula_structural   Y4Ga4IrRh3
_chemical_formula_sum   'Y4 Ga4 Ir1 Rh3'
_cell_volume   231.81607323
_cell_formula_units_Z   1
loop_
 _symmetry_equiv_pos_site_id
 _symmetry_equiv_pos_as_xyz
  1  'x, y, z'
loop_
 _atom_site_type_symbol
 _atom_site_label
 _atom_site_symmetry_multiplicity
 _atom_site_fract_x
 _atom_site_fract_y
 _atom_site_fract_z
 _atom_site_occupancy
  Y  Y0  1  0.250000  0.978205  0.309779  1
  Y  Y1  1  0.250000  0.474679  0.191988  1
  Y  Y2  1  0.750000  0.025068  0.689813  1
  Y  Y3  1  0.750000  0.524096  0.809127  1
  Ga  Ga4  1  0.250000  0.341569  0.572286  1
  Ga  Ga5  1  0.250000  0.840817  0.929024  1
  Ga  Ga6  1  0.750000  0.658954  0.428632  1
  Ga  Ga7  1  0.750000  0.158242  0.071452  1
  Ir  Ir8  1  0.750000  0.271153  0.391864  1
  Rh  Rh9  1  0.250000  0.227846  0.894516  1
  Rh  Rh10  1  0.250000  0.728934  0.606848  1
  Rh  Rh11  1  0.750000  0.770436  0.104672  1
