# generated using pymatgen
data_LaEu3Si8
_symmetry_space_group_name_H-M   'P 1'
_cell_length_a   4.32939000
_cell_length_b   4.32950100
_cell_length_c   13.65943600
_cell_angle_alpha   89.99981928
_cell_angle_beta   90.00026657
_cell_angle_gamma   90.00076757
_symmetry_Int_Tables_number   1
_chemical_formula_structural   LaEu3Si8
_chemical_formula_sum   'La1 Eu3 Si8'
_cell_volume   256.03381156
_cell_formula_units_Z   1
loop_
 _symmetry_equiv_pos_site_id
 _symmetry_equiv_pos_as_xyz
  1  'x, y, z'
loop_
 _atom_site_type_symbol
 _atom_site_label
 _atom_site_symmetry_multiplicity
 _atom_site_fract_x
 _atom_site_fract_y
 _atom_site_fract_z
 _atom_site_occupancy
  La  La0  1  0.500007  0.499996  0.000015  1
  Eu  Eu1  1  0.999996  0.000000  0.499987  1
  Eu  Eu2  1  0.500002  0.000000  0.748763  1
  Eu  Eu3  1  0.000006  0.500003  0.251226  1
  Si  Si4  1  0.999999  0.000000  0.915245  1
  Si  Si5  1  0.499998  0.500000  0.415725  1
  Si  Si6  1  0.999999  0.500001  0.834272  1
  Si  Si7  1  0.499999  0.000000  0.335419  1
  Si  Si8  1  0.999999  0.000000  0.084755  1
  Si  Si9  1  0.500000  0.500001  0.584280  1
  Si  Si10  1  0.499999  0.999999  0.165727  1
  Si  Si11  1  0.999998  0.500000  0.664586  1
