# generated using pymatgen
data_ZnCoCu2(SO4)4
_symmetry_space_group_name_H-M   'P 1'
_cell_length_a   4.95725935
_cell_length_b   6.93130732
_cell_length_c   8.51560537
_cell_angle_alpha   90.35604506
_cell_angle_beta   90.13274496
_cell_angle_gamma   83.17914813
_symmetry_Int_Tables_number   1
_chemical_formula_structural   ZnCoCu2(SO4)4
_chemical_formula_sum   'Zn1 Co1 Cu2 S4 O16'
_cell_volume   290.52176613
_cell_formula_units_Z   1
loop_
 _symmetry_equiv_pos_site_id
 _symmetry_equiv_pos_as_xyz
  1  'x, y, z'
loop_
 _atom_site_type_symbol
 _atom_site_label
 _atom_site_symmetry_multiplicity
 _atom_site_fract_x
 _atom_site_fract_y
 _atom_site_fract_z
 _atom_site_occupancy
  Zn  Zn0  1  0.500000  0.500000  0.500000  1
  Co  Co1  1  0.000000  0.000000  0.000000  1
  Cu  Cu2  1  0.000000  0.500000  0.000000  1
  Cu  Cu3  1  0.500000  0.000000  0.500000  1
  S  S4  1  0.956125  0.725050  0.682525  1
  S  S5  1  0.456761  0.225239  0.818332  1
  S  S6  1  0.043875  0.274950  0.317475  1
  S  S7  1  0.543239  0.774761  0.181668  1
  O  O8  1  0.179328  0.445157  0.361438  1
  O  O9  1  0.679526  0.586517  0.121024  1
  O  O10  1  0.819130  0.912033  0.621645  1
  O  O11  1  0.318812  0.056880  0.860822  1
  O  O12  1  0.820672  0.554843  0.638562  1
  O  O13  1  0.320474  0.413483  0.878976  1
  O  O14  1  0.180870  0.087967  0.378355  1
  O  O15  1  0.681188  0.943120  0.139178  1
  O  O16  1  0.256857  0.794860  0.129335  1
  O  O17  1  0.757317  0.294441  0.368181  1
  O  O18  1  0.743143  0.205140  0.870665  1
  O  O19  1  0.242683  0.705559  0.631819  1
  O  O20  1  0.553943  0.758608  0.361319  1
  O  O21  1  0.056974  0.257578  0.137806  1
  O  O22  1  0.446057  0.241392  0.638681  1
  O  O23  1  0.943026  0.742422  0.862194  1
