# generated using pymatgen
data_Tb3Dy2(CoB3)2
_symmetry_space_group_name_H-M   'P 1'
_cell_length_a   5.40060137
_cell_length_b   5.40060137
_cell_length_c   8.40430195
_cell_angle_alpha   71.25845548
_cell_angle_beta   71.25845701
_cell_angle_gamma   59.99999600
_symmetry_Int_Tables_number   1
_chemical_formula_structural   Tb3Dy2(CoB3)2
_chemical_formula_sum   'Tb3 Dy2 Co2 B6'
_cell_volume   197.13313758
_cell_formula_units_Z   1
loop_
 _symmetry_equiv_pos_site_id
 _symmetry_equiv_pos_as_xyz
  1  'x, y, z'
loop_
 _atom_site_type_symbol
 _atom_site_label
 _atom_site_symmetry_multiplicity
 _atom_site_fract_x
 _atom_site_fract_y
 _atom_site_fract_z
 _atom_site_occupancy
  Tb  Tb0  1  0.000000  0.000000  0.000000  1
  Tb  Tb1  1  0.251425  0.251425  0.245726  1
  Tb  Tb2  1  0.748575  0.748575  0.754274  1
  Dy  Dy3  1  0.416877  0.416877  0.749369  1
  Dy  Dy4  1  0.583123  0.583123  0.250631  1
  Co  Co5  1  0.119875  0.119875  0.640375  1
  Co  Co6  1  0.880125  0.880125  0.359625  1
  B  B7  1  0.168439  0.831561  0.500000  1
  B  B8  1  0.831561  0.500000  0.500000  1
  B  B9  1  0.500000  0.168439  0.500000  1
  B  B10  1  0.168439  0.500000  0.500000  1
  B  B11  1  0.500000  0.831561  0.500000  1
  B  B12  1  0.831561  0.168439  0.500000  1
