# generated using pymatgen
data_BaV3(PO4)3
_symmetry_space_group_name_H-M   'P 1'
_cell_length_a   9.35455286
_cell_length_b   9.35455316
_cell_length_c   9.35455289
_cell_angle_alpha   137.38388775
_cell_angle_beta   110.41911450
_cell_angle_gamma   85.13597060
_symmetry_Int_Tables_number   1
_chemical_formula_structural   BaV3(PO4)3
_chemical_formula_sum   'Ba2 V6 P6 O24'
_cell_volume   499.99407254
_cell_formula_units_Z   2
loop_
 _symmetry_equiv_pos_site_id
 _symmetry_equiv_pos_as_xyz
  1  'x, y, z'
loop_
 _atom_site_type_symbol
 _atom_site_label
 _atom_site_symmetry_multiplicity
 _atom_site_fract_x
 _atom_site_fract_y
 _atom_site_fract_z
 _atom_site_occupancy
  Ba  Ba0  1  0.750000  0.140983  0.390983  1
  Ba  Ba1  1  0.250000  0.859017  0.609017  1
  V  V2  1  0.000000  0.000000  0.000000  1
  V  V3  1  0.500000  0.500000  0.000000  1
  V  V4  1  0.619536  0.619536  0.500000  1
  V  V5  1  0.880464  0.380464  0.000000  1
  V  V6  1  0.119536  0.619536  0.000000  1
  V  V7  1  0.380464  0.380464  0.500000  1
  P  P8  1  0.822576  0.822576  0.500000  1
  P  P9  1  0.677424  0.177424  0.000000  1
  P  P10  1  0.322576  0.822576  0.000000  1
  P  P11  1  0.177424  0.177424  0.500000  1
  P  P12  1  0.750000  0.649598  0.899598  1
  P  P13  1  0.250000  0.350402  0.100402  1
  O  O14  1  0.632781  0.511047  0.643829  1
  O  O15  1  0.132781  0.488953  0.121734  1
  O  O16  1  0.367219  0.488953  0.356171  1
  O  O17  1  0.867219  0.511047  0.878266  1
  O  O18  1  0.157367  0.130251  0.972883  1
  O  O19  1  0.842633  0.869749  0.027117  1
  O  O20  1  0.657367  0.684484  0.027117  1
  O  O21  1  0.342633  0.315516  0.972883  1
  O  O22  1  0.859684  0.794561  0.656998  1
  O  O23  1  0.862438  0.205439  0.065123  1
  O  O24  1  0.359684  0.702686  0.065123  1
  O  O25  1  0.362438  0.297314  0.656998  1
  O  O26  1  0.140316  0.205439  0.343002  1
  O  O27  1  0.137562  0.794561  0.934877  1
  O  O28  1  0.640316  0.297314  0.934877  1
  O  O29  1  0.637562  0.702686  0.343002  1
  O  O30  1  0.848234  0.063402  0.644745  1
  O  O31  1  0.581344  0.936598  0.784833  1
  O  O32  1  0.348234  0.703489  0.784833  1
  O  O33  1  0.081344  0.296511  0.644745  1
  O  O34  1  0.151766  0.936598  0.355255  1
  O  O35  1  0.418656  0.063402  0.215167  1
  O  O36  1  0.651766  0.296511  0.215167  1
  O  O37  1  0.918656  0.703489  0.355255  1
