# generated using pymatgen
data_CdPdBr6
_symmetry_space_group_name_H-M   'P 1'
_cell_length_a   6.86216300
_cell_length_b   6.86216147
_cell_length_c   13.72151700
_cell_angle_alpha   90.00000000
_cell_angle_beta   90.00000000
_cell_angle_gamma   120.00000258
_symmetry_Int_Tables_number   1
_chemical_formula_structural   CdPdBr6
_chemical_formula_sum   'Cd2 Pd2 Br12'
_cell_volume   559.57037135
_cell_formula_units_Z   2
loop_
 _symmetry_equiv_pos_site_id
 _symmetry_equiv_pos_as_xyz
  1  'x, y, z'
loop_
 _atom_site_type_symbol
 _atom_site_label
 _atom_site_symmetry_multiplicity
 _atom_site_fract_x
 _atom_site_fract_y
 _atom_site_fract_z
 _atom_site_occupancy
  Cd  Cd0  1  0.000000  0.000000  0.250000  1
  Cd  Cd1  1  0.000000  0.000000  0.750000  1
  Pd  Pd2  1  0.333333  0.666667  0.250000  1
  Pd  Pd3  1  0.666667  0.333333  0.750000  1
  Br  Br4  1  0.632070  0.957765  0.142038  1
  Br  Br5  1  0.042235  0.674306  0.142038  1
  Br  Br6  1  0.325694  0.367930  0.142038  1
  Br  Br7  1  0.042235  0.367930  0.357962  1
  Br  Br8  1  0.367930  0.325694  0.642038  1
  Br  Br9  1  0.674306  0.042235  0.642038  1
  Br  Br10  1  0.957765  0.632070  0.642038  1
  Br  Br11  1  0.674306  0.632070  0.857962  1
  Br  Br12  1  0.957765  0.325694  0.857962  1
  Br  Br13  1  0.367930  0.042235  0.857962  1
  Br  Br14  1  0.632070  0.674306  0.357962  1
  Br  Br15  1  0.325694  0.957765  0.357962  1
