# generated using pymatgen
data_Y4Si3Sn5Rh16
_symmetry_space_group_name_H-M   'P 1'
_cell_length_a   4.25248200
_cell_length_b   9.47056593
_cell_length_c   11.82127402
_cell_angle_alpha   89.77791153
_cell_angle_beta   90.00000000
_cell_angle_gamma   90.00000000
_symmetry_Int_Tables_number   1
_chemical_formula_structural   Y4Si3Sn5Rh16
_chemical_formula_sum   'Y4 Si3 Sn5 Rh16'
_cell_volume   476.07945251
_cell_formula_units_Z   1
loop_
 _symmetry_equiv_pos_site_id
 _symmetry_equiv_pos_as_xyz
  1  'x, y, z'
loop_
 _atom_site_type_symbol
 _atom_site_label
 _atom_site_symmetry_multiplicity
 _atom_site_fract_x
 _atom_site_fract_y
 _atom_site_fract_z
 _atom_site_occupancy
  Y  Y0  1  0.250000  0.158103  0.823134  1
  Y  Y1  1  0.250000  0.355940  0.325397  1
  Y  Y2  1  0.750000  0.854639  0.178873  1
  Y  Y3  1  0.750000  0.640813  0.673681  1
  Si  Si4  1  0.250000  0.415563  0.633098  1
  Si  Si5  1  0.250000  0.087697  0.137796  1
  Si  Si6  1  0.750000  0.586164  0.364970  1
  Sn  Sn7  1  0.750000  0.918508  0.861584  1
  Sn  Sn8  1  0.250000  0.616361  0.063256  1
  Sn  Sn9  1  0.250000  0.879700  0.558918  1
  Sn  Sn10  1  0.750000  0.380137  0.940064  1
  Sn  Sn11  1  0.750000  0.118426  0.438675  1
  Rh  Rh12  1  0.250000  0.602201  0.496423  1
  Rh  Rh13  1  0.250000  0.896737  0.005002  1
  Rh  Rh14  1  0.750000  0.397877  0.500854  1
  Rh  Rh15  1  0.750000  0.111813  0.014106  1
  Rh  Rh16  1  0.250000  0.689046  0.281670  1
  Rh  Rh17  1  0.250000  0.794344  0.775112  1
  Rh  Rh18  1  0.750000  0.312865  0.716882  1
  Rh  Rh19  1  0.750000  0.193304  0.224429  1
  Rh  Rh20  1  0.250000  0.187732  0.568487  1
  Rh  Rh21  1  0.250000  0.318904  0.073304  1
  Rh  Rh22  1  0.750000  0.816337  0.428793  1
  Rh  Rh23  1  0.750000  0.664403  0.934446  1
  Rh  Rh24  1  0.250000  0.000497  0.328112  1
  Rh  Rh25  1  0.250000  0.494264  0.825601  1
  Rh  Rh26  1  0.750000  0.007246  0.652554  1
  Rh  Rh27  1  0.750000  0.500379  0.174779  1
