# generated using pymatgen
data_Mn(Zn11Ir)2
_symmetry_space_group_name_H-M   'P 1'
_cell_length_a   7.77870852
_cell_length_b   7.77871070
_cell_length_c   7.77884149
_cell_angle_alpha   72.61867601
_cell_angle_beta   72.61868020
_cell_angle_gamma   58.63334822
_symmetry_Int_Tables_number   1
_chemical_formula_structural   Mn(Zn11Ir)2
_chemical_formula_sum   'Mn1 Zn22 Ir2'
_cell_volume   377.57246321
_cell_formula_units_Z   1
loop_
 _symmetry_equiv_pos_site_id
 _symmetry_equiv_pos_as_xyz
  1  'x, y, z'
loop_
 _atom_site_type_symbol
 _atom_site_label
 _atom_site_symmetry_multiplicity
 _atom_site_fract_x
 _atom_site_fract_y
 _atom_site_fract_z
 _atom_site_occupancy
  Mn  Mn0  1  0.000000  0.000000  0.500000  1
  Zn  Zn1  1  0.337531  0.747068  0.314390  1
  Zn  Zn2  1  0.662469  0.252932  0.685610  1
  Zn  Zn3  1  0.252932  0.662469  0.685610  1
  Zn  Zn4  1  0.747068  0.337531  0.314390  1
  Zn  Zn5  1  0.676991  0.323009  0.000000  1
  Zn  Zn6  1  0.323009  0.676991  0.000000  1
  Zn  Zn7  1  0.832514  0.832514  0.778805  1
  Zn  Zn8  1  0.167486  0.167486  0.221195  1
  Zn  Zn9  1  0.975686  0.975686  0.175171  1
  Zn  Zn10  1  0.024314  0.024314  0.824829  1
  Zn  Zn11  1  0.350133  0.350133  0.280052  1
  Zn  Zn12  1  0.649867  0.649867  0.719948  1
  Zn  Zn13  1  0.686337  0.686337  0.377489  1
  Zn  Zn14  1  0.313663  0.313663  0.622511  1
  Zn  Zn15  1  0.661382  0.024794  0.462473  1
  Zn  Zn16  1  0.338618  0.975206  0.537527  1
  Zn  Zn17  1  0.975206  0.338618  0.537527  1
  Zn  Zn18  1  0.024794  0.661382  0.462473  1
  Zn  Zn19  1  0.620472  0.998027  0.101317  1
  Zn  Zn20  1  0.379528  0.001973  0.898683  1
  Zn  Zn21  1  0.001973  0.379528  0.898683  1
  Zn  Zn22  1  0.998027  0.620472  0.101317  1
  Ir  Ir23  1  0.657472  0.657472  0.054352  1
  Ir  Ir24  1  0.342528  0.342528  0.945648  1
