# generated using pymatgen
data_Tb6Ho2Re3RuC8
_symmetry_space_group_name_H-M   'P 1'
_cell_length_a   5.13414200
_cell_length_b   6.57945439
_cell_length_c   9.86221533
_cell_angle_alpha   90.08189388
_cell_angle_beta   90.00000000
_cell_angle_gamma   90.00000000
_symmetry_Int_Tables_number   1
_chemical_formula_structural   Tb6Ho2Re3RuC8
_chemical_formula_sum   'Tb6 Ho2 Re3 Ru1 C8'
_cell_volume   333.14384494
_cell_formula_units_Z   1
loop_
 _symmetry_equiv_pos_site_id
 _symmetry_equiv_pos_as_xyz
  1  'x, y, z'
loop_
 _atom_site_type_symbol
 _atom_site_label
 _atom_site_symmetry_multiplicity
 _atom_site_fract_x
 _atom_site_fract_y
 _atom_site_fract_z
 _atom_site_occupancy
  Tb  Tb0  1  0.250000  0.468321  0.785227  1
  Tb  Tb1  1  0.750000  0.032505  0.285811  1
  Tb  Tb2  1  0.250000  0.969150  0.716380  1
  Tb  Tb3  1  0.750000  0.530449  0.212344  1
  Tb  Tb4  1  0.750000  0.680221  0.555360  1
  Tb  Tb5  1  0.750000  0.180373  0.944177  1
  Ho  Ho6  1  0.250000  0.826018  0.054945  1
  Ho  Ho7  1  0.250000  0.320779  0.443119  1
  Re  Re8  1  0.750000  0.221973  0.633729  1
  Re  Re9  1  0.250000  0.778160  0.363945  1
  Re  Re10  1  0.750000  0.722371  0.865989  1
  Ru  Ru11  1  0.250000  0.277541  0.135751  1
  C  C12  1  0.250000  0.173397  0.952651  1
  C  C13  1  0.750000  0.821562  0.050677  1
  C  C14  1  0.250000  0.675690  0.547977  1
  C  C15  1  0.750000  0.321616  0.449551  1
  C  C16  1  0.250000  0.043741  0.260235  1
  C  C17  1  0.750000  0.455525  0.758973  1
  C  C18  1  0.250000  0.545530  0.242394  1
  C  C19  1  0.750000  0.955077  0.740763  1
