# generated using pymatgen
data_Tb3Dy(MnTc3)2
_symmetry_space_group_name_H-M   'P 1'
_cell_length_a   9.31065469
_cell_length_b   9.31065414
_cell_length_c   9.20321701
_cell_angle_alpha   34.67314262
_cell_angle_beta   34.67315011
_cell_angle_gamma   32.88925292
_symmetry_Int_Tables_number   1
_chemical_formula_structural   Tb3Dy(MnTc3)2
_chemical_formula_sum   'Tb3 Dy1 Mn2 Tc6'
_cell_volume   222.89643745
_cell_formula_units_Z   1
loop_
 _symmetry_equiv_pos_site_id
 _symmetry_equiv_pos_as_xyz
  1  'x, y, z'
loop_
 _atom_site_type_symbol
 _atom_site_label
 _atom_site_symmetry_multiplicity
 _atom_site_fract_x
 _atom_site_fract_y
 _atom_site_fract_z
 _atom_site_occupancy
  Tb  Tb0  1  0.184015  0.184015  0.193354  1
  Tb  Tb1  1  0.815881  0.815881  0.806682  1
  Tb  Tb2  1  0.315951  0.315951  0.306702  1
  Dy  Dy3  1  0.683896  0.683896  0.693672  1
  Mn  Mn4  1  0.249913  0.249913  0.749836  1
  Mn  Mn5  1  0.750067  0.750067  0.250200  1
  Tc  Tc6  1  0.000079  0.000079  0.999900  1
  Tc  Tc7  1  0.500018  0.500018  0.499956  1
  Tc  Tc8  1  0.749683  0.249972  0.249995  1
  Tc  Tc9  1  0.250403  0.750121  0.749853  1
  Tc  Tc10  1  0.249972  0.749683  0.249995  1
  Tc  Tc11  1  0.750121  0.250403  0.749853  1
