# generated using pymatgen
data_Nd2Hg5
_symmetry_space_group_name_H-M   'P 1'
_cell_length_a   18.51960200
_cell_length_b   18.51960264
_cell_length_c   5.23265900
_cell_angle_alpha   90.00000000
_cell_angle_beta   90.00000000
_cell_angle_gamma   168.17421672
_symmetry_Int_Tables_number   1
_chemical_formula_structural   Nd2Hg5
_chemical_formula_sum   'Nd4 Hg10'
_cell_volume   367.79440112
_cell_formula_units_Z   2
loop_
 _symmetry_equiv_pos_site_id
 _symmetry_equiv_pos_as_xyz
  1  'x, y, z'
loop_
 _atom_site_type_symbol
 _atom_site_label
 _atom_site_symmetry_multiplicity
 _atom_site_fract_x
 _atom_site_fract_y
 _atom_site_fract_z
 _atom_site_occupancy
  Nd  Nd0  1  0.930961  0.069039  0.500000  1
  Nd  Nd1  1  0.069039  0.930961  0.500000  1
  Nd  Nd2  1  0.793228  0.206772  0.500000  1
  Nd  Nd3  1  0.206772  0.793228  0.500000  1
  Hg  Hg4  1  0.637507  0.362493  0.500000  1
  Hg  Hg5  1  0.362493  0.637507  0.500000  1
  Hg  Hg6  1  0.717942  0.282058  0.000000  1
  Hg  Hg7  1  0.282058  0.717942  0.000000  1
  Hg  Hg8  1  0.500000  0.500000  0.500000  1
  Hg  Hg9  1  0.571427  0.428573  0.000000  1
  Hg  Hg10  1  0.428573  0.571427  0.000000  1
  Hg  Hg11  1  0.851909  0.148091  0.000000  1
  Hg  Hg12  1  0.148091  0.851909  0.000000  1
  Hg  Hg13  1  0.000000  0.000000  0.000000  1
