# generated using pymatgen
data_Y2ErLu7Cd3Fe
_symmetry_space_group_name_H-M   'P 1'
_cell_length_a   9.39540604
_cell_length_b   9.38694626
_cell_length_c   9.60988500
_cell_angle_alpha   90.00000000
_cell_angle_beta   90.00000000
_cell_angle_gamma   119.97040972
_symmetry_Int_Tables_number   1
_chemical_formula_structural   Y2ErLu7Cd3Fe
_chemical_formula_sum   'Y4 Er2 Lu14 Cd6 Fe2'
_cell_volume   734.20633004
_cell_formula_units_Z   2
loop_
 _symmetry_equiv_pos_site_id
 _symmetry_equiv_pos_as_xyz
  1  'x, y, z'
loop_
 _atom_site_type_symbol
 _atom_site_label
 _atom_site_symmetry_multiplicity
 _atom_site_fract_x
 _atom_site_fract_y
 _atom_site_fract_z
 _atom_site_occupancy
  Y  Y0  1  0.919543  0.459771  0.250000  1
  Y  Y1  1  0.460368  0.539252  0.750000  1
  Y  Y2  1  0.460352  0.921088  0.750000  1
  Y  Y3  1  0.078473  0.539245  0.750000  1
  Er  Er4  1  0.539135  0.460538  0.250000  1
  Er  Er5  1  0.539140  0.078604  0.250000  1
  Lu  Lu6  1  0.000271  0.000130  0.500036  1
  Lu  Lu7  1  0.000271  0.000130  0.999964  1
  Lu  Lu8  1  0.212566  0.788758  0.436941  1
  Lu  Lu9  1  0.212570  0.423822  0.436948  1
  Lu  Lu10  1  0.576422  0.788211  0.436775  1
  Lu  Lu11  1  0.787582  0.211407  0.562177  1
  Lu  Lu12  1  0.787581  0.576168  0.562173  1
  Lu  Lu13  1  0.424160  0.212080  0.561726  1
  Lu  Lu14  1  0.787582  0.211407  0.937823  1
  Lu  Lu15  1  0.787581  0.576168  0.937827  1
  Lu  Lu16  1  0.424160  0.212080  0.938274  1
  Lu  Lu17  1  0.212566  0.788758  0.063059  1
  Lu  Lu18  1  0.212570  0.423822  0.063052  1
  Lu  Lu19  1  0.576422  0.788211  0.063225  1
  Cd  Cd20  1  0.885606  0.113292  0.250000  1
  Cd  Cd21  1  0.885606  0.772326  0.250000  1
  Cd  Cd22  1  0.228410  0.114192  0.250000  1
  Cd  Cd23  1  0.113448  0.886889  0.750000  1
  Cd  Cd24  1  0.113448  0.226556  0.750000  1
  Cd  Cd25  1  0.773526  0.886771  0.750000  1
  Fe  Fe26  1  0.333818  0.666916  0.250000  1
  Fe  Fe27  1  0.666824  0.333410  0.750000  1
