# generated using pymatgen
data_Yb2Tm2B16Os3Ru
_symmetry_space_group_name_H-M   'P 1'
_cell_length_a   3.53603100
_cell_length_b   5.94366811
_cell_length_c   11.48769814
_cell_angle_alpha   89.81592269
_cell_angle_beta   90.00000000
_cell_angle_gamma   90.00000000
_symmetry_Int_Tables_number   1
_chemical_formula_structural   Yb2Tm2B16Os3Ru
_chemical_formula_sum   'Yb2 Tm2 B16 Os3 Ru1'
_cell_volume   241.43564480
_cell_formula_units_Z   1
loop_
 _symmetry_equiv_pos_site_id
 _symmetry_equiv_pos_as_xyz
  1  'x, y, z'
loop_
 _atom_site_type_symbol
 _atom_site_label
 _atom_site_symmetry_multiplicity
 _atom_site_fract_x
 _atom_site_fract_y
 _atom_site_fract_z
 _atom_site_occupancy
  Yb  Yb0  1  0.500000  0.129287  0.350356  1
  Yb  Yb1  1  0.500000  0.870684  0.649926  1
  Tm  Tm2  1  0.500000  0.629002  0.150247  1
  Tm  Tm3  1  0.500000  0.371205  0.849903  1
  B  B4  1  0.000000  0.974577  0.192003  1
  B  B5  1  0.000000  0.025345  0.807882  1
  B  B6  1  0.000000  0.475774  0.308155  1
  B  B7  1  0.000000  0.524741  0.691930  1
  B  B8  1  0.000000  0.789046  0.314834  1
  B  B9  1  0.000000  0.210781  0.685107  1
  B  B10  1  0.000000  0.288192  0.185833  1
  B  B11  1  0.000000  0.711567  0.814395  1
  B  B12  1  0.000000  0.864123  0.469549  1
  B  B13  1  0.000000  0.135887  0.530485  1
  B  B14  1  0.000000  0.364503  0.030192  1
  B  B15  1  0.000000  0.635420  0.969515  1
  B  B16  1  0.000000  0.887095  0.047539  1
  B  B17  1  0.000000  0.112826  0.952269  1
  B  B18  1  0.000000  0.386010  0.452966  1
  B  B19  1  0.000000  0.613975  0.547048  1
  Os  Os20  1  0.500000  0.636954  0.409001  1
  Os  Os21  1  0.500000  0.362896  0.591033  1
  Os  Os22  1  0.500000  0.141888  0.091126  1
  Ru  Ru23  1  0.500000  0.858222  0.908709  1
