# generated using pymatgen
data_Tb3Y(As3Rh5)4
_symmetry_space_group_name_H-M   'P 1'
_cell_length_a   4.01326100
_cell_length_b   12.93255211
_cell_length_c   11.36091804
_cell_angle_alpha   90.01234950
_cell_angle_beta   90.00000000
_cell_angle_gamma   90.00000000
_symmetry_Int_Tables_number   1
_chemical_formula_structural   Tb3Y(As3Rh5)4
_chemical_formula_sum   'Tb3 Y1 As12 Rh20'
_cell_volume   589.65102580
_cell_formula_units_Z   1
loop_
 _symmetry_equiv_pos_site_id
 _symmetry_equiv_pos_as_xyz
  1  'x, y, z'
loop_
 _atom_site_type_symbol
 _atom_site_label
 _atom_site_symmetry_multiplicity
 _atom_site_fract_x
 _atom_site_fract_y
 _atom_site_fract_z
 _atom_site_occupancy
  Tb  Tb0  1  0.750000  0.701346  0.080700  1
  Tb  Tb1  1  0.250000  0.298690  0.919465  1
  Tb  Tb2  1  0.250000  0.798651  0.580584  1
  Y  Y3  1  0.750000  0.201537  0.419229  1
  As  As4  1  0.750000  0.614453  0.583114  1
  As  As5  1  0.250000  0.385452  0.416888  1
  As  As6  1  0.250000  0.885565  0.083103  1
  As  As7  1  0.750000  0.114464  0.916923  1
  As  As8  1  0.750000  0.889443  0.399927  1
  As  As9  1  0.250000  0.110606  0.599948  1
  As  As10  1  0.250000  0.610699  0.899878  1
  As  As11  1  0.750000  0.389315  0.100111  1
  As  As12  1  0.750000  0.869363  0.766728  1
  As  As13  1  0.250000  0.130572  0.233379  1
  As  As14  1  0.250000  0.630610  0.266949  1
  As  As15  1  0.750000  0.369320  0.733076  1
  Rh  Rh16  1  0.750000  0.701079  0.384716  1
  Rh  Rh17  1  0.250000  0.298815  0.615240  1
  Rh  Rh18  1  0.250000  0.798957  0.884579  1
  Rh  Rh19  1  0.750000  0.201052  0.115319  1
  Rh  Rh20  1  0.750000  0.995570  0.222549  1
  Rh  Rh21  1  0.250000  0.004407  0.777297  1
  Rh  Rh22  1  0.250000  0.504279  0.722749  1
  Rh  Rh23  1  0.750000  0.495704  0.277300  1
  Rh  Rh24  1  0.750000  0.676251  0.780560  1
  Rh  Rh25  1  0.250000  0.323600  0.219596  1
  Rh  Rh26  1  0.250000  0.823764  0.280494  1
  Rh  Rh27  1  0.750000  0.176243  0.719619  1
  Rh  Rh28  1  0.750000  0.928852  0.968046  1
  Rh  Rh29  1  0.250000  0.071227  0.031930  1
  Rh  Rh30  1  0.250000  0.571196  0.468331  1
  Rh  Rh31  1  0.750000  0.428740  0.531703  1
  Rh  Rh32  1  0.750000  0.979399  0.590289  1
  Rh  Rh33  1  0.250000  0.020727  0.409797  1
  Rh  Rh34  1  0.250000  0.520722  0.090103  1
  Rh  Rh35  1  0.750000  0.479329  0.909778  1
