# generated using pymatgen
data_Cs(HfS2)2
_symmetry_space_group_name_H-M   'P 1'
_cell_length_a   6.28966100
_cell_length_b   7.26457800
_cell_length_c   17.17062400
_cell_angle_alpha   90.00000000
_cell_angle_beta   90.00000000
_cell_angle_gamma   90.00000000
_symmetry_Int_Tables_number   1
_chemical_formula_structural   Cs(HfS2)2
_chemical_formula_sum   'Cs4 Hf8 S16'
_cell_volume   784.55556602
_cell_formula_units_Z   4
loop_
 _symmetry_equiv_pos_site_id
 _symmetry_equiv_pos_as_xyz
  1  'x, y, z'
loop_
 _atom_site_type_symbol
 _atom_site_label
 _atom_site_symmetry_multiplicity
 _atom_site_fract_x
 _atom_site_fract_y
 _atom_site_fract_z
 _atom_site_occupancy
  Cs  Cs0  1  0.351508  0.000000  0.000000  1
  Cs  Cs1  1  0.648492  0.500000  0.500000  1
  Cs  Cs2  1  0.040544  0.000000  0.500000  1
  Cs  Cs3  1  0.959456  0.500000  0.000000  1
  Hf  Hf4  1  0.000558  0.000000  0.248824  1
  Hf  Hf5  1  0.000558  0.000000  0.751176  1
  Hf  Hf6  1  0.999442  0.500000  0.251176  1
  Hf  Hf7  1  0.999442  0.500000  0.748824  1
  Hf  Hf8  1  0.500000  0.250000  0.250000  1
  Hf  Hf9  1  0.500000  0.750000  0.750000  1
  Hf  Hf10  1  0.500000  0.750000  0.250000  1
  Hf  Hf11  1  0.500000  0.250000  0.750000  1
  S  S12  1  0.834016  0.248468  0.337441  1
  S  S13  1  0.834016  0.751532  0.662559  1
  S  S14  1  0.165984  0.748468  0.162559  1
  S  S15  1  0.165984  0.251532  0.837441  1
  S  S16  1  0.165984  0.251532  0.162559  1
  S  S17  1  0.165984  0.748468  0.837441  1
  S  S18  1  0.834016  0.751532  0.337441  1
  S  S19  1  0.834016  0.248468  0.662559  1
  S  S20  1  0.668013  0.000000  0.163244  1
  S  S21  1  0.668013  0.000000  0.836756  1
  S  S22  1  0.331987  0.500000  0.336756  1
  S  S23  1  0.331987  0.500000  0.663244  1
  S  S24  1  0.335958  0.000000  0.335288  1
  S  S25  1  0.335958  0.000000  0.664712  1
  S  S26  1  0.664042  0.500000  0.164712  1
  S  S27  1  0.664042  0.500000  0.835288  1
