# generated using pymatgen
data_TeSe27
_symmetry_space_group_name_H-M   'P 1'
_cell_length_a   14.78792374
_cell_length_b   14.78792364
_cell_length_c   14.78792393
_cell_angle_alpha   118.36037403
_cell_angle_beta   118.36037466
_cell_angle_gamma   118.36036418
_symmetry_Int_Tables_number   1
_chemical_formula_structural   TeSe27
_chemical_formula_sum   'Te1 Se27'
_cell_volume   1066.26956006
_cell_formula_units_Z   1
loop_
 _symmetry_equiv_pos_site_id
 _symmetry_equiv_pos_as_xyz
  1  'x, y, z'
loop_
 _atom_site_type_symbol
 _atom_site_label
 _atom_site_symmetry_multiplicity
 _atom_site_fract_x
 _atom_site_fract_y
 _atom_site_fract_z
 _atom_site_occupancy
  Te  Te0  1  0.045110  0.045110  0.045110  1
  Se  Se1  1  0.032970  0.669262  0.669262  1
  Se  Se2  1  0.669262  0.669262  0.032970  1
  Se  Se3  1  0.669262  0.032970  0.669262  1
  Se  Se4  1  0.261698  0.904235  0.755571  1
  Se  Se5  1  0.904235  0.755571  0.261698  1
  Se  Se6  1  0.755571  0.261698  0.904235  1
  Se  Se7  1  0.904235  0.261698  0.755571  1
  Se  Se8  1  0.261698  0.755571  0.904235  1
  Se  Se9  1  0.755571  0.904235  0.261698  1
  Se  Se10  1  0.097522  0.646941  0.443116  1
  Se  Se11  1  0.646941  0.443116  0.097522  1
  Se  Se12  1  0.443116  0.097522  0.646941  1
  Se  Se13  1  0.646941  0.097522  0.443116  1
  Se  Se14  1  0.097522  0.443116  0.646941  1
  Se  Se15  1  0.443116  0.646941  0.097522  1
  Se  Se16  1  0.359346  0.740275  0.595662  1
  Se  Se17  1  0.740275  0.595662  0.359346  1
  Se  Se18  1  0.595662  0.359346  0.740275  1
  Se  Se19  1  0.740275  0.359346  0.595662  1
  Se  Se20  1  0.359346  0.595662  0.740275  1
  Se  Se21  1  0.595662  0.740275  0.359346  1
  Se  Se22  1  0.167542  0.425489  0.425489  1
  Se  Se23  1  0.425489  0.425489  0.167542  1
  Se  Se24  1  0.425489  0.167542  0.425489  1
  Se  Se25  1  0.113059  0.945095  0.945095  1
  Se  Se26  1  0.945095  0.945095  0.113059  1
  Se  Se27  1  0.945095  0.113059  0.945095  1
