# generated using pymatgen
data_Na14Mg2S9
_symmetry_space_group_name_H-M   'P 1'
_cell_length_a   7.93438400
_cell_length_b   7.93438391
_cell_length_c   11.16256300
_cell_angle_alpha   90.00000000
_cell_angle_beta   90.00000000
_cell_angle_gamma   120.00000039
_symmetry_Int_Tables_number   1
_chemical_formula_structural   Na14Mg2S9
_chemical_formula_sum   'Na14 Mg2 S9'
_cell_volume   608.58462769
_cell_formula_units_Z   1
loop_
 _symmetry_equiv_pos_site_id
 _symmetry_equiv_pos_as_xyz
  1  'x, y, z'
loop_
 _atom_site_type_symbol
 _atom_site_label
 _atom_site_symmetry_multiplicity
 _atom_site_fract_x
 _atom_site_fract_y
 _atom_site_fract_z
 _atom_site_occupancy
  Na  Na0  1  0.025876  0.674152  0.911075  1
  Na  Na1  1  0.316609  0.948024  0.591475  1
  Na  Na2  1  0.051976  0.368586  0.591475  1
  Na  Na3  1  0.000000  0.000000  0.250490  1
  Na  Na4  1  0.000000  0.000000  0.749510  1
  Na  Na5  1  0.325848  0.351724  0.911075  1
  Na  Na6  1  0.648276  0.974124  0.911075  1
  Na  Na7  1  0.368586  0.316609  0.408525  1
  Na  Na8  1  0.631414  0.683391  0.591475  1
  Na  Na9  1  0.351724  0.025876  0.088925  1
  Na  Na10  1  0.674152  0.648276  0.088925  1
  Na  Na11  1  0.948024  0.631414  0.408525  1
  Na  Na12  1  0.683391  0.051976  0.408525  1
  Na  Na13  1  0.974124  0.325848  0.088925  1
  Mg  Mg14  1  0.333333  0.666667  0.258534  1
  Mg  Mg15  1  0.666667  0.333333  0.741466  1
  S  S16  1  0.307054  0.949721  0.335432  1
  S  S17  1  0.050279  0.357333  0.335432  1
  S  S18  1  0.333333  0.666667  0.034704  1
  S  S19  1  0.000000  0.000000  0.000000  1
  S  S20  1  0.357333  0.307054  0.664568  1
  S  S21  1  0.642667  0.692946  0.335432  1
  S  S22  1  0.666667  0.333333  0.965296  1
  S  S23  1  0.949721  0.642667  0.664568  1
  S  S24  1  0.692946  0.050279  0.664568  1
