# generated using pymatgen
data_Tb18Bi10NO9
_symmetry_space_group_name_H-M   'P 1'
_cell_length_a   10.06060300
_cell_length_b   10.06060300
_cell_length_c   9.04539900
_cell_angle_alpha   90.00000000
_cell_angle_beta   90.00000000
_cell_angle_gamma   90.00000000
_symmetry_Int_Tables_number   1
_chemical_formula_structural   Tb18Bi10NO9
_chemical_formula_sum   'Tb18 Bi10 N1 O9'
_cell_volume   915.53668756
_cell_formula_units_Z   1
loop_
 _symmetry_equiv_pos_site_id
 _symmetry_equiv_pos_as_xyz
  1  'x, y, z'
loop_
 _atom_site_type_symbol
 _atom_site_label
 _atom_site_symmetry_multiplicity
 _atom_site_fract_x
 _atom_site_fract_y
 _atom_site_fract_z
 _atom_site_occupancy
  Tb  Tb0  1  0.206788  0.894668  0.335057  1
  Tb  Tb1  1  0.500000  0.000000  0.686679  1
  Tb  Tb2  1  0.293444  0.605503  0.665015  1
  Tb  Tb3  1  0.706556  0.394497  0.665015  1
  Tb  Tb4  1  0.722013  0.918810  0.000906  1
  Tb  Tb5  1  0.394668  0.293212  0.335057  1
  Tb  Tb6  1  0.105503  0.206556  0.665015  1
  Tb  Tb7  1  0.605332  0.706788  0.335057  1
  Tb  Tb8  1  0.000000  0.500000  0.320346  1
  Tb  Tb9  1  0.894497  0.793444  0.665015  1
  Tb  Tb10  1  0.277987  0.081190  0.000906  1
  Tb  Tb11  1  0.774263  0.583956  0.997339  1
  Tb  Tb12  1  0.225737  0.416044  0.997339  1
  Tb  Tb13  1  0.793212  0.105332  0.335057  1
  Tb  Tb14  1  0.581190  0.222013  0.000906  1
  Tb  Tb15  1  0.916044  0.274263  0.997339  1
  Tb  Tb16  1  0.083956  0.725737  0.997339  1
  Tb  Tb17  1  0.418810  0.777987  0.000906  1
  Bi  Bi18  1  0.595426  0.692659  0.695546  1
  Bi  Bi19  1  0.904904  0.805405  0.303822  1
  Bi  Bi20  1  0.694595  0.404904  0.303822  1
  Bi  Bi21  1  0.000000  0.500000  0.679987  1
  Bi  Bi22  1  0.192659  0.904574  0.695546  1
  Bi  Bi23  1  0.807341  0.095426  0.695546  1
  Bi  Bi24  1  0.305405  0.595096  0.303822  1
  Bi  Bi25  1  0.404574  0.307341  0.695546  1
  Bi  Bi26  1  0.095096  0.194595  0.303822  1
  Bi  Bi27  1  0.500000  0.000000  0.321810  1
  N  N28  1  0.500000  0.000000  0.937108  1
  O  O29  1  0.224761  0.879323  0.085583  1
  O  O30  1  0.727019  0.379923  0.914302  1
  O  O31  1  0.620677  0.724761  0.085583  1
  O  O32  1  0.000000  0.500000  0.063793  1
  O  O33  1  0.879923  0.772981  0.914302  1
  O  O34  1  0.120077  0.227019  0.914302  1
  O  O35  1  0.379323  0.275239  0.085583  1
  O  O36  1  0.775239  0.120677  0.085583  1
  O  O37  1  0.272981  0.620077  0.914302  1
