# generated using pymatgen
data_Tb3Y4(ErPb2)3
_symmetry_space_group_name_H-M   'P 1'
_cell_length_a   9.05383200
_cell_length_b   9.05396239
_cell_length_c   6.63809300
_cell_angle_alpha   89.99966725
_cell_angle_beta   90.00021979
_cell_angle_gamma   119.97491670
_symmetry_Int_Tables_number   1
_chemical_formula_structural   Tb3Y4(ErPb2)3
_chemical_formula_sum   'Tb3 Y4 Er3 Pb6'
_cell_volume   471.36224877
_cell_formula_units_Z   1
loop_
 _symmetry_equiv_pos_site_id
 _symmetry_equiv_pos_as_xyz
  1  'x, y, z'
loop_
 _atom_site_type_symbol
 _atom_site_label
 _atom_site_symmetry_multiplicity
 _atom_site_fract_x
 _atom_site_fract_y
 _atom_site_fract_z
 _atom_site_occupancy
  Tb  Tb0  1  0.666644  0.333345  0.500071  1
  Tb  Tb1  1  0.761445  0.999953  0.249822  1
  Tb  Tb2  1  0.000060  0.761510  0.249818  1
  Y  Y3  1  0.761230  0.761290  0.750181  1
  Y  Y4  1  0.238587  0.999935  0.750183  1
  Y  Y5  1  0.000025  0.238656  0.750177  1
  Y  Y6  1  0.238564  0.238622  0.249828  1
  Er  Er7  1  0.666638  0.333292  0.999941  1
  Er  Er8  1  0.333326  0.666618  0.999910  1
  Er  Er9  1  0.333326  0.666633  0.500063  1
  Pb  Pb10  1  0.394743  0.395697  0.750976  1
  Pb  Pb11  1  0.604433  0.999090  0.750972  1
  Pb  Pb12  1  0.001018  0.605393  0.750978  1
  Pb  Pb13  1  0.603687  0.604649  0.249002  1
  Pb  Pb14  1  0.395053  0.999268  0.249027  1
  Pb  Pb15  1  0.001221  0.396048  0.249049  1
