# generated using pymatgen
data_Zr6Ti4Ga5Bi
_symmetry_space_group_name_H-M   'P 1'
_cell_length_a   8.05596300
_cell_length_b   8.05617526
_cell_length_c   5.53651400
_cell_angle_alpha   90.00000000
_cell_angle_beta   90.00000000
_cell_angle_gamma   119.99912431
_symmetry_Int_Tables_number   1
_chemical_formula_structural   Zr6Ti4Ga5Bi
_chemical_formula_sum   'Zr6 Ti4 Ga5 Bi1'
_cell_volume   311.18398287
_cell_formula_units_Z   1
loop_
 _symmetry_equiv_pos_site_id
 _symmetry_equiv_pos_as_xyz
  1  'x, y, z'
loop_
 _atom_site_type_symbol
 _atom_site_label
 _atom_site_symmetry_multiplicity
 _atom_site_fract_x
 _atom_site_fract_y
 _atom_site_fract_z
 _atom_site_occupancy
  Zr  Zr0  1  0.228443  0.000000  0.250000  1
  Zr  Zr1  1  0.247230  0.248788  0.750000  1
  Zr  Zr2  1  0.998442  0.751212  0.750000  1
  Zr  Zr3  1  0.014277  0.255677  0.250000  1
  Zr  Zr4  1  0.758600  0.744323  0.250000  1
  Zr  Zr5  1  0.763885  0.000000  0.750000  1
  Ti  Ti6  1  0.670861  0.346223  0.993559  1
  Ti  Ti7  1  0.324637  0.653777  0.506441  1
  Ti  Ti8  1  0.670861  0.346223  0.506441  1
  Ti  Ti9  1  0.324637  0.653777  0.993559  1
  Ga  Ga10  1  0.396466  0.000000  0.750000  1
  Ga  Ga11  1  0.004185  0.600814  0.250000  1
  Ga  Ga12  1  0.996008  0.395539  0.750000  1
  Ga  Ga13  1  0.600469  0.604461  0.750000  1
  Ga  Ga14  1  0.403371  0.399186  0.250000  1
  Bi  Bi15  1  0.597628  0.000000  0.250000  1
