# generated using pymatgen
data_Y3Zr(Co4P3)2
_symmetry_space_group_name_H-M   'P 1'
_cell_length_a   3.72480300
_cell_length_b   10.70228900
_cell_length_c   12.42474100
_cell_angle_alpha   90.00000000
_cell_angle_beta   90.00000000
_cell_angle_gamma   90.00000000
_symmetry_Int_Tables_number   1
_chemical_formula_structural   Y3Zr(Co4P3)2
_chemical_formula_sum   'Y6 Zr2 Co16 P12'
_cell_volume   495.29885856
_cell_formula_units_Z   2
loop_
 _symmetry_equiv_pos_site_id
 _symmetry_equiv_pos_as_xyz
  1  'x, y, z'
loop_
 _atom_site_type_symbol
 _atom_site_label
 _atom_site_symmetry_multiplicity
 _atom_site_fract_x
 _atom_site_fract_y
 _atom_site_fract_z
 _atom_site_occupancy
  Y  Y0  1  0.000000  0.500000  0.528314  1
  Y  Y1  1  0.500000  0.000000  0.471686  1
  Y  Y2  1  0.500000  0.821327  0.204923  1
  Y  Y3  1  0.500000  0.178673  0.204923  1
  Y  Y4  1  0.000000  0.678673  0.795077  1
  Y  Y5  1  0.000000  0.321327  0.795077  1
  Zr  Zr6  1  0.500000  0.500000  0.157416  1
  Zr  Zr7  1  0.000000  0.000000  0.842584  1
  Co  Co8  1  0.500000  0.500000  0.702538  1
  Co  Co9  1  0.000000  0.000000  0.297462  1
  Co  Co10  1  0.000000  0.500000  0.985318  1
  Co  Co11  1  0.500000  0.000000  0.014682  1
  Co  Co12  1  0.500000  0.332127  0.992482  1
  Co  Co13  1  0.500000  0.667873  0.992482  1
  Co  Co14  1  0.000000  0.167873  0.007518  1
  Co  Co15  1  0.000000  0.832127  0.007518  1
  Co  Co16  1  0.500000  0.295144  0.433315  1
  Co  Co17  1  0.500000  0.704856  0.433315  1
  Co  Co18  1  0.000000  0.204856  0.566685  1
  Co  Co19  1  0.000000  0.795144  0.566685  1
  Co  Co20  1  0.500000  0.877551  0.701641  1
  Co  Co21  1  0.500000  0.122449  0.701641  1
  Co  Co22  1  0.000000  0.622449  0.298359  1
  Co  Co23  1  0.000000  0.377551  0.298359  1
  P  P24  1  0.500000  0.500000  0.882941  1
  P  P25  1  0.000000  0.000000  0.117059  1
  P  P26  1  0.500000  0.500000  0.362106  1
  P  P27  1  0.000000  0.000000  0.637894  1
  P  P28  1  0.500000  0.309938  0.615393  1
  P  P29  1  0.500000  0.690062  0.615393  1
  P  P30  1  0.000000  0.190062  0.384607  1
  P  P31  1  0.000000  0.809938  0.384607  1
  P  P32  1  0.500000  0.838425  0.894609  1
  P  P33  1  0.500000  0.161575  0.894609  1
  P  P34  1  0.000000  0.661575  0.105391  1
  P  P35  1  0.000000  0.338425  0.105391  1
