# generated using pymatgen
data_YbHf2(NpSb2)5
_symmetry_space_group_name_H-M   'P 1'
_cell_length_a   9.33043400
_cell_length_b   9.29736082
_cell_length_c   6.19648100
_cell_angle_alpha   90.00000000
_cell_angle_beta   90.00000000
_cell_angle_gamma   120.11775046
_symmetry_Int_Tables_number   1
_chemical_formula_structural   YbHf2(NpSb2)5
_chemical_formula_sum   'Yb1 Hf2 Np5 Sb10'
_cell_volume   464.96552887
_cell_formula_units_Z   1
loop_
 _symmetry_equiv_pos_site_id
 _symmetry_equiv_pos_as_xyz
  1  'x, y, z'
loop_
 _atom_site_type_symbol
 _atom_site_label
 _atom_site_symmetry_multiplicity
 _atom_site_fract_x
 _atom_site_fract_y
 _atom_site_fract_z
 _atom_site_occupancy
  Yb  Yb0  1  0.619083  0.000000  0.250000  1
  Hf  Hf1  1  0.000075  0.000000  0.001296  1
  Hf  Hf2  1  0.000075  0.000000  0.498704  1
  Np  Np3  1  0.383686  0.000000  0.750000  1
  Np  Np4  1  0.000440  0.615483  0.250000  1
  Np  Np5  1  0.996974  0.379464  0.750000  1
  Np  Np6  1  0.384957  0.384517  0.250000  1
  Np  Np7  1  0.617508  0.620536  0.750000  1
  Sb  Sb8  1  0.269031  0.000000  0.250000  1
  Sb  Sb9  1  0.734148  0.000000  0.750000  1
  Sb  Sb10  1  0.003521  0.269717  0.250000  1
  Sb  Sb11  1  0.000168  0.731437  0.750000  1
  Sb  Sb12  1  0.733804  0.730283  0.250000  1
  Sb  Sb13  1  0.268730  0.268563  0.750000  1
  Sb  Sb14  1  0.329218  0.664538  0.999047  1
  Sb  Sb15  1  0.664682  0.335462  0.999047  1
  Sb  Sb16  1  0.664682  0.335462  0.500953  1
  Sb  Sb17  1  0.329218  0.664538  0.500953  1
