# generated using pymatgen
data_Ba2NaAu2
_symmetry_space_group_name_H-M   'P 1'
_cell_length_a   8.84103700
_cell_length_b   8.84103700
_cell_length_c   4.46596100
_cell_angle_alpha   90.00000000
_cell_angle_beta   90.00000000
_cell_angle_gamma   90.00000000
_symmetry_Int_Tables_number   1
_chemical_formula_structural   Ba2NaAu2
_chemical_formula_sum   'Ba4 Na2 Au4'
_cell_volume   349.07708637
_cell_formula_units_Z   2
loop_
 _symmetry_equiv_pos_site_id
 _symmetry_equiv_pos_as_xyz
  1  'x, y, z'
loop_
 _atom_site_type_symbol
 _atom_site_label
 _atom_site_symmetry_multiplicity
 _atom_site_fract_x
 _atom_site_fract_y
 _atom_site_fract_z
 _atom_site_occupancy
  Ba  Ba0  1  0.670405  0.170405  0.500000  1
  Ba  Ba1  1  0.329595  0.829595  0.500000  1
  Ba  Ba2  1  0.170405  0.329595  0.500000  1
  Ba  Ba3  1  0.829595  0.670405  0.500000  1
  Na  Na4  1  0.000000  0.000000  0.000000  1
  Na  Na5  1  0.500000  0.500000  0.000000  1
  Au  Au6  1  0.123235  0.623235  0.000000  1
  Au  Au7  1  0.876765  0.376765  0.000000  1
  Au  Au8  1  0.623235  0.876765  0.000000  1
  Au  Au9  1  0.376765  0.123235  0.000000  1
