# generated using pymatgen
data_Ba2TbDyEr2O8
_symmetry_space_group_name_H-M   'P 1'
_cell_length_a   3.46884300
_cell_length_b   10.47051400
_cell_length_c   12.18428700
_cell_angle_alpha   90.00000000
_cell_angle_beta   90.00000000
_cell_angle_gamma   90.00000000
_symmetry_Int_Tables_number   1
_chemical_formula_structural   Ba2TbDyEr2O8
_chemical_formula_sum   'Ba4 Tb2 Dy2 Er4 O16'
_cell_volume   442.54023908
_cell_formula_units_Z   2
loop_
 _symmetry_equiv_pos_site_id
 _symmetry_equiv_pos_as_xyz
  1  'x, y, z'
loop_
 _atom_site_type_symbol
 _atom_site_label
 _atom_site_symmetry_multiplicity
 _atom_site_fract_x
 _atom_site_fract_y
 _atom_site_fract_z
 _atom_site_occupancy
  Ba  Ba0  1  0.750000  0.253227  0.148842  1
  Ba  Ba1  1  0.750000  0.753227  0.351158  1
  Ba  Ba2  1  0.250000  0.746746  0.850921  1
  Ba  Ba3  1  0.250000  0.246746  0.649079  1
  Tb  Tb4  1  0.750000  0.925144  0.111257  1
  Tb  Tb5  1  0.750000  0.425144  0.388743  1
  Dy  Dy6  1  0.250000  0.074537  0.888568  1
  Dy  Dy7  1  0.250000  0.574537  0.611432  1
  Er  Er8  1  0.750000  0.423109  0.891558  1
  Er  Er9  1  0.750000  0.923109  0.608442  1
  Er  Er10  1  0.250000  0.576801  0.108272  1
  Er  Er11  1  0.250000  0.076801  0.391728  1
  O  O12  1  0.750000  0.211617  0.841222  1
  O  O13  1  0.750000  0.711617  0.658778  1
  O  O14  1  0.250000  0.787525  0.159200  1
  O  O15  1  0.250000  0.287525  0.340800  1
  O  O16  1  0.750000  0.114428  0.517367  1
  O  O17  1  0.750000  0.614428  0.982633  1
  O  O18  1  0.250000  0.885725  0.482707  1
  O  O19  1  0.250000  0.385725  0.017293  1
  O  O20  1  0.750000  0.018923  0.284597  1
  O  O21  1  0.750000  0.518923  0.215403  1
  O  O22  1  0.250000  0.981359  0.715743  1
  O  O23  1  0.250000  0.481359  0.784257  1
  O  O24  1  0.750000  0.430213  0.574909  1
  O  O25  1  0.750000  0.930213  0.925091  1
  O  O26  1  0.250000  0.570647  0.426024  1
  O  O27  1  0.250000  0.070647  0.073976  1
