# generated using pymatgen
data_NaNd4Co4Br
_symmetry_space_group_name_H-M   'P 1'
_cell_length_a   3.98014200
_cell_length_b   3.98014143
_cell_length_c   18.56842700
_cell_angle_alpha   90.00000000
_cell_angle_beta   90.00000000
_cell_angle_gamma   119.99998813
_symmetry_Int_Tables_number   1
_chemical_formula_structural   NaNd4Co4Br
_chemical_formula_sum   'Na1 Nd4 Co4 Br1'
_cell_volume   254.74335800
_cell_formula_units_Z   1
loop_
 _symmetry_equiv_pos_site_id
 _symmetry_equiv_pos_as_xyz
  1  'x, y, z'
loop_
 _atom_site_type_symbol
 _atom_site_label
 _atom_site_symmetry_multiplicity
 _atom_site_fract_x
 _atom_site_fract_y
 _atom_site_fract_z
 _atom_site_occupancy
  Na  Na0  1  0.333333  0.666667  0.250000  1
  Nd  Nd1  1  0.000000  0.000000  0.079645  1
  Nd  Nd2  1  0.000000  0.000000  0.880289  1
  Nd  Nd3  1  0.000000  0.000000  0.619711  1
  Nd  Nd4  1  0.000000  0.000000  0.420355  1
  Co  Co5  1  0.333333  0.666667  0.519402  1
  Co  Co6  1  0.666667  0.333333  0.519015  1
  Co  Co7  1  0.666667  0.333333  0.980985  1
  Co  Co8  1  0.333333  0.666667  0.980598  1
  Br  Br9  1  0.666667  0.333333  0.750000  1
