# generated using pymatgen
data_NaSm5YPtBr12
_symmetry_space_group_name_H-M   'P 1'
_cell_length_a   9.39996030
_cell_length_b   9.45248062
_cell_length_c   9.47711619
_cell_angle_alpha   107.29915976
_cell_angle_beta   107.48509143
_cell_angle_gamma   106.74827654
_symmetry_Int_Tables_number   1
_chemical_formula_structural   NaSm5YPtBr12
_chemical_formula_sum   'Na1 Sm5 Y1 Pt1 Br12'
_cell_volume   697.83597224
_cell_formula_units_Z   1
loop_
 _symmetry_equiv_pos_site_id
 _symmetry_equiv_pos_as_xyz
  1  'x, y, z'
loop_
 _atom_site_type_symbol
 _atom_site_label
 _atom_site_symmetry_multiplicity
 _atom_site_fract_x
 _atom_site_fract_y
 _atom_site_fract_z
 _atom_site_occupancy
  Na  Na0  1  0.499902  0.500752  0.498785  1
  Sm  Sm1  1  0.314635  0.028086  0.111493  1
  Sm  Sm2  1  0.030942  0.119272  0.327356  1
  Sm  Sm3  1  0.970348  0.884554  0.674789  1
  Sm  Sm4  1  0.685330  0.970414  0.889328  1
  Sm  Sm5  1  0.884601  0.673304  0.968823  1
  Y  Y6  1  0.113884  0.321802  0.031678  1
  Pt  Pt7  1  0.000243  0.999657  0.001178  1
  Br  Br8  1  0.215603  0.676846  0.071916  1
  Br  Br9  1  0.448824  0.369199  0.150370  1
  Br  Br10  1  0.682136  0.074680  0.215838  1
  Br  Br11  1  0.927518  0.786418  0.317697  1
  Br  Br12  1  0.153292  0.457514  0.365882  1
  Br  Br13  1  0.370927  0.154796  0.455458  1
  Br  Br14  1  0.629914  0.847648  0.545642  1
  Br  Br15  1  0.846238  0.544082  0.628016  1
  Br  Br16  1  0.074765  0.219620  0.689221  1
  Br  Br17  1  0.318353  0.927093  0.785357  1
  Br  Br18  1  0.544559  0.628731  0.844929  1
  Br  Br19  1  0.787987  0.315534  0.926247  1
