# generated using pymatgen
data_Sm3Th5(TcC2)4
_symmetry_space_group_name_H-M   'P 1'
_cell_length_a   5.34381500
_cell_length_b   6.66752243
_cell_length_c   10.04713130
_cell_angle_alpha   89.94858167
_cell_angle_beta   90.00000000
_cell_angle_gamma   90.00000000
_symmetry_Int_Tables_number   1
_chemical_formula_structural   Sm3Th5(TcC2)4
_chemical_formula_sum   'Sm3 Th5 Tc4 C8'
_cell_volume   357.97920782
_cell_formula_units_Z   1
loop_
 _symmetry_equiv_pos_site_id
 _symmetry_equiv_pos_as_xyz
  1  'x, y, z'
loop_
 _atom_site_type_symbol
 _atom_site_label
 _atom_site_symmetry_multiplicity
 _atom_site_fract_x
 _atom_site_fract_y
 _atom_site_fract_z
 _atom_site_occupancy
  Sm  Sm0  1  0.250000  0.185933  0.948888  1
  Sm  Sm1  1  0.750000  0.316680  0.449603  1
  Sm  Sm2  1  0.250000  0.683406  0.549929  1
  Th  Th3  1  0.750000  0.473275  0.780455  1
  Th  Th4  1  0.250000  0.025485  0.282972  1
  Th  Th5  1  0.750000  0.975875  0.716253  1
  Th  Th6  1  0.250000  0.522658  0.221833  1
  Th  Th7  1  0.750000  0.814092  0.047926  1
  Tc  Tc8  1  0.750000  0.772717  0.364273  1
  Tc  Tc9  1  0.250000  0.728310  0.861320  1
  Tc  Tc10  1  0.250000  0.228518  0.637600  1
  Tc  Tc11  1  0.750000  0.274385  0.137067  1
  C  C12  1  0.250000  0.962821  0.740846  1
  C  C13  1  0.750000  0.536592  0.242995  1
  C  C14  1  0.250000  0.463744  0.757645  1
  C  C15  1  0.750000  0.037949  0.258209  1
  C  C16  1  0.250000  0.322005  0.449336  1
  C  C17  1  0.750000  0.172377  0.948484  1
  C  C18  1  0.250000  0.824453  0.053076  1
  C  C19  1  0.750000  0.678725  0.551291  1
