# generated using pymatgen
data_Tb4Al18RuRh4Au
_symmetry_space_group_name_H-M   'P 1'
_cell_length_a   7.58489557
_cell_length_b   7.58489581
_cell_length_c   9.49164398
_cell_angle_alpha   89.99098962
_cell_angle_beta   89.99098595
_cell_angle_gamma   119.46584440
_symmetry_Int_Tables_number   1
_chemical_formula_structural   Tb4Al18RuRh4Au
_chemical_formula_sum   'Tb4 Al18 Ru1 Rh4 Au1'
_cell_volume   475.42694677
_cell_formula_units_Z   1
loop_
 _symmetry_equiv_pos_site_id
 _symmetry_equiv_pos_as_xyz
  1  'x, y, z'
loop_
 _atom_site_type_symbol
 _atom_site_label
 _atom_site_symmetry_multiplicity
 _atom_site_fract_x
 _atom_site_fract_y
 _atom_site_fract_z
 _atom_site_occupancy
  Tb  Tb0  1  0.995360  0.673537  0.250020  1
  Tb  Tb1  1  0.003914  0.325895  0.749838  1
  Tb  Tb2  1  0.674105  0.996086  0.250162  1
  Tb  Tb3  1  0.326463  0.004640  0.749980  1
  Al  Al4  1  0.135333  0.135768  0.257141  1
  Al  Al5  1  0.864232  0.864667  0.742859  1
  Al  Al6  1  0.000757  0.344529  0.078570  1
  Al  Al7  1  0.996527  0.653799  0.921586  1
  Al  Al8  1  0.000073  0.664138  0.574180  1
  Al  Al9  1  0.335862  0.999927  0.425820  1
  Al  Al10  1  0.000073  0.336235  0.425919  1
  Al  Al11  1  0.663765  0.999927  0.574081  1
  Al  Al12  1  0.655471  0.999243  0.921430  1
  Al  Al13  1  0.346201  0.003473  0.078414  1
  Al  Al14  1  0.333259  0.333404  0.550174  1
  Al  Al15  1  0.666596  0.666741  0.449826  1
  Al  Al16  1  0.658266  0.656348  0.054649  1
  Al  Al17  1  0.343652  0.341734  0.945351  1
  Al  Al18  1  0.339035  0.551131  0.251207  1
  Al  Al19  1  0.660643  0.448347  0.749854  1
  Al  Al20  1  0.551653  0.339357  0.250146  1
  Al  Al21  1  0.448869  0.660965  0.748793  1
  Ru  Ru22  1  0.671863  0.328137  0.000000  1
  Rh  Rh23  1  0.328263  0.671737  0.000000  1
  Rh  Rh24  1  0.328133  0.671867  0.500000  1
  Rh  Rh25  1  0.671751  0.328249  0.500000  1
  Rh  Rh26  1  0.999976  0.000024  0.500000  1
  Au  Au27  1  0.999907  0.000093  0.000000  1
