# generated using pymatgen
data_Hf9ZrSn6
_symmetry_space_group_name_H-M   'P 1'
_cell_length_a   8.47439081
_cell_length_b   8.47439208
_cell_length_c   5.72026100
_cell_angle_alpha   90.00000000
_cell_angle_beta   90.00000000
_cell_angle_gamma   120.19482825
_symmetry_Int_Tables_number   1
_chemical_formula_structural   Hf9ZrSn6
_chemical_formula_sum   'Hf9 Zr1 Sn6'
_cell_volume   355.06474408
_cell_formula_units_Z   1
loop_
 _symmetry_equiv_pos_site_id
 _symmetry_equiv_pos_as_xyz
  1  'x, y, z'
loop_
 _atom_site_type_symbol
 _atom_site_label
 _atom_site_symmetry_multiplicity
 _atom_site_fract_x
 _atom_site_fract_y
 _atom_site_fract_z
 _atom_site_occupancy
  Hf  Hf0  1  0.244627  0.000255  0.750000  1
  Hf  Hf1  1  0.000255  0.244627  0.750000  1
  Hf  Hf2  1  0.240219  0.240219  0.250000  1
  Hf  Hf3  1  0.756531  0.001010  0.250000  1
  Hf  Hf4  1  0.001010  0.756531  0.250000  1
  Hf  Hf5  1  0.666434  0.332999  0.999973  1
  Hf  Hf6  1  0.332999  0.666434  0.999973  1
  Hf  Hf7  1  0.332999  0.666434  0.500027  1
  Hf  Hf8  1  0.666434  0.332999  0.500027  1
  Zr  Zr9  1  0.758962  0.758962  0.750000  1
  Sn  Sn10  1  0.392521  0.392521  0.750000  1
  Sn  Sn11  1  0.606990  0.000091  0.750000  1
  Sn  Sn12  1  0.000091  0.606990  0.750000  1
  Sn  Sn13  1  0.606931  0.606931  0.250000  1
  Sn  Sn14  1  0.393175  0.999822  0.250000  1
  Sn  Sn15  1  0.999822  0.393175  0.250000  1
