# generated using pymatgen
data_Y7Sc(Si4Mo3)4
_symmetry_space_group_name_H-M   'P 1'
_cell_length_a   6.75141029
_cell_length_b   6.93583734
_cell_length_c   12.90832993
_cell_angle_alpha   89.92137123
_cell_angle_beta   89.95830192
_cell_angle_gamma   89.96667308
_symmetry_Int_Tables_number   1
_chemical_formula_structural   Y7Sc(Si4Mo3)4
_chemical_formula_sum   'Y7 Sc1 Si16 Mo12'
_cell_volume   604.45344976
_cell_formula_units_Z   1
loop_
 _symmetry_equiv_pos_site_id
 _symmetry_equiv_pos_as_xyz
  1  'x, y, z'
loop_
 _atom_site_type_symbol
 _atom_site_label
 _atom_site_symmetry_multiplicity
 _atom_site_fract_x
 _atom_site_fract_y
 _atom_site_fract_z
 _atom_site_occupancy
  Y  Y0  1  0.497039  0.332240  0.093789  1
  Y  Y1  1  0.997449  0.167158  0.406197  1
  Y  Y2  1  0.502782  0.666795  0.594086  1
  Y  Y3  1  0.002199  0.833199  0.908327  1
  Y  Y4  1  0.501721  0.668022  0.907417  1
  Y  Y5  1  0.002542  0.832409  0.594114  1
  Y  Y6  1  0.497323  0.332455  0.404455  1
  Sc  Sc7  1  0.995531  0.169982  0.096352  1
  Si  Si8  1  0.658660  0.042259  0.547750  1
  Si  Si9  1  0.157874  0.454009  0.954477  1
  Si  Si10  1  0.333786  0.962123  0.048331  1
  Si  Si11  1  0.841428  0.542694  0.451845  1
  Si  Si12  1  0.342213  0.957565  0.451560  1
  Si  Si13  1  0.842936  0.537086  0.048439  1
  Si  Si14  1  0.660356  0.042620  0.954418  1
  Si  Si15  1  0.158970  0.457683  0.547644  1
  Si  Si16  1  0.535349  0.365213  0.750356  1
  Si  Si17  1  0.034869  0.133530  0.750059  1
  Si  Si18  1  0.465608  0.635036  0.249055  1
  Si  Si19  1  0.966383  0.870057  0.246968  1
  Si  Si20  1  0.802790  0.628399  0.751230  1
  Si  Si21  1  0.302021  0.870276  0.750650  1
  Si  Si22  1  0.194617  0.367991  0.247615  1
  Si  Si23  1  0.702064  0.130274  0.247768  1
  Mo  Mo24  1  0.830885  0.335266  0.625653  1
  Mo  Mo25  1  0.330349  0.165396  0.875108  1
  Mo  Mo26  1  0.169633  0.664234  0.124986  1
  Mo  Mo27  1  0.671065  0.835357  0.373772  1
  Mo  Mo28  1  0.169181  0.666512  0.373264  1
  Mo  Mo29  1  0.669556  0.837246  0.124663  1
  Mo  Mo30  1  0.831298  0.332616  0.876263  1
  Mo  Mo31  1  0.331164  0.163868  0.625274  1
  Mo  Mo32  1  0.666054  0.998787  0.750833  1
  Mo  Mo33  1  0.166265  0.499928  0.750424  1
  Mo  Mo34  1  0.333485  0.002958  0.248161  1
  Mo  Mo35  1  0.834549  0.498753  0.248697  1
