# generated using pymatgen
data_SrTaRhF12
_symmetry_space_group_name_H-M   'P 1'
_cell_length_a   12.05483434
_cell_length_b   6.04948323
_cell_length_c   6.06486200
_cell_angle_alpha   57.15772209
_cell_angle_beta   56.68177882
_cell_angle_gamma   56.84909448
_symmetry_Int_Tables_number   1
_chemical_formula_structural   SrTaRhF12
_chemical_formula_sum   'Sr1 Ta1 Rh1 F12'
_cell_volume   290.33680600
_cell_formula_units_Z   1
loop_
 _symmetry_equiv_pos_site_id
 _symmetry_equiv_pos_as_xyz
  1  'x, y, z'
loop_
 _atom_site_type_symbol
 _atom_site_label
 _atom_site_symmetry_multiplicity
 _atom_site_fract_x
 _atom_site_fract_y
 _atom_site_fract_z
 _atom_site_occupancy
  Sr  Sr0  1  0.748104  0.506026  0.497000  1
  Ta  Ta1  1  0.019953  0.983516  0.988992  1
  Rh  Rh2  1  0.488368  0.010862  0.005212  1
  F  F3  1  0.171564  0.113557  0.767464  1
  F  F4  1  0.655451  0.120007  0.787960  1
  F  F5  1  0.057432  0.787186  0.323703  1
  F  F6  1  0.553682  0.789882  0.319165  1
  F  F7  1  0.114090  0.667102  0.883127  1
  F  F8  1  0.604653  0.682767  0.888574  1
  F  F9  1  0.440886  0.211424  0.683731  1
  F  F10  1  0.939351  0.218189  0.687961  1
  F  F11  1  0.331729  0.896197  0.217719  1
  F  F12  1  0.845979  0.878941  0.209356  1
  F  F13  1  0.385757  0.321349  0.121684  1
  F  F14  1  0.893003  0.312995  0.118357  1
