# generated using pymatgen
data_Pa2InF11
_symmetry_space_group_name_H-M   'P 1'
_cell_length_a   9.31497535
_cell_length_b   9.31497308
_cell_length_c   9.31497554
_cell_angle_alpha   124.60280231
_cell_angle_beta   107.22342991
_cell_angle_gamma   97.81745705
_symmetry_Int_Tables_number   1
_chemical_formula_structural   Pa2InF11
_chemical_formula_sum   'Pa4 In2 F22'
_cell_volume   585.96083266
_cell_formula_units_Z   2
loop_
 _symmetry_equiv_pos_site_id
 _symmetry_equiv_pos_as_xyz
  1  'x, y, z'
loop_
 _atom_site_type_symbol
 _atom_site_label
 _atom_site_symmetry_multiplicity
 _atom_site_fract_x
 _atom_site_fract_y
 _atom_site_fract_z
 _atom_site_occupancy
  Pa  Pa0  1  0.679496  0.141066  0.820563  1
  Pa  Pa1  1  0.320504  0.858934  0.179437  1
  Pa  Pa2  1  0.179496  0.358934  0.538431  1
  Pa  Pa3  1  0.820504  0.641066  0.461569  1
  In  In4  1  0.750000  0.750000  0.000000  1
  In  In5  1  0.250000  0.250000  0.000000  1
  F  F6  1  0.500000  0.000000  0.500000  1
  F  F7  1  0.000000  0.500000  0.500000  1
  F  F8  1  0.778655  0.368769  0.147424  1
  F  F9  1  0.221345  0.631231  0.852576  1
  F  F10  1  0.278655  0.131231  0.409886  1
  F  F11  1  0.721345  0.868769  0.590114  1
  F  F12  1  0.700223  0.370633  0.826228  1
  F  F13  1  0.544406  0.873995  0.173772  1
  F  F14  1  0.955594  0.129367  0.329590  1
  F  F15  1  0.799777  0.626005  0.670410  1
  F  F16  1  0.299777  0.629367  0.173772  1
  F  F17  1  0.455594  0.126005  0.826228  1
  F  F18  1  0.044406  0.870633  0.670410  1
  F  F19  1  0.200223  0.373995  0.329590  1
  F  F20  1  0.928337  0.227768  0.900031  1
  F  F21  1  0.327736  0.028306  0.099969  1
  F  F22  1  0.172264  0.272232  0.700569  1
  F  F23  1  0.571663  0.471694  0.299431  1
  F  F24  1  0.071663  0.772232  0.099969  1
  F  F25  1  0.672264  0.971694  0.900031  1
  F  F26  1  0.827736  0.727768  0.299431  1
  F  F27  1  0.428337  0.528306  0.700569  1
