# generated using pymatgen
data_LuAl2AgPd4
_symmetry_space_group_name_H-M   'P 1'
_cell_length_a   7.81602054
_cell_length_b   7.81602063
_cell_length_c   7.81602048
_cell_angle_alpha   148.62183240
_cell_angle_beta   148.62183256
_cell_angle_gamma   44.96824815
_symmetry_Int_Tables_number   1
_chemical_formula_structural   LuAl2AgPd4
_chemical_formula_sum   'Lu1 Al2 Ag1 Pd4'
_cell_volume   129.04770986
_cell_formula_units_Z   1
loop_
 _symmetry_equiv_pos_site_id
 _symmetry_equiv_pos_as_xyz
  1  'x, y, z'
loop_
 _atom_site_type_symbol
 _atom_site_label
 _atom_site_symmetry_multiplicity
 _atom_site_fract_x
 _atom_site_fract_y
 _atom_site_fract_z
 _atom_site_occupancy
  Lu  Lu0  1  0.000000  0.000000  0.000000  1
  Al  Al1  1  0.253504  0.253504  0.000000  1
  Al  Al2  1  0.746496  0.746496  0.000000  1
  Ag  Ag3  1  0.500000  0.500000  0.000000  1
  Pd  Pd4  1  0.642756  0.142756  0.500000  1
  Pd  Pd5  1  0.357244  0.857244  0.500000  1
  Pd  Pd6  1  0.142756  0.642756  0.500000  1
  Pd  Pd7  1  0.857244  0.357244  0.500000  1
