# generated using pymatgen
data_Ho4Lu12MgCo4Ag3
_symmetry_space_group_name_H-M   'P 1'
_cell_length_a   9.28750497
_cell_length_b   9.28738933
_cell_length_c   9.28738781
_cell_angle_alpha   59.95766199
_cell_angle_beta   59.93175480
_cell_angle_gamma   59.93175218
_symmetry_Int_Tables_number   1
_chemical_formula_structural   Ho4Lu12MgCo4Ag3
_chemical_formula_sum   'Ho4 Lu12 Mg1 Co4 Ag3'
_cell_volume   565.69672159
_cell_formula_units_Z   1
loop_
 _symmetry_equiv_pos_site_id
 _symmetry_equiv_pos_as_xyz
  1  'x, y, z'
loop_
 _atom_site_type_symbol
 _atom_site_label
 _atom_site_symmetry_multiplicity
 _atom_site_fract_x
 _atom_site_fract_y
 _atom_site_fract_z
 _atom_site_occupancy
  Ho  Ho0  1  0.561728  0.937827  0.562676  1
  Ho  Ho1  1  0.936130  0.562173  0.939403  1
  Ho  Ho2  1  0.561728  0.562676  0.937827  1
  Ho  Ho3  1  0.936130  0.939403  0.562173  1
  Lu  Lu4  1  0.345628  0.345664  0.345664  1
  Lu  Lu5  1  0.346601  0.344773  0.963005  1
  Lu  Lu6  1  0.346601  0.963005  0.344773  1
  Lu  Lu7  1  0.952199  0.349577  0.349577  1
  Lu  Lu8  1  0.811232  0.187827  0.187827  1
  Lu  Lu9  1  0.184901  0.814666  0.814666  1
  Lu  Lu10  1  0.185320  0.814281  0.186049  1
  Lu  Lu11  1  0.810721  0.188119  0.812847  1
  Lu  Lu12  1  0.185320  0.186049  0.814281  1
  Lu  Lu13  1  0.810721  0.812847  0.188119  1
  Lu  Lu14  1  0.936551  0.561149  0.561149  1
  Lu  Lu15  1  0.560800  0.938700  0.938700  1
  Mg  Mg16  1  0.286692  0.571098  0.571098  1
  Co  Co17  1  0.138779  0.142627  0.142627  1
  Co  Co18  1  0.138429  0.143167  0.575882  1
  Co  Co19  1  0.138429  0.575882  0.143167  1
  Co  Co20  1  0.575599  0.141347  0.141347  1
  Ag  Ag21  1  0.583922  0.582359  0.582359  1
  Ag  Ag22  1  0.582919  0.583297  0.251492  1
  Ag  Ag23  1  0.582919  0.251492  0.583297  1
