# generated using pymatgen
data_TbEr2Hf(Al8Pt3)3
_symmetry_space_group_name_H-M   'P 1'
_cell_length_a   7.51474608
_cell_length_b   7.51196446
_cell_length_c   13.09222922
_cell_angle_alpha   84.51881160
_cell_angle_beta   100.96764675
_cell_angle_gamma   119.85465968
_symmetry_Int_Tables_number   1
_chemical_formula_structural   TbEr2Hf(Al8Pt3)3
_chemical_formula_sum   'Tb1 Er2 Hf1 Al24 Pt9'
_cell_volume   629.27463535
_cell_formula_units_Z   1
loop_
 _symmetry_equiv_pos_site_id
 _symmetry_equiv_pos_as_xyz
  1  'x, y, z'
loop_
 _atom_site_type_symbol
 _atom_site_label
 _atom_site_symmetry_multiplicity
 _atom_site_fract_x
 _atom_site_fract_y
 _atom_site_fract_z
 _atom_site_occupancy
  Tb  Tb0  1  0.267542  0.001008  0.808437  1
  Er  Er1  1  0.061820  0.668120  0.192504  1
  Er  Er2  1  0.937952  0.331703  0.807828  1
  Hf  Hf3  1  0.733159  0.999537  0.192588  1
  Al  Al4  1  0.806924  0.869084  0.815590  1
  Al  Al5  1  0.187480  0.130899  0.184661  1
  Al  Al6  1  0.981333  0.665535  0.944670  1
  Al  Al7  1  0.015575  0.331093  0.058745  1
  Al  Al8  1  0.398329  0.663460  0.816896  1
  Al  Al9  1  0.601814  0.331032  0.183609  1
  Al  Al10  1  0.882684  0.664980  0.670808  1
  Al  Al11  1  0.114578  0.332799  0.325955  1
  Al  Al12  1  0.603227  0.457993  0.815995  1
  Al  Al13  1  0.402376  0.547611  0.184010  1
  Al  Al14  1  0.230026  0.340070  0.669495  1
  Al  Al15  1  0.768639  0.662020  0.327110  1
  Al  Al16  1  0.852755  0.332861  0.558609  1
  Al  Al17  1  0.185693  0.999768  0.558489  1
  Al  Al18  1  0.813197  0.000351  0.439637  1
  Al  Al19  1  0.355984  0.998270  0.059029  1
  Al  Al20  1  0.648946  0.001061  0.946114  1
  Al  Al21  1  0.556669  0.993803  0.670913  1
  Al  Al22  1  0.444881  0.006831  0.325630  1
  Al  Al23  1  0.521269  0.667570  0.561748  1
  Al  Al24  1  0.478894  0.332707  0.437357  1
  Al  Al25  1  0.685001  0.670946  0.050693  1
  Al  Al26  1  0.316681  0.332539  0.953232  1
  Al  Al27  1  0.146896  0.666683  0.440843  1
  Pt  Pt28  1  0.327916  0.671167  0.001018  1
  Pt  Pt29  1  0.545947  0.324741  0.636752  1
  Pt  Pt30  1  0.454175  0.676824  0.361662  1
  Pt  Pt31  1  0.887803  0.008540  0.638552  1
  Pt  Pt32  1  0.110189  0.990188  0.359995  1
  Pt  Pt33  1  0.672177  0.328745  0.000930  1
  Pt  Pt34  1  0.204095  0.666723  0.638668  1
  Pt  Pt35  1  0.796938  0.333409  0.359974  1
  Pt  Pt36  1  0.000433  0.999330  0.001254  1
