# generated using pymatgen
data_PrHo4In2(HgPd)2
_symmetry_space_group_name_H-M   'P 1'
_cell_length_a   3.65049100
_cell_length_b   8.01928900
_cell_length_c   18.48613300
_cell_angle_alpha   90.00000000
_cell_angle_beta   90.00000000
_cell_angle_gamma   90.00000000
_symmetry_Int_Tables_number   1
_chemical_formula_structural   PrHo4In2(HgPd)2
_chemical_formula_sum   'Pr2 Ho8 In4 Hg4 Pd4'
_cell_volume   541.16938563
_cell_formula_units_Z   2
loop_
 _symmetry_equiv_pos_site_id
 _symmetry_equiv_pos_as_xyz
  1  'x, y, z'
loop_
 _atom_site_type_symbol
 _atom_site_label
 _atom_site_symmetry_multiplicity
 _atom_site_fract_x
 _atom_site_fract_y
 _atom_site_fract_z
 _atom_site_occupancy
  Pr  Pr0  1  0.000000  0.500000  0.500000  1
  Pr  Pr1  1  0.000000  0.000000  0.000000  1
  Ho  Ho2  1  0.000000  0.743878  0.285968  1
  Ho  Ho3  1  0.000000  0.256122  0.714032  1
  Ho  Ho4  1  0.000000  0.756122  0.785968  1
  Ho  Ho5  1  0.000000  0.243878  0.214032  1
  Ho  Ho6  1  0.000000  0.613757  0.084533  1
  Ho  Ho7  1  0.000000  0.386243  0.915467  1
  Ho  Ho8  1  0.000000  0.886243  0.584533  1
  Ho  Ho9  1  0.000000  0.113757  0.415467  1
  In  In10  1  0.500000  0.582852  0.653889  1
  In  In11  1  0.500000  0.417148  0.346111  1
  In  In12  1  0.500000  0.917148  0.153889  1
  In  In13  1  0.500000  0.082852  0.846111  1
  Hg  Hg14  1  0.500000  0.703016  0.931182  1
  Hg  Hg15  1  0.500000  0.296984  0.068818  1
  Hg  Hg16  1  0.500000  0.796984  0.431182  1
  Hg  Hg17  1  0.500000  0.203016  0.568818  1
  Pd  Pd18  1  0.500000  0.535110  0.197754  1
  Pd  Pd19  1  0.500000  0.464890  0.802246  1
  Pd  Pd20  1  0.500000  0.964890  0.697754  1
  Pd  Pd21  1  0.500000  0.035110  0.302246  1
