# generated using pymatgen
data_Cs6Tl3RhCl18
_symmetry_space_group_name_H-M   'P 1'
_cell_length_a   7.54378100
_cell_length_b   7.54378026
_cell_length_c   19.10417100
_cell_angle_alpha   90.00000000
_cell_angle_beta   90.00000000
_cell_angle_gamma   119.99999008
_symmetry_Int_Tables_number   1
_chemical_formula_structural   Cs6Tl3RhCl18
_chemical_formula_sum   'Cs6 Tl3 Rh1 Cl18'
_cell_volume   941.53609436
_cell_formula_units_Z   1
loop_
 _symmetry_equiv_pos_site_id
 _symmetry_equiv_pos_as_xyz
  1  'x, y, z'
loop_
 _atom_site_type_symbol
 _atom_site_label
 _atom_site_symmetry_multiplicity
 _atom_site_fract_x
 _atom_site_fract_y
 _atom_site_fract_z
 _atom_site_occupancy
  Cs  Cs0  1  0.333333  0.666667  0.071543  1
  Cs  Cs1  1  0.666667  0.333333  0.931189  1
  Cs  Cs2  1  0.666667  0.333333  0.575221  1
  Cs  Cs3  1  0.333333  0.666667  0.435267  1
  Cs  Cs4  1  0.000000  0.000000  0.251199  1
  Cs  Cs5  1  0.000000  0.000000  0.743080  1
  Tl  Tl6  1  0.666667  0.333333  0.348148  1
  Tl  Tl7  1  0.666667  0.333333  0.154612  1
  Tl  Tl8  1  0.333333  0.666667  0.844724  1
  Rh  Rh9  1  0.333333  0.666667  0.663477  1
  Cl  Cl10  1  0.185301  0.370602  0.594347  1
  Cl  Cl11  1  0.835102  0.670205  0.413579  1
  Cl  Cl12  1  0.629398  0.814699  0.594347  1
  Cl  Cl13  1  0.834236  0.668471  0.087046  1
  Cl  Cl14  1  0.329795  0.164898  0.413579  1
  Cl  Cl15  1  0.163869  0.327735  0.908682  1
  Cl  Cl16  1  0.185301  0.814699  0.594347  1
  Cl  Cl17  1  0.331529  0.165764  0.087046  1
  Cl  Cl18  1  0.835102  0.164898  0.413579  1
  Cl  Cl19  1  0.672265  0.836131  0.908682  1
  Cl  Cl20  1  0.834236  0.165764  0.087046  1
  Cl  Cl21  1  0.163869  0.836131  0.908682  1
  Cl  Cl22  1  0.509906  0.019811  0.250236  1
  Cl  Cl23  1  0.480066  0.960129  0.739958  1
  Cl  Cl24  1  0.980189  0.490094  0.250236  1
  Cl  Cl25  1  0.039871  0.519934  0.739958  1
  Cl  Cl26  1  0.509906  0.490094  0.250236  1
  Cl  Cl27  1  0.480066  0.519934  0.739958  1
