# generated using pymatgen
data_Hf4Al2CrRe2Mo3
_symmetry_space_group_name_H-M   'P 1'
_cell_length_a   5.19378913
_cell_length_b   5.19378983
_cell_length_c   8.72531300
_cell_angle_alpha   90.00000000
_cell_angle_beta   90.00000000
_cell_angle_gamma   119.15217902
_symmetry_Int_Tables_number   1
_chemical_formula_structural   Hf4Al2CrRe2Mo3
_chemical_formula_sum   'Hf4 Al2 Cr1 Re2 Mo3'
_cell_volume   205.55477080
_cell_formula_units_Z   1
loop_
 _symmetry_equiv_pos_site_id
 _symmetry_equiv_pos_as_xyz
  1  'x, y, z'
loop_
 _atom_site_type_symbol
 _atom_site_label
 _atom_site_symmetry_multiplicity
 _atom_site_fract_x
 _atom_site_fract_y
 _atom_site_fract_z
 _atom_site_occupancy
  Hf  Hf0  1  0.332950  0.667050  0.178168  1
  Hf  Hf1  1  0.666828  0.333172  0.307661  1
  Hf  Hf2  1  0.666828  0.333172  0.692339  1
  Hf  Hf3  1  0.332950  0.667050  0.821832  1
  Al  Al4  1  0.997321  0.002679  0.243490  1
  Al  Al5  1  0.997321  0.002679  0.756510  1
  Cr  Cr6  1  0.830099  0.169901  0.000000  1
  Re  Re7  1  0.831785  0.656572  0.000000  1
  Re  Re8  1  0.343428  0.168215  0.000000  1
  Mo  Mo9  1  0.169973  0.339388  0.500000  1
  Mo  Mo10  1  0.660612  0.830027  0.500000  1
  Mo  Mo11  1  0.169996  0.830004  0.500000  1
