# generated using pymatgen
data_La6Tb3PtRh5
_symmetry_space_group_name_H-M   'P 1'
_cell_length_a   7.67592000
_cell_length_b   7.68936910
_cell_length_c   7.67480952
_cell_angle_alpha   70.50202959
_cell_angle_beta   70.59023592
_cell_angle_gamma   70.74526487
_symmetry_Int_Tables_number   1
_chemical_formula_structural   La6Tb3PtRh5
_chemical_formula_sum   'La6 Tb3 Pt1 Rh5'
_cell_volume   390.35191485
_cell_formula_units_Z   1
loop_
 _symmetry_equiv_pos_site_id
 _symmetry_equiv_pos_as_xyz
  1  'x, y, z'
loop_
 _atom_site_type_symbol
 _atom_site_label
 _atom_site_symmetry_multiplicity
 _atom_site_fract_x
 _atom_site_fract_y
 _atom_site_fract_z
 _atom_site_occupancy
  La  La0  1  0.331320  0.610788  0.839889  1
  La  La1  1  0.837823  0.327411  0.606376  1
  La  La2  1  0.608784  0.839224  0.328258  1
  La  La3  1  0.668302  0.390566  0.162518  1
  La  La4  1  0.159994  0.672450  0.389839  1
  La  La5  1  0.395318  0.155303  0.670017  1
  Tb  Tb6  1  0.999815  0.998017  0.000360  1
  Tb  Tb7  1  0.801697  0.805974  0.802769  1
  Tb  Tb8  1  0.198019  0.196774  0.198764  1
  Pt  Pt9  1  0.037855  0.409733  0.841546  1
  Rh  Rh10  1  0.160209  0.960294  0.592842  1
  Rh  Rh11  1  0.593567  0.160174  0.959869  1
  Rh  Rh12  1  0.960549  0.593106  0.160654  1
  Rh  Rh13  1  0.839986  0.039492  0.407289  1
  Rh  Rh14  1  0.406760  0.840695  0.039011  1
