# generated using pymatgen
data_Cs4TbPaI12
_symmetry_space_group_name_H-M   'P 1'
_cell_length_a   8.57881000
_cell_length_b   8.57881000
_cell_length_c   12.76776900
_cell_angle_alpha   90.00000000
_cell_angle_beta   90.00000000
_cell_angle_gamma   90.00000000
_symmetry_Int_Tables_number   1
_chemical_formula_structural   Cs4TbPaI12
_chemical_formula_sum   'Cs4 Tb1 Pa1 I12'
_cell_volume   939.65648494
_cell_formula_units_Z   1
loop_
 _symmetry_equiv_pos_site_id
 _symmetry_equiv_pos_as_xyz
  1  'x, y, z'
loop_
 _atom_site_type_symbol
 _atom_site_label
 _atom_site_symmetry_multiplicity
 _atom_site_fract_x
 _atom_site_fract_y
 _atom_site_fract_z
 _atom_site_occupancy
  Cs  Cs0  1  0.500000  0.000000  0.795995  1
  Cs  Cs1  1  0.500000  0.000000  0.204005  1
  Cs  Cs2  1  0.000000  0.500000  0.204005  1
  Cs  Cs3  1  0.000000  0.500000  0.795995  1
  Tb  Tb4  1  0.000000  0.000000  0.000000  1
  Pa  Pa5  1  0.500000  0.500000  0.500000  1
  I  I6  1  0.748293  0.251442  0.000000  1
  I  I7  1  0.251707  0.748558  0.000000  1
  I  I8  1  0.500000  0.500000  0.267084  1
  I  I9  1  0.319659  0.207071  0.500000  1
  I  I10  1  0.251442  0.251707  0.000000  1
  I  I11  1  0.792929  0.319659  0.500000  1
  I  I12  1  0.000000  0.000000  0.239448  1
  I  I13  1  0.680341  0.792929  0.500000  1
  I  I14  1  0.207071  0.680341  0.500000  1
  I  I15  1  0.500000  0.500000  0.732916  1
  I  I16  1  0.748558  0.748293  0.000000  1
  I  I17  1  0.000000  0.000000  0.760552  1
