# generated using pymatgen
data_YCo4P3Rh
_symmetry_space_group_name_H-M   'P 1'
_cell_length_a   3.70415700
_cell_length_b   10.42975100
_cell_length_c   11.83994800
_cell_angle_alpha   90.00000000
_cell_angle_beta   90.00000000
_cell_angle_gamma   90.00000000
_symmetry_Int_Tables_number   1
_chemical_formula_structural   YCo4P3Rh
_chemical_formula_sum   'Y4 Co16 P12 Rh4'
_cell_volume   457.41786353
_cell_formula_units_Z   4
loop_
 _symmetry_equiv_pos_site_id
 _symmetry_equiv_pos_as_xyz
  1  'x, y, z'
loop_
 _atom_site_type_symbol
 _atom_site_label
 _atom_site_symmetry_multiplicity
 _atom_site_fract_x
 _atom_site_fract_y
 _atom_site_fract_z
 _atom_site_occupancy
  Y  Y0  1  0.250000  0.915439  0.203334  1
  Y  Y1  1  0.750000  0.084561  0.796666  1
  Y  Y2  1  0.750000  0.415439  0.296666  1
  Y  Y3  1  0.250000  0.584561  0.703334  1
  Co  Co4  1  0.250000  0.091148  0.988169  1
  Co  Co5  1  0.750000  0.908852  0.011831  1
  Co  Co6  1  0.750000  0.591148  0.511831  1
  Co  Co7  1  0.250000  0.408852  0.488169  1
  Co  Co8  1  0.250000  0.278125  0.675819  1
  Co  Co9  1  0.750000  0.721875  0.324181  1
  Co  Co10  1  0.750000  0.778125  0.824181  1
  Co  Co11  1  0.250000  0.221875  0.175819  1
  Co  Co12  1  0.250000  0.615175  0.202137  1
  Co  Co13  1  0.750000  0.384825  0.797863  1
  Co  Co14  1  0.750000  0.115175  0.297863  1
  Co  Co15  1  0.250000  0.884825  0.702137  1
  Co  Co16  1  0.250000  0.035170  0.430391  1
  Co  Co17  1  0.750000  0.964830  0.569609  1
  Co  Co18  1  0.750000  0.535170  0.069609  1
  Co  Co19  1  0.250000  0.464830  0.930391  1
  P  P20  1  0.250000  0.078023  0.612613  1
  P  P21  1  0.750000  0.921977  0.387387  1
  P  P22  1  0.750000  0.578023  0.887387  1
  P  P23  1  0.250000  0.421977  0.112613  1
  P  P24  1  0.250000  0.228371  0.365013  1
  P  P25  1  0.750000  0.771629  0.634987  1
  P  P26  1  0.750000  0.728371  0.134987  1
  P  P27  1  0.250000  0.271629  0.865013  1
  P  P28  1  0.250000  0.904386  0.889873  1
  P  P29  1  0.750000  0.095614  0.110127  1
  P  P30  1  0.750000  0.404386  0.610127  1
  P  P31  1  0.250000  0.595614  0.389873  1
  Rh  Rh32  1  0.250000  0.783407  0.491428  1
  Rh  Rh33  1  0.750000  0.216593  0.508572  1
  Rh  Rh34  1  0.750000  0.283407  0.008572  1
  Rh  Rh35  1  0.250000  0.716593  0.991428  1
