# generated using pymatgen
data_NbAlI8
_symmetry_space_group_name_H-M   'P 1'
_cell_length_a   11.27406780
_cell_length_b   11.27406741
_cell_length_c   9.98329800
_cell_angle_alpha   90.00000000
_cell_angle_beta   90.00000000
_cell_angle_gamma   128.22224537
_symmetry_Int_Tables_number   1
_chemical_formula_structural   NbAlI8
_chemical_formula_sum   'Nb2 Al2 I16'
_cell_volume   996.88722272
_cell_formula_units_Z   2
loop_
 _symmetry_equiv_pos_site_id
 _symmetry_equiv_pos_as_xyz
  1  'x, y, z'
loop_
 _atom_site_type_symbol
 _atom_site_label
 _atom_site_symmetry_multiplicity
 _atom_site_fract_x
 _atom_site_fract_y
 _atom_site_fract_z
 _atom_site_occupancy
  Nb  Nb0  1  0.610580  0.389420  0.250000  1
  Nb  Nb1  1  0.389420  0.610580  0.750000  1
  Al  Al2  1  0.812426  0.187574  0.250000  1
  Al  Al3  1  0.187574  0.812426  0.750000  1
  I  I4  1  0.526251  0.069923  0.250000  1
  I  I5  1  0.069923  0.526251  0.750000  1
  I  I6  1  0.473749  0.930077  0.750000  1
  I  I7  1  0.930077  0.473749  0.250000  1
  I  I8  1  0.631118  0.368882  0.982434  1
  I  I9  1  0.368882  0.631118  0.017566  1
  I  I10  1  0.631118  0.368882  0.517566  1
  I  I11  1  0.368882  0.631118  0.482434  1
  I  I12  1  0.319251  0.259957  0.250000  1
  I  I13  1  0.259957  0.319251  0.750000  1
  I  I14  1  0.680749  0.740043  0.750000  1
  I  I15  1  0.740043  0.680749  0.250000  1
  I  I16  1  0.880710  0.119290  0.461423  1
  I  I17  1  0.119290  0.880710  0.538577  1
  I  I18  1  0.880710  0.119290  0.038577  1
  I  I19  1  0.119290  0.880710  0.961423  1
