# generated using pymatgen
data_CeDyReB6
_symmetry_space_group_name_H-M   'P 1'
_cell_length_a   3.72653200
_cell_length_b   9.22067300
_cell_length_c   11.59816900
_cell_angle_alpha   90.00000000
_cell_angle_beta   90.00000000
_cell_angle_gamma   90.00000000
_symmetry_Int_Tables_number   1
_chemical_formula_structural   CeDyReB6
_chemical_formula_sum   'Ce4 Dy4 Re4 B24'
_cell_volume   398.52622752
_cell_formula_units_Z   4
loop_
 _symmetry_equiv_pos_site_id
 _symmetry_equiv_pos_as_xyz
  1  'x, y, z'
loop_
 _atom_site_type_symbol
 _atom_site_label
 _atom_site_symmetry_multiplicity
 _atom_site_fract_x
 _atom_site_fract_y
 _atom_site_fract_z
 _atom_site_occupancy
  Ce  Ce0  1  0.000000  0.323177  0.414315  1
  Ce  Ce1  1  0.000000  0.676823  0.585685  1
  Ce  Ce2  1  0.000000  0.823177  0.085685  1
  Ce  Ce3  1  0.000000  0.176823  0.914315  1
  Dy  Dy4  1  0.000000  0.944343  0.372592  1
  Dy  Dy5  1  0.000000  0.055657  0.627408  1
  Dy  Dy6  1  0.000000  0.444343  0.127408  1
  Dy  Dy7  1  0.000000  0.555657  0.872592  1
  Re  Re8  1  0.000000  0.638408  0.321283  1
  Re  Re9  1  0.000000  0.361592  0.678717  1
  Re  Re10  1  0.000000  0.138408  0.178717  1
  Re  Re11  1  0.000000  0.861592  0.821283  1
  B  B12  1  0.500000  0.554465  0.431624  1
  B  B13  1  0.500000  0.445535  0.568376  1
  B  B14  1  0.500000  0.054465  0.068376  1
  B  B15  1  0.500000  0.945535  0.931624  1
  B  B16  1  0.500000  0.748216  0.418607  1
  B  B17  1  0.500000  0.251784  0.581393  1
  B  B18  1  0.500000  0.248216  0.081393  1
  B  B19  1  0.500000  0.751784  0.918607  1
  B  B20  1  0.500000  0.791260  0.266240  1
  B  B21  1  0.500000  0.208740  0.733760  1
  B  B22  1  0.500000  0.291260  0.233760  1
  B  B23  1  0.500000  0.708740  0.766240  1
  B  B24  1  0.500000  0.631921  0.186210  1
  B  B25  1  0.500000  0.368079  0.813790  1
  B  B26  1  0.500000  0.131921  0.313790  1
  B  B27  1  0.500000  0.868079  0.686210  1
  B  B28  1  0.500000  0.984156  0.212782  1
  B  B29  1  0.500000  0.015844  0.787218  1
  B  B30  1  0.500000  0.484156  0.287218  1
  B  B31  1  0.500000  0.515844  0.712782  1
  B  B32  1  0.500000  0.607552  0.029774  1
  B  B33  1  0.500000  0.392448  0.970226  1
  B  B34  1  0.500000  0.107552  0.470226  1
  B  B35  1  0.500000  0.892448  0.529774  1
