# generated using pymatgen
data_Er3Be2Co7
_symmetry_space_group_name_H-M   'P 1'
_cell_length_a   4.94431500
_cell_length_b   4.94431527
_cell_length_c   15.21970400
_cell_angle_alpha   90.00000000
_cell_angle_beta   90.00000000
_cell_angle_gamma   119.99999147
_symmetry_Int_Tables_number   1
_chemical_formula_structural   Er3Be2Co7
_chemical_formula_sum   'Er6 Be4 Co14'
_cell_volume   322.21752882
_cell_formula_units_Z   2
loop_
 _symmetry_equiv_pos_site_id
 _symmetry_equiv_pos_as_xyz
  1  'x, y, z'
loop_
 _atom_site_type_symbol
 _atom_site_label
 _atom_site_symmetry_multiplicity
 _atom_site_fract_x
 _atom_site_fract_y
 _atom_site_fract_z
 _atom_site_occupancy
  Er  Er0  1  0.333333  0.666667  0.539188  1
  Er  Er1  1  0.666667  0.333333  0.039188  1
  Er  Er2  1  0.666667  0.333333  0.460812  1
  Er  Er3  1  0.333333  0.666667  0.960812  1
  Er  Er4  1  0.333333  0.666667  0.750000  1
  Er  Er5  1  0.666667  0.333333  0.250000  1
  Be  Be6  1  0.333333  0.666667  0.250000  1
  Be  Be7  1  0.666667  0.333333  0.750000  1
  Be  Be8  1  0.000000  0.000000  0.250000  1
  Be  Be9  1  0.000000  0.000000  0.750000  1
  Co  Co10  1  0.000000  0.000000  0.000000  1
  Co  Co11  1  0.000000  0.000000  0.500000  1
  Co  Co12  1  0.166325  0.332649  0.134465  1
  Co  Co13  1  0.833675  0.667351  0.634465  1
  Co  Co14  1  0.667351  0.833675  0.134465  1
  Co  Co15  1  0.166325  0.833675  0.134465  1
  Co  Co16  1  0.833675  0.166325  0.634465  1
  Co  Co17  1  0.332649  0.166325  0.634465  1
  Co  Co18  1  0.833675  0.667351  0.865535  1
  Co  Co19  1  0.833675  0.166325  0.865535  1
  Co  Co20  1  0.332649  0.166325  0.865535  1
  Co  Co21  1  0.667351  0.833675  0.365535  1
  Co  Co22  1  0.166325  0.833675  0.365535  1
  Co  Co23  1  0.166325  0.332649  0.365535  1
