# generated using pymatgen
data_Dy20NiBi8Os3
_symmetry_space_group_name_H-M   'P 1'
_cell_length_a   7.98704875
_cell_length_b   9.01058700
_cell_length_c   12.44788301
_cell_angle_alpha   90.00000000
_cell_angle_beta   89.68792983
_cell_angle_gamma   90.00000000
_symmetry_Int_Tables_number   1
_chemical_formula_structural   Dy20NiBi8Os3
_chemical_formula_sum   'Dy20 Ni1 Bi8 Os3'
_cell_volume   895.83592676
_cell_formula_units_Z   1
loop_
 _symmetry_equiv_pos_site_id
 _symmetry_equiv_pos_as_xyz
  1  'x, y, z'
loop_
 _atom_site_type_symbol
 _atom_site_label
 _atom_site_symmetry_multiplicity
 _atom_site_fract_x
 _atom_site_fract_y
 _atom_site_fract_z
 _atom_site_occupancy
  Dy  Dy0  1  0.341881  0.750000  0.704772  1
  Dy  Dy1  1  0.658495  0.250000  0.292528  1
  Dy  Dy2  1  0.842570  0.250000  0.791223  1
  Dy  Dy3  1  0.156011  0.750000  0.206372  1
  Dy  Dy4  1  0.878512  0.750000  0.804489  1
  Dy  Dy5  1  0.119654  0.250000  0.194618  1
  Dy  Dy6  1  0.378280  0.250000  0.693189  1
  Dy  Dy7  1  0.620197  0.750000  0.309356  1
  Dy  Dy8  1  0.677016  0.539740  0.564746  1
  Dy  Dy9  1  0.324220  0.457075  0.436335  1
  Dy  Dy10  1  0.174581  0.458484  0.936228  1
  Dy  Dy11  1  0.324220  0.042925  0.436335  1
  Dy  Dy12  1  0.824314  0.543449  0.064042  1
  Dy  Dy13  1  0.677016  0.960260  0.564746  1
  Dy  Dy14  1  0.824314  0.956551  0.064042  1
  Dy  Dy15  1  0.174581  0.041516  0.936228  1
  Dy  Dy16  1  0.051833  0.750000  0.497375  1
  Dy  Dy17  1  0.946716  0.250000  0.502359  1
  Dy  Dy18  1  0.558513  0.250000  0.003563  1
  Dy  Dy19  1  0.442591  0.750000  0.996379  1
  Ni  Ni20  1  0.429057  0.750000  0.490463  1
  Bi  Bi21  1  0.569740  0.508734  0.827220  1
  Bi  Bi22  1  0.429514  0.491808  0.173435  1
  Bi  Bi23  1  0.072329  0.491688  0.671680  1
  Bi  Bi24  1  0.429514  0.008192  0.173435  1
  Bi  Bi25  1  0.929255  0.509286  0.328388  1
  Bi  Bi26  1  0.569740  0.991266  0.827220  1
  Bi  Bi27  1  0.929255  0.990714  0.328388  1
  Bi  Bi28  1  0.072329  0.008312  0.671680  1
  Os  Os29  1  0.075905  0.750000  0.988278  1
  Os  Os30  1  0.923532  0.250000  0.010468  1
  Os  Os31  1  0.574317  0.250000  0.510425  1
