# generated using pymatgen
data_Ho3Er2Pb3O
_symmetry_space_group_name_H-M   'P 1'
_cell_length_a   9.05743141
_cell_length_b   9.05410720
_cell_length_c   9.05754863
_cell_angle_alpha   125.67560795
_cell_angle_beta   125.68522578
_cell_angle_gamma   80.37918549
_symmetry_Int_Tables_number   1
_chemical_formula_structural   Ho3Er2Pb3O
_chemical_formula_sum   'Ho6 Er4 Pb6 O2'
_cell_volume   472.92974220
_cell_formula_units_Z   2
loop_
 _symmetry_equiv_pos_site_id
 _symmetry_equiv_pos_as_xyz
  1  'x, y, z'
loop_
 _atom_site_type_symbol
 _atom_site_label
 _atom_site_symmetry_multiplicity
 _atom_site_fract_x
 _atom_site_fract_y
 _atom_site_fract_z
 _atom_site_occupancy
  Ho  Ho0  1  0.998292  0.199378  0.500010  1
  Ho  Ho1  1  0.800620  0.300692  0.798941  1
  Ho  Ho2  1  0.498244  0.998246  0.798747  1
  Ho  Ho3  1  0.501708  0.001783  0.201193  1
  Ho  Ho4  1  0.500018  0.500071  0.000086  1
  Ho  Ho5  1  0.000016  0.999933  0.999950  1
  Er  Er6  1  0.002164  0.800093  0.499915  1
  Er  Er7  1  0.199839  0.699847  0.202095  1
  Er  Er8  1  0.699731  0.497832  0.500013  1
  Er  Er9  1  0.300237  0.502139  0.499928  1
  Pb  Pb10  1  0.851421  0.351658  0.202894  1
  Pb  Pb11  1  0.148579  0.648764  0.797577  1
  Pb  Pb12  1  0.351056  0.149010  0.499800  1
  Pb  Pb13  1  0.750085  0.749675  0.999737  1
  Pb  Pb14  1  0.648999  0.850503  0.499756  1
  Pb  Pb15  1  0.250066  0.250368  0.000437  1
  O  O16  1  0.749783  0.250862  0.500007  1
  O  O17  1  0.249143  0.749145  0.498914  1
