# generated using pymatgen
data_Y2Al9Co2Cu
_symmetry_space_group_name_H-M   'P 1'
_cell_length_a   7.42662039
_cell_length_b   7.42662022
_cell_length_c   9.31123300
_cell_angle_alpha   90.00000000
_cell_angle_beta   90.00000000
_cell_angle_gamma   119.42377019
_symmetry_Int_Tables_number   1
_chemical_formula_structural   Y2Al9Co2Cu
_chemical_formula_sum   'Y4 Al18 Co4 Cu2'
_cell_volume   447.31433330
_cell_formula_units_Z   2
loop_
 _symmetry_equiv_pos_site_id
 _symmetry_equiv_pos_as_xyz
  1  'x, y, z'
loop_
 _atom_site_type_symbol
 _atom_site_label
 _atom_site_symmetry_multiplicity
 _atom_site_fract_x
 _atom_site_fract_y
 _atom_site_fract_z
 _atom_site_occupancy
  Y  Y0  1  0.992885  0.668207  0.250328  1
  Y  Y1  1  0.007115  0.331793  0.750328  1
  Y  Y2  1  0.668207  0.992885  0.249672  1
  Y  Y3  1  0.331793  0.007115  0.749672  1
  Al  Al4  1  0.121603  0.121603  0.250000  1
  Al  Al5  1  0.878397  0.878397  0.750000  1
  Al  Al6  1  0.331183  0.326354  0.546328  1
  Al  Al7  1  0.668817  0.673646  0.046328  1
  Al  Al8  1  0.326354  0.331183  0.953672  1
  Al  Al9  1  0.673646  0.668817  0.453672  1
  Al  Al10  1  0.341093  0.550689  0.242560  1
  Al  Al11  1  0.658907  0.449311  0.742560  1
  Al  Al12  1  0.550689  0.341093  0.257440  1
  Al  Al13  1  0.449311  0.658907  0.757440  1
  Al  Al14  1  0.004718  0.334491  0.072096  1
  Al  Al15  1  0.995282  0.665509  0.572096  1
  Al  Al16  1  0.334491  0.004718  0.427904  1
  Al  Al17  1  0.665509  0.995282  0.927904  1
  Al  Al18  1  0.009311  0.672958  0.927213  1
  Al  Al19  1  0.990689  0.327042  0.427213  1
  Al  Al20  1  0.672958  0.009311  0.572787  1
  Al  Al21  1  0.327042  0.990689  0.072787  1
  Co  Co22  1  0.999846  0.000154  0.000000  1
  Co  Co23  1  0.000154  0.999846  0.500000  1
  Co  Co24  1  0.329346  0.670654  0.000000  1
  Co  Co25  1  0.670654  0.329346  0.500000  1
  Cu  Cu26  1  0.671779  0.328221  0.000000  1
  Cu  Cu27  1  0.328221  0.671779  0.500000  1
