# generated using pymatgen
data_Er5P12Ru5Rh14
_symmetry_space_group_name_H-M   'P 1'
_cell_length_a   12.65743203
_cell_length_b   12.61469023
_cell_length_c   3.92972200
_cell_angle_alpha   90.00000000
_cell_angle_beta   90.00000000
_cell_angle_gamma   120.09380856
_symmetry_Int_Tables_number   1
_chemical_formula_structural   Er5P12Ru5Rh14
_chemical_formula_sum   'Er5 P12 Ru5 Rh14'
_cell_volume   542.87938312
_cell_formula_units_Z   1
loop_
 _symmetry_equiv_pos_site_id
 _symmetry_equiv_pos_as_xyz
  1  'x, y, z'
loop_
 _atom_site_type_symbol
 _atom_site_label
 _atom_site_symmetry_multiplicity
 _atom_site_fract_x
 _atom_site_fract_y
 _atom_site_fract_z
 _atom_site_occupancy
  Er  Er0  1  0.665911  0.330431  0.000000  1
  Er  Er1  1  0.335137  0.669060  0.000000  1
  Er  Er2  1  0.814559  0.001148  0.500000  1
  Er  Er3  1  0.184289  0.186281  0.500000  1
  Er  Er4  1  0.000018  0.813261  0.500000  1
  P  P5  1  0.636210  0.999626  0.000000  1
  P  P6  1  0.363655  0.363813  0.000000  1
  P  P7  1  0.000110  0.635860  0.000000  1
  P  P8  1  0.688288  0.518116  0.500000  1
  P  P9  1  0.828990  0.307628  0.500000  1
  P  P10  1  0.317870  0.835685  0.500000  1
  P  P11  1  0.519335  0.689793  0.500000  1
  P  P12  1  0.179884  0.000486  0.000000  1
  P  P13  1  0.819507  0.818340  0.000000  1
  P  P14  1  0.996932  0.181347  0.000000  1
  P  P15  1  0.478782  0.167341  0.500000  1
  P  P16  1  0.168986  0.481894  0.500000  1
  Ru  Ru17  1  0.513310  0.871865  0.500000  1
  Ru  Ru18  1  0.716445  0.716171  0.500000  1
  Ru  Ru19  1  0.000568  0.284504  0.500000  1
  Ru  Ru20  1  0.817627  0.195967  0.000000  1
  Ru  Ru21  1  0.280260  0.999597  0.500000  1
  Rh  Rh22  1  0.625737  0.805787  0.000000  1
  Rh  Rh23  1  0.182616  0.376821  0.000000  1
  Rh  Rh24  1  0.375456  0.181545  0.000000  1
  Rh  Rh25  1  0.192567  0.818619  0.000000  1
  Rh  Rh26  1  0.804571  0.621966  0.000000  1
  Rh  Rh27  1  0.869201  0.507148  0.500000  1
  Rh  Rh28  1  0.491590  0.359986  0.500000  1
  Rh  Rh29  1  0.635423  0.127212  0.500000  1
  Rh  Rh30  1  0.134009  0.642963  0.500000  1
  Rh  Rh31  1  0.360591  0.491056  0.500000  1
  Rh  Rh32  1  0.999346  0.000334  0.000000  1
  Rh  Rh33  1  0.451456  0.996482  0.000000  1
  Rh  Rh34  1  0.547286  0.547481  0.000000  1
  Rh  Rh35  1  0.003479  0.454385  0.000000  1
