# generated using pymatgen
data_NaSnBiI6
_symmetry_space_group_name_H-M   'P 1'
_cell_length_a   8.70079063
_cell_length_b   8.70080303
_cell_length_c   8.70072555
_cell_angle_alpha   54.12463138
_cell_angle_beta   54.12455850
_cell_angle_gamma   54.12447503
_symmetry_Int_Tables_number   1
_chemical_formula_structural   NaSnBiI6
_chemical_formula_sum   'Na1 Sn1 Bi1 I6'
_cell_volume   401.86707355
_cell_formula_units_Z   1
loop_
 _symmetry_equiv_pos_site_id
 _symmetry_equiv_pos_as_xyz
  1  'x, y, z'
loop_
 _atom_site_type_symbol
 _atom_site_label
 _atom_site_symmetry_multiplicity
 _atom_site_fract_x
 _atom_site_fract_y
 _atom_site_fract_z
 _atom_site_occupancy
  Na  Na0  1  0.670082  0.670075  0.670079  1
  Sn  Sn1  1  0.330685  0.330684  0.330685  1
  Bi  Bi2  1  0.999688  0.999692  0.999686  1
  I  I3  1  0.240898  0.598882  0.914890  1
  I  I4  1  0.598870  0.914898  0.240906  1
  I  I5  1  0.914906  0.240892  0.598869  1
  I  I6  1  0.754232  0.397982  0.092665  1
  I  I7  1  0.397976  0.092663  0.754238  1
  I  I8  1  0.092664  0.754233  0.397983  1
