# generated using pymatgen
data_LiTbZnPt3
_symmetry_space_group_name_H-M   'P 1'
_cell_length_a   5.13284903
_cell_length_b   5.13284970
_cell_length_c   5.13284978
_cell_angle_alpha   64.86303355
_cell_angle_beta   64.86301904
_cell_angle_gamma   64.86302786
_symmetry_Int_Tables_number   1
_chemical_formula_structural   LiTbZnPt3
_chemical_formula_sum   'Li1 Tb1 Zn1 Pt3'
_cell_volume   105.78932755
_cell_formula_units_Z   1
loop_
 _symmetry_equiv_pos_site_id
 _symmetry_equiv_pos_as_xyz
  1  'x, y, z'
loop_
 _atom_site_type_symbol
 _atom_site_label
 _atom_site_symmetry_multiplicity
 _atom_site_fract_x
 _atom_site_fract_y
 _atom_site_fract_z
 _atom_site_occupancy
  Li  Li0  1  0.257994  0.257994  0.257994  1
  Tb  Tb1  1  0.004876  0.004876  0.004876  1
  Zn  Zn2  1  0.621754  0.621754  0.621754  1
  Pt  Pt3  1  0.620777  0.620777  0.123822  1
  Pt  Pt4  1  0.620777  0.123822  0.620777  1
  Pt  Pt5  1  0.123822  0.620777  0.620777  1
