# generated using pymatgen
data_Ta5NbRe2(B3Ru2)2
_symmetry_space_group_name_H-M   'P 1'
_cell_length_a   3.16282000
_cell_length_b   6.46541405
_cell_length_c   10.96152508
_cell_angle_alpha   89.98583678
_cell_angle_beta   90.00000000
_cell_angle_gamma   90.00000000
_symmetry_Int_Tables_number   1
_chemical_formula_structural   Ta5NbRe2(B3Ru2)2
_chemical_formula_sum   'Ta5 Nb1 Re2 B6 Ru4'
_cell_volume   224.15157136
_cell_formula_units_Z   1
loop_
 _symmetry_equiv_pos_site_id
 _symmetry_equiv_pos_as_xyz
  1  'x, y, z'
loop_
 _atom_site_type_symbol
 _atom_site_label
 _atom_site_symmetry_multiplicity
 _atom_site_fract_x
 _atom_site_fract_y
 _atom_site_fract_z
 _atom_site_occupancy
  Ta  Ta0  1  0.000000  0.280027  0.955491  1
  Ta  Ta1  1  0.000000  0.720426  0.044343  1
  Ta  Ta2  1  0.000000  0.278972  0.544452  1
  Ta  Ta3  1  0.000000  0.352998  0.249987  1
  Ta  Ta4  1  0.000000  0.647877  0.749837  1
  Nb  Nb5  1  0.000000  0.718273  0.455790  1
  Re  Re6  1  0.500000  0.700721  0.249650  1
  Re  Re7  1  0.500000  0.299641  0.750156  1
  B  B8  1  0.000000  0.949418  0.250000  1
  B  B9  1  0.000000  0.050662  0.749715  1
  B  B10  1  0.500000  0.451360  0.084981  1
  B  B11  1  0.500000  0.548551  0.914972  1
  B  B12  1  0.500000  0.450723  0.415128  1
  B  B13  1  0.500000  0.547875  0.585150  1
  Ru  Ru14  1  0.500000  0.075425  0.122918  1
  Ru  Ru15  1  0.500000  0.924779  0.877077  1
  Ru  Ru16  1  0.500000  0.075989  0.376445  1
  Ru  Ru17  1  0.500000  0.926284  0.623908  1
