# generated using pymatgen
data_Ca2Cu17Si8Au
_symmetry_space_group_name_H-M   'P 1'
_cell_length_a   8.20129159
_cell_length_b   8.20114243
_cell_length_c   8.21637500
_cell_angle_alpha   120.66611498
_cell_angle_beta   119.84969078
_cell_angle_gamma   89.43766782
_symmetry_Int_Tables_number   1
_chemical_formula_structural   Ca2Cu17Si8Au
_chemical_formula_sum   'Ca2 Cu17 Si8 Au1'
_cell_volume   389.60437219
_cell_formula_units_Z   1
loop_
 _symmetry_equiv_pos_site_id
 _symmetry_equiv_pos_as_xyz
  1  'x, y, z'
loop_
 _atom_site_type_symbol
 _atom_site_label
 _atom_site_symmetry_multiplicity
 _atom_site_fract_x
 _atom_site_fract_y
 _atom_site_fract_z
 _atom_site_occupancy
  Ca  Ca0  1  0.749754  0.750504  0.000888  1
  Ca  Ca1  1  0.250353  0.251138  0.000860  1
  Cu  Cu2  1  0.719058  0.559642  0.278425  1
  Cu  Cu3  1  0.288340  0.418618  0.707098  1
  Cu  Cu4  1  0.936607  0.800017  0.736764  1
  Cu  Cu5  1  0.563838  0.301134  0.865003  1
  Cu  Cu6  1  0.306746  0.558872  0.496433  1
  Cu  Cu7  1  0.060765  0.811139  0.504653  1
  Cu  Cu8  1  0.693433  0.443809  0.504483  1
  Cu  Cu9  1  0.937479  0.189511  0.496115  1
  Cu  Cu10  1  0.441429  0.943544  0.750711  1
  Cu  Cu11  1  0.182888  0.693059  0.248409  1
  Cu  Cu12  1  0.555252  0.065363  0.248122  1
  Cu  Cu13  1  0.202699  0.935889  0.138576  1
  Cu  Cu14  1  0.061529  0.200092  0.261290  1
  Cu  Cu15  1  0.004464  0.500670  0.505167  1
  Cu  Cu16  1  0.500463  0.003676  0.504137  1
  Cu  Cu17  1  0.807034  0.309068  0.750537  1
  Cu  Cu18  1  0.795461  0.066845  0.862328  1
  Si  Si19  1  0.288108  0.797196  0.846890  1
  Si  Si20  1  0.049627  0.558677  0.846981  1
  Si  Si21  1  0.565691  0.711890  0.514720  1
  Si  Si22  1  0.802663  0.948860  0.514426  1
  Si  Si23  1  0.439728  0.291131  0.494897  1
  Si  Si24  1  0.942045  0.439432  0.148610  1
  Si  Si25  1  0.709309  0.206744  0.148731  1
  Si  Si26  1  0.203872  0.055240  0.495038  1
  Au  Au27  1  0.441366  0.688242  0.129707  1
