# generated using pymatgen
data_Nd6YHo3(In2Pd)4
_symmetry_space_group_name_H-M   'P 1'
_cell_length_a   3.72736300
_cell_length_b   8.30093430
_cell_length_c   18.47528167
_cell_angle_alpha   90.03076040
_cell_angle_beta   90.00000000
_cell_angle_gamma   90.00000000
_symmetry_Int_Tables_number   1
_chemical_formula_structural   Nd6YHo3(In2Pd)4
_chemical_formula_sum   'Nd6 Y1 Ho3 In8 Pd4'
_cell_volume   571.63613202
_cell_formula_units_Z   1
loop_
 _symmetry_equiv_pos_site_id
 _symmetry_equiv_pos_as_xyz
  1  'x, y, z'
loop_
 _atom_site_type_symbol
 _atom_site_label
 _atom_site_symmetry_multiplicity
 _atom_site_fract_x
 _atom_site_fract_y
 _atom_site_fract_z
 _atom_site_occupancy
  Nd  Nd0  1  0.000000  0.500023  0.500005  1
  Nd  Nd1  1  0.000000  0.000499  0.999883  1
  Nd  Nd2  1  0.000000  0.736394  0.284977  1
  Nd  Nd3  1  0.000000  0.263536  0.715080  1
  Nd  Nd4  1  0.000000  0.763627  0.784933  1
  Nd  Nd5  1  0.000000  0.236412  0.215170  1
  Y  Y6  1  0.000000  0.618578  0.084309  1
  Ho  Ho7  1  0.000000  0.381746  0.914794  1
  Ho  Ho8  1  0.000000  0.882000  0.585037  1
  Ho  Ho9  1  0.000000  0.118075  0.415029  1
  In  In10  1  0.500000  0.696852  0.936421  1
  In  In11  1  0.500000  0.302706  0.063281  1
  In  In12  1  0.500000  0.803276  0.436771  1
  In  In13  1  0.500000  0.196770  0.563213  1
  In  In14  1  0.500000  0.589320  0.652106  1
  In  In15  1  0.500000  0.410641  0.347949  1
  In  In16  1  0.500000  0.911068  0.152199  1
  In  In17  1  0.500000  0.089306  0.847911  1
  Pd  Pd18  1  0.500000  0.523912  0.194232  1
  Pd  Pd19  1  0.500000  0.475324  0.806715  1
  Pd  Pd20  1  0.500000  0.975292  0.693265  1
  Pd  Pd21  1  0.500000  0.024644  0.306720  1
