# generated using pymatgen
data_TbHo9In3Hg5Pd4
_symmetry_space_group_name_H-M   'P 1'
_cell_length_a   3.62194600
_cell_length_b   7.95046249
_cell_length_c   18.33147204
_cell_angle_alpha   89.75592046
_cell_angle_beta   90.00000000
_cell_angle_gamma   90.00000000
_symmetry_Int_Tables_number   1
_chemical_formula_structural   TbHo9In3Hg5Pd4
_chemical_formula_sum   'Tb1 Ho9 In3 Hg5 Pd4'
_cell_volume   527.87095245
_cell_formula_units_Z   1
loop_
 _symmetry_equiv_pos_site_id
 _symmetry_equiv_pos_as_xyz
  1  'x, y, z'
loop_
 _atom_site_type_symbol
 _atom_site_label
 _atom_site_symmetry_multiplicity
 _atom_site_fract_x
 _atom_site_fract_y
 _atom_site_fract_z
 _atom_site_occupancy
  Tb  Tb0  1  0.000000  0.499369  0.501268  1
  Ho  Ho1  1  0.000000  0.000631  0.000593  1
  Ho  Ho2  1  0.000000  0.743707  0.284216  1
  Ho  Ho3  1  0.000000  0.266021  0.713538  1
  Ho  Ho4  1  0.000000  0.754102  0.781873  1
  Ho  Ho5  1  0.000000  0.244429  0.216358  1
  Ho  Ho6  1  0.000000  0.609682  0.082999  1
  Ho  Ho7  1  0.000000  0.388965  0.916541  1
  Ho  Ho8  1  0.000000  0.884989  0.585025  1
  Ho  Ho9  1  0.000000  0.108279  0.417526  1
  In  In10  1  0.500000  0.419388  0.351286  1
  In  In11  1  0.500000  0.919367  0.149939  1
  In  In12  1  0.500000  0.079413  0.849766  1
  Hg  Hg13  1  0.500000  0.714348  0.933083  1
  Hg  Hg14  1  0.500000  0.285966  0.067118  1
  Hg  Hg15  1  0.500000  0.785382  0.433072  1
  Hg  Hg16  1  0.500000  0.208351  0.565741  1
  Hg  Hg17  1  0.500000  0.581435  0.647987  1
  Pd  Pd18  1  0.500000  0.532365  0.197546  1
  Pd  Pd19  1  0.500000  0.467752  0.803892  1
  Pd  Pd20  1  0.500000  0.974214  0.697753  1
  Pd  Pd21  1  0.500000  0.031846  0.302881  1
