# generated using pymatgen
data_RuSe29
_symmetry_space_group_name_H-M   'P 1'
_cell_length_a   7.54480173
_cell_length_b   9.77064627
_cell_length_c   11.66160716
_cell_angle_alpha   74.06480021
_cell_angle_beta   80.56174096
_cell_angle_gamma   67.42416889
_symmetry_Int_Tables_number   1
_chemical_formula_structural   RuSe29
_chemical_formula_sum   'Ru1 Se29'
_cell_volume   761.62488767
_cell_formula_units_Z   1
loop_
 _symmetry_equiv_pos_site_id
 _symmetry_equiv_pos_as_xyz
  1  'x, y, z'
loop_
 _atom_site_type_symbol
 _atom_site_label
 _atom_site_symmetry_multiplicity
 _atom_site_fract_x
 _atom_site_fract_y
 _atom_site_fract_z
 _atom_site_occupancy
  Ru  Ru0  1  0.000000  0.000000  0.000000  1
  Se  Se1  1  0.500000  0.000000  0.000000  1
  Se  Se2  1  0.100925  0.198999  0.200684  1
  Se  Se3  1  0.699715  0.403098  0.398300  1
  Se  Se4  1  0.300285  0.596902  0.601700  1
  Se  Se5  1  0.599944  0.199389  0.201376  1
  Se  Se6  1  0.899075  0.801001  0.799316  1
  Se  Se7  1  0.201003  0.397742  0.400026  1
  Se  Se8  1  0.798997  0.602258  0.599974  1
  Se  Se9  1  0.400056  0.800611  0.798624  1
  Se  Se10  1  0.237255  0.074697  0.844960  1
  Se  Se11  1  0.648440  0.716021  0.967840  1
  Se  Se12  1  0.860959  0.263109  0.034132  1
  Se  Se13  1  0.233284  0.924777  0.154961  1
  Se  Se14  1  0.450938  0.486505  0.231913  1
  Se  Se15  1  0.766716  0.075223  0.845039  1
  Se  Se16  1  0.851430  0.113683  0.366783  1
  Se  Se17  1  0.139041  0.736891  0.965868  1
  Se  Se18  1  0.051511  0.682028  0.432216  1
  Se  Se19  1  0.351560  0.283979  0.032160  1
  Se  Se20  1  0.762745  0.925303  0.155040  1
  Se  Se21  1  0.448958  0.317288  0.567734  1
  Se  Se22  1  0.647790  0.889188  0.628900  1
  Se  Se23  1  0.949936  0.485522  0.231673  1
  Se  Se24  1  0.050064  0.514478  0.768327  1
  Se  Se25  1  0.352210  0.110812  0.371100  1
  Se  Se26  1  0.551042  0.682712  0.432266  1
  Se  Se27  1  0.948489  0.317972  0.567784  1
  Se  Se28  1  0.148570  0.886317  0.633217  1
  Se  Se29  1  0.549062  0.513495  0.768087  1
