# generated using pymatgen
data_TbEr4Ga6P6Ir19
_symmetry_space_group_name_H-M   'P 1'
_cell_length_a   12.95042100
_cell_length_b   12.95042162
_cell_length_c   3.97553300
_cell_angle_alpha   90.00000000
_cell_angle_beta   90.00000000
_cell_angle_gamma   120.00000098
_symmetry_Int_Tables_number   1
_chemical_formula_structural   TbEr4Ga6P6Ir19
_chemical_formula_sum   'Tb1 Er4 Ga6 P6 Ir19'
_cell_volume   577.42260917
_cell_formula_units_Z   1
loop_
 _symmetry_equiv_pos_site_id
 _symmetry_equiv_pos_as_xyz
  1  'x, y, z'
loop_
 _atom_site_type_symbol
 _atom_site_label
 _atom_site_symmetry_multiplicity
 _atom_site_fract_x
 _atom_site_fract_y
 _atom_site_fract_z
 _atom_site_occupancy
  Tb  Tb0  1  0.666667  0.333333  0.000000  1
  Er  Er1  1  0.333333  0.666667  0.000000  1
  Er  Er2  1  0.816692  0.812224  0.500000  1
  Er  Er3  1  0.187776  0.004468  0.500000  1
  Er  Er4  1  0.995532  0.183308  0.500000  1
  Ga  Ga5  1  0.677106  0.158367  0.500000  1
  Ga  Ga6  1  0.841633  0.518739  0.500000  1
  Ga  Ga7  1  0.481261  0.322894  0.500000  1
  Ga  Ga8  1  0.635550  0.637260  0.000000  1
  Ga  Ga9  1  0.362740  0.998290  0.000000  1
  Ga  Ga10  1  0.001710  0.364450  0.000000  1
  P  P11  1  0.180245  0.697333  0.500000  1
  P  P12  1  0.517087  0.819755  0.500000  1
  P  P13  1  0.302667  0.482913  0.500000  1
  P  P14  1  0.175384  0.181155  0.000000  1
  P  P15  1  0.818845  0.994228  0.000000  1
  P  P16  1  0.005772  0.824616  0.000000  1
  Ir  Ir17  1  0.809341  0.169066  0.000000  1
  Ir  Ir18  1  0.830934  0.640275  0.000000  1
  Ir  Ir19  1  0.359725  0.190659  0.000000  1
  Ir  Ir20  1  0.182277  0.793829  0.000000  1
  Ir  Ir21  1  0.611552  0.817723  0.000000  1
  Ir  Ir22  1  0.206171  0.388448  0.000000  1
  Ir  Ir23  1  0.446483  0.440542  0.000000  1
  Ir  Ir24  1  0.559458  0.005941  0.000000  1
  Ir  Ir25  1  0.994059  0.553517  0.000000  1
  Ir  Ir26  1  0.267754  0.280602  0.500000  1
  Ir  Ir27  1  0.719398  0.987152  0.500000  1
  Ir  Ir28  1  0.012848  0.732246  0.500000  1
  Ir  Ir29  1  0.873305  0.348669  0.500000  1
  Ir  Ir30  1  0.651331  0.524637  0.500000  1
  Ir  Ir31  1  0.475363  0.126695  0.500000  1
  Ir  Ir32  1  0.371439  0.868693  0.500000  1
  Ir  Ir33  1  0.497255  0.628561  0.500000  1
  Ir  Ir34  1  0.131307  0.502745  0.500000  1
  Ir  Ir35  1  0.000000  0.000000  0.000000  1
