# generated using pymatgen
data_CaLaRe2Si2C
_symmetry_space_group_name_H-M   'P 1'
_cell_length_a   5.92792289
_cell_length_b   5.92792252
_cell_length_c   7.28280566
_cell_angle_alpha   125.40903309
_cell_angle_beta   125.40903268
_cell_angle_gamma   39.79555232
_symmetry_Int_Tables_number   1
_chemical_formula_structural   CaLaRe2Si2C
_chemical_formula_sum   'Ca1 La1 Re2 Si2 C1'
_cell_volume   129.00887985
_cell_formula_units_Z   1
loop_
 _symmetry_equiv_pos_site_id
 _symmetry_equiv_pos_as_xyz
  1  'x, y, z'
loop_
 _atom_site_type_symbol
 _atom_site_label
 _atom_site_symmetry_multiplicity
 _atom_site_fract_x
 _atom_site_fract_y
 _atom_site_fract_z
 _atom_site_occupancy
  Ca  Ca0  1  0.426882  0.426882  0.697828  1
  La  La1  1  0.575194  0.575194  0.306801  1
  Re  Re2  1  0.202966  0.202966  0.081455  1
  Re  Re3  1  0.795920  0.795920  0.916703  1
  Si  Si4  1  0.855259  0.855259  0.305574  1
  Si  Si5  1  0.145268  0.145268  0.695519  1
  C  C6  1  0.998510  0.998510  0.996120  1
