# generated using pymatgen
data_Dy4Sc4Ga3Ir
_symmetry_space_group_name_H-M   'P 1'
_cell_length_a   9.62025100
_cell_length_b   9.62025146
_cell_length_c   7.01371000
_cell_angle_alpha   90.00000000
_cell_angle_beta   90.00000000
_cell_angle_gamma   120.00000185
_symmetry_Int_Tables_number   1
_chemical_formula_structural   Dy4Sc4Ga3Ir
_chemical_formula_sum   'Dy8 Sc8 Ga6 Ir2'
_cell_volume   562.14875843
_cell_formula_units_Z   2
loop_
 _symmetry_equiv_pos_site_id
 _symmetry_equiv_pos_as_xyz
  1  'x, y, z'
loop_
 _atom_site_type_symbol
 _atom_site_label
 _atom_site_symmetry_multiplicity
 _atom_site_fract_x
 _atom_site_fract_y
 _atom_site_fract_z
 _atom_site_occupancy
  Dy  Dy0  1  0.468126  0.531874  0.209787  1
  Dy  Dy1  1  0.063748  0.531874  0.209787  1
  Dy  Dy2  1  0.468126  0.936252  0.209787  1
  Dy  Dy3  1  0.531874  0.468126  0.709787  1
  Dy  Dy4  1  0.936252  0.468126  0.709787  1
  Dy  Dy5  1  0.531874  0.063748  0.709787  1
  Dy  Dy6  1  0.000000  0.000000  0.230249  1
  Dy  Dy7  1  0.000000  0.000000  0.730249  1
  Sc  Sc8  1  0.171789  0.828211  0.512092  1
  Sc  Sc9  1  0.656423  0.828211  0.512092  1
  Sc  Sc10  1  0.171789  0.343577  0.512092  1
  Sc  Sc11  1  0.828211  0.171789  0.012092  1
  Sc  Sc12  1  0.343577  0.171789  0.012092  1
  Sc  Sc13  1  0.828211  0.656423  0.012092  1
  Sc  Sc14  1  0.333333  0.666667  0.835020  1
  Sc  Sc15  1  0.666667  0.333333  0.335020  1
  Ga  Ga16  1  0.164091  0.835909  0.948474  1
  Ga  Ga17  1  0.671819  0.835909  0.948474  1
  Ga  Ga18  1  0.164091  0.328181  0.948474  1
  Ga  Ga19  1  0.835909  0.164091  0.448474  1
  Ga  Ga20  1  0.328181  0.164091  0.448474  1
  Ga  Ga21  1  0.835909  0.671819  0.448474  1
  Ir  Ir22  1  0.333333  0.666667  0.461089  1
  Ir  Ir23  1  0.666667  0.333333  0.961089  1
