# generated using pymatgen
data_Lu4Al18Co5Au
_symmetry_space_group_name_H-M   'P 1'
_cell_length_a   7.39120029
_cell_length_b   7.39119935
_cell_length_c   9.25103224
_cell_angle_alpha   89.80165702
_cell_angle_beta   89.80166819
_cell_angle_gamma   119.15846008
_symmetry_Int_Tables_number   1
_chemical_formula_structural   Lu4Al18Co5Au
_chemical_formula_sum   'Lu4 Al18 Co5 Au1'
_cell_volume   441.32774720
_cell_formula_units_Z   1
loop_
 _symmetry_equiv_pos_site_id
 _symmetry_equiv_pos_as_xyz
  1  'x, y, z'
loop_
 _atom_site_type_symbol
 _atom_site_label
 _atom_site_symmetry_multiplicity
 _atom_site_fract_x
 _atom_site_fract_y
 _atom_site_fract_z
 _atom_site_occupancy
  Lu  Lu0  1  0.995735  0.678306  0.251786  1
  Lu  Lu1  1  0.004265  0.321694  0.748214  1
  Lu  Lu2  1  0.678306  0.995735  0.251786  1
  Lu  Lu3  1  0.321694  0.004265  0.748214  1
  Al  Al4  1  0.136386  0.136386  0.262772  1
  Al  Al5  1  0.863614  0.863614  0.737228  1
  Al  Al6  1  0.331443  0.331443  0.543742  1
  Al  Al7  1  0.655832  0.655832  0.053019  1
  Al  Al8  1  0.344168  0.344168  0.946981  1
  Al  Al9  1  0.668557  0.668557  0.456258  1
  Al  Al10  1  0.340152  0.559716  0.252394  1
  Al  Al11  1  0.659848  0.440284  0.747606  1
  Al  Al12  1  0.559716  0.340152  0.252394  1
  Al  Al13  1  0.440284  0.659848  0.747606  1
  Al  Al14  1  0.000111  0.349538  0.077511  1
  Al  Al15  1  0.004311  0.663041  0.570639  1
  Al  Al16  1  0.336959  0.995689  0.429361  1
  Al  Al17  1  0.650462  0.999889  0.922489  1
  Al  Al18  1  0.999889  0.650462  0.922489  1
  Al  Al19  1  0.995689  0.336959  0.429361  1
  Al  Al20  1  0.663041  0.004311  0.570639  1
  Al  Al21  1  0.349538  0.000111  0.077511  1
  Co  Co22  1  0.000000  0.000000  0.500000  1
  Co  Co23  1  0.671562  0.328438  0.000000  1
  Co  Co24  1  0.328630  0.671370  0.500000  1
  Co  Co25  1  0.328438  0.671562  0.000000  1
  Co  Co26  1  0.671370  0.328630  0.500000  1
  Au  Au27  1  0.000000  0.000000  0.000000  1
