# generated using pymatgen
data_Li3Mg3Os4
_symmetry_space_group_name_H-M   'P 1'
_cell_length_a   6.78937808
_cell_length_b   6.86354051
_cell_length_c   6.84563367
_cell_angle_alpha   90.51428487
_cell_angle_beta   90.18011879
_cell_angle_gamma   89.87991717
_symmetry_Int_Tables_number   1
_chemical_formula_structural   Li3Mg3Os4
_chemical_formula_sum   'Li6 Mg6 Os8'
_cell_volume   318.98574843
_cell_formula_units_Z   2
loop_
 _symmetry_equiv_pos_site_id
 _symmetry_equiv_pos_as_xyz
  1  'x, y, z'
loop_
 _atom_site_type_symbol
 _atom_site_label
 _atom_site_symmetry_multiplicity
 _atom_site_fract_x
 _atom_site_fract_y
 _atom_site_fract_z
 _atom_site_occupancy
  Li  Li0  1  0.618203  0.298085  0.541926  1
  Li  Li1  1  0.709781  0.056307  0.867100  1
  Li  Li2  1  0.539489  0.610313  0.306978  1
  Li  Li3  1  0.954368  0.370690  0.790177  1
  Li  Li4  1  0.294896  0.543901  0.627927  1
  Li  Li5  1  0.458409  0.132491  0.205687  1
  Mg  Mg6  1  0.040226  0.870314  0.709241  1
  Mg  Mg7  1  0.776233  0.964832  0.372722  1
  Mg  Mg8  1  0.132712  0.215344  0.463719  1
  Mg  Mg9  1  0.397588  0.797500  0.969828  1
  Mg  Mg10  1  0.860865  0.708576  0.040951  1
  Mg  Mg11  1  0.214049  0.456254  0.119360  1
  Os  Os12  1  0.677722  0.671034  0.674534  1
  Os  Os13  1  0.922649  0.573089  0.419578  1
  Os  Os14  1  0.573193  0.422655  0.921809  1
  Os  Os15  1  0.425537  0.918015  0.576030  1
  Os  Os16  1  0.173350  0.824615  0.324368  1
  Os  Os17  1  0.825798  0.323493  0.169815  1
  Os  Os18  1  0.328099  0.169840  0.823592  1
  Os  Os19  1  0.076831  0.072649  0.074657  1
