# generated using pymatgen
data_Th3Sb4Ir2Au
_symmetry_space_group_name_H-M   'P 1'
_cell_length_a   8.62900994
_cell_length_b   8.64531889
_cell_length_c   8.64531962
_cell_angle_alpha   109.37247056
_cell_angle_beta   109.52836143
_cell_angle_gamma   109.52835392
_symmetry_Int_Tables_number   1
_chemical_formula_structural   Th3Sb4Ir2Au
_chemical_formula_sum   'Th6 Sb8 Ir4 Au2'
_cell_volume   496.38324425
_cell_formula_units_Z   2
loop_
 _symmetry_equiv_pos_site_id
 _symmetry_equiv_pos_as_xyz
  1  'x, y, z'
loop_
 _atom_site_type_symbol
 _atom_site_label
 _atom_site_symmetry_multiplicity
 _atom_site_fract_x
 _atom_site_fract_y
 _atom_site_fract_z
 _atom_site_occupancy
  Th  Th0  1  0.379489  0.258246  0.633178  1
  Th  Th1  1  0.743223  0.879663  0.114720  1
  Th  Th2  1  0.243223  0.614720  0.379663  1
  Th  Th3  1  0.625206  0.366548  0.245809  1
  Th  Th4  1  0.879489  0.133178  0.758246  1
  Th  Th5  1  0.125206  0.745809  0.866548  1
  Sb  Sb6  1  0.998782  0.325039  0.499604  1
  Sb  Sb7  1  0.822774  0.491993  0.993714  1
  Sb  Sb8  1  0.498782  0.999604  0.825039  1
  Sb  Sb9  1  0.671495  0.668940  0.678028  1
  Sb  Sb10  1  0.171495  0.178028  0.168940  1
  Sb  Sb11  1  0.322774  0.493714  0.991993  1
  Sb  Sb12  1  0.508944  0.009581  0.333894  1
  Sb  Sb13  1  0.008944  0.833894  0.509581  1
  Ir  Ir14  1  0.874369  0.249751  0.126853  1
  Ir  Ir15  1  0.251334  0.125376  0.876938  1
  Ir  Ir16  1  0.751334  0.376938  0.625376  1
  Ir  Ir17  1  0.374369  0.626853  0.749751  1
  Au  Au18  1  0.124384  0.874188  0.247936  1
  Au  Au19  1  0.624384  0.747936  0.374188  1
