# generated using pymatgen
data_Ta9GaSi5Mo
_symmetry_space_group_name_H-M   'P 1'
_cell_length_a   6.54642000
_cell_length_b   7.58204221
_cell_length_c   6.54642000
_cell_angle_alpha   115.57584992
_cell_angle_beta   90.00000000
_cell_angle_gamma   115.57584992
_symmetry_Int_Tables_number   1
_chemical_formula_structural   Ta9GaSi5Mo
_chemical_formula_sum   'Ta9 Ga1 Si5 Mo1'
_cell_volume   257.34629560
_cell_formula_units_Z   1
loop_
 _symmetry_equiv_pos_site_id
 _symmetry_equiv_pos_as_xyz
  1  'x, y, z'
loop_
 _atom_site_type_symbol
 _atom_site_label
 _atom_site_symmetry_multiplicity
 _atom_site_fract_x
 _atom_site_fract_y
 _atom_site_fract_z
 _atom_site_occupancy
  Ta  Ta0  1  0.500765  0.001529  0.500765  1
  Ta  Ta1  1  0.516572  0.699454  0.688232  1
  Ta  Ta2  1  0.182881  0.699454  0.011221  1
  Ta  Ta3  1  0.688232  0.699454  0.182881  1
  Ta  Ta4  1  0.011221  0.699454  0.516572  1
  Ta  Ta5  1  0.489432  0.300713  0.317970  1
  Ta  Ta6  1  0.811282  0.300713  0.982744  1
  Ta  Ta7  1  0.317970  0.300713  0.811282  1
  Ta  Ta8  1  0.982744  0.300713  0.489432  1
  Ga  Ga9  1  0.249727  0.499453  0.249727  1
  Si  Si10  1  0.749693  0.499386  0.749693  1
  Si  Si11  1  0.871481  0.000210  0.633999  1
  Si  Si12  1  0.128729  0.000210  0.366211  1
  Si  Si13  1  0.633999  0.000210  0.128729  1
  Si  Si14  1  0.366211  0.000210  0.871481  1
  Mo  Mo15  1  0.999062  0.998123  0.999062  1
