# generated using pymatgen
data_TmLu(NiH3)2
_symmetry_space_group_name_H-M   'P 1'
_cell_length_a   5.77676195
_cell_length_b   5.77676098
_cell_length_c   4.50566500
_cell_angle_alpha   90.00000000
_cell_angle_beta   90.00000000
_cell_angle_gamma   144.11565874
_symmetry_Int_Tables_number   1
_chemical_formula_structural   TmLu(NiH3)2
_chemical_formula_sum   'Tm1 Lu1 Ni2 H6'
_cell_volume   88.13273424
_cell_formula_units_Z   1
loop_
 _symmetry_equiv_pos_site_id
 _symmetry_equiv_pos_as_xyz
  1  'x, y, z'
loop_
 _atom_site_type_symbol
 _atom_site_label
 _atom_site_symmetry_multiplicity
 _atom_site_fract_x
 _atom_site_fract_y
 _atom_site_fract_z
 _atom_site_occupancy
  Tm  Tm0  1  0.136284  0.863716  0.250000  1
  Lu  Lu1  1  0.863969  0.136031  0.750000  1
  Ni  Ni2  1  0.579123  0.420877  0.750000  1
  Ni  Ni3  1  0.420112  0.579888  0.250000  1
  H  H4  1  0.069434  0.930566  0.750000  1
  H  H5  1  0.928820  0.071180  0.250000  1
  H  H6  1  0.687085  0.312915  0.501845  1
  H  H7  1  0.314043  0.685957  0.502286  1
  H  H8  1  0.687085  0.312915  0.998155  1
  H  H9  1  0.314043  0.685957  0.997714  1
