# generated using pymatgen
data_Sr4In5Hg3
_symmetry_space_group_name_H-M   'P 1'
_cell_length_a   5.14151700
_cell_length_b   8.00275101
_cell_length_c   8.72396887
_cell_angle_alpha   90.39233380
_cell_angle_beta   90.00000000
_cell_angle_gamma   90.00000000
_symmetry_Int_Tables_number   1
_chemical_formula_structural   Sr4In5Hg3
_chemical_formula_sum   'Sr4 In5 Hg3'
_cell_volume   358.95045376
_cell_formula_units_Z   1
loop_
 _symmetry_equiv_pos_site_id
 _symmetry_equiv_pos_as_xyz
  1  'x, y, z'
loop_
 _atom_site_type_symbol
 _atom_site_label
 _atom_site_symmetry_multiplicity
 _atom_site_fract_x
 _atom_site_fract_y
 _atom_site_fract_z
 _atom_site_occupancy
  Sr  Sr0  1  0.750000  0.995230  0.712385  1
  Sr  Sr1  1  0.250000  0.997686  0.288532  1
  Sr  Sr2  1  0.750000  0.502266  0.784150  1
  Sr  Sr3  1  0.250000  0.506376  0.212187  1
  In  In4  1  0.750000  0.312498  0.418446  1
  In  In5  1  0.250000  0.194342  0.912481  1
  In  In6  1  0.250000  0.696035  0.585518  1
  In  In7  1  0.750000  0.808443  0.083910  1
  In  In8  1  0.750000  0.200226  0.088342  1
  Hg  Hg9  1  0.250000  0.792711  0.914161  1
  Hg  Hg10  1  0.250000  0.293806  0.585276  1
  Hg  Hg11  1  0.750000  0.700381  0.414612  1
