# generated using pymatgen
data_Th5SnBi2Sb
_symmetry_space_group_name_H-M   'P 1'
_cell_length_a   9.71992800
_cell_length_b   9.73324692
_cell_length_c   6.68301700
_cell_angle_alpha   90.00006957
_cell_angle_beta   89.99985478
_cell_angle_gamma   119.95473742
_symmetry_Int_Tables_number   1
_chemical_formula_structural   Th5SnBi2Sb
_chemical_formula_sum   'Th10 Sn2 Bi4 Sb2'
_cell_volume   547.79982041
_cell_formula_units_Z   2
loop_
 _symmetry_equiv_pos_site_id
 _symmetry_equiv_pos_as_xyz
  1  'x, y, z'
loop_
 _atom_site_type_symbol
 _atom_site_label
 _atom_site_symmetry_multiplicity
 _atom_site_fract_x
 _atom_site_fract_y
 _atom_site_fract_z
 _atom_site_occupancy
  Th  Th0  1  0.999930  0.721726  0.749998  1
  Th  Th1  1  0.278204  0.278274  0.749998  1
  Th  Th2  1  0.331151  0.664165  0.497100  1
  Th  Th3  1  0.666987  0.335835  0.497100  1
  Th  Th4  1  0.723142  0.719320  0.250001  1
  Th  Th5  1  0.723120  0.000000  0.750000  1
  Th  Th6  1  0.003822  0.280680  0.250001  1
  Th  Th7  1  0.275672  0.000000  0.249996  1
  Th  Th8  1  0.331148  0.664167  0.002902  1
  Th  Th9  1  0.666982  0.335833  0.002902  1
  Sn  Sn10  1  0.382142  0.381683  0.249999  1
  Sn  Sn11  1  0.000459  0.618317  0.249999  1
  Bi  Bi12  1  0.617572  0.617744  0.750001  1
  Bi  Bi13  1  0.999828  0.382256  0.750001  1
  Bi  Bi14  1  0.382451  0.000000  0.749999  1
  Bi  Bi15  1  0.618580  0.000000  0.250001  1
  Sb  Sb16  1  0.999404  0.000000  0.999842  1
  Sb  Sb17  1  0.999404  0.000000  0.500159  1
