# generated using pymatgen
data_Lu20Si12Cl
_symmetry_space_group_name_H-M   'P 1'
_cell_length_a   14.39845000
_cell_length_b   6.16700423
_cell_length_c   8.27320319
_cell_angle_alpha   89.97231886
_cell_angle_beta   90.00000000
_cell_angle_gamma   90.00000000
_symmetry_Int_Tables_number   1
_chemical_formula_structural   Lu20Si12Cl
_chemical_formula_sum   'Lu20 Si12 Cl1'
_cell_volume   734.62148971
_cell_formula_units_Z   1
loop_
 _symmetry_equiv_pos_site_id
 _symmetry_equiv_pos_as_xyz
  1  'x, y, z'
loop_
 _atom_site_type_symbol
 _atom_site_label
 _atom_site_symmetry_multiplicity
 _atom_site_fract_x
 _atom_site_fract_y
 _atom_site_fract_z
 _atom_site_occupancy
  Lu  Lu0  1  0.668473  0.500000  0.500000  1
  Lu  Lu1  1  0.166994  0.500000  0.000000  1
  Lu  Lu2  1  0.833006  0.500000  0.000000  1
  Lu  Lu3  1  0.331527  0.500000  0.500000  1
  Lu  Lu4  1  0.830040  0.000000  0.000000  1
  Lu  Lu5  1  0.337379  0.000000  0.500000  1
  Lu  Lu6  1  0.662621  0.000000  0.500000  1
  Lu  Lu7  1  0.169960  0.000000  0.000000  1
  Lu  Lu8  1  0.500000  0.253749  0.757804  1
  Lu  Lu9  1  0.000000  0.233421  0.243636  1
  Lu  Lu10  1  0.619941  0.249727  0.121771  1
  Lu  Lu11  1  0.127828  0.233011  0.627705  1
  Lu  Lu12  1  0.872172  0.233011  0.627705  1
  Lu  Lu13  1  0.380059  0.249727  0.121771  1
  Lu  Lu14  1  0.000000  0.766579  0.756364  1
  Lu  Lu15  1  0.500000  0.746251  0.242196  1
  Lu  Lu16  1  0.872172  0.766989  0.372295  1
  Lu  Lu17  1  0.380059  0.750273  0.878229  1
  Lu  Lu18  1  0.619941  0.750273  0.878229  1
  Lu  Lu19  1  0.127828  0.766989  0.372295  1
  Si  Si20  1  0.000000  0.243159  0.891472  1
  Si  Si21  1  0.500000  0.256939  0.394414  1
  Si  Si22  1  0.802693  0.244513  0.304114  1
  Si  Si23  1  0.304458  0.249693  0.804682  1
  Si  Si24  1  0.695542  0.249693  0.804682  1
  Si  Si25  1  0.197307  0.244513  0.304114  1
  Si  Si26  1  0.500000  0.743061  0.605586  1
  Si  Si27  1  0.000000  0.756841  0.108528  1
  Si  Si28  1  0.695542  0.750307  0.195318  1
  Si  Si29  1  0.197307  0.755487  0.695886  1
  Si  Si30  1  0.802693  0.755487  0.695886  1
  Si  Si31  1  0.304458  0.750307  0.195318  1
  Cl  Cl32  1  0.000000  0.500000  0.500000  1
