# generated using pymatgen
data_YbY2(AlIr2)3
_symmetry_space_group_name_H-M   'P 1'
_cell_length_a   5.59573100
_cell_length_b   5.59551381
_cell_length_c   15.61303700
_cell_angle_alpha   90.00000000
_cell_angle_beta   90.00000000
_cell_angle_gamma   119.99950049
_symmetry_Int_Tables_number   1
_chemical_formula_structural   YbY2(AlIr2)3
_chemical_formula_sum   'Yb2 Y4 Al6 Ir12'
_cell_volume   423.36700402
_cell_formula_units_Z   2
loop_
 _symmetry_equiv_pos_site_id
 _symmetry_equiv_pos_as_xyz
  1  'x, y, z'
loop_
 _atom_site_type_symbol
 _atom_site_label
 _atom_site_symmetry_multiplicity
 _atom_site_fract_x
 _atom_site_fract_y
 _atom_site_fract_z
 _atom_site_occupancy
  Yb  Yb0  1  0.333330  0.666664  0.750000  1
  Yb  Yb1  1  0.666670  0.333336  0.250000  1
  Y  Y2  1  0.333331  0.666664  0.543386  1
  Y  Y3  1  0.666669  0.333336  0.456614  1
  Y  Y4  1  0.666669  0.333336  0.043386  1
  Y  Y5  1  0.333331  0.666664  0.956614  1
  Al  Al6  1  0.000013  0.000013  0.250000  1
  Al  Al7  1  0.999987  0.999987  0.750000  1
  Al  Al8  1  0.333317  0.666649  0.250000  1
  Al  Al9  1  0.666683  0.333351  0.750000  1
  Al  Al10  1  0.000000  0.000000  0.000000  1
  Al  Al11  1  0.000000  0.000000  0.500000  1
  Ir  Ir12  1  0.169127  0.338250  0.125280  1
  Ir  Ir13  1  0.830873  0.661750  0.874720  1
  Ir  Ir14  1  0.661736  0.830870  0.125287  1
  Ir  Ir15  1  0.830873  0.661750  0.625280  1
  Ir  Ir16  1  0.338264  0.169130  0.874713  1
  Ir  Ir17  1  0.169127  0.338250  0.374720  1
  Ir  Ir18  1  0.169132  0.830874  0.125283  1
  Ir  Ir19  1  0.338264  0.169130  0.625287  1
  Ir  Ir20  1  0.830868  0.169126  0.874717  1
  Ir  Ir21  1  0.661736  0.830870  0.374713  1
  Ir  Ir22  1  0.830868  0.169126  0.625283  1
  Ir  Ir23  1  0.169132  0.830874  0.374717  1
