# generated using pymatgen
data_Tb14Dy2Tl3InRh4
_symmetry_space_group_name_H-M   'P 1'
_cell_length_a   9.72045665
_cell_length_b   9.71658437
_cell_length_c   9.71817202
_cell_angle_alpha   60.00084355
_cell_angle_beta   59.98832431
_cell_angle_gamma   60.01392253
_symmetry_Int_Tables_number   1
_chemical_formula_structural   Tb14Dy2Tl3InRh4
_chemical_formula_sum   'Tb14 Dy2 Tl3 In1 Rh4'
_cell_volume   649.05272517
_cell_formula_units_Z   1
loop_
 _symmetry_equiv_pos_site_id
 _symmetry_equiv_pos_as_xyz
  1  'x, y, z'
loop_
 _atom_site_type_symbol
 _atom_site_label
 _atom_site_symmetry_multiplicity
 _atom_site_fract_x
 _atom_site_fract_y
 _atom_site_fract_z
 _atom_site_occupancy
  Tb  Tb0  1  0.689324  0.311298  0.311631  1
  Tb  Tb1  1  0.688807  0.688717  0.311658  1
  Tb  Tb2  1  0.311566  0.689255  0.311443  1
  Tb  Tb3  1  0.937627  0.938228  0.561776  1
  Tb  Tb4  1  0.147930  0.148169  0.550432  1
  Tb  Tb5  1  0.559742  0.938936  0.559702  1
  Tb  Tb6  1  0.152034  0.152163  0.152033  1
  Tb  Tb7  1  0.311877  0.311428  0.689240  1
  Tb  Tb8  1  0.938348  0.559864  0.560043  1
  Tb  Tb9  1  0.559870  0.559669  0.938567  1
  Tb  Tb10  1  0.561577  0.938384  0.937847  1
  Tb  Tb11  1  0.937728  0.561871  0.937803  1
  Tb  Tb12  1  0.148172  0.550139  0.148163  1
  Tb  Tb13  1  0.311819  0.688471  0.688726  1
  Dy  Dy14  1  0.688784  0.311340  0.688982  1
  Dy  Dy15  1  0.550154  0.148238  0.147958  1
  Tl  Tl16  1  0.914925  0.915269  0.255608  1
  Tl  Tl17  1  0.255572  0.915184  0.915156  1
  Tl  Tl18  1  0.914938  0.255513  0.915253  1
  In  In19  1  0.916010  0.916606  0.916484  1
  Rh  Rh20  1  0.357732  0.356939  0.356877  1
  Rh  Rh21  1  0.927177  0.358282  0.359037  1
  Rh  Rh22  1  0.359480  0.357980  0.927586  1
  Rh  Rh23  1  0.358803  0.928061  0.357997  1
