# generated using pymatgen
data_K(SnSe2)4
_symmetry_space_group_name_H-M   'P 1'
_cell_length_a   9.63753980
_cell_length_b   9.63753947
_cell_length_c   9.63753953
_cell_angle_alpha   48.09720755
_cell_angle_beta   48.09721300
_cell_angle_gamma   48.09720949
_symmetry_Int_Tables_number   1
_chemical_formula_structural   K(SnSe2)4
_chemical_formula_sum   'K1 Sn4 Se8'
_cell_volume   454.38106888
_cell_formula_units_Z   1
loop_
 _symmetry_equiv_pos_site_id
 _symmetry_equiv_pos_as_xyz
  1  'x, y, z'
loop_
 _atom_site_type_symbol
 _atom_site_label
 _atom_site_symmetry_multiplicity
 _atom_site_fract_x
 _atom_site_fract_y
 _atom_site_fract_z
 _atom_site_occupancy
  K  K0  1  0.500000  0.500000  0.500000  1
  Sn  Sn1  1  0.000000  0.500000  0.500000  1
  Sn  Sn2  1  0.500000  0.000000  0.500000  1
  Sn  Sn3  1  0.500000  0.500000  0.000000  1
  Sn  Sn4  1  0.000000  0.000000  0.000000  1
  Se  Se5  1  0.275523  0.769131  0.769131  1
  Se  Se6  1  0.230869  0.230869  0.724477  1
  Se  Se7  1  0.724477  0.230869  0.230869  1
  Se  Se8  1  0.230869  0.724477  0.230869  1
  Se  Se9  1  0.271003  0.271003  0.271003  1
  Se  Se10  1  0.728997  0.728997  0.728997  1
  Se  Se11  1  0.769131  0.275523  0.769131  1
  Se  Se12  1  0.769131  0.769131  0.275523  1
