# generated using pymatgen
data_DyErSc2(ReB6)2
_symmetry_space_group_name_H-M   'P 1'
_cell_length_a   3.58035700
_cell_length_b   9.00222405
_cell_length_c   11.37340807
_cell_angle_alpha   89.98753740
_cell_angle_beta   90.00000000
_cell_angle_gamma   90.00000000
_symmetry_Int_Tables_number   1
_chemical_formula_structural   DyErSc2(ReB6)2
_chemical_formula_sum   'Dy2 Er2 Sc4 Re4 B24'
_cell_volume   366.57830738
_cell_formula_units_Z   2
loop_
 _symmetry_equiv_pos_site_id
 _symmetry_equiv_pos_as_xyz
  1  'x, y, z'
loop_
 _atom_site_type_symbol
 _atom_site_label
 _atom_site_symmetry_multiplicity
 _atom_site_fract_x
 _atom_site_fract_y
 _atom_site_fract_z
 _atom_site_occupancy
  Dy  Dy0  1  0.000000  0.321754  0.414225  1
  Dy  Dy1  1  0.000000  0.678246  0.585775  1
  Er  Er2  1  0.000000  0.821980  0.085589  1
  Er  Er3  1  0.000000  0.178020  0.914411  1
  Sc  Sc4  1  0.000000  0.943870  0.369878  1
  Sc  Sc5  1  0.000000  0.056130  0.630122  1
  Sc  Sc6  1  0.000000  0.443921  0.129364  1
  Sc  Sc7  1  0.000000  0.556079  0.870636  1
  Re  Re8  1  0.000000  0.640657  0.317808  1
  Re  Re9  1  0.000000  0.359343  0.682192  1
  Re  Re10  1  0.000000  0.140332  0.181130  1
  Re  Re11  1  0.000000  0.859668  0.818870  1
  B  B12  1  0.500000  0.554392  0.432309  1
  B  B13  1  0.500000  0.445608  0.567691  1
  B  B14  1  0.500000  0.054160  0.066933  1
  B  B15  1  0.500000  0.945840  0.933067  1
  B  B16  1  0.500000  0.754717  0.417910  1
  B  B17  1  0.500000  0.245283  0.582090  1
  B  B18  1  0.500000  0.254315  0.081128  1
  B  B19  1  0.500000  0.745685  0.918872  1
  B  B20  1  0.500000  0.795271  0.263849  1
  B  B21  1  0.500000  0.204729  0.736151  1
  B  B22  1  0.500000  0.294993  0.235081  1
  B  B23  1  0.500000  0.705007  0.764919  1
  B  B24  1  0.500000  0.629372  0.182200  1
  B  B25  1  0.500000  0.370628  0.817800  1
  B  B26  1  0.500000  0.128897  0.316967  1
  B  B27  1  0.500000  0.871103  0.683033  1
  B  B28  1  0.500000  0.981073  0.213192  1
  B  B29  1  0.500000  0.018927  0.786808  1
  B  B30  1  0.500000  0.481344  0.285834  1
  B  B31  1  0.500000  0.518656  0.714166  1
  B  B32  1  0.500000  0.595790  0.026033  1
  B  B33  1  0.500000  0.404210  0.973967  1
  B  B34  1  0.500000  0.095347  0.474061  1
  B  B35  1  0.500000  0.904653  0.525939  1
