# generated using pymatgen
data_La7PaZnPd24
_symmetry_space_group_name_H-M   'P 1'
_cell_length_a   8.53678458
_cell_length_b   8.53678458
_cell_length_c   8.53678458
_cell_angle_alpha   89.54241937
_cell_angle_beta   89.54241937
_cell_angle_gamma   89.54241937
_symmetry_Int_Tables_number   1
_chemical_formula_structural   La7PaZnPd24
_chemical_formula_sum   'La7 Pa1 Zn1 Pd24'
_cell_volume   622.07340735
_cell_formula_units_Z   1
loop_
 _symmetry_equiv_pos_site_id
 _symmetry_equiv_pos_as_xyz
  1  'x, y, z'
loop_
 _atom_site_type_symbol
 _atom_site_label
 _atom_site_symmetry_multiplicity
 _atom_site_fract_x
 _atom_site_fract_y
 _atom_site_fract_z
 _atom_site_occupancy
  La  La0  1  0.747629  0.747629  0.747629  1
  La  La1  1  0.748915  0.748915  0.249714  1
  La  La2  1  0.748915  0.249714  0.748915  1
  La  La3  1  0.251866  0.251866  0.752038  1
  La  La4  1  0.251866  0.752038  0.251866  1
  La  La5  1  0.249714  0.748915  0.748915  1
  La  La6  1  0.752038  0.251866  0.251866  1
  Pa  Pa7  1  0.255027  0.255027  0.255027  1
  Zn  Zn8  1  0.993492  0.993492  0.993492  1
  Pd  Pd9  1  0.260832  0.494768  0.010677  1
  Pd  Pd10  1  0.740110  0.496983  0.999809  1
  Pd  Pd11  1  0.010677  0.260832  0.494768  1
  Pd  Pd12  1  0.494768  0.260832  0.010677  1
  Pd  Pd13  1  0.999809  0.740110  0.496983  1
  Pd  Pd14  1  0.496983  0.740110  0.999809  1
  Pd  Pd15  1  0.494768  0.010677  0.260832  1
  Pd  Pd16  1  0.260832  0.010677  0.494768  1
  Pd  Pd17  1  0.496983  0.999809  0.740110  1
  Pd  Pd18  1  0.740110  0.999809  0.496983  1
  Pd  Pd19  1  0.010677  0.494768  0.260832  1
  Pd  Pd20  1  0.999809  0.496983  0.740110  1
  Pd  Pd21  1  0.254268  0.494578  0.494578  1
  Pd  Pd22  1  0.747788  0.498854  0.498854  1
  Pd  Pd23  1  0.494578  0.254268  0.494578  1
  Pd  Pd24  1  0.498854  0.747788  0.498854  1
  Pd  Pd25  1  0.494578  0.494578  0.254268  1
  Pd  Pd26  1  0.498854  0.498854  0.747788  1
  Pd  Pd27  1  0.287756  0.008477  0.008477  1
  Pd  Pd28  1  0.700857  0.999845  0.999845  1
  Pd  Pd29  1  0.008477  0.287756  0.008477  1
  Pd  Pd30  1  0.999845  0.700857  0.999845  1
  Pd  Pd31  1  0.008477  0.008477  0.287756  1
  Pd  Pd32  1  0.999845  0.999845  0.700857  1
