# generated using pymatgen
data_Sm3DyCo16(P3Ru)4
_symmetry_space_group_name_H-M   'P 1'
_cell_length_a   3.70864300
_cell_length_b   10.44994179
_cell_length_c   11.82576390
_cell_angle_alpha   90.04456265
_cell_angle_beta   90.00000000
_cell_angle_gamma   90.00000000
_symmetry_Int_Tables_number   1
_chemical_formula_structural   Sm3DyCo16(P3Ru)4
_chemical_formula_sum   'Sm3 Dy1 Co16 P12 Ru4'
_cell_volume   458.30856472
_cell_formula_units_Z   1
loop_
 _symmetry_equiv_pos_site_id
 _symmetry_equiv_pos_as_xyz
  1  'x, y, z'
loop_
 _atom_site_type_symbol
 _atom_site_label
 _atom_site_symmetry_multiplicity
 _atom_site_fract_x
 _atom_site_fract_y
 _atom_site_fract_z
 _atom_site_occupancy
  Sm  Sm0  1  0.250000  0.586446  0.704025  1
  Sm  Sm1  1  0.250000  0.913769  0.203968  1
  Sm  Sm2  1  0.750000  0.413413  0.295942  1
  Dy  Dy3  1  0.750000  0.086258  0.796367  1
  Co  Co4  1  0.250000  0.408071  0.491237  1
  Co  Co5  1  0.250000  0.092167  0.988553  1
  Co  Co6  1  0.750000  0.591772  0.508944  1
  Co  Co7  1  0.750000  0.909226  0.008268  1
  Co  Co8  1  0.250000  0.220099  0.175717  1
  Co  Co9  1  0.250000  0.277717  0.676880  1
  Co  Co10  1  0.750000  0.780171  0.823627  1
  Co  Co11  1  0.750000  0.720653  0.323928  1
  Co  Co12  1  0.250000  0.888655  0.702723  1
  Co  Co13  1  0.250000  0.613474  0.201601  1
  Co  Co14  1  0.750000  0.113409  0.298402  1
  Co  Co15  1  0.750000  0.385415  0.797995  1
  Co  Co16  1  0.250000  0.464349  0.930735  1
  Co  Co17  1  0.250000  0.034446  0.432482  1
  Co  Co18  1  0.750000  0.534028  0.068534  1
  Co  Co19  1  0.750000  0.966641  0.570290  1
  P  P20  1  0.250000  0.419284  0.110264  1
  P  P21  1  0.250000  0.080469  0.612714  1
  P  P22  1  0.750000  0.580415  0.889430  1
  P  P23  1  0.750000  0.919718  0.390250  1
  P  P24  1  0.250000  0.271820  0.866496  1
  P  P25  1  0.250000  0.225345  0.367267  1
  P  P26  1  0.750000  0.725554  0.132702  1
  P  P27  1  0.750000  0.774632  0.632805  1
  P  P28  1  0.250000  0.597800  0.391072  1
  P  P29  1  0.250000  0.904274  0.890322  1
  P  P30  1  0.750000  0.402241  0.608896  1
  P  P31  1  0.750000  0.097826  0.108906  1
  Ru  Ru32  1  0.250000  0.716551  0.991264  1
  Ru  Ru33  1  0.250000  0.784676  0.492317  1
  Ru  Ru34  1  0.750000  0.283641  0.007048  1
  Ru  Ru35  1  0.750000  0.215573  0.508030  1
