# generated using pymatgen
data_DyHo9(Ga2Bi)2
_symmetry_space_group_name_H-M   'P 1'
_cell_length_a   8.21447500
_cell_length_b   8.21448400
_cell_length_c   12.65139200
_cell_angle_alpha   90.00000000
_cell_angle_beta   90.00255583
_cell_angle_gamma   90.00000000
_symmetry_Int_Tables_number   1
_chemical_formula_structural   DyHo9(Ga2Bi)2
_chemical_formula_sum   'Dy2 Ho18 Ga8 Bi4'
_cell_volume   853.68649772
_cell_formula_units_Z   2
loop_
 _symmetry_equiv_pos_site_id
 _symmetry_equiv_pos_as_xyz
  1  'x, y, z'
loop_
 _atom_site_type_symbol
 _atom_site_label
 _atom_site_symmetry_multiplicity
 _atom_site_fract_x
 _atom_site_fract_y
 _atom_site_fract_z
 _atom_site_occupancy
  Dy  Dy0  1  0.651515  0.651071  0.607554  1
  Dy  Dy1  1  0.651515  0.348929  0.107554  1
  Ho  Ho2  1  0.000073  0.499914  0.749641  1
  Ho  Ho3  1  0.000073  0.500086  0.249641  1
  Ho  Ho4  1  0.499926  0.999848  0.250546  1
  Ho  Ho5  1  0.499926  0.000152  0.750546  1
  Ho  Ho6  1  0.849567  0.849961  0.391399  1
  Ho  Ho7  1  0.151155  0.849327  0.891822  1
  Ho  Ho8  1  0.348841  0.349117  0.608895  1
  Ho  Ho9  1  0.348841  0.650883  0.108895  1
  Ho  Ho10  1  0.151155  0.150673  0.391822  1
  Ho  Ho11  1  0.849567  0.150039  0.891399  1
  Ho  Ho12  1  0.650833  0.348213  0.391296  1
  Ho  Ho13  1  0.348594  0.348779  0.891148  1
  Ho  Ho14  1  0.150656  0.848660  0.608378  1
  Ho  Ho15  1  0.849041  0.848947  0.108443  1
  Ho  Ho16  1  0.348594  0.651221  0.391148  1
  Ho  Ho17  1  0.650833  0.651787  0.891296  1
  Ho  Ho18  1  0.849041  0.151053  0.608443  1
  Ho  Ho19  1  0.150656  0.151340  0.108378  1
  Ga  Ga20  1  0.850350  0.850195  0.750147  1
  Ga  Ga21  1  0.850350  0.149805  0.250147  1
  Ga  Ga22  1  0.650168  0.650203  0.250522  1
  Ga  Ga23  1  0.349752  0.650184  0.750218  1
  Ga  Ga24  1  0.149675  0.149547  0.749927  1
  Ga  Ga25  1  0.149675  0.850453  0.249927  1
  Ga  Ga26  1  0.349752  0.349816  0.250218  1
  Ga  Ga27  1  0.650168  0.349797  0.750522  1
  Bi  Bi28  1  0.000265  0.499588  0.499570  1
  Bi  Bi29  1  0.000265  0.500412  0.999570  1
  Bi  Bi30  1  0.499589  0.000408  0.500494  1
  Bi  Bi31  1  0.499589  0.999592  0.000494  1
