# generated using pymatgen
data_Hf6V7CoRe4
_symmetry_space_group_name_H-M   'P 1'
_cell_length_a   5.21609417
_cell_length_b   5.22199087
_cell_length_c   12.81419900
_cell_angle_alpha   89.83385049
_cell_angle_beta   90.08066962
_cell_angle_gamma   119.87616170
_symmetry_Int_Tables_number   1
_chemical_formula_structural   Hf6V7CoRe4
_chemical_formula_sum   'Hf6 V7 Co1 Re4'
_cell_volume   302.65119688
_cell_formula_units_Z   1
loop_
 _symmetry_equiv_pos_site_id
 _symmetry_equiv_pos_as_xyz
  1  'x, y, z'
loop_
 _atom_site_type_symbol
 _atom_site_label
 _atom_site_symmetry_multiplicity
 _atom_site_fract_x
 _atom_site_fract_y
 _atom_site_fract_z
 _atom_site_occupancy
  Hf  Hf0  1  0.333910  0.666316  0.914370  1
  Hf  Hf1  1  0.001561  0.000102  0.250994  1
  Hf  Hf2  1  0.667048  0.333261  0.585066  1
  Hf  Hf3  1  0.332952  0.666739  0.664934  1
  Hf  Hf4  1  0.998439  0.999898  0.999005  1
  Hf  Hf5  1  0.666090  0.333684  0.335630  1
  V  V6  1  0.167045  0.330420  0.461613  1
  V  V7  1  0.832955  0.669580  0.788387  1
  V  V8  1  0.334816  0.666417  0.294191  1
  V  V9  1  0.665184  0.333583  0.955809  1
  V  V10  1  0.000000  0.500000  0.125000  1
  V  V11  1  0.669949  0.833104  0.461865  1
  V  V12  1  0.330051  0.166896  0.788135  1
  Co  Co13  1  0.000000  0.000000  0.625000  1
  Re  Re14  1  0.500000  0.500000  0.125000  1
  Re  Re15  1  0.168735  0.831471  0.459288  1
  Re  Re16  1  0.831265  0.168529  0.790712  1
  Re  Re17  1  0.500000  0.000000  0.125000  1
