# generated using pymatgen
data_CaNd6GaI12
_symmetry_space_group_name_H-M   'P 1'
_cell_length_a   9.98077142
_cell_length_b   9.98077203
_cell_length_c   9.98077300
_cell_angle_alpha   106.88368551
_cell_angle_beta   106.88367458
_cell_angle_gamma   106.88368286
_symmetry_Int_Tables_number   1
_chemical_formula_structural   CaNd6GaI12
_chemical_formula_sum   'Ca1 Nd6 Ga1 I12'
_cell_volume   830.62819012
_cell_formula_units_Z   1
loop_
 _symmetry_equiv_pos_site_id
 _symmetry_equiv_pos_as_xyz
  1  'x, y, z'
loop_
 _atom_site_type_symbol
 _atom_site_label
 _atom_site_symmetry_multiplicity
 _atom_site_fract_x
 _atom_site_fract_y
 _atom_site_fract_z
 _atom_site_occupancy
  Ca  Ca0  1  0.998007  0.998007  0.998007  1
  Nd  Nd1  1  0.525662  0.600230  0.812458  1
  Nd  Nd2  1  0.812458  0.525662  0.600230  1
  Nd  Nd3  1  0.600230  0.812458  0.525662  1
  Nd  Nd4  1  0.472100  0.397469  0.185422  1
  Nd  Nd5  1  0.185422  0.472100  0.397469  1
  Nd  Nd6  1  0.397469  0.185422  0.472100  1
  Ga  Ga7  1  0.498868  0.498868  0.498868  1
  I  I8  1  0.267359  0.817065  0.424599  1
  I  I9  1  0.424599  0.267359  0.817065  1
  I  I10  1  0.817065  0.424599  0.267359  1
  I  I11  1  0.730421  0.180852  0.573411  1
  I  I12  1  0.573411  0.730421  0.180852  1
  I  I13  1  0.180852  0.573411  0.730421  1
  I  I14  1  0.037851  0.118573  0.342914  1
  I  I15  1  0.342914  0.037851  0.118573  1
  I  I16  1  0.118573  0.342914  0.037851  1
  I  I17  1  0.959672  0.878759  0.653682  1
  I  I18  1  0.653682  0.959672  0.878759  1
  I  I19  1  0.878759  0.653682  0.959672  1
