# generated using pymatgen
data_Ti16PtRh7O4
_symmetry_space_group_name_H-M   'P 1'
_cell_length_a   8.23376110
_cell_length_b   8.24728589
_cell_length_c   8.24728500
_cell_angle_alpha   59.99999954
_cell_angle_beta   59.94564782
_cell_angle_gamma   59.94564609
_symmetry_Int_Tables_number   1
_chemical_formula_structural   Ti16PtRh7O4
_chemical_formula_sum   'Ti16 Pt1 Rh7 O4'
_cell_volume   395.68358372
_cell_formula_units_Z   1
loop_
 _symmetry_equiv_pos_site_id
 _symmetry_equiv_pos_as_xyz
  1  'x, y, z'
loop_
 _atom_site_type_symbol
 _atom_site_label
 _atom_site_symmetry_multiplicity
 _atom_site_fract_x
 _atom_site_fract_y
 _atom_site_fract_z
 _atom_site_occupancy
  Ti  Ti0  1  0.818330  0.181611  0.818448  1
  Ti  Ti1  1  0.181525  0.818196  0.182083  1
  Ti  Ti2  1  0.431804  0.068329  0.431536  1
  Ti  Ti3  1  0.431804  0.068329  0.068329  1
  Ti  Ti4  1  0.069736  0.432169  0.432169  1
  Ti  Ti5  1  0.069736  0.432169  0.065925  1
  Ti  Ti6  1  0.181525  0.182083  0.818196  1
  Ti  Ti7  1  0.431804  0.431536  0.068329  1
  Ti  Ti8  1  0.126220  0.624593  0.624593  1
  Ti  Ti9  1  0.623458  0.628156  0.120230  1
  Ti  Ti10  1  0.623458  0.628156  0.628156  1
  Ti  Ti11  1  0.623458  0.120230  0.628156  1
  Ti  Ti12  1  0.181525  0.818196  0.818196  1
  Ti  Ti13  1  0.818330  0.181611  0.181611  1
  Ti  Ti14  1  0.069736  0.065925  0.432169  1
  Ti  Ti15  1  0.818330  0.818448  0.181611  1
  Pt  Pt16  1  0.769248  0.410251  0.410251  1
  Rh  Rh17  1  0.408757  0.774964  0.408139  1
  Rh  Rh18  1  0.842847  0.840900  0.475354  1
  Rh  Rh19  1  0.842847  0.840900  0.840900  1
  Rh  Rh20  1  0.474116  0.841962  0.841962  1
  Rh  Rh21  1  0.408757  0.408139  0.408139  1
  Rh  Rh22  1  0.408757  0.408139  0.774964  1
  Rh  Rh23  1  0.842847  0.475354  0.840900  1
  O  O24  1  0.125147  0.124940  0.624973  1
  O  O25  1  0.625600  0.124800  0.124800  1
  O  O26  1  0.125147  0.124940  0.124940  1
  O  O27  1  0.125147  0.624973  0.124940  1
