# generated using pymatgen
data_Zr12Al5Hg3O4
_symmetry_space_group_name_H-M   'P 1'
_cell_length_a   7.46518775
_cell_length_b   7.46518775
_cell_length_c   7.46518775
_cell_angle_alpha   90.28331860
_cell_angle_beta   90.28331860
_cell_angle_gamma   90.28331860
_symmetry_Int_Tables_number   1
_chemical_formula_structural   Zr12Al5Hg3O4
_chemical_formula_sum   'Zr12 Al5 Hg3 O4'
_cell_volume   416.01234856
_cell_formula_units_Z   1
loop_
 _symmetry_equiv_pos_site_id
 _symmetry_equiv_pos_as_xyz
  1  'x, y, z'
loop_
 _atom_site_type_symbol
 _atom_site_label
 _atom_site_symmetry_multiplicity
 _atom_site_fract_x
 _atom_site_fract_y
 _atom_site_fract_z
 _atom_site_occupancy
  Zr  Zr0  1  0.787359  0.952217  0.380078  1
  Zr  Zr1  1  0.710815  0.041772  0.872828  1
  Zr  Zr2  1  0.212031  0.454068  0.123534  1
  Zr  Zr3  1  0.291626  0.547135  0.623059  1
  Zr  Zr4  1  0.952217  0.380078  0.787359  1
  Zr  Zr5  1  0.041772  0.872828  0.710815  1
  Zr  Zr6  1  0.454068  0.123534  0.212031  1
  Zr  Zr7  1  0.547135  0.623059  0.291626  1
  Zr  Zr8  1  0.380078  0.787359  0.952217  1
  Zr  Zr9  1  0.872828  0.710815  0.041772  1
  Zr  Zr10  1  0.123534  0.212031  0.454068  1
  Zr  Zr11  1  0.623059  0.291626  0.547135  1
  Al  Al12  1  0.677523  0.677523  0.677523  1
  Al  Al13  1  0.572742  0.433140  0.927366  1
  Al  Al14  1  0.433140  0.927366  0.572742  1
  Al  Al15  1  0.927366  0.572742  0.433140  1
  Al  Al16  1  0.070618  0.070618  0.070618  1
  Hg  Hg17  1  0.181362  0.818993  0.318026  1
  Hg  Hg18  1  0.318026  0.181362  0.818993  1
  Hg  Hg19  1  0.818993  0.318026  0.181362  1
  O  O20  1  0.878123  0.126193  0.623791  1
  O  O21  1  0.623791  0.878123  0.126193  1
  O  O22  1  0.126193  0.623791  0.878123  1
  O  O23  1  0.375601  0.375601  0.375601  1
