# generated using pymatgen
data_LaNd2Cd3Sn2Au
_symmetry_space_group_name_H-M   'P 1'
_cell_length_a   7.65711260
_cell_length_b   7.62831256
_cell_length_c   4.70121900
_cell_angle_alpha   90.00000000
_cell_angle_beta   90.00000000
_cell_angle_gamma   119.87566392
_symmetry_Int_Tables_number   1
_chemical_formula_structural   LaNd2Cd3Sn2Au
_chemical_formula_sum   'La1 Nd2 Cd3 Sn2 Au1'
_cell_volume   238.10986545
_cell_formula_units_Z   1
loop_
 _symmetry_equiv_pos_site_id
 _symmetry_equiv_pos_as_xyz
  1  'x, y, z'
loop_
 _atom_site_type_symbol
 _atom_site_label
 _atom_site_symmetry_multiplicity
 _atom_site_fract_x
 _atom_site_fract_y
 _atom_site_fract_z
 _atom_site_occupancy
  La  La0  1  0.000000  0.405908  0.000000  1
  Nd  Nd1  1  0.404246  0.000745  0.000000  1
  Nd  Nd2  1  0.595754  0.596499  0.000000  1
  Cd  Cd3  1  0.762647  0.999600  0.500000  1
  Cd  Cd4  1  0.237353  0.236953  0.500000  1
  Cd  Cd5  1  0.000000  0.762050  0.500000  1
  Sn  Sn6  1  0.663272  0.331910  0.500000  1
  Sn  Sn7  1  0.336728  0.668639  0.500000  1
  Au  Au8  1  0.000000  0.997697  0.000000  1
