# generated using pymatgen
data_Tb7Dy3Si16Sn
_symmetry_space_group_name_H-M   'P 1'
_cell_length_a   11.13815728
_cell_length_b   11.08209230
_cell_length_c   11.13751605
_cell_angle_alpha   144.71106767
_cell_angle_beta   135.78853750
_cell_angle_gamma   57.88760982
_symmetry_Int_Tables_number   1
_chemical_formula_structural   Tb7Dy3Si16Sn
_chemical_formula_sum   'Tb7 Dy3 Si16 Sn1'
_cell_volume   548.89479513
_cell_formula_units_Z   1
loop_
 _symmetry_equiv_pos_site_id
 _symmetry_equiv_pos_as_xyz
  1  'x, y, z'
loop_
 _atom_site_type_symbol
 _atom_site_label
 _atom_site_symmetry_multiplicity
 _atom_site_fract_x
 _atom_site_fract_y
 _atom_site_fract_z
 _atom_site_occupancy
  Tb  Tb0  1  0.756424  0.759712  0.517555  1
  Tb  Tb1  1  0.441114  0.971720  0.015668  1
  Tb  Tb2  1  0.848311  0.368792  0.018751  1
  Tb  Tb3  1  0.956014  0.971701  0.530576  1
  Tb  Tb4  1  0.150314  0.163992  0.515964  1
  Tb  Tb5  1  0.350057  0.368816  0.520508  1
  Tb  Tb6  1  0.242161  0.759715  0.003282  1
  Dy  Dy7  1  0.545161  0.558500  0.497214  1
  Dy  Dy8  1  0.061289  0.558524  0.013356  1
  Dy  Dy9  1  0.648040  0.163971  0.013702  1
  Si  Si10  1  0.199321  0.580463  0.381178  1
  Si  Si11  1  0.999939  0.084250  0.083977  1
  Si  Si12  1  0.697757  0.280377  0.582548  1
  Si  Si13  1  0.799563  0.178613  0.378382  1
  Si  Si14  1  0.895130  0.501299  0.605788  1
  Si  Si15  1  0.417936  0.870843  0.453465  1
  Si  Si16  1  0.103833  0.712686  0.608815  1
  Si  Si17  1  0.301547  0.894479  0.593314  1
  Si  Si18  1  0.578708  0.038911  0.460278  1
  Si  Si19  1  0.999172  0.430905  0.431427  1
  Si  Si20  1  0.882387  0.838123  0.955134  1
  Si  Si21  1  0.401464  0.500078  0.099049  1
  Si  Si22  1  0.117563  0.082671  0.965059  1
  Si  Si23  1  0.288586  0.238979  0.950653  1
  Si  Si24  1  0.499578  0.386138  0.887218  1
  Si  Si25  1  0.595696  0.705116  0.109465  1
  Sn  Sn26  1  0.722935  0.692121  0.969169  1
