# generated using pymatgen
data_Ho2Al8SiTcPd2
_symmetry_space_group_name_H-M   'P 1'
_cell_length_a   7.58415551
_cell_length_b   7.58415632
_cell_length_c   9.40018900
_cell_angle_alpha   90.00000000
_cell_angle_beta   90.00000000
_cell_angle_gamma   119.16914713
_symmetry_Int_Tables_number   1
_chemical_formula_structural   Ho2Al8SiTcPd2
_chemical_formula_sum   'Ho4 Al16 Si2 Tc2 Pd4'
_cell_volume   472.12520468
_cell_formula_units_Z   2
loop_
 _symmetry_equiv_pos_site_id
 _symmetry_equiv_pos_as_xyz
  1  'x, y, z'
loop_
 _atom_site_type_symbol
 _atom_site_label
 _atom_site_symmetry_multiplicity
 _atom_site_fract_x
 _atom_site_fract_y
 _atom_site_fract_z
 _atom_site_occupancy
  Ho  Ho0  1  0.995444  0.679263  0.250000  1
  Ho  Ho1  1  0.004556  0.320737  0.750000  1
  Ho  Ho2  1  0.679263  0.995444  0.250000  1
  Ho  Ho3  1  0.320737  0.004556  0.750000  1
  Al  Al4  1  0.002006  0.333507  0.078659  1
  Al  Al5  1  0.997994  0.666493  0.921341  1
  Al  Al6  1  0.997994  0.666493  0.578659  1
  Al  Al7  1  0.333507  0.002006  0.421341  1
  Al  Al8  1  0.002006  0.333507  0.421341  1
  Al  Al9  1  0.666493  0.997994  0.578659  1
  Al  Al10  1  0.666493  0.997994  0.921341  1
  Al  Al11  1  0.333507  0.002006  0.078659  1
  Al  Al12  1  0.330675  0.330675  0.555625  1
  Al  Al13  1  0.669325  0.669326  0.444375  1
  Al  Al14  1  0.669325  0.669326  0.055625  1
  Al  Al15  1  0.330675  0.330675  0.944375  1
  Al  Al16  1  0.338939  0.548691  0.250000  1
  Al  Al17  1  0.661061  0.451309  0.750000  1
  Al  Al18  1  0.548691  0.338939  0.250000  1
  Al  Al19  1  0.451309  0.661061  0.750000  1
  Si  Si20  1  0.125929  0.125929  0.250000  1
  Si  Si21  1  0.874071  0.874071  0.750000  1
  Tc  Tc22  1  0.000000  0.000000  0.000000  1
  Tc  Tc23  1  0.000000  0.000000  0.500000  1
  Pd  Pd24  1  0.672493  0.327507  0.000000  1
  Pd  Pd25  1  0.327507  0.672493  0.000000  1
  Pd  Pd26  1  0.327507  0.672493  0.500000  1
  Pd  Pd27  1  0.672493  0.327507  0.500000  1
