# generated using pymatgen
data_Rb2Be2(GeO3)3
_symmetry_space_group_name_H-M   'P 1'
_cell_length_a   7.32996400
_cell_length_b   10.83062744
_cell_length_c   12.85972600
_cell_angle_alpha   73.28348369
_cell_angle_beta   90.00000000
_cell_angle_gamma   90.00000000
_symmetry_Int_Tables_number   1
_chemical_formula_structural   Rb2Be2(GeO3)3
_chemical_formula_sum   'Rb8 Be8 Ge12 O36'
_cell_volume   977.76531523
_cell_formula_units_Z   4
loop_
 _symmetry_equiv_pos_site_id
 _symmetry_equiv_pos_as_xyz
  1  'x, y, z'
loop_
 _atom_site_type_symbol
 _atom_site_label
 _atom_site_symmetry_multiplicity
 _atom_site_fract_x
 _atom_site_fract_y
 _atom_site_fract_z
 _atom_site_occupancy
  Rb  Rb0  1  0.380155  0.537831  0.147438  1
  Rb  Rb1  1  0.099345  0.060342  0.352747  1
  Rb  Rb2  1  0.880155  0.462169  0.352562  1
  Rb  Rb3  1  0.619845  0.462169  0.852562  1
  Rb  Rb4  1  0.119845  0.537831  0.647438  1
  Rb  Rb5  1  0.400655  0.060342  0.852747  1
  Rb  Rb6  1  0.900655  0.939658  0.647253  1
  Rb  Rb7  1  0.599345  0.939658  0.147253  1
  Be  Be8  1  0.065340  0.066127  0.054998  1
  Be  Be9  1  0.934660  0.933873  0.945002  1
  Be  Be10  1  0.565340  0.933873  0.445002  1
  Be  Be11  1  0.084948  0.428382  0.960289  1
  Be  Be12  1  0.584948  0.571618  0.539711  1
  Be  Be13  1  0.434660  0.066127  0.554998  1
  Be  Be14  1  0.415052  0.428382  0.460289  1
  Be  Be15  1  0.915052  0.571618  0.039711  1
  Ge  Ge16  1  0.315473  0.739805  0.378080  1
  Ge  Ge17  1  0.869991  0.761211  0.419746  1
  Ge  Ge18  1  0.130009  0.238789  0.580254  1
  Ge  Ge19  1  0.630009  0.761211  0.919746  1
  Ge  Ge20  1  0.968639  0.239989  0.822427  1
  Ge  Ge21  1  0.184527  0.739805  0.878080  1
  Ge  Ge22  1  0.369991  0.238789  0.080254  1
  Ge  Ge23  1  0.815473  0.260195  0.121920  1
  Ge  Ge24  1  0.531361  0.239989  0.322427  1
  Ge  Ge25  1  0.031361  0.760011  0.177573  1
  Ge  Ge26  1  0.684527  0.260195  0.621920  1
  Ge  Ge27  1  0.468639  0.760011  0.677573  1
  O  O28  1  0.789077  0.615153  0.502437  1
  O  O29  1  0.210923  0.384847  0.497563  1
  O  O30  1  0.860054  0.761673  0.278324  1
  O  O31  1  0.289077  0.384847  0.997563  1
  O  O32  1  0.450622  0.874460  0.365067  1
  O  O33  1  0.360054  0.238327  0.221676  1
  O  O34  1  0.710923  0.615153  0.002437  1
  O  O35  1  0.139946  0.238327  0.721676  1
  O  O36  1  0.981019  0.093621  0.926448  1
  O  O37  1  0.549378  0.125540  0.634933  1
  O  O38  1  0.887685  0.238837  0.549645  1
  O  O39  1  0.752148  0.258855  0.257925  1
  O  O40  1  0.500713  0.621710  0.637022  1
  O  O41  1  0.481019  0.906379  0.573552  1
  O  O42  1  0.247852  0.741145  0.742075  1
  O  O43  1  0.000713  0.378290  0.862978  1
  O  O44  1  0.999287  0.621710  0.137022  1
  O  O45  1  0.112315  0.761163  0.450355  1
  O  O46  1  0.217920  0.098066  0.558863  1
  O  O47  1  0.612315  0.238837  0.049645  1
  O  O48  1  0.430127  0.592580  0.436876  1
  O  O49  1  0.782080  0.901934  0.441137  1
  O  O50  1  0.049378  0.874460  0.865067  1
  O  O51  1  0.930127  0.407420  0.063124  1
  O  O52  1  0.069873  0.592580  0.936876  1
  O  O53  1  0.499287  0.378290  0.362978  1
  O  O54  1  0.569873  0.407420  0.563124  1
  O  O55  1  0.387685  0.761163  0.950355  1
  O  O56  1  0.747852  0.258855  0.757925  1
  O  O57  1  0.518981  0.093621  0.426448  1
  O  O58  1  0.252148  0.741145  0.242075  1
  O  O59  1  0.018981  0.906379  0.073552  1
  O  O60  1  0.282080  0.098066  0.058863  1
  O  O61  1  0.950622  0.125540  0.134933  1
  O  O62  1  0.717920  0.901934  0.941137  1
  O  O63  1  0.639946  0.761673  0.778324  1
