# generated using pymatgen
data_Zr4ZnAuN2
_symmetry_space_group_name_H-M   'P 1'
_cell_length_a   8.81116824
_cell_length_b   8.81116735
_cell_length_c   4.54543700
_cell_angle_alpha   90.00000000
_cell_angle_beta   90.00000000
_cell_angle_gamma   158.52668639
_symmetry_Int_Tables_number   1
_chemical_formula_structural   Zr4ZnAuN2
_chemical_formula_sum   'Zr4 Zn1 Au1 N2'
_cell_volume   129.18263885
_cell_formula_units_Z   1
loop_
 _symmetry_equiv_pos_site_id
 _symmetry_equiv_pos_as_xyz
  1  'x, y, z'
loop_
 _atom_site_type_symbol
 _atom_site_label
 _atom_site_symmetry_multiplicity
 _atom_site_fract_x
 _atom_site_fract_y
 _atom_site_fract_z
 _atom_site_occupancy
  Zr  Zr0  1  0.789289  0.210713  0.250000  1
  Zr  Zr1  1  0.607508  0.392493  0.250000  1
  Zr  Zr2  1  0.393845  0.606156  0.750000  1
  Zr  Zr3  1  0.211310  0.788692  0.750000  1
  Zn  Zn4  1  0.956742  0.043259  0.250000  1
  Au  Au5  1  0.040608  0.959393  0.750000  1
  N  N6  1  0.198377  0.801625  0.250000  1
  N  N7  1  0.802327  0.197675  0.750000  1
