# generated using pymatgen
data_Ta6FeSi6Tc5
_symmetry_space_group_name_H-M   'P 1'
_cell_length_a   7.50184401
_cell_length_b   7.50858284
_cell_length_c   7.50858200
_cell_angle_alpha   127.72065648
_cell_angle_beta   123.72576051
_cell_angle_gamma   80.40503086
_symmetry_Int_Tables_number   1
_chemical_formula_structural   Ta6FeSi6Tc5
_chemical_formula_sum   'Ta6 Fe1 Si6 Tc5'
_cell_volume   268.45373608
_cell_formula_units_Z   1
loop_
 _symmetry_equiv_pos_site_id
 _symmetry_equiv_pos_as_xyz
  1  'x, y, z'
loop_
 _atom_site_type_symbol
 _atom_site_label
 _atom_site_symmetry_multiplicity
 _atom_site_fract_x
 _atom_site_fract_y
 _atom_site_fract_z
 _atom_site_occupancy
  Ta  Ta0  1  0.553017  0.097161  0.042739  1
  Ta  Ta1  1  0.446983  0.489722  0.544144  1
  Ta  Ta2  1  0.962368  0.498158  0.030191  1
  Ta  Ta3  1  0.037632  0.067823  0.535790  1
  Ta  Ta4  1  0.753676  0.914841  0.662844  1
  Ta  Ta5  1  0.246324  0.909167  0.161166  1
  Fe  Fe6  1  0.000000  0.246517  0.246517  1
  Si  Si7  1  0.336874  0.826259  0.497409  1
  Si  Si8  1  0.663126  0.160534  0.489384  1
  Si  Si9  1  0.829914  0.833100  0.994256  1
  Si  Si10  1  0.170086  0.164342  0.003187  1
  Si  Si11  1  0.777090  0.524629  0.253090  1
  Si  Si12  1  0.222910  0.475999  0.747540  1
  Tc  Tc13  1  0.158297  0.747991  0.653392  1
  Tc  Tc14  1  0.841703  0.495095  0.589694  1
  Tc  Tc15  1  0.593198  0.748654  0.089959  1
  Tc  Tc16  1  0.406802  0.496760  0.155456  1
  Tc  Tc17  1  0.500000  0.245244  0.745244  1
