# generated using pymatgen
data_DyNpCrO6
_symmetry_space_group_name_H-M   'P 1'
_cell_length_a   5.34315401
_cell_length_b   5.34176957
_cell_length_c   9.83271600
_cell_angle_alpha   90.00793723
_cell_angle_beta   89.99603241
_cell_angle_gamma   119.99142057
_symmetry_Int_Tables_number   1
_chemical_formula_structural   DyNpCrO6
_chemical_formula_sum   'Dy2 Np2 Cr2 O12'
_cell_volume   243.06616257
_cell_formula_units_Z   2
loop_
 _symmetry_equiv_pos_site_id
 _symmetry_equiv_pos_as_xyz
  1  'x, y, z'
loop_
 _atom_site_type_symbol
 _atom_site_label
 _atom_site_symmetry_multiplicity
 _atom_site_fract_x
 _atom_site_fract_y
 _atom_site_fract_z
 _atom_site_occupancy
  Dy  Dy0  1  0.000000  0.000000  0.000000  1
  Dy  Dy1  1  0.000000  0.000000  0.500000  1
  Np  Np2  1  0.333494  0.666746  0.750000  1
  Np  Np3  1  0.666506  0.333254  0.250000  1
  Cr  Cr4  1  0.332997  0.666499  0.250000  1
  Cr  Cr5  1  0.667003  0.333501  0.750000  1
  O  O6  1  0.347481  0.354733  0.138105  1
  O  O7  1  0.644988  0.992740  0.138141  1
  O  O8  1  0.006974  0.652237  0.138105  1
  O  O9  1  0.652519  0.645267  0.861895  1
  O  O10  1  0.355012  0.007260  0.861859  1
  O  O11  1  0.993026  0.347763  0.861895  1
  O  O12  1  0.644988  0.652247  0.361859  1
  O  O13  1  0.347481  0.992749  0.361895  1
  O  O14  1  0.006974  0.354738  0.361895  1
  O  O15  1  0.355012  0.347753  0.638141  1
  O  O16  1  0.652519  0.007251  0.638105  1
  O  O17  1  0.993026  0.645262  0.638105  1
