# generated using pymatgen
data_Yb2GaNiRh
_symmetry_space_group_name_H-M   'P 1'
_cell_length_a   4.01567252
_cell_length_b   5.57514136
_cell_length_c   5.46939380
_cell_angle_alpha   120.64166890
_cell_angle_beta   111.53712373
_cell_angle_gamma   89.99999368
_symmetry_Int_Tables_number   1
_chemical_formula_structural   Yb2GaNiRh
_chemical_formula_sum   'Yb2 Ga1 Ni1 Rh1'
_cell_volume   95.27985944
_cell_formula_units_Z   1
loop_
 _symmetry_equiv_pos_site_id
 _symmetry_equiv_pos_as_xyz
  1  'x, y, z'
loop_
 _atom_site_type_symbol
 _atom_site_label
 _atom_site_symmetry_multiplicity
 _atom_site_fract_x
 _atom_site_fract_y
 _atom_site_fract_z
 _atom_site_occupancy
  Yb  Yb0  1  0.800109  0.299548  0.600217  1
  Yb  Yb1  1  0.199891  0.699331  0.399783  1
  Ga  Ga2  1  0.000000  0.993186  0.000000  1
  Ni  Ni3  1  0.500000  0.743866  0.000000  1
  Rh  Rh4  1  0.500000  0.264070  0.000000  1
