# generated using pymatgen
data_Nd3Th(CdAu2)2
_symmetry_space_group_name_H-M   'P 1'
_cell_length_a   3.83403800
_cell_length_b   8.22106250
_cell_length_c   8.22106250
_cell_angle_alpha   90.67234078
_cell_angle_beta   90.00000000
_cell_angle_gamma   90.00000000
_symmetry_Int_Tables_number   1
_chemical_formula_structural   Nd3Th(CdAu2)2
_chemical_formula_sum   'Nd3 Th1 Cd2 Au4'
_cell_volume   259.10894821
_cell_formula_units_Z   1
loop_
 _symmetry_equiv_pos_site_id
 _symmetry_equiv_pos_as_xyz
  1  'x, y, z'
loop_
 _atom_site_type_symbol
 _atom_site_label
 _atom_site_symmetry_multiplicity
 _atom_site_fract_x
 _atom_site_fract_y
 _atom_site_fract_z
 _atom_site_occupancy
  Nd  Nd0  1  0.500000  0.825574  0.325574  1
  Nd  Nd1  1  0.500000  0.327667  0.173132  1
  Nd  Nd2  1  0.500000  0.673132  0.827667  1
  Th  Th3  1  0.500000  0.171868  0.671868  1
  Cd  Cd4  1  0.000000  0.999959  0.001034  1
  Cd  Cd5  1  0.000000  0.501034  0.499959  1
  Au  Au6  1  0.000000  0.626101  0.126101  1
  Au  Au7  1  0.000000  0.370243  0.870243  1
  Au  Au8  1  0.000000  0.875672  0.628750  1
  Au  Au9  1  0.000000  0.128750  0.375672  1
