# generated using pymatgen
data_TmSc(Be12Ni)2
_symmetry_space_group_name_H-M   'P 1'
_cell_length_a   7.17981091
_cell_length_b   7.25085268
_cell_length_c   7.15107013
_cell_angle_alpha   59.80099536
_cell_angle_beta   59.43985765
_cell_angle_gamma   59.40920151
_symmetry_Int_Tables_number   1
_chemical_formula_structural   TmSc(Be12Ni)2
_chemical_formula_sum   'Tm1 Sc1 Be24 Ni2'
_cell_volume   260.54296232
_cell_formula_units_Z   1
loop_
 _symmetry_equiv_pos_site_id
 _symmetry_equiv_pos_as_xyz
  1  'x, y, z'
loop_
 _atom_site_type_symbol
 _atom_site_label
 _atom_site_symmetry_multiplicity
 _atom_site_fract_x
 _atom_site_fract_y
 _atom_site_fract_z
 _atom_site_occupancy
  Tm  Tm0  1  0.751411  0.748589  0.751411  1
  Sc  Sc1  1  0.248401  0.251599  0.248401  1
  Be  Be2  1  0.499977  0.500023  0.499977  1
  Be  Be3  1  0.000021  0.999979  0.000021  1
  Be  Be4  1  0.567750  0.788829  0.431321  1
  Be  Be5  1  0.431321  0.212099  0.567750  1
  Be  Be6  1  0.294679  0.936592  0.704007  1
  Be  Be7  1  0.704007  0.064722  0.294679  1
  Be  Be8  1  0.932692  0.283576  0.068218  1
  Be  Be9  1  0.068218  0.715514  0.932692  1
  Be  Be10  1  0.205623  0.799875  0.559082  1
  Be  Be11  1  0.795530  0.201453  0.439621  1
  Be  Be12  1  0.439621  0.563398  0.795530  1
  Be  Be13  1  0.559082  0.435419  0.205623  1
  Be  Be14  1  0.709176  0.284850  0.936602  1
  Be  Be15  1  0.289638  0.714603  0.064420  1
  Be  Be16  1  0.064420  0.931339  0.289638  1
  Be  Be17  1  0.936602  0.069374  0.709176  1
  Be  Be18  1  0.560638  0.206954  0.796998  1
  Be  Be19  1  0.438394  0.793869  0.204365  1
  Be  Be20  1  0.796998  0.435409  0.560638  1
  Be  Be21  1  0.204365  0.563373  0.438394  1
  Be  Be22  1  0.937066  0.709223  0.290095  1
  Be  Be23  1  0.064021  0.289781  0.708532  1
  Be  Be24  1  0.290095  0.063615  0.937066  1
  Be  Be25  1  0.708532  0.937667  0.064021  1
  Ni  Ni26  1  0.803689  0.557130  0.198033  1
  Ni  Ni27  1  0.198033  0.441147  0.803689  1
