# generated using pymatgen
data_NdLu2Ir5Rh4
_symmetry_space_group_name_H-M   'P 1'
_cell_length_a   5.29955390
_cell_length_b   5.29428139
_cell_length_c   17.41356610
_cell_angle_alpha   89.99999883
_cell_angle_beta   90.01048437
_cell_angle_gamma   119.96709368
_symmetry_Int_Tables_number   1
_chemical_formula_structural   NdLu2Ir5Rh4
_chemical_formula_sum   'Nd2 Lu4 Ir10 Rh8'
_cell_volume   423.26132246
_cell_formula_units_Z   2
loop_
 _symmetry_equiv_pos_site_id
 _symmetry_equiv_pos_as_xyz
  1  'x, y, z'
loop_
 _atom_site_type_symbol
 _atom_site_label
 _atom_site_symmetry_multiplicity
 _atom_site_fract_x
 _atom_site_fract_y
 _atom_site_fract_z
 _atom_site_occupancy
  Nd  Nd0  1  0.333590  0.666796  0.749889  1
  Nd  Nd1  1  0.666743  0.333371  0.249446  1
  Lu  Lu2  1  0.333157  0.666579  0.540547  1
  Lu  Lu3  1  0.666702  0.333351  0.040162  1
  Lu  Lu4  1  0.666772  0.333386  0.460155  1
  Lu  Lu5  1  0.332312  0.666157  0.959955  1
  Ir  Ir6  1  0.168140  0.335718  0.124273  1
  Ir  Ir7  1  0.832148  0.664082  0.623649  1
  Ir  Ir8  1  0.664613  0.832306  0.123976  1
  Ir  Ir9  1  0.168140  0.832421  0.124273  1
  Ir  Ir10  1  0.832148  0.168066  0.623649  1
  Ir  Ir11  1  0.335555  0.167778  0.624014  1
  Ir  Ir12  1  0.833977  0.664383  0.876095  1
  Ir  Ir13  1  0.833977  0.169595  0.876095  1
  Ir  Ir14  1  0.996601  0.998300  0.999490  1
  Ir  Ir15  1  0.000414  0.000207  0.499389  1
  Rh  Rh16  1  0.337324  0.168662  0.876291  1
  Rh  Rh17  1  0.664211  0.832105  0.376581  1
  Rh  Rh18  1  0.167687  0.832145  0.376331  1
  Rh  Rh19  1  0.167687  0.335541  0.376331  1
  Rh  Rh20  1  0.000205  0.000103  0.249746  1
  Rh  Rh21  1  0.997084  0.998542  0.749934  1
  Rh  Rh22  1  0.333374  0.666687  0.250027  1
  Rh  Rh23  1  0.667437  0.333718  0.749701  1
