# generated using pymatgen
data_Nb8Fe8Si13P
_symmetry_space_group_name_H-M   'P 1'
_cell_length_a   9.22336646
_cell_length_b   9.22336724
_cell_length_c   9.23016961
_cell_angle_alpha   94.21819439
_cell_angle_beta   94.21819637
_cell_angle_gamma   148.51552162
_symmetry_Int_Tables_number   1
_chemical_formula_structural   Nb8Fe8Si13P
_chemical_formula_sum   'Nb8 Fe8 Si13 P1'
_cell_volume   394.73373805
_cell_formula_units_Z   1
loop_
 _symmetry_equiv_pos_site_id
 _symmetry_equiv_pos_as_xyz
  1  'x, y, z'
loop_
 _atom_site_type_symbol
 _atom_site_label
 _atom_site_symmetry_multiplicity
 _atom_site_fract_x
 _atom_site_fract_y
 _atom_site_fract_z
 _atom_site_occupancy
  Nb  Nb0  1  0.135496  0.135496  0.270991  1
  Nb  Nb1  1  0.864667  0.864667  0.729335  1
  Nb  Nb2  1  0.865469  0.134780  0.000249  1
  Nb  Nb3  1  0.134780  0.865469  0.000249  1
  Nb  Nb4  1  0.499818  0.691531  0.191349  1
  Nb  Nb5  1  0.497026  0.308178  0.805204  1
  Nb  Nb6  1  0.308178  0.497026  0.805204  1
  Nb  Nb7  1  0.691531  0.499818  0.191349  1
  Fe  Fe8  1  0.399069  0.899069  0.798138  1
  Fe  Fe9  1  0.100843  0.600843  0.201686  1
  Fe  Fe10  1  0.100726  0.905190  0.502260  1
  Fe  Fe11  1  0.401534  0.597070  0.502260  1
  Fe  Fe12  1  0.597070  0.401534  0.502260  1
  Fe  Fe13  1  0.905190  0.100726  0.502260  1
  Fe  Fe14  1  0.899069  0.399069  0.798138  1
  Fe  Fe15  1  0.600843  0.100843  0.201686  1
  Si  Si16  1  0.706569  0.706569  0.413137  1
  Si  Si17  1  0.707743  0.291332  0.999076  1
  Si  Si18  1  0.291332  0.707743  0.999076  1
  Si  Si19  1  0.002333  0.297602  0.299935  1
  Si  Si20  1  0.998570  0.702659  0.701229  1
  Si  Si21  1  0.702659  0.998570  0.701229  1
  Si  Si22  1  0.297602  0.002333  0.299935  1
  Si  Si23  1  0.502969  0.905312  0.408280  1
  Si  Si24  1  0.498090  0.094069  0.592159  1
  Si  Si25  1  0.094069  0.498090  0.592159  1
  Si  Si26  1  0.905312  0.502969  0.408280  1
  Si  Si27  1  0.751272  0.751272  0.999843  1
  Si  Si28  1  0.248570  0.248570  0.999843  1
  P  P29  1  0.291599  0.291599  0.583199  1
