# generated using pymatgen
data_Ca2PrNd17Ir12
_symmetry_space_group_name_H-M   'P 1'
_cell_length_a   11.25521200
_cell_length_b   11.25521200
_cell_length_c   6.56192400
_cell_angle_alpha   90.00000000
_cell_angle_beta   90.00000000
_cell_angle_gamma   90.00000000
_symmetry_Int_Tables_number   1
_chemical_formula_structural   Ca2PrNd17Ir12
_chemical_formula_sum   'Ca2 Pr1 Nd17 Ir12'
_cell_volume   831.26320133
_cell_formula_units_Z   1
loop_
 _symmetry_equiv_pos_site_id
 _symmetry_equiv_pos_as_xyz
  1  'x, y, z'
loop_
 _atom_site_type_symbol
 _atom_site_label
 _atom_site_symmetry_multiplicity
 _atom_site_fract_x
 _atom_site_fract_y
 _atom_site_fract_z
 _atom_site_occupancy
  Ca  Ca0  1  0.000000  0.000000  0.000000  1
  Ca  Ca1  1  0.500000  0.500000  0.500000  1
  Pr  Pr2  1  0.500000  0.500000  0.000000  1
  Nd  Nd3  1  0.089169  0.287635  0.112555  1
  Nd  Nd4  1  0.792331  0.410977  0.114121  1
  Nd  Nd5  1  0.207669  0.589023  0.114121  1
  Nd  Nd6  1  0.910831  0.712365  0.112555  1
  Nd  Nd7  1  0.411110  0.788255  0.387587  1
  Nd  Nd8  1  0.588890  0.211745  0.387587  1
  Nd  Nd9  1  0.292055  0.088930  0.385809  1
  Nd  Nd10  1  0.707945  0.911070  0.385809  1
  Nd  Nd11  1  0.410977  0.207669  0.885879  1
  Nd  Nd12  1  0.712365  0.089169  0.887445  1
  Nd  Nd13  1  0.287635  0.910831  0.887445  1
  Nd  Nd14  1  0.589023  0.792331  0.885879  1
  Nd  Nd15  1  0.088930  0.707945  0.614191  1
  Nd  Nd16  1  0.911070  0.292055  0.614191  1
  Nd  Nd17  1  0.211745  0.411110  0.612413  1
  Nd  Nd18  1  0.788255  0.588890  0.612413  1
  Nd  Nd19  1  0.000000  0.000000  0.500000  1
  Ir  Ir20  1  0.157186  0.845935  0.257730  1
  Ir  Ir21  1  0.342368  0.344853  0.243259  1
  Ir  Ir22  1  0.657632  0.655147  0.243259  1
  Ir  Ir23  1  0.842814  0.154065  0.257730  1
  Ir  Ir24  1  0.344853  0.657632  0.756741  1
  Ir  Ir25  1  0.154065  0.157186  0.742270  1
  Ir  Ir26  1  0.845935  0.842814  0.742270  1
  Ir  Ir27  1  0.655147  0.342368  0.756741  1
  Ir  Ir28  1  0.000000  0.500000  0.378549  1
  Ir  Ir29  1  0.500000  0.000000  0.120725  1
  Ir  Ir30  1  0.500000  0.000000  0.621451  1
  Ir  Ir31  1  0.000000  0.500000  0.879275  1
