# generated using pymatgen
data_Nd16MgCo3NiAg3
_symmetry_space_group_name_H-M   'P 1'
_cell_length_a   9.74509018
_cell_length_b   9.81205144
_cell_length_c   9.81205100
_cell_angle_alpha   59.99999811
_cell_angle_beta   59.77243641
_cell_angle_gamma   59.77243827
_symmetry_Int_Tables_number   1
_chemical_formula_structural   Nd16MgCo3NiAg3
_chemical_formula_sum   'Nd16 Mg1 Co3 Ni1 Ag3'
_cell_volume   661.13184027
_cell_formula_units_Z   1
loop_
 _symmetry_equiv_pos_site_id
 _symmetry_equiv_pos_as_xyz
  1  'x, y, z'
loop_
 _atom_site_type_symbol
 _atom_site_label
 _atom_site_symmetry_multiplicity
 _atom_site_fract_x
 _atom_site_fract_y
 _atom_site_fract_z
 _atom_site_occupancy
  Nd  Nd0  1  0.812849  0.190203  0.190203  1
  Nd  Nd1  1  0.185244  0.813513  0.813513  1
  Nd  Nd2  1  0.185244  0.813513  0.187729  1
  Nd  Nd3  1  0.812849  0.190203  0.806746  1
  Nd  Nd4  1  0.185244  0.187729  0.813513  1
  Nd  Nd5  1  0.812849  0.806746  0.190203  1
  Nd  Nd6  1  0.936991  0.563025  0.563025  1
  Nd  Nd7  1  0.560787  0.937549  0.937549  1
  Nd  Nd8  1  0.560787  0.937549  0.564116  1
  Nd  Nd9  1  0.936991  0.563025  0.936958  1
  Nd  Nd10  1  0.560787  0.564116  0.937549  1
  Nd  Nd11  1  0.936991  0.936958  0.563025  1
  Nd  Nd12  1  0.345374  0.347914  0.347914  1
  Nd  Nd13  1  0.345374  0.347914  0.958798  1
  Nd  Nd14  1  0.345374  0.958798  0.347914  1
  Nd  Nd15  1  0.948361  0.350546  0.350546  1
  Mg  Mg16  1  0.292377  0.569208  0.569208  1
  Co  Co17  1  0.139681  0.142361  0.142361  1
  Co  Co18  1  0.139681  0.142361  0.575597  1
  Co  Co19  1  0.139681  0.575597  0.142361  1
  Ni  Ni20  1  0.575320  0.141560  0.141560  1
  Ag  Ag21  1  0.580388  0.584131  0.584131  1
  Ag  Ag22  1  0.580388  0.584131  0.251351  1
  Ag  Ag23  1  0.580388  0.251351  0.584131  1
