# generated using pymatgen
data_Lu8CuTc11Ge16
_symmetry_space_group_name_H-M   'P 1'
_cell_length_a   6.78274528
_cell_length_b   6.80472316
_cell_length_c   12.74450600
_cell_angle_alpha   90.58935998
_cell_angle_beta   90.07799380
_cell_angle_gamma   89.60855751
_symmetry_Int_Tables_number   1
_chemical_formula_structural   Lu8CuTc11Ge16
_chemical_formula_sum   'Lu8 Cu1 Tc11 Ge16'
_cell_volume   588.17356497
_cell_formula_units_Z   1
loop_
 _symmetry_equiv_pos_site_id
 _symmetry_equiv_pos_as_xyz
  1  'x, y, z'
loop_
 _atom_site_type_symbol
 _atom_site_label
 _atom_site_symmetry_multiplicity
 _atom_site_fract_x
 _atom_site_fract_y
 _atom_site_fract_z
 _atom_site_occupancy
  Lu  Lu0  1  0.010618  0.663327  0.030551  1
  Lu  Lu1  1  0.847606  0.509333  0.277312  1
  Lu  Lu2  1  0.159457  0.499606  0.777885  1
  Lu  Lu3  1  0.505208  0.845507  0.721950  1
  Lu  Lu4  1  0.492339  0.155796  0.220143  1
  Lu  Lu5  1  0.989148  0.339491  0.531474  1
  Lu  Lu6  1  0.662941  0.015392  0.970618  1
  Lu  Lu7  1  0.342524  0.991909  0.472005  1
  Cu  Cu8  1  0.797746  0.998572  0.369483  1
  Tc  Tc9  1  0.341609  0.340408  0.998154  1
  Tc  Tc10  1  0.161073  0.829060  0.257122  1
  Tc  Tc11  1  0.835095  0.170291  0.750252  1
  Tc  Tc12  1  0.661709  0.658801  0.500708  1
  Tc  Tc13  1  0.991800  0.178842  0.122138  1
  Tc  Tc14  1  0.298922  0.458130  0.384501  1
  Tc  Tc15  1  0.691655  0.531931  0.883936  1
  Tc  Tc16  1  0.481828  0.305418  0.613979  1
  Tc  Tc17  1  0.523449  0.696315  0.116624  1
  Tc  Tc18  1  0.022304  0.818810  0.632779  1
  Tc  Tc19  1  0.179146  0.989519  0.870769  1
  Ge  Ge20  1  0.284908  0.979602  0.063138  1
  Ge  Ge21  1  0.512013  0.756556  0.315510  1
  Ge  Ge22  1  0.481897  0.236305  0.812986  1
  Ge  Ge23  1  0.767286  0.521466  0.687530  1
  Ge  Ge24  1  0.236575  0.476214  0.185843  1
  Ge  Ge25  1  0.728090  0.013135  0.565715  1
  Ge  Ge26  1  0.980233  0.287935  0.932241  1
  Ge  Ge27  1  0.020214  0.725561  0.438544  1
  Ge  Ge28  1  0.693899  0.386579  0.072606  1
  Ge  Ge29  1  0.099770  0.179565  0.315357  1
  Ge  Ge30  1  0.881970  0.814779  0.819695  1
  Ge  Ge31  1  0.192020  0.121373  0.681278  1
  Ge  Ge32  1  0.810639  0.889714  0.182829  1
  Ge  Ge33  1  0.309303  0.613113  0.570966  1
  Ge  Ge34  1  0.382456  0.695728  0.928709  1
  Ge  Ge35  1  0.622551  0.305920  0.424664  1
