# generated using pymatgen
data_Nd11Hg9Rh4
_symmetry_space_group_name_H-M   'P 1'
_cell_length_a   13.40148858
_cell_length_b   13.40148862
_cell_length_c   3.85825800
_cell_angle_alpha   90.00000000
_cell_angle_beta   90.00000000
_cell_angle_gamma   114.68871259
_symmetry_Int_Tables_number   1
_chemical_formula_structural   Nd11Hg9Rh4
_chemical_formula_sum   'Nd11 Hg9 Rh4'
_cell_volume   629.60117553
_cell_formula_units_Z   1
loop_
 _symmetry_equiv_pos_site_id
 _symmetry_equiv_pos_as_xyz
  1  'x, y, z'
loop_
 _atom_site_type_symbol
 _atom_site_label
 _atom_site_symmetry_multiplicity
 _atom_site_fract_x
 _atom_site_fract_y
 _atom_site_fract_z
 _atom_site_occupancy
  Nd  Nd0  1  0.084556  0.417956  0.000000  1
  Nd  Nd1  1  0.915444  0.582044  0.000000  1
  Nd  Nd2  1  0.417956  0.084556  0.000000  1
  Nd  Nd3  1  0.582044  0.915444  0.000000  1
  Nd  Nd4  1  0.628352  0.371648  0.000000  1
  Nd  Nd5  1  0.371648  0.628352  0.000000  1
  Nd  Nd6  1  0.835118  0.164882  0.000000  1
  Nd  Nd7  1  0.164882  0.835118  0.000000  1
  Nd  Nd8  1  0.000000  0.000000  0.000000  1
  Nd  Nd9  1  0.302682  0.302682  0.000000  1
  Nd  Nd10  1  0.697318  0.697318  0.000000  1
  Hg  Hg11  1  0.847747  0.367951  0.500000  1
  Hg  Hg12  1  0.152253  0.632049  0.500000  1
  Hg  Hg13  1  0.367951  0.847747  0.500000  1
  Hg  Hg14  1  0.632049  0.152253  0.500000  1
  Hg  Hg15  1  0.064073  0.213444  0.500000  1
  Hg  Hg16  1  0.935927  0.786556  0.500000  1
  Hg  Hg17  1  0.213444  0.064073  0.500000  1
  Hg  Hg18  1  0.786556  0.935927  0.500000  1
  Hg  Hg19  1  0.500000  0.500000  0.500000  1
  Rh  Rh20  1  0.254450  0.450038  0.500000  1
  Rh  Rh21  1  0.745550  0.549962  0.500000  1
  Rh  Rh22  1  0.450038  0.254450  0.500000  1
  Rh  Rh23  1  0.549962  0.745550  0.500000  1
