# generated using pymatgen
data_Tb3ErAl18(PdRh)3
_symmetry_space_group_name_H-M   'P 1'
_cell_length_a   7.60873948
_cell_length_b   7.61204246
_cell_length_c   9.45413300
_cell_angle_alpha   89.98988477
_cell_angle_beta   89.98586102
_cell_angle_gamma   119.58560439
_symmetry_Int_Tables_number   1
_chemical_formula_structural   Tb3ErAl18(PdRh)3
_chemical_formula_sum   'Tb3 Er1 Al18 Pd3 Rh3'
_cell_volume   476.17282632
_cell_formula_units_Z   1
loop_
 _symmetry_equiv_pos_site_id
 _symmetry_equiv_pos_as_xyz
  1  'x, y, z'
loop_
 _atom_site_type_symbol
 _atom_site_label
 _atom_site_symmetry_multiplicity
 _atom_site_fract_x
 _atom_site_fract_y
 _atom_site_fract_z
 _atom_site_occupancy
  Tb  Tb0  1  0.996089  0.669884  0.750088  1
  Tb  Tb1  1  0.005779  0.331149  0.250069  1
  Tb  Tb2  1  0.668614  0.994107  0.749938  1
  Er  Er3  1  0.329699  0.004146  0.249729  1
  Al  Al4  1  0.126036  0.126728  0.750686  1
  Al  Al5  1  0.873853  0.874330  0.249325  1
  Al  Al6  1  0.000628  0.330974  0.576223  1
  Al  Al7  1  0.999612  0.669925  0.422587  1
  Al  Al8  1  0.996810  0.665639  0.075579  1
  Al  Al9  1  0.335005  0.003814  0.925766  1
  Al  Al10  1  0.996165  0.330704  0.925166  1
  Al  Al11  1  0.668447  0.003808  0.075548  1
  Al  Al12  1  0.668222  0.999420  0.423121  1
  Al  Al13  1  0.330896  0.001173  0.576039  1
  Al  Al14  1  0.332701  0.328877  0.052422  1
  Al  Al15  1  0.670636  0.667347  0.948537  1
  Al  Al16  1  0.669471  0.669340  0.554605  1
  Al  Al17  1  0.330796  0.330021  0.444437  1
  Al  Al18  1  0.340278  0.545484  0.750676  1
  Al  Al19  1  0.658312  0.450798  0.246759  1
  Al  Al20  1  0.548208  0.340733  0.753331  1
  Al  Al21  1  0.454326  0.660266  0.249343  1
  Pd  Pd22  1  0.672063  0.327745  0.499764  1
  Pd  Pd23  1  0.327416  0.672731  0.499777  1
  Pd  Pd24  1  0.327376  0.672792  0.000222  1
  Rh  Rh25  1  0.671817  0.327889  0.000231  1
  Rh  Rh26  1  0.000205  0.000233  0.499693  1
  Rh  Rh27  1  0.000544  0.999940  0.000339  1
