# generated using pymatgen
data_Dy4SiTc2Ru5
_symmetry_space_group_name_H-M   'P 1'
_cell_length_a   5.51437118
_cell_length_b   5.09764172
_cell_length_c   8.95527500
_cell_angle_alpha   90.00000000
_cell_angle_beta   90.00000000
_cell_angle_gamma   121.03477397
_symmetry_Int_Tables_number   1
_chemical_formula_structural   Dy4SiTc2Ru5
_chemical_formula_sum   'Dy4 Si1 Tc2 Ru5'
_cell_volume   215.70059409
_cell_formula_units_Z   1
loop_
 _symmetry_equiv_pos_site_id
 _symmetry_equiv_pos_as_xyz
  1  'x, y, z'
loop_
 _atom_site_type_symbol
 _atom_site_label
 _atom_site_symmetry_multiplicity
 _atom_site_fract_x
 _atom_site_fract_y
 _atom_site_fract_z
 _atom_site_occupancy
  Dy  Dy0  1  0.674848  0.344068  0.563080  1
  Dy  Dy1  1  0.328946  0.663270  0.431395  1
  Dy  Dy2  1  0.328946  0.663270  0.068605  1
  Dy  Dy3  1  0.674848  0.344068  0.936920  1
  Si  Si4  1  0.835375  0.671021  0.250000  1
  Tc  Tc5  1  0.154749  0.311988  0.750000  1
  Tc  Tc6  1  0.173114  0.818907  0.750000  1
  Ru  Ru7  1  0.007732  0.008058  0.496296  1
  Ru  Ru8  1  0.007732  0.008058  0.003704  1
  Ru  Ru9  1  0.644176  0.821084  0.750000  1
  Ru  Ru10  1  0.824306  0.173820  0.250000  1
  Ru  Ru11  1  0.345229  0.172388  0.250000  1
