# generated using pymatgen
data_Tb4NbVOs6
_symmetry_space_group_name_H-M   'P 1'
_cell_length_a   5.24992803
_cell_length_b   5.24992732
_cell_length_c   9.02498200
_cell_angle_alpha   90.00000000
_cell_angle_beta   90.00000000
_cell_angle_gamma   116.10874282
_symmetry_Int_Tables_number   1
_chemical_formula_structural   Tb4NbVOs6
_chemical_formula_sum   'Tb4 Nb1 V1 Os6'
_cell_volume   223.36246126
_cell_formula_units_Z   1
loop_
 _symmetry_equiv_pos_site_id
 _symmetry_equiv_pos_as_xyz
  1  'x, y, z'
loop_
 _atom_site_type_symbol
 _atom_site_label
 _atom_site_symmetry_multiplicity
 _atom_site_fract_x
 _atom_site_fract_y
 _atom_site_fract_z
 _atom_site_occupancy
  Tb  Tb0  1  0.330439  0.669561  0.432563  1
  Tb  Tb1  1  0.671083  0.328917  0.561327  1
  Tb  Tb2  1  0.671083  0.328917  0.938673  1
  Tb  Tb3  1  0.330439  0.669561  0.067437  1
  Nb  Nb4  1  0.158813  0.841187  0.750000  1
  V  V5  1  0.840718  0.159282  0.250000  1
  Os  Os6  1  0.997694  0.002306  0.493479  1
  Os  Os7  1  0.997694  0.002306  0.006521  1
  Os  Os8  1  0.822700  0.648129  0.250000  1
  Os  Os9  1  0.351871  0.177300  0.250000  1
  Os  Os10  1  0.176641  0.349175  0.750000  1
  Os  Os11  1  0.650825  0.823359  0.750000  1
