# generated using pymatgen
data_DyTm7(Si4W3)4
_symmetry_space_group_name_H-M   'P 1'
_cell_length_a   6.72056300
_cell_length_b   6.91756910
_cell_length_c   12.86751200
_cell_angle_alpha   90.00979009
_cell_angle_beta   90.00178182
_cell_angle_gamma   89.99950274
_symmetry_Int_Tables_number   1
_chemical_formula_structural   DyTm7(Si4W3)4
_chemical_formula_sum   'Dy1 Tm7 Si16 W12'
_cell_volume   598.21009594
_cell_formula_units_Z   1
loop_
 _symmetry_equiv_pos_site_id
 _symmetry_equiv_pos_as_xyz
  1  'x, y, z'
loop_
 _atom_site_type_symbol
 _atom_site_label
 _atom_site_symmetry_multiplicity
 _atom_site_fract_x
 _atom_site_fract_y
 _atom_site_fract_z
 _atom_site_occupancy
  Dy  Dy0  1  0.996719  0.167644  0.093060  1
  Tm  Tm1  1  0.495987  0.332057  0.093338  1
  Tm  Tm2  1  0.996082  0.168028  0.406604  1
  Tm  Tm3  1  0.503916  0.668077  0.593393  1
  Tm  Tm4  1  0.004064  0.831916  0.906255  1
  Tm  Tm5  1  0.504065  0.667839  0.906410  1
  Tm  Tm6  1  0.003933  0.831934  0.593373  1
  Tm  Tm7  1  0.496108  0.332041  0.406970  1
  Si  Si8  1  0.662132  0.040716  0.546705  1
  Si  Si9  1  0.162271  0.459751  0.952942  1
  Si  Si10  1  0.339265  0.958380  0.046419  1
  Si  Si11  1  0.837858  0.540681  0.453486  1
  Si  Si12  1  0.337760  0.959288  0.453583  1
  Si  Si13  1  0.837371  0.541909  0.046407  1
  Si  Si14  1  0.661764  0.040644  0.952911  1
  Si  Si15  1  0.162169  0.459260  0.546680  1
  Si  Si16  1  0.534338  0.371936  0.749808  1
  Si  Si17  1  0.034409  0.128192  0.749958  1
  Si  Si18  1  0.465432  0.628017  0.250200  1
  Si  Si19  1  0.965258  0.871064  0.250443  1
  Si  Si20  1  0.801563  0.635218  0.749786  1
  Si  Si21  1  0.301773  0.864965  0.749894  1
  Si  Si22  1  0.198986  0.365677  0.250547  1
  Si  Si23  1  0.697539  0.134916  0.250457  1
  W  W24  1  0.830453  0.336268  0.625004  1
  W  W25  1  0.330698  0.163880  0.874708  1
  W  W26  1  0.169500  0.663765  0.125068  1
  W  W27  1  0.669319  0.836079  0.375228  1
  W  W28  1  0.169619  0.663773  0.375213  1
  W  W29  1  0.668981  0.835732  0.125332  1
  W  W30  1  0.830157  0.336726  0.874546  1
  W  W31  1  0.330341  0.163837  0.625010  1
  W  W32  1  0.665862  0.998228  0.749849  1
  W  W33  1  0.165689  0.501835  0.749851  1
  W  W34  1  0.334510  0.001155  0.250306  1
  W  W35  1  0.834114  0.498573  0.250252  1
