# generated using pymatgen
data_Ac3PrZn9CdPb2
_symmetry_space_group_name_H-M   'P 1'
_cell_length_a   8.98702969
_cell_length_b   8.98702970
_cell_length_c   9.42597300
_cell_angle_alpha   90.00000000
_cell_angle_beta   90.00000000
_cell_angle_gamma   149.79607424
_symmetry_Int_Tables_number   1
_chemical_formula_structural   Ac3PrZn9CdPb2
_chemical_formula_sum   'Ac3 Pr1 Zn9 Cd1 Pb2'
_cell_volume   382.99656157
_cell_formula_units_Z   1
loop_
 _symmetry_equiv_pos_site_id
 _symmetry_equiv_pos_as_xyz
  1  'x, y, z'
loop_
 _atom_site_type_symbol
 _atom_site_label
 _atom_site_symmetry_multiplicity
 _atom_site_fract_x
 _atom_site_fract_y
 _atom_site_fract_z
 _atom_site_occupancy
  Ac  Ac0  1  0.206405  0.793595  0.250000  1
  Ac  Ac1  1  0.000627  0.999373  0.502448  1
  Ac  Ac2  1  0.000627  0.999373  0.997552  1
  Pr  Pr3  1  0.790588  0.209412  0.750000  1
  Zn  Zn4  1  0.812750  0.187250  0.396333  1
  Zn  Zn5  1  0.187545  0.812455  0.613218  1
  Zn  Zn6  1  0.812750  0.187250  0.103667  1
  Zn  Zn7  1  0.187545  0.812455  0.886782  1
  Zn  Zn8  1  0.661213  0.338787  0.494458  1
  Zn  Zn9  1  0.336942  0.663058  0.521966  1
  Zn  Zn10  1  0.661213  0.338787  0.005542  1
  Zn  Zn11  1  0.336942  0.663058  0.978034  1
  Zn  Zn12  1  0.605288  0.394712  0.750000  1
  Cd  Cd13  1  0.396927  0.603073  0.250000  1
  Pb  Pb14  1  0.562772  0.437228  0.250000  1
  Pb  Pb15  1  0.439867  0.560133  0.750000  1
