# generated using pymatgen
data_Hf2BeSiOs2
_symmetry_space_group_name_H-M   'P 1'
_cell_length_a   7.57630498
_cell_length_b   7.57495638
_cell_length_c   7.57709575
_cell_angle_alpha   126.70589361
_cell_angle_beta   127.54637280
_cell_angle_gamma   78.05416215
_symmetry_Int_Tables_number   1
_chemical_formula_structural   Hf2BeSiOs2
_chemical_formula_sum   'Hf6 Be3 Si3 Os6'
_cell_volume   267.81926007
_cell_formula_units_Z   3
loop_
 _symmetry_equiv_pos_site_id
 _symmetry_equiv_pos_as_xyz
  1  'x, y, z'
loop_
 _atom_site_type_symbol
 _atom_site_label
 _atom_site_symmetry_multiplicity
 _atom_site_fract_x
 _atom_site_fract_y
 _atom_site_fract_z
 _atom_site_occupancy
  Hf  Hf0  1  0.544135  0.101147  0.045587  1
  Hf  Hf1  1  0.441912  0.491744  0.538322  1
  Hf  Hf2  1  0.954381  0.492325  0.049372  1
  Hf  Hf3  1  0.054803  0.099467  0.555731  1
  Hf  Hf4  1  0.759224  0.897839  0.651833  1
  Hf  Hf5  1  0.245062  0.896994  0.138919  1
  Be  Be6  1  0.168044  0.164244  0.998679  1
  Be  Be7  1  0.751056  0.497572  0.247332  1
  Be  Be8  1  0.248848  0.496426  0.746259  1
  Si  Si9  1  0.336677  0.830930  0.496565  1
  Si  Si10  1  0.665529  0.162801  0.495577  1
  Si  Si11  1  0.830174  0.829960  0.997529  1
  Os  Os12  1  0.125716  0.747197  0.622076  1
  Os  Os13  1  0.874984  0.497729  0.622012  1
  Os  Os14  1  0.624254  0.745518  0.120523  1
  Os  Os15  1  0.375821  0.497312  0.122289  1
  Os  Os16  1  0.500029  0.248589  0.748650  1
  Os  Os17  1  0.999349  0.246209  0.246743  1
