# generated using pymatgen
data_SmNp3(CoB10)2
_symmetry_space_group_name_H-M   'P 1'
_cell_length_a   4.12835800
_cell_length_b   5.53990637
_cell_length_c   11.05209274
_cell_angle_alpha   89.89394585
_cell_angle_beta   90.00000000
_cell_angle_gamma   90.00000000
_symmetry_Int_Tables_number   1
_chemical_formula_structural   SmNp3(CoB10)2
_chemical_formula_sum   'Sm1 Np3 Co2 B20'
_cell_volume   252.76884985
_cell_formula_units_Z   1
loop_
 _symmetry_equiv_pos_site_id
 _symmetry_equiv_pos_as_xyz
  1  'x, y, z'
loop_
 _atom_site_type_symbol
 _atom_site_label
 _atom_site_symmetry_multiplicity
 _atom_site_fract_x
 _atom_site_fract_y
 _atom_site_fract_z
 _atom_site_occupancy
  Sm  Sm0  1  0.500000  0.695219  0.135327  1
  Np  Np1  1  0.500000  0.190898  0.365603  1
  Np  Np2  1  0.500000  0.810905  0.636441  1
  Np  Np3  1  0.500000  0.305778  0.862482  1
  Co  Co4  1  0.000000  0.999993  0.999471  1
  Co  Co5  1  0.000000  0.499445  0.500415  1
  B  B6  1  0.000000  0.370724  0.038237  1
  B  B7  1  0.000000  0.625745  0.959005  1
  B  B8  1  0.000000  0.128311  0.538561  1
  B  B9  1  0.000000  0.871737  0.462189  1
  B  B10  1  0.000000  0.342395  0.198299  1
  B  B11  1  0.000000  0.655928  0.801538  1
  B  B12  1  0.000000  0.156580  0.697544  1
  B  B13  1  0.000000  0.844486  0.303873  1
  B  B14  1  0.000000  0.031258  0.187662  1
  B  B15  1  0.000000  0.971031  0.813558  1
  B  B16  1  0.000000  0.471661  0.685791  1
  B  B17  1  0.000000  0.528222  0.314834  1
  B  B18  1  0.300655  0.200041  0.112438  1
  B  B19  1  0.698791  0.800048  0.885972  1
  B  B20  1  0.301209  0.800048  0.885972  1
  B  B21  1  0.698491  0.300651  0.612400  1
  B  B22  1  0.699345  0.200041  0.112438  1
  B  B23  1  0.301049  0.699102  0.388774  1
  B  B24  1  0.698951  0.699102  0.388774  1
  B  B25  1  0.301509  0.300651  0.612400  1
