# generated using pymatgen
data_YHo3Zn4Ir3Pd
_symmetry_space_group_name_H-M   'P 1'
_cell_length_a   4.08440000
_cell_length_b   6.98428164
_cell_length_c   8.11532810
_cell_angle_alpha   90.13346377
_cell_angle_beta   90.00000000
_cell_angle_gamma   90.00000000
_symmetry_Int_Tables_number   1
_chemical_formula_structural   YHo3Zn4Ir3Pd
_chemical_formula_sum   'Y1 Ho3 Zn4 Ir3 Pd1'
_cell_volume   231.50209012
_cell_formula_units_Z   1
loop_
 _symmetry_equiv_pos_site_id
 _symmetry_equiv_pos_as_xyz
  1  'x, y, z'
loop_
 _atom_site_type_symbol
 _atom_site_label
 _atom_site_symmetry_multiplicity
 _atom_site_fract_x
 _atom_site_fract_y
 _atom_site_fract_z
 _atom_site_occupancy
  Y  Y0  1  0.250000  0.544511  0.184871  1
  Ho  Ho1  1  0.250000  0.029013  0.323392  1
  Ho  Ho2  1  0.750000  0.964357  0.683585  1
  Ho  Ho3  1  0.750000  0.470117  0.809289  1
  Zn  Zn4  1  0.250000  0.640473  0.566197  1
  Zn  Zn5  1  0.250000  0.138057  0.932094  1
  Zn  Zn6  1  0.750000  0.359532  0.436099  1
  Zn  Zn7  1  0.750000  0.857897  0.066277  1
  Ir  Ir8  1  0.250000  0.256052  0.620711  1
  Ir  Ir9  1  0.250000  0.758034  0.880124  1
  Ir  Ir10  1  0.750000  0.742584  0.379251  1
  Pd  Pd11  1  0.750000  0.239370  0.118113  1
