# generated using pymatgen
data_Tc2Hg3F12
_symmetry_space_group_name_H-M   'P 1'
_cell_length_a   8.95243800
_cell_length_b   6.06142632
_cell_length_c   11.85475949
_cell_angle_alpha   85.43242069
_cell_angle_beta   90.00000000
_cell_angle_gamma   90.00000000
_symmetry_Int_Tables_number   1
_chemical_formula_structural   Tc2Hg3F12
_chemical_formula_sum   'Tc4 Hg6 F24'
_cell_volume   641.25007438
_cell_formula_units_Z   2
loop_
 _symmetry_equiv_pos_site_id
 _symmetry_equiv_pos_as_xyz
  1  'x, y, z'
loop_
 _atom_site_type_symbol
 _atom_site_label
 _atom_site_symmetry_multiplicity
 _atom_site_fract_x
 _atom_site_fract_y
 _atom_site_fract_z
 _atom_site_occupancy
  Tc  Tc0  1  0.142848  0.703371  0.670822  1
  Tc  Tc1  1  0.642848  0.296629  0.829178  1
  Tc  Tc2  1  0.857152  0.296629  0.329178  1
  Tc  Tc3  1  0.357152  0.703371  0.170822  1
  Hg  Hg4  1  0.734640  0.758326  0.566996  1
  Hg  Hg5  1  0.234640  0.241674  0.933004  1
  Hg  Hg6  1  0.265360  0.241674  0.433004  1
  Hg  Hg7  1  0.765360  0.758326  0.066996  1
  Hg  Hg8  1  0.500000  0.000000  0.500000  1
  Hg  Hg9  1  0.000000  0.000000  0.000000  1
  F  F10  1  0.955172  0.576630  0.618353  1
  F  F11  1  0.455172  0.423370  0.881647  1
  F  F12  1  0.044828  0.423370  0.381647  1
  F  F13  1  0.544828  0.576630  0.118353  1
  F  F14  1  0.213385  0.411726  0.711193  1
  F  F15  1  0.713385  0.588274  0.788807  1
  F  F16  1  0.786615  0.588274  0.288807  1
  F  F17  1  0.286615  0.411726  0.211193  1
  F  F18  1  0.059797  0.704703  0.818470  1
  F  F19  1  0.559797  0.295297  0.681530  1
  F  F20  1  0.176496  0.834327  0.216060  1
  F  F21  1  0.676496  0.165673  0.283940  1
  F  F22  1  0.823504  0.165673  0.783940  1
  F  F23  1  0.323504  0.834327  0.716060  1
  F  F24  1  0.270351  0.686259  0.024589  1
  F  F25  1  0.770351  0.313741  0.475411  1
  F  F26  1  0.729649  0.313741  0.975411  1
  F  F27  1  0.229649  0.686259  0.524589  1
  F  F28  1  0.436253  0.985361  0.126107  1
  F  F29  1  0.936253  0.014639  0.373893  1
  F  F30  1  0.563747  0.014639  0.873893  1
  F  F31  1  0.063747  0.985361  0.626107  1
  F  F32  1  0.440203  0.704703  0.318470  1
  F  F33  1  0.940203  0.295297  0.181530  1
