# generated using pymatgen
data_SrLiH9W
_symmetry_space_group_name_H-M   'P 1'
_cell_length_a   8.59149400
_cell_length_b   8.59149308
_cell_length_c   5.04637500
_cell_angle_alpha   90.00000000
_cell_angle_beta   90.00000000
_cell_angle_gamma   120.00000354
_symmetry_Int_Tables_number   1
_chemical_formula_structural   SrLiH9W
_chemical_formula_sum   'Sr3 Li3 H27 W3'
_cell_volume   322.58745349
_cell_formula_units_Z   3
loop_
 _symmetry_equiv_pos_site_id
 _symmetry_equiv_pos_as_xyz
  1  'x, y, z'
loop_
 _atom_site_type_symbol
 _atom_site_label
 _atom_site_symmetry_multiplicity
 _atom_site_fract_x
 _atom_site_fract_y
 _atom_site_fract_z
 _atom_site_occupancy
  Sr  Sr0  1  0.000000  0.603426  0.000000  1
  Sr  Sr1  1  0.396574  0.396574  0.000000  1
  Sr  Sr2  1  0.603426  0.000000  0.000000  1
  Li  Li3  1  0.000000  0.248006  0.500000  1
  Li  Li4  1  0.751994  0.751994  0.500000  1
  Li  Li5  1  0.248006  0.000000  0.500000  1
  H  H6  1  0.809778  0.325280  0.747270  1
  H  H7  1  0.674720  0.484496  0.747270  1
  H  H8  1  0.515504  0.190222  0.747270  1
  H  H9  1  0.190222  0.515504  0.252730  1
  H  H10  1  0.515504  0.190222  0.252730  1
  H  H11  1  0.809778  0.325280  0.252730  1
  H  H12  1  0.674720  0.484496  0.252730  1
  H  H13  1  0.325280  0.809778  0.747270  1
  H  H14  1  0.484496  0.674720  0.747270  1
  H  H15  1  0.203812  0.000000  0.000000  1
  H  H16  1  0.796188  0.796188  0.000000  1
  H  H17  1  0.000000  0.203812  0.000000  1
  H  H18  1  0.856689  0.000000  0.253783  1
  H  H19  1  0.143311  0.143311  0.746217  1
  H  H20  1  0.000000  0.856689  0.746217  1
  H  H21  1  0.000000  0.856689  0.253783  1
  H  H22  1  0.143311  0.143311  0.253783  1
  H  H23  1  0.856689  0.000000  0.746217  1
  H  H24  1  0.131399  0.666669  0.500000  1
  H  H25  1  0.535269  0.868601  0.500000  1
  H  H26  1  0.333331  0.464731  0.500000  1
  H  H27  1  0.464731  0.333331  0.500000  1
  H  H28  1  0.868601  0.535269  0.500000  1
  H  H29  1  0.666669  0.131399  0.500000  1
  H  H30  1  0.190222  0.515504  0.747270  1
  H  H31  1  0.325280  0.809778  0.252730  1
  H  H32  1  0.484496  0.674720  0.252730  1
  W  W33  1  0.666667  0.333333  0.500000  1
  W  W34  1  0.333333  0.666667  0.500000  1
  W  W35  1  0.000000  0.000000  0.000000  1
