# generated using pymatgen
data_Mn28Al
_symmetry_space_group_name_H-M   'P 1'
_cell_length_a   7.49621173
_cell_length_b   7.50116087
_cell_length_c   7.49508842
_cell_angle_alpha   109.48666401
_cell_angle_beta   109.47072476
_cell_angle_gamma   109.50941826
_symmetry_Int_Tables_number   1
_chemical_formula_structural   Mn28Al
_chemical_formula_sum   'Mn28 Al1'
_cell_volume   324.22013589
_cell_formula_units_Z   1
loop_
 _symmetry_equiv_pos_site_id
 _symmetry_equiv_pos_as_xyz
  1  'x, y, z'
loop_
 _atom_site_type_symbol
 _atom_site_label
 _atom_site_symmetry_multiplicity
 _atom_site_fract_x
 _atom_site_fract_y
 _atom_site_fract_z
 _atom_site_occupancy
  Mn  Mn0  1  0.631574  0.999987  0.999974  1
  Mn  Mn1  1  0.999923  0.631558  0.999957  1
  Mn  Mn2  1  0.999966  0.999954  0.631563  1
  Mn  Mn3  1  0.368524  0.368342  0.368436  1
  Mn  Mn4  1  0.388996  0.676402  0.999974  1
  Mn  Mn5  1  0.712553  0.323586  0.323666  1
  Mn  Mn6  1  0.389019  0.000031  0.676364  1
  Mn  Mn7  1  0.676375  0.388972  0.000010  1
  Mn  Mn8  1  0.999820  0.388970  0.676331  1
  Mn  Mn9  1  0.323659  0.712732  0.323726  1
  Mn  Mn10  1  0.323677  0.323602  0.712636  1
  Mn  Mn11  1  0.999953  0.676409  0.389015  1
  Mn  Mn12  1  0.676432  0.000165  0.389104  1
  Mn  Mn13  1  0.611126  0.610996  0.287423  1
  Mn  Mn14  1  0.287433  0.611070  0.611060  1
  Mn  Mn15  1  0.611050  0.287391  0.610973  1
  Mn  Mn16  1  0.372191  0.194958  0.000030  1
  Mn  Mn17  1  0.177081  0.805065  0.804981  1
  Mn  Mn18  1  0.372192  0.000161  0.195077  1
  Mn  Mn19  1  0.194886  0.371964  0.999857  1
  Mn  Mn20  1  0.999942  0.372138  0.194980  1
  Mn  Mn21  1  0.804959  0.177108  0.804858  1
  Mn  Mn22  1  0.805056  0.804991  0.177114  1
  Mn  Mn23  1  0.999962  0.194918  0.372172  1
  Mn  Mn24  1  0.195006  0.999985  0.372142  1
  Mn  Mn25  1  0.627936  0.627890  0.822838  1
  Mn  Mn26  1  0.822801  0.627775  0.627831  1
  Mn  Mn27  1  0.627945  0.822874  0.627971  1
  Al  Al28  1  0.999966  0.000007  0.999937  1
