# generated using pymatgen
data_Tb13Dy3(InIr)4
_symmetry_space_group_name_H-M   'P 1'
_cell_length_a   9.71246850
_cell_length_b   9.72070127
_cell_length_c   9.71501725
_cell_angle_alpha   59.94301814
_cell_angle_beta   59.95100004
_cell_angle_gamma   59.92455048
_symmetry_Int_Tables_number   1
_chemical_formula_structural   Tb13Dy3(InIr)4
_chemical_formula_sum   'Tb13 Dy3 In4 Ir4'
_cell_volume   647.67871385
_cell_formula_units_Z   1
loop_
 _symmetry_equiv_pos_site_id
 _symmetry_equiv_pos_as_xyz
  1  'x, y, z'
loop_
 _atom_site_type_symbol
 _atom_site_label
 _atom_site_symmetry_multiplicity
 _atom_site_fract_x
 _atom_site_fract_y
 _atom_site_fract_z
 _atom_site_occupancy
  Tb  Tb0  1  0.310357  0.689583  0.310298  1
  Tb  Tb1  1  0.940112  0.559828  0.559504  1
  Tb  Tb2  1  0.309816  0.310175  0.690150  1
  Tb  Tb3  1  0.099175  0.099057  0.099245  1
  Tb  Tb4  1  0.559548  0.559540  0.940357  1
  Tb  Tb5  1  0.099014  0.099196  0.702159  1
  Tb  Tb6  1  0.689606  0.310506  0.689609  1
  Tb  Tb7  1  0.689956  0.689667  0.310322  1
  Tb  Tb8  1  0.689821  0.309724  0.310338  1
  Tb  Tb9  1  0.310028  0.690055  0.689766  1
  Tb  Tb10  1  0.559794  0.940256  0.559714  1
  Tb  Tb11  1  0.702753  0.099188  0.098856  1
  Tb  Tb12  1  0.559706  0.940357  0.940371  1
  Dy  Dy13  1  0.099127  0.702643  0.099281  1
  Dy  Dy14  1  0.940276  0.940890  0.559517  1
  Dy  Dy15  1  0.940492  0.559668  0.940401  1
  In  In16  1  0.332313  0.332286  0.332138  1
  In  In17  1  0.003381  0.332159  0.332261  1
  In  In18  1  0.332000  0.003309  0.332198  1
  In  In19  1  0.331957  0.332526  0.003385  1
  Ir  Ir20  1  0.891894  0.890661  0.891174  1
  Ir  Ir21  1  0.891715  0.891486  0.326028  1
  Ir  Ir22  1  0.325645  0.890915  0.891750  1
  Ir  Ir23  1  0.891513  0.326326  0.891175  1
