# generated using pymatgen
data_Pr4In(GeRh2)2
_symmetry_space_group_name_H-M   'P 1'
_cell_length_a   11.26253481
_cell_length_b   11.26253450
_cell_length_c   8.20567027
_cell_angle_alpha   70.12838905
_cell_angle_beta   70.12838959
_cell_angle_gamma   29.91277435
_symmetry_Int_Tables_number   1
_chemical_formula_structural   Pr4In(GeRh2)2
_chemical_formula_sum   'Pr8 In2 Ge4 Rh8'
_cell_volume   485.86339775
_cell_formula_units_Z   2
loop_
 _symmetry_equiv_pos_site_id
 _symmetry_equiv_pos_as_xyz
  1  'x, y, z'
loop_
 _atom_site_type_symbol
 _atom_site_label
 _atom_site_symmetry_multiplicity
 _atom_site_fract_x
 _atom_site_fract_y
 _atom_site_fract_z
 _atom_site_occupancy
  Pr  Pr0  1  0.213454  0.438339  0.393307  1
  Pr  Pr1  1  0.561661  0.786546  0.106693  1
  Pr  Pr2  1  0.438339  0.213454  0.893307  1
  Pr  Pr3  1  0.915549  0.221676  0.337050  1
  Pr  Pr4  1  0.778324  0.084451  0.162950  1
  Pr  Pr5  1  0.084451  0.778324  0.662950  1
  Pr  Pr6  1  0.221676  0.915549  0.837050  1
  Pr  Pr7  1  0.786546  0.561661  0.606693  1
  In  In8  1  0.654071  0.345929  0.750000  1
  In  In9  1  0.345929  0.654071  0.250000  1
  Ge  Ge10  1  0.291723  0.056616  0.440680  1
  Ge  Ge11  1  0.943384  0.708277  0.059320  1
  Ge  Ge12  1  0.708277  0.943384  0.559320  1
  Ge  Ge13  1  0.056616  0.291723  0.940680  1
  Rh  Rh14  1  0.286879  0.576484  0.025282  1
  Rh  Rh15  1  0.576484  0.286879  0.525282  1
  Rh  Rh16  1  0.713121  0.423516  0.974718  1
  Rh  Rh17  1  0.078446  0.363483  0.181273  1
  Rh  Rh18  1  0.636517  0.921554  0.318727  1
  Rh  Rh19  1  0.423516  0.713121  0.474718  1
  Rh  Rh20  1  0.921554  0.636517  0.818727  1
  Rh  Rh21  1  0.363483  0.078446  0.681273  1
