# generated using pymatgen
data_Tb3Zr(Al3Ir)6
_symmetry_space_group_name_H-M   'P 1'
_cell_length_a   7.55394730
_cell_length_b   7.54669001
_cell_length_c   9.43991200
_cell_angle_alpha   90.00000000
_cell_angle_beta   90.00000000
_cell_angle_gamma   119.64399064
_symmetry_Int_Tables_number   1
_chemical_formula_structural   Tb3Zr(Al3Ir)6
_chemical_formula_sum   'Tb3 Zr1 Al18 Ir6'
_cell_volume   467.70915326
_cell_formula_units_Z   1
loop_
 _symmetry_equiv_pos_site_id
 _symmetry_equiv_pos_as_xyz
  1  'x, y, z'
loop_
 _atom_site_type_symbol
 _atom_site_label
 _atom_site_symmetry_multiplicity
 _atom_site_fract_x
 _atom_site_fract_y
 _atom_site_fract_z
 _atom_site_occupancy
  Tb  Tb0  1  0.005417  0.327814  0.750000  1
  Tb  Tb1  1  0.670574  0.995451  0.250000  1
  Tb  Tb2  1  0.329525  0.006321  0.750000  1
  Zr  Zr3  1  0.996744  0.671936  0.250000  1
  Al  Al4  1  0.125711  0.123289  0.250000  1
  Al  Al5  1  0.870837  0.869323  0.750000  1
  Al  Al6  1  0.000477  0.337713  0.078321  1
  Al  Al7  1  0.999186  0.665123  0.930189  1
  Al  Al8  1  0.999186  0.665123  0.569811  1
  Al  Al9  1  0.332356  0.998454  0.421527  1
  Al  Al10  1  0.000477  0.337713  0.421679  1
  Al  Al11  1  0.664732  0.997926  0.574188  1
  Al  Al12  1  0.664732  0.997926  0.925812  1
  Al  Al13  1  0.332356  0.998454  0.078473  1
  Al  Al14  1  0.333944  0.333990  0.549920  1
  Al  Al15  1  0.668752  0.666871  0.444182  1
  Al  Al16  1  0.668752  0.666871  0.055818  1
  Al  Al17  1  0.333944  0.333990  0.950080  1
  Al  Al18  1  0.335878  0.549019  0.250000  1
  Al  Al19  1  0.661143  0.452801  0.750000  1
  Al  Al20  1  0.554526  0.344302  0.250000  1
  Al  Al21  1  0.451450  0.659743  0.750000  1
  Ir  Ir22  1  0.672333  0.328374  0.000989  1
  Ir  Ir23  1  0.327734  0.672093  0.001821  1
  Ir  Ir24  1  0.327734  0.672093  0.498179  1
  Ir  Ir25  1  0.672333  0.328374  0.499011  1
  Ir  Ir26  1  0.999584  0.999457  0.000904  1
  Ir  Ir27  1  0.999584  0.999457  0.499096  1
