# generated using pymatgen
data_Hf4Al4Re3Pd
_symmetry_space_group_name_H-M   'P 1'
_cell_length_a   5.24087745
_cell_length_b   5.24087783
_cell_length_c   8.61646000
_cell_angle_alpha   90.00000000
_cell_angle_beta   90.00000000
_cell_angle_gamma   119.25864909
_symmetry_Int_Tables_number   1
_chemical_formula_structural   Hf4Al4Re3Pd
_chemical_formula_sum   'Hf4 Al4 Re3 Pd1'
_cell_volume   206.47317889
_cell_formula_units_Z   1
loop_
 _symmetry_equiv_pos_site_id
 _symmetry_equiv_pos_as_xyz
  1  'x, y, z'
loop_
 _atom_site_type_symbol
 _atom_site_label
 _atom_site_symmetry_multiplicity
 _atom_site_fract_x
 _atom_site_fract_y
 _atom_site_fract_z
 _atom_site_occupancy
  Hf  Hf0  1  0.332833  0.667167  0.195351  1
  Hf  Hf1  1  0.665372  0.334628  0.320783  1
  Hf  Hf2  1  0.665372  0.334628  0.679217  1
  Hf  Hf3  1  0.332833  0.667167  0.804649  1
  Al  Al4  1  0.995692  0.004308  0.246230  1
  Al  Al5  1  0.995692  0.004308  0.753770  1
  Al  Al6  1  0.833421  0.649324  0.000000  1
  Al  Al7  1  0.350676  0.166579  0.000000  1
  Re  Re8  1  0.167362  0.341186  0.500000  1
  Re  Re9  1  0.658814  0.832638  0.500000  1
  Re  Re10  1  0.166298  0.833702  0.500000  1
  Pd  Pd11  1  0.835646  0.164354  0.000000  1
