# generated using pymatgen
data_Nb10Ga3Si2GeC
_symmetry_space_group_name_H-M   'P 1'
_cell_length_a   7.70591255
_cell_length_b   7.69990952
_cell_length_c   5.33800838
_cell_angle_alpha   89.97843834
_cell_angle_beta   90.04309717
_cell_angle_gamma   120.02578449
_symmetry_Int_Tables_number   1
_chemical_formula_structural   Nb10Ga3Si2GeC
_chemical_formula_sum   'Nb10 Ga3 Si2 Ge1 C1'
_cell_volume   274.22469347
_cell_formula_units_Z   1
loop_
 _symmetry_equiv_pos_site_id
 _symmetry_equiv_pos_as_xyz
  1  'x, y, z'
loop_
 _atom_site_type_symbol
 _atom_site_label
 _atom_site_symmetry_multiplicity
 _atom_site_fract_x
 _atom_site_fract_y
 _atom_site_fract_z
 _atom_site_occupancy
  Nb  Nb0  1  0.999614  0.761165  0.259083  1
  Nb  Nb1  1  0.238449  0.238835  0.259083  1
  Nb  Nb2  1  0.763148  0.000000  0.259584  1
  Nb  Nb3  1  0.003399  0.238844  0.741269  1
  Nb  Nb4  1  0.764555  0.761156  0.741269  1
  Nb  Nb5  1  0.234895  0.000000  0.741051  1
  Nb  Nb6  1  0.331090  0.663809  0.998535  1
  Nb  Nb7  1  0.667282  0.336191  0.998535  1
  Nb  Nb8  1  0.667075  0.335826  0.500419  1
  Nb  Nb9  1  0.331249  0.664174  0.500419  1
  Ga  Ga10  1  0.999078  0.399790  0.244025  1
  Ga  Ga11  1  0.599288  0.600210  0.244025  1
  Ga  Ga12  1  0.399913  0.000000  0.244271  1
  Si  Si13  1  0.000413  0.599594  0.756905  1
  Si  Si14  1  0.400819  0.400406  0.756905  1
  Ge  Ge15  1  0.600010  0.000000  0.756716  1
  C  C16  1  0.999723  0.000000  0.497904  1
