# generated using pymatgen
data_PrNd2Pa(Al3Ir)6
_symmetry_space_group_name_H-M   'P 1'
_cell_length_a   7.62836006
_cell_length_b   7.61890455
_cell_length_c   9.53376900
_cell_angle_alpha   90.00000000
_cell_angle_beta   90.00000000
_cell_angle_gamma   119.56378931
_symmetry_Int_Tables_number   1
_chemical_formula_structural   PrNd2Pa(Al3Ir)6
_chemical_formula_sum   'Pr1 Nd2 Pa1 Al18 Ir6'
_cell_volume   481.96022939
_cell_formula_units_Z   1
loop_
 _symmetry_equiv_pos_site_id
 _symmetry_equiv_pos_as_xyz
  1  'x, y, z'
loop_
 _atom_site_type_symbol
 _atom_site_label
 _atom_site_symmetry_multiplicity
 _atom_site_fract_x
 _atom_site_fract_y
 _atom_site_fract_z
 _atom_site_occupancy
  Pr  Pr0  1  0.004997  0.329974  0.750000  1
  Nd  Nd1  1  0.671190  0.994969  0.250000  1
  Nd  Nd2  1  0.330166  0.004415  0.750000  1
  Pa  Pa3  1  0.996386  0.671296  0.250000  1
  Al  Al4  1  0.132522  0.129909  0.250000  1
  Al  Al5  1  0.870789  0.870962  0.750000  1
  Al  Al6  1  0.002101  0.333766  0.075332  1
  Al  Al7  1  0.997509  0.665276  0.925680  1
  Al  Al8  1  0.997509  0.665276  0.574320  1
  Al  Al9  1  0.336740  0.003645  0.424898  1
  Al  Al10  1  0.002101  0.333766  0.424668  1
  Al  Al11  1  0.665043  0.997763  0.573496  1
  Al  Al12  1  0.665043  0.997763  0.926504  1
  Al  Al13  1  0.336740  0.003645  0.075102  1
  Al  Al14  1  0.334172  0.333918  0.549667  1
  Al  Al15  1  0.663732  0.664997  0.449366  1
  Al  Al16  1  0.663732  0.664997  0.050634  1
  Al  Al17  1  0.334172  0.333918  0.950333  1
  Al  Al18  1  0.337347  0.545090  0.250000  1
  Al  Al19  1  0.659639  0.452903  0.750000  1
  Al  Al20  1  0.547307  0.343977  0.250000  1
  Al  Al21  1  0.453600  0.660722  0.750000  1
  Ir  Ir22  1  0.673539  0.331378  0.003370  1
  Ir  Ir23  1  0.326298  0.671340  0.003477  1
  Ir  Ir24  1  0.326298  0.671340  0.496523  1
  Ir  Ir25  1  0.673539  0.331378  0.496630  1
  Ir  Ir26  1  0.998896  0.995809  0.004434  1
  Ir  Ir27  1  0.998896  0.995809  0.495566  1
