# generated using pymatgen
data_Ho20Sn9Sb7
_symmetry_space_group_name_H-M   'P 1'
_cell_length_a   8.07023245
_cell_length_b   8.10514915
_cell_length_c   15.33916000
_cell_angle_alpha   90.15117244
_cell_angle_beta   89.69101237
_cell_angle_gamma   89.79529622
_symmetry_Int_Tables_number   1
_chemical_formula_structural   Ho20Sn9Sb7
_chemical_formula_sum   'Ho20 Sn9 Sb7'
_cell_volume   1003.31663227
_cell_formula_units_Z   1
loop_
 _symmetry_equiv_pos_site_id
 _symmetry_equiv_pos_as_xyz
  1  'x, y, z'
loop_
 _atom_site_type_symbol
 _atom_site_label
 _atom_site_symmetry_multiplicity
 _atom_site_fract_x
 _atom_site_fract_y
 _atom_site_fract_z
 _atom_site_occupancy
  Ho  Ho0  1  0.387642  0.839045  0.880290  1
  Ho  Ho1  1  0.890589  0.662739  0.619297  1
  Ho  Ho2  1  0.610250  0.161157  0.380849  1
  Ho  Ho3  1  0.113460  0.337740  0.120613  1
  Ho  Ho4  1  0.612264  0.162181  0.119608  1
  Ho  Ho5  1  0.110275  0.337892  0.380647  1
  Ho  Ho6  1  0.388505  0.839499  0.619637  1
  Ho  Ho7  1  0.886928  0.662792  0.879707  1
  Ho  Ho8  1  0.553843  0.332053  0.892497  1
  Ho  Ho9  1  0.054954  0.169904  0.607584  1
  Ho  Ho10  1  0.445165  0.669145  0.392250  1
  Ho  Ho11  1  0.947953  0.825013  0.106500  1
  Ho  Ho12  1  0.451747  0.667294  0.106158  1
  Ho  Ho13  1  0.945072  0.829504  0.392069  1
  Ho  Ho14  1  0.555066  0.330271  0.608380  1
  Ho  Ho15  1  0.045941  0.177339  0.895958  1
  Ho  Ho16  1  0.219777  0.500686  0.750524  1
  Ho  Ho17  1  0.719479  0.002531  0.750535  1
  Ho  Ho18  1  0.780794  0.499410  0.247958  1
  Ho  Ho19  1  0.280072  0.998036  0.249435  1
  Sn  Sn20  1  0.774740  0.473733  0.043394  1
  Sn  Sn21  1  0.585302  0.628606  0.748885  1
  Sn  Sn22  1  0.084643  0.875046  0.750404  1
  Sn  Sn23  1  0.415049  0.372060  0.251158  1
  Sn  Sn24  1  0.914670  0.125793  0.250548  1
  Sn  Sn25  1  0.356163  0.144017  0.750843  1
  Sn  Sn26  1  0.858615  0.358115  0.749523  1
  Sn  Sn27  1  0.642595  0.856441  0.249896  1
  Sn  Sn28  1  0.143218  0.642021  0.250218  1
  Sb  Sb29  1  0.268768  0.018811  0.046008  1
  Sb  Sb30  1  0.768659  0.481254  0.453723  1
  Sb  Sb31  1  0.730953  0.982150  0.546484  1
  Sb  Sb32  1  0.228843  0.522865  0.954599  1
  Sb  Sb33  1  0.727471  0.979185  0.953984  1
  Sb  Sb34  1  0.232268  0.518386  0.546461  1
  Sb  Sb35  1  0.268261  0.017285  0.453379  1
