# generated using pymatgen
data_DyHo3Al16(SiRh3)2
_symmetry_space_group_name_H-M   'P 1'
_cell_length_a   7.53434883
_cell_length_b   7.50579295
_cell_length_c   9.41958500
_cell_angle_alpha   89.97926452
_cell_angle_beta   89.86206434
_cell_angle_gamma   119.70184247
_symmetry_Int_Tables_number   1
_chemical_formula_structural   DyHo3Al16(SiRh3)2
_chemical_formula_sum   'Dy1 Ho3 Al16 Si2 Rh6'
_cell_volume   462.70025054
_cell_formula_units_Z   1
loop_
 _symmetry_equiv_pos_site_id
 _symmetry_equiv_pos_as_xyz
  1  'x, y, z'
loop_
 _atom_site_type_symbol
 _atom_site_label
 _atom_site_symmetry_multiplicity
 _atom_site_fract_x
 _atom_site_fract_y
 _atom_site_fract_z
 _atom_site_occupancy
  Dy  Dy0  1  0.324411  0.998518  0.252876  1
  Ho  Ho1  1  0.994700  0.664109  0.742765  1
  Ho  Ho2  1  0.005253  0.335905  0.257235  1
  Ho  Ho3  1  0.675708  0.001541  0.747084  1
  Al  Al4  1  0.128343  0.126697  0.750458  1
  Al  Al5  1  0.871436  0.873213  0.249545  1
  Al  Al6  1  0.998674  0.665454  0.069004  1
  Al  Al7  1  0.334782  0.999048  0.924985  1
  Al  Al8  1  0.001177  0.334387  0.930868  1
  Al  Al9  1  0.665377  0.000967  0.074763  1
  Al  Al10  1  0.661634  0.996644  0.422677  1
  Al  Al11  1  0.338531  0.003364  0.577588  1
  Al  Al12  1  0.333060  0.332017  0.054199  1
  Al  Al13  1  0.666945  0.668119  0.945677  1
  Al  Al14  1  0.663988  0.667037  0.554773  1
  Al  Al15  1  0.336010  0.333098  0.445358  1
  Al  Al16  1  0.339538  0.549995  0.749827  1
  Al  Al17  1  0.660606  0.450221  0.250173  1
  Al  Al18  1  0.547776  0.341342  0.750177  1
  Al  Al19  1  0.452312  0.658564  0.249830  1
  Si  Si20  1  0.002662  0.328316  0.577219  1
  Si  Si21  1  0.997113  0.671472  0.422933  1
  Rh  Rh22  1  0.690254  0.337507  0.501608  1
  Rh  Rh23  1  0.309783  0.662449  0.498445  1
  Rh  Rh24  1  0.327145  0.670982  0.000548  1
  Rh  Rh25  1  0.672931  0.329018  0.999383  1
  Rh  Rh26  1  0.999926  0.000032  0.500041  1
  Rh  Rh27  1  0.999922  0.999983  0.999961  1
