# generated using pymatgen
data_ErNbB6Ir
_symmetry_space_group_name_H-M   'P 1'
_cell_length_a   3.46598600
_cell_length_b   9.02999800
_cell_length_c   11.34666900
_cell_angle_alpha   90.00000000
_cell_angle_beta   90.00000000
_cell_angle_gamma   90.00000000
_symmetry_Int_Tables_number   1
_chemical_formula_structural   ErNbB6Ir
_chemical_formula_sum   'Er4 Nb4 B24 Ir4'
_cell_volume   355.12630633
_cell_formula_units_Z   4
loop_
 _symmetry_equiv_pos_site_id
 _symmetry_equiv_pos_as_xyz
  1  'x, y, z'
loop_
 _atom_site_type_symbol
 _atom_site_label
 _atom_site_symmetry_multiplicity
 _atom_site_fract_x
 _atom_site_fract_y
 _atom_site_fract_z
 _atom_site_occupancy
  Er  Er0  1  0.500000  0.319946  0.412106  1
  Er  Er1  1  0.500000  0.680054  0.587894  1
  Er  Er2  1  0.500000  0.180054  0.912106  1
  Er  Er3  1  0.500000  0.819946  0.087894  1
  Nb  Nb4  1  0.500000  0.447211  0.124047  1
  Nb  Nb5  1  0.500000  0.552789  0.875953  1
  Nb  Nb6  1  0.500000  0.052789  0.624047  1
  Nb  Nb7  1  0.500000  0.947211  0.375953  1
  B  B8  1  0.000000  0.101155  0.472777  1
  B  B9  1  0.000000  0.898845  0.527223  1
  B  B10  1  0.000000  0.398845  0.972777  1
  B  B11  1  0.000000  0.601155  0.027223  1
  B  B12  1  0.000000  0.128961  0.319578  1
  B  B13  1  0.000000  0.871039  0.680422  1
  B  B14  1  0.000000  0.371039  0.819578  1
  B  B15  1  0.000000  0.628961  0.180422  1
  B  B16  1  0.000000  0.053721  0.063976  1
  B  B17  1  0.000000  0.946279  0.936024  1
  B  B18  1  0.000000  0.446279  0.563976  1
  B  B19  1  0.000000  0.553721  0.436024  1
  B  B20  1  0.000000  0.478794  0.285655  1
  B  B21  1  0.000000  0.521206  0.714345  1
  B  B22  1  0.000000  0.021206  0.785655  1
  B  B23  1  0.000000  0.978794  0.214345  1
  B  B24  1  0.000000  0.254336  0.079508  1
  B  B25  1  0.000000  0.745664  0.920492  1
  B  B26  1  0.000000  0.245664  0.579508  1
  B  B27  1  0.000000  0.754336  0.420492  1
  B  B28  1  0.000000  0.298638  0.236776  1
  B  B29  1  0.000000  0.701362  0.763224  1
  B  B30  1  0.000000  0.201362  0.736776  1
  B  B31  1  0.000000  0.798638  0.263224  1
  Ir  Ir32  1  0.500000  0.140812  0.179127  1
  Ir  Ir33  1  0.500000  0.859188  0.820873  1
  Ir  Ir34  1  0.500000  0.359188  0.679127  1
  Ir  Ir35  1  0.500000  0.640812  0.320873  1
