# generated using pymatgen
data_Y14LuMg5Sn16
_symmetry_space_group_name_H-M   'P 1'
_cell_length_a   7.64963759
_cell_length_b   8.23989151
_cell_length_c   15.27306480
_cell_angle_alpha   90.02611849
_cell_angle_beta   89.90087682
_cell_angle_gamma   89.95160113
_symmetry_Int_Tables_number   1
_chemical_formula_structural   Y14LuMg5Sn16
_chemical_formula_sum   'Y14 Lu1 Mg5 Sn16'
_cell_volume   962.69274359
_cell_formula_units_Z   1
loop_
 _symmetry_equiv_pos_site_id
 _symmetry_equiv_pos_as_xyz
  1  'x, y, z'
loop_
 _atom_site_type_symbol
 _atom_site_label
 _atom_site_symmetry_multiplicity
 _atom_site_fract_x
 _atom_site_fract_y
 _atom_site_fract_z
 _atom_site_occupancy
  Y  Y0  1  0.662694  0.171323  0.372125  1
  Y  Y1  1  0.162289  0.330126  0.125658  1
  Y  Y2  1  0.657837  0.169055  0.127775  1
  Y  Y3  1  0.160482  0.327785  0.370947  1
  Y  Y4  1  0.342318  0.827384  0.629596  1
  Y  Y5  1  0.835965  0.670269  0.871883  1
  Y  Y6  1  0.502200  0.316910  0.907892  1
  Y  Y7  1  0.006151  0.182423  0.593343  1
  Y  Y8  1  0.500854  0.682298  0.409382  1
  Y  Y9  1  0.996059  0.815319  0.090650  1
  Y  Y10  1  0.495094  0.683790  0.088649  1
  Y  Y11  1  0.999905  0.819002  0.408321  1
  Y  Y12  1  0.500201  0.315571  0.592968  1
  Y  Y13  1  0.003463  0.186557  0.905165  1
  Lu  Lu14  1  0.836698  0.672327  0.628397  1
  Mg  Mg15  1  0.339753  0.834108  0.874680  1
  Mg  Mg16  1  0.161600  0.496483  0.749741  1
  Mg  Mg17  1  0.667829  0.004874  0.752236  1
  Mg  Mg18  1  0.835201  0.504817  0.250004  1
  Mg  Mg19  1  0.335367  0.993161  0.250501  1
  Sn  Sn20  1  0.317932  0.033834  0.035976  1
  Sn  Sn21  1  0.819389  0.462595  0.464184  1
  Sn  Sn22  1  0.686122  0.963319  0.538813  1
  Sn  Sn23  1  0.182500  0.541390  0.958159  1
  Sn  Sn24  1  0.679401  0.964737  0.960695  1
  Sn  Sn25  1  0.181609  0.537827  0.537355  1
  Sn  Sn26  1  0.317367  0.038192  0.463834  1
  Sn  Sn27  1  0.815094  0.461542  0.037592  1
  Sn  Sn28  1  0.524415  0.594629  0.753505  1
  Sn  Sn29  1  0.035443  0.898547  0.752711  1
  Sn  Sn30  1  0.472264  0.408056  0.249478  1
  Sn  Sn31  1  0.972500  0.091895  0.248158  1
  Sn  Sn32  1  0.306040  0.150267  0.751805  1
  Sn  Sn33  1  0.802811  0.351332  0.748956  1
  Sn  Sn34  1  0.692679  0.847572  0.249393  1
  Sn  Sn35  1  0.192475  0.650684  0.249471  1
