# generated using pymatgen
data_TbEuMo2O7
_symmetry_space_group_name_H-M   'P 1'
_cell_length_a   7.48748648
_cell_length_b   7.42269353
_cell_length_c   7.41684078
_cell_angle_alpha   59.97389758
_cell_angle_beta   60.07425571
_cell_angle_gamma   60.28583516
_symmetry_Int_Tables_number   1
_chemical_formula_structural   TbEuMo2O7
_chemical_formula_sum   'Tb2 Eu2 Mo4 O14'
_cell_volume   292.20584886
_cell_formula_units_Z   2
loop_
 _symmetry_equiv_pos_site_id
 _symmetry_equiv_pos_as_xyz
  1  'x, y, z'
loop_
 _atom_site_type_symbol
 _atom_site_label
 _atom_site_symmetry_multiplicity
 _atom_site_fract_x
 _atom_site_fract_y
 _atom_site_fract_z
 _atom_site_occupancy
  Tb  Tb0  1  0.625000  0.125000  0.125000  1
  Tb  Tb1  1  0.125000  0.125000  0.625000  1
  Eu  Eu2  1  0.125000  0.125000  0.125000  1
  Eu  Eu3  1  0.125000  0.625000  0.125000  1
  Mo  Mo4  1  0.625000  0.625000  0.625000  1
  Mo  Mo5  1  0.125000  0.625000  0.625000  1
  Mo  Mo6  1  0.625000  0.625000  0.125000  1
  Mo  Mo7  1  0.625000  0.125000  0.625000  1
  O  O8  1  0.992171  0.007521  0.992787  1
  O  O9  1  0.257829  0.242479  0.257213  1
  O  O10  1  0.289270  0.301769  0.701032  1
  O  O11  1  0.544688  0.532951  0.958123  1
  O  O12  1  0.727837  0.289997  0.692169  1
  O  O13  1  0.705312  0.285762  0.291877  1
  O  O14  1  0.289270  0.707930  0.701032  1
  O  O15  1  0.297938  0.701421  0.299220  1
  O  O16  1  0.705312  0.717049  0.291877  1
  O  O17  1  0.960730  0.542070  0.548968  1
  O  O18  1  0.544688  0.964238  0.958123  1
  O  O19  1  0.960730  0.948231  0.548968  1
  O  O20  1  0.952062  0.548579  0.950780  1
  O  O21  1  0.522163  0.960003  0.557831  1
