# generated using pymatgen
data_Li4AcPt2
_symmetry_space_group_name_H-M   'P 1'
_cell_length_a   7.84770900
_cell_length_b   7.84770900
_cell_length_c   4.28566200
_cell_angle_alpha   90.00000000
_cell_angle_beta   90.00000000
_cell_angle_gamma   90.00000000
_symmetry_Int_Tables_number   1
_chemical_formula_structural   Li4AcPt2
_chemical_formula_sum   'Li8 Ac2 Pt4'
_cell_volume   263.93907940
_cell_formula_units_Z   2
loop_
 _symmetry_equiv_pos_site_id
 _symmetry_equiv_pos_as_xyz
  1  'x, y, z'
loop_
 _atom_site_type_symbol
 _atom_site_label
 _atom_site_symmetry_multiplicity
 _atom_site_fract_x
 _atom_site_fract_y
 _atom_site_fract_z
 _atom_site_occupancy
  Li  Li0  1  0.347542  0.094980  0.500000  1
  Li  Li1  1  0.652458  0.905020  0.500000  1
  Li  Li2  1  0.847542  0.405020  0.000000  1
  Li  Li3  1  0.152458  0.594980  0.000000  1
  Li  Li4  1  0.094980  0.347542  0.500000  1
  Li  Li5  1  0.905020  0.652458  0.500000  1
  Li  Li6  1  0.405020  0.847542  0.000000  1
  Li  Li7  1  0.594980  0.152458  0.000000  1
  Ac  Ac8  1  0.500000  0.500000  0.500000  1
  Ac  Ac9  1  0.000000  0.000000  0.000000  1
  Pt  Pt10  1  0.787204  0.212796  0.500000  1
  Pt  Pt11  1  0.212796  0.787204  0.500000  1
  Pt  Pt12  1  0.287204  0.287204  0.000000  1
  Pt  Pt13  1  0.712796  0.712796  0.000000  1
