# generated using pymatgen
data_Lu3B7Os
_symmetry_space_group_name_H-M   'P 1'
_cell_length_a   7.88725500
_cell_length_b   7.88725475
_cell_length_c   9.18997700
_cell_angle_alpha   90.00000000
_cell_angle_beta   90.00000000
_cell_angle_gamma   154.63073523
_symmetry_Int_Tables_number   1
_chemical_formula_structural   Lu3B7Os
_chemical_formula_sum   'Lu6 B14 Os2'
_cell_volume   244.94401015
_cell_formula_units_Z   2
loop_
 _symmetry_equiv_pos_site_id
 _symmetry_equiv_pos_as_xyz
  1  'x, y, z'
loop_
 _atom_site_type_symbol
 _atom_site_label
 _atom_site_symmetry_multiplicity
 _atom_site_fract_x
 _atom_site_fract_y
 _atom_site_fract_z
 _atom_site_occupancy
  Lu  Lu0  1  0.893474  0.106526  0.440584  1
  Lu  Lu1  1  0.106526  0.893474  0.559416  1
  Lu  Lu2  1  0.893474  0.106526  0.059416  1
  Lu  Lu3  1  0.106526  0.893474  0.940584  1
  Lu  Lu4  1  0.245481  0.754519  0.250000  1
  Lu  Lu5  1  0.754519  0.245481  0.750000  1
  B  B6  1  0.727713  0.272287  0.465941  1
  B  B7  1  0.272287  0.727713  0.534059  1
  B  B8  1  0.727713  0.272287  0.034059  1
  B  B9  1  0.272287  0.727713  0.965941  1
  B  B10  1  0.632807  0.367193  0.150087  1
  B  B11  1  0.367193  0.632807  0.849913  1
  B  B12  1  0.632807  0.367193  0.349913  1
  B  B13  1  0.367193  0.632807  0.650087  1
  B  B14  1  0.519483  0.480517  0.094853  1
  B  B15  1  0.480517  0.519483  0.905147  1
  B  B16  1  0.519483  0.480517  0.405147  1
  B  B17  1  0.480517  0.519483  0.594853  1
  B  B18  1  0.452547  0.547453  0.250000  1
  B  B19  1  0.547453  0.452547  0.750000  1
  Os  Os20  1  0.053359  0.946641  0.250000  1
  Os  Os21  1  0.946641  0.053359  0.750000  1
