# generated using pymatgen
data_Rb4Lu5U3Se16
_symmetry_space_group_name_H-M   'P 1'
_cell_length_a   6.88913005
_cell_length_b   7.91535186
_cell_length_c   16.98329700
_cell_angle_alpha   90.00474126
_cell_angle_beta   89.92408388
_cell_angle_gamma   89.97374479
_symmetry_Int_Tables_number   1
_chemical_formula_structural   Rb4Lu5U3Se16
_chemical_formula_sum   'Rb4 Lu5 U3 Se16'
_cell_volume   926.09637540
_cell_formula_units_Z   1
loop_
 _symmetry_equiv_pos_site_id
 _symmetry_equiv_pos_as_xyz
  1  'x, y, z'
loop_
 _atom_site_type_symbol
 _atom_site_label
 _atom_site_symmetry_multiplicity
 _atom_site_fract_x
 _atom_site_fract_y
 _atom_site_fract_z
 _atom_site_occupancy
  Rb  Rb0  1  0.342915  0.002464  0.002049  1
  Rb  Rb1  1  0.657023  0.497411  0.498011  1
  Rb  Rb2  1  0.017059  0.000506  0.497921  1
  Rb  Rb3  1  0.982670  0.498907  0.002145  1
  Lu  Lu4  1  0.000886  0.008130  0.247629  1
  Lu  Lu5  1  0.000486  0.999814  0.751870  1
  Lu  Lu6  1  0.999199  0.491900  0.252397  1
  Lu  Lu7  1  0.999577  0.500158  0.748005  1
  Lu  Lu8  1  0.500081  0.249979  0.250038  1
  U  U9  1  0.499752  0.750092  0.749990  1
  U  U10  1  0.499956  0.750082  0.250038  1
  U  U11  1  0.500007  0.250183  0.750001  1
  Se  Se12  1  0.833790  0.247215  0.345734  1
  Se  Se13  1  0.834023  0.752054  0.654652  1
  Se  Se14  1  0.172356  0.747697  0.156895  1
  Se  Se15  1  0.165888  0.252051  0.845111  1
  Se  Se16  1  0.166309  0.252863  0.154307  1
  Se  Se17  1  0.165927  0.747938  0.845294  1
  Se  Se18  1  0.827795  0.752308  0.343145  1
  Se  Se19  1  0.834067  0.247952  0.654834  1
  Se  Se20  1  0.666340  0.995972  0.155512  1
  Se  Se21  1  0.670014  0.999804  0.846179  1
  Se  Se22  1  0.333757  0.504026  0.344509  1
  Se  Se23  1  0.330050  0.500216  0.653783  1
  Se  Se24  1  0.335176  0.996703  0.343224  1
  Se  Se25  1  0.331127  0.000210  0.654841  1
  Se  Se26  1  0.664880  0.503393  0.156853  1
  Se  Se27  1  0.668889  0.499970  0.845032  1
