# generated using pymatgen
data_DyTa2Be2Rh5
_symmetry_space_group_name_H-M   'P 1'
_cell_length_a   9.26429900
_cell_length_b   9.26991200
_cell_length_c   3.33555200
_cell_angle_alpha   90.00000000
_cell_angle_beta   90.00000000
_cell_angle_gamma   90.00000000
_symmetry_Int_Tables_number   1
_chemical_formula_structural   DyTa2Be2Rh5
_chemical_formula_sum   'Dy2 Ta4 Be4 Rh10'
_cell_volume   286.45465897
_cell_formula_units_Z   2
loop_
 _symmetry_equiv_pos_site_id
 _symmetry_equiv_pos_as_xyz
  1  'x, y, z'
loop_
 _atom_site_type_symbol
 _atom_site_label
 _atom_site_symmetry_multiplicity
 _atom_site_fract_x
 _atom_site_fract_y
 _atom_site_fract_z
 _atom_site_occupancy
  Dy  Dy0  1  0.675176  0.826839  0.000000  1
  Dy  Dy1  1  0.175176  0.673161  0.000000  1
  Ta  Ta2  1  0.825711  0.326506  0.000000  1
  Ta  Ta3  1  0.325711  0.173494  0.000000  1
  Ta  Ta4  1  0.000715  0.003127  0.000000  1
  Ta  Ta5  1  0.500715  0.496873  0.000000  1
  Be  Be6  1  0.618996  0.127799  0.000000  1
  Be  Be7  1  0.118996  0.372201  0.000000  1
  Be  Be8  1  0.878089  0.612220  0.000000  1
  Be  Be9  1  0.378089  0.887780  0.000000  1
  Rh  Rh10  1  0.071464  0.209251  0.500000  1
  Rh  Rh11  1  0.213651  0.941372  0.500000  1
  Rh  Rh12  1  0.790646  0.085144  0.500000  1
  Rh  Rh13  1  0.930607  0.785508  0.500000  1
  Rh  Rh14  1  0.430607  0.714492  0.500000  1
  Rh  Rh15  1  0.571464  0.290749  0.500000  1
  Rh  Rh16  1  0.713651  0.558628  0.500000  1
  Rh  Rh17  1  0.290646  0.414856  0.500000  1
  Rh  Rh18  1  0.494947  0.011239  0.500000  1
  Rh  Rh19  1  0.994947  0.488761  0.500000  1
