# generated using pymatgen
data_Tm6Al3ZnNi12
_symmetry_space_group_name_H-M   'P 1'
_cell_length_a   7.60170397
_cell_length_b   7.67090309
_cell_length_c   7.67090297
_cell_angle_alpha   109.65324361
_cell_angle_beta   109.28858798
_cell_angle_gamma   109.28857589
_symmetry_Int_Tables_number   1
_chemical_formula_structural   Tm6Al3ZnNi12
_chemical_formula_sum   'Tm6 Al3 Zn1 Ni12'
_cell_volume   345.10875070
_cell_formula_units_Z   1
loop_
 _symmetry_equiv_pos_site_id
 _symmetry_equiv_pos_as_xyz
  1  'x, y, z'
loop_
 _atom_site_type_symbol
 _atom_site_label
 _atom_site_symmetry_multiplicity
 _atom_site_fract_x
 _atom_site_fract_y
 _atom_site_fract_z
 _atom_site_occupancy
  Tm  Tm0  1  0.704989  0.705825  0.000000  1
  Tm  Tm1  1  0.295011  0.000000  0.294175  1
  Tm  Tm2  1  0.999165  0.294175  0.294175  1
  Tm  Tm3  1  0.295011  0.294175  0.000000  1
  Tm  Tm4  1  0.704989  0.000000  0.705825  1
  Tm  Tm5  1  0.000835  0.705825  0.705825  1
  Al  Al6  1  0.000000  0.000000  0.500000  1
  Al  Al7  1  0.000000  0.500000  0.000000  1
  Al  Al8  1  0.500000  0.500000  0.500000  1
  Zn  Zn9  1  0.500000  0.000000  0.000000  1
  Ni  Ni10  1  0.334864  0.334864  0.669727  1
  Ni  Ni11  1  0.664955  0.000000  0.337399  1
  Ni  Ni12  1  0.000000  0.665136  0.334864  1
  Ni  Ni13  1  0.664955  0.337399  0.000000  1
  Ni  Ni14  1  0.334864  0.669727  0.334864  1
  Ni  Ni15  1  0.000000  0.334864  0.665136  1
  Ni  Ni16  1  0.335045  0.662601  0.000000  1
  Ni  Ni17  1  0.335045  0.000000  0.662601  1
  Ni  Ni18  1  0.672443  0.337399  0.337399  1
  Ni  Ni19  1  0.665136  0.665136  0.330273  1
  Ni  Ni20  1  0.665136  0.330273  0.665136  1
  Ni  Ni21  1  0.327557  0.662601  0.662601  1
