# generated using pymatgen
data_TeS23
_symmetry_space_group_name_H-M   'P 1'
_cell_length_a   5.57730933
_cell_length_b   9.65445035
_cell_length_c   15.29508000
_cell_angle_alpha   89.05711967
_cell_angle_beta   86.41939397
_cell_angle_gamma   90.71539292
_symmetry_Int_Tables_number   1
_chemical_formula_structural   TeS23
_chemical_formula_sum   'Te1 S23'
_cell_volume   821.78233717
_cell_formula_units_Z   1
loop_
 _symmetry_equiv_pos_site_id
 _symmetry_equiv_pos_as_xyz
  1  'x, y, z'
loop_
 _atom_site_type_symbol
 _atom_site_label
 _atom_site_symmetry_multiplicity
 _atom_site_fract_x
 _atom_site_fract_y
 _atom_site_fract_z
 _atom_site_occupancy
  Te  Te0  1  0.489046  0.165791  0.381679  1
  S  S1  1  0.520685  0.803243  0.390522  1
  S  S2  1  0.999236  0.300938  0.109222  1
  S  S3  1  0.724606  0.231855  0.501890  1
  S  S4  1  0.308284  0.768229  0.504534  1
  S  S5  1  0.199808  0.263738  0.994082  1
  S  S6  1  0.800014  0.739855  0.005002  1
  S  S7  1  0.269346  0.376530  0.358367  1
  S  S8  1  0.695252  0.622107  0.356287  1
  S  S9  1  0.802333  0.123846  0.142496  1
  S  S10  1  0.202944  0.869902  0.135599  1
  S  S11  1  0.695956  0.634833  0.640473  1
  S  S12  1  0.305377  0.367738  0.639211  1
  S  S13  1  0.203783  0.877658  0.857413  1
  S  S14  1  0.797457  0.128174  0.865378  1
  S  S15  1  0.000387  0.696140  0.110873  1
  S  S16  1  0.507029  0.810019  0.610480  1
  S  S17  1  0.520226  0.198084  0.617888  1
  S  S18  1  0.004798  0.700865  0.891086  1
  S  S19  1  0.991634  0.305262  0.890117  1
  S  S20  1  0.479911  0.509826  0.278085  1
  S  S21  1  0.002273  0.996316  0.219017  1
  S  S22  1  0.476346  0.503713  0.718734  1
  S  S23  1  0.003269  0.005336  0.781570  1
