# generated using pymatgen
data_Dy4AlCuRu6
_symmetry_space_group_name_H-M   'P 1'
_cell_length_a   5.37209407
_cell_length_b   5.38753280
_cell_length_c   8.58724354
_cell_angle_alpha   89.96920036
_cell_angle_beta   90.00007724
_cell_angle_gamma   119.90846840
_symmetry_Int_Tables_number   1
_chemical_formula_structural   Dy4AlCuRu6
_chemical_formula_sum   'Dy4 Al1 Cu1 Ru6'
_cell_volume   215.43570918
_cell_formula_units_Z   1
loop_
 _symmetry_equiv_pos_site_id
 _symmetry_equiv_pos_as_xyz
  1  'x, y, z'
loop_
 _atom_site_type_symbol
 _atom_site_label
 _atom_site_symmetry_multiplicity
 _atom_site_fract_x
 _atom_site_fract_y
 _atom_site_fract_z
 _atom_site_occupancy
  Dy  Dy0  1  0.668099  0.336216  0.569915  1
  Dy  Dy1  1  0.335999  0.671989  0.428564  1
  Dy  Dy2  1  0.330712  0.661396  0.061329  1
  Dy  Dy3  1  0.664701  0.329424  0.935943  1
  Al  Al4  1  0.994182  0.988374  0.497875  1
  Cu  Cu5  1  0.168932  0.337822  0.748751  1
  Ru  Ru6  1  0.995208  0.990399  0.005908  1
  Ru  Ru7  1  0.178860  0.839685  0.748098  1
  Ru  Ru8  1  0.660827  0.839674  0.748100  1
  Ru  Ru9  1  0.829553  0.659121  0.246103  1
  Ru  Ru10  1  0.828219  0.172966  0.254703  1
  Ru  Ru11  1  0.344708  0.172932  0.254711  1
