# generated using pymatgen
data_Sm3MgCd2Sn2Pt
_symmetry_space_group_name_H-M   'P 1'
_cell_length_a   7.47726200
_cell_length_b   7.56813518
_cell_length_c   4.58355400
_cell_angle_alpha   90.00000000
_cell_angle_beta   90.00000000
_cell_angle_gamma   119.60358891
_symmetry_Int_Tables_number   1
_chemical_formula_structural   Sm3MgCd2Sn2Pt
_chemical_formula_sum   'Sm3 Mg1 Cd2 Sn2 Pt1'
_cell_volume   225.52019091
_cell_formula_units_Z   1
loop_
 _symmetry_equiv_pos_site_id
 _symmetry_equiv_pos_as_xyz
  1  'x, y, z'
loop_
 _atom_site_type_symbol
 _atom_site_label
 _atom_site_symmetry_multiplicity
 _atom_site_fract_x
 _atom_site_fract_y
 _atom_site_fract_z
 _atom_site_occupancy
  Sm  Sm0  1  0.601835  0.601442  0.000000  1
  Sm  Sm1  1  0.393925  0.000000  0.000000  1
  Sm  Sm2  1  0.000393  0.398558  0.000000  1
  Mg  Mg3  1  0.775987  0.000000  0.500000  1
  Cd  Cd4  1  0.998264  0.763289  0.500000  1
  Cd  Cd5  1  0.234975  0.236711  0.500000  1
  Sn  Sn6  1  0.338144  0.671012  0.500000  1
  Sn  Sn7  1  0.667133  0.328988  0.500000  1
  Pt  Pt8  1  0.989345  0.000000  0.000000  1
