# generated using pymatgen
data_ZrTaI9
_symmetry_space_group_name_H-M   'P 1'
_cell_length_a   13.62698900
_cell_length_b   7.93818745
_cell_length_c   10.81456384
_cell_angle_alpha   75.56598118
_cell_angle_beta   90.00000000
_cell_angle_gamma   90.00000000
_symmetry_Int_Tables_number   1
_chemical_formula_structural   ZrTaI9
_chemical_formula_sum   'Zr2 Ta2 I18'
_cell_volume   1132.92429561
_cell_formula_units_Z   2
loop_
 _symmetry_equiv_pos_site_id
 _symmetry_equiv_pos_as_xyz
  1  'x, y, z'
loop_
 _atom_site_type_symbol
 _atom_site_label
 _atom_site_symmetry_multiplicity
 _atom_site_fract_x
 _atom_site_fract_y
 _atom_site_fract_z
 _atom_site_occupancy
  Zr  Zr0  1  0.250000  0.756845  0.471471  1
  Zr  Zr1  1  0.750000  0.243155  0.528529  1
  Ta  Ta2  1  0.250000  0.645767  0.855176  1
  Ta  Ta3  1  0.750000  0.354233  0.144824  1
  I  I4  1  0.610388  0.441550  0.321247  1
  I  I5  1  0.110388  0.558450  0.678753  1
  I  I6  1  0.389612  0.558450  0.678753  1
  I  I7  1  0.889612  0.441550  0.321247  1
  I  I8  1  0.750000  0.684956  0.010338  1
  I  I9  1  0.250000  0.315044  0.989662  1
  I  I10  1  0.750000  0.517193  0.640755  1
  I  I11  1  0.250000  0.482807  0.359245  1
  I  I12  1  0.750000  0.023947  0.332625  1
  I  I13  1  0.250000  0.976053  0.667375  1
  I  I14  1  0.896853  0.245386  0.021916  1
  I  I15  1  0.396853  0.754614  0.978084  1
  I  I16  1  0.103147  0.754614  0.978084  1
  I  I17  1  0.603147  0.245386  0.021916  1
  I  I18  1  0.904377  0.054263  0.655343  1
  I  I19  1  0.404377  0.945737  0.344657  1
  I  I20  1  0.095623  0.945737  0.344657  1
  I  I21  1  0.595623  0.054263  0.655343  1
