# generated using pymatgen
data_Mn3NiP6N13
_symmetry_space_group_name_H-M   'P 1'
_cell_length_a   6.96998794
_cell_length_b   7.01358800
_cell_length_c   7.01358677
_cell_angle_alpha   109.59679915
_cell_angle_beta   109.34533633
_cell_angle_gamma   109.34535033
_symmetry_Int_Tables_number   1
_chemical_formula_structural   Mn3NiP6N13
_chemical_formula_sum   'Mn3 Ni1 P6 N13'
_cell_volume   264.34001127
_cell_formula_units_Z   1
loop_
 _symmetry_equiv_pos_site_id
 _symmetry_equiv_pos_as_xyz
  1  'x, y, z'
loop_
 _atom_site_type_symbol
 _atom_site_label
 _atom_site_symmetry_multiplicity
 _atom_site_fract_x
 _atom_site_fract_y
 _atom_site_fract_z
 _atom_site_occupancy
  Mn  Mn0  1  0.005705  0.284940  0.000000  1
  Mn  Mn1  1  0.005705  0.000000  0.284940  1
  Mn  Mn2  1  0.720764  0.715059  0.715059  1
  Ni  Ni3  1  0.272095  0.000000  0.000000  1
  P  P4  1  0.746812  0.497344  0.248003  1
  P  P5  1  0.498809  0.751996  0.249339  1
  P  P6  1  0.746812  0.248003  0.497344  1
  P  P7  1  0.249471  0.750660  0.502656  1
  P  P8  1  0.498809  0.249339  0.751996  1
  P  P9  1  0.249471  0.502656  0.750660  1
  N  N10  1  0.008941  0.000000  0.000000  1
  N  N11  1  0.537027  0.261128  0.000000  1
  N  N12  1  0.264817  0.540000  0.000000  1
  N  N13  1  0.537027  0.000000  0.261128  1
  N  N14  1  0.000150  0.539429  0.264919  1
  N  N15  1  0.735231  0.735081  0.274508  1
  N  N16  1  0.724817  0.459999  0.459999  1
  N  N17  1  0.460720  0.725491  0.460570  1
  N  N18  1  0.264817  0.000000  0.540000  1
  N  N19  1  0.000150  0.264919  0.539429  1
  N  N20  1  0.460720  0.460570  0.725491  1
  N  N21  1  0.735231  0.274508  0.735081  1
  N  N22  1  0.275896  0.738872  0.738872  1
