# generated using pymatgen
data_Hf6Al13V3Co7
_symmetry_space_group_name_H-M   'P 1'
_cell_length_a   8.50957261
_cell_length_b   8.50957139
_cell_length_c   8.50957300
_cell_angle_alpha   59.80802498
_cell_angle_beta   59.80802976
_cell_angle_gamma   59.80802657
_symmetry_Int_Tables_number   1
_chemical_formula_structural   Hf6Al13V3Co7
_chemical_formula_sum   'Hf6 Al13 V3 Co7'
_cell_volume   433.82195783
_cell_formula_units_Z   1
loop_
 _symmetry_equiv_pos_site_id
 _symmetry_equiv_pos_as_xyz
  1  'x, y, z'
loop_
 _atom_site_type_symbol
 _atom_site_label
 _atom_site_symmetry_multiplicity
 _atom_site_fract_x
 _atom_site_fract_y
 _atom_site_fract_z
 _atom_site_occupancy
  Hf  Hf0  1  0.692048  0.308688  0.308688  1
  Hf  Hf1  1  0.693299  0.306677  0.693299  1
  Hf  Hf2  1  0.693299  0.693299  0.306677  1
  Hf  Hf3  1  0.306677  0.693299  0.693299  1
  Hf  Hf4  1  0.308688  0.692048  0.308688  1
  Hf  Hf5  1  0.308688  0.308688  0.692048  1
  Al  Al6  1  0.118122  0.118122  0.118122  1
  Al  Al7  1  0.353848  0.881226  0.881226  1
  Al  Al8  1  0.881226  0.353848  0.881226  1
  Al  Al9  1  0.881226  0.881226  0.353848  1
  Al  Al10  1  0.880062  0.880062  0.880062  1
  Al  Al11  1  0.997039  0.334981  0.334981  1
  Al  Al12  1  0.334981  0.997039  0.334981  1
  Al  Al13  1  0.334981  0.334981  0.997039  1
  Al  Al14  1  0.334924  0.334924  0.334924  1
  Al  Al15  1  0.004450  0.664895  0.664895  1
  Al  Al16  1  0.664895  0.004450  0.664895  1
  Al  Al17  1  0.664895  0.664895  0.004450  1
  Al  Al18  1  0.664868  0.664868  0.664868  1
  V  V19  1  0.641788  0.118795  0.118795  1
  V  V20  1  0.118795  0.641788  0.118795  1
  V  V21  1  0.118795  0.118795  0.641788  1
  Co  Co22  1  0.994341  0.994341  0.994341  1
  Co  Co23  1  0.505015  0.002964  0.002964  1
  Co  Co24  1  0.496638  0.003850  0.496638  1
  Co  Co25  1  0.496638  0.496638  0.003850  1
  Co  Co26  1  0.003850  0.496638  0.496638  1
  Co  Co27  1  0.002964  0.505015  0.002964  1
  Co  Co28  1  0.002964  0.002964  0.505015  1
