# generated using pymatgen
data_HoPa5F24
_symmetry_space_group_name_H-M   'P 1'
_cell_length_a   8.37857190
_cell_length_b   8.48230965
_cell_length_c   8.39911084
_cell_angle_alpha   63.14370405
_cell_angle_beta   63.60716758
_cell_angle_gamma   80.32059975
_symmetry_Int_Tables_number   1
_chemical_formula_structural   HoPa5F24
_chemical_formula_sum   'Ho1 Pa5 F24'
_cell_volume   476.63223283
_cell_formula_units_Z   1
loop_
 _symmetry_equiv_pos_site_id
 _symmetry_equiv_pos_as_xyz
  1  'x, y, z'
loop_
 _atom_site_type_symbol
 _atom_site_label
 _atom_site_symmetry_multiplicity
 _atom_site_fract_x
 _atom_site_fract_y
 _atom_site_fract_z
 _atom_site_occupancy
  Ho  Ho0  1  0.774760  0.636571  0.168890  1
  Pa  Pa1  1  0.638769  0.766598  0.667460  1
  Pa  Pa2  1  0.377609  0.225617  0.329966  1
  Pa  Pa3  1  0.214000  0.369923  0.838284  1
  Pa  Pa4  1  0.788025  0.207735  0.740992  1
  Pa  Pa5  1  0.216587  0.786495  0.244236  1
  F  F6  1  0.318523  0.259950  0.610062  1
  F  F7  1  0.680692  0.739790  0.396976  1
  F  F8  1  0.735918  0.680781  0.896271  1
  F  F9  1  0.267665  0.327857  0.102549  1
  F  F10  1  0.818933  0.938072  0.949842  1
  F  F11  1  0.168927  0.070816  0.048047  1
  F  F12  1  0.069249  0.170326  0.543419  1
  F  F13  1  0.939291  0.822760  0.458618  1
  F  F14  1  0.402310  0.598221  0.752807  1
  F  F15  1  0.597601  0.401765  0.249136  1
  F  F16  1  0.498453  0.996602  0.504988  1
  F  F17  1  0.995408  0.496955  0.005988  1
  F  F18  1  0.499014  0.250260  0.795861  1
  F  F19  1  0.496885  0.742127  0.210141  1
  F  F20  1  0.748304  0.493797  0.712692  1
  F  F21  1  0.247710  0.499974  0.298427  1
  F  F22  1  0.399320  0.811829  0.923906  1
  F  F23  1  0.603571  0.190043  0.071688  1
  F  F24  1  0.192339  0.603277  0.572696  1
  F  F25  1  0.806249  0.400330  0.433197  1
  F  F26  1  0.725951  0.027416  0.639834  1
  F  F27  1  0.279407  0.978618  0.339156  1
  F  F28  1  0.973570  0.276791  0.840882  1
  F  F29  1  0.024958  0.728707  0.152988  1
