# generated using pymatgen
data_Dy17Y3Cd3Ru2Au3
_symmetry_space_group_name_H-M   'P 1'
_cell_length_a   9.60190800
_cell_length_b   9.60190692
_cell_length_c   9.60155000
_cell_angle_alpha   90.00000000
_cell_angle_beta   90.00000000
_cell_angle_gamma   120.00000374
_symmetry_Int_Tables_number   1
_chemical_formula_structural   Dy17Y3Cd3Ru2Au3
_chemical_formula_sum   'Dy17 Y3 Cd3 Ru2 Au3'
_cell_volume   766.63209162
_cell_formula_units_Z   1
loop_
 _symmetry_equiv_pos_site_id
 _symmetry_equiv_pos_as_xyz
  1  'x, y, z'
loop_
 _atom_site_type_symbol
 _atom_site_label
 _atom_site_symmetry_multiplicity
 _atom_site_fract_x
 _atom_site_fract_y
 _atom_site_fract_z
 _atom_site_occupancy
  Dy  Dy0  1  0.000000  0.000000  0.461148  1
  Dy  Dy1  1  0.000000  0.000000  0.038852  1
  Dy  Dy2  1  0.209390  0.790610  0.439787  1
  Dy  Dy3  1  0.209390  0.418781  0.439787  1
  Dy  Dy4  1  0.581219  0.790610  0.439787  1
  Dy  Dy5  1  0.791522  0.208478  0.558521  1
  Dy  Dy6  1  0.791522  0.583042  0.558521  1
  Dy  Dy7  1  0.416958  0.208478  0.558521  1
  Dy  Dy8  1  0.791522  0.208478  0.941479  1
  Dy  Dy9  1  0.791522  0.583042  0.941479  1
  Dy  Dy10  1  0.416958  0.208478  0.941479  1
  Dy  Dy11  1  0.209390  0.790610  0.060213  1
  Dy  Dy12  1  0.209390  0.418781  0.060213  1
  Dy  Dy13  1  0.581219  0.790610  0.060213  1
  Dy  Dy14  1  0.540619  0.459381  0.250000  1
  Dy  Dy15  1  0.540619  0.081236  0.250000  1
  Dy  Dy16  1  0.918764  0.459381  0.250000  1
  Y  Y17  1  0.458916  0.541084  0.750000  1
  Y  Y18  1  0.458916  0.917833  0.750000  1
  Y  Y19  1  0.082167  0.541084  0.750000  1
  Cd  Cd20  1  0.109965  0.890035  0.750000  1
  Cd  Cd21  1  0.109965  0.219930  0.750000  1
  Cd  Cd22  1  0.780070  0.890035  0.750000  1
  Ru  Ru23  1  0.333333  0.666667  0.250000  1
  Ru  Ru24  1  0.666667  0.333333  0.750000  1
  Au  Au25  1  0.869695  0.130305  0.250000  1
  Au  Au26  1  0.869695  0.739390  0.250000  1
  Au  Au27  1  0.260610  0.130305  0.250000  1
