# generated using pymatgen
data_Li3Ho4Lu(B6Os)4
_symmetry_space_group_name_H-M   'P 1'
_cell_length_a   3.54773300
_cell_length_b   8.90280365
_cell_length_c   11.25303008
_cell_angle_alpha   89.93020117
_cell_angle_beta   90.00000000
_cell_angle_gamma   90.00000000
_symmetry_Int_Tables_number   1
_chemical_formula_structural   Li3Ho4Lu(B6Os)4
_chemical_formula_sum   'Li3 Ho4 Lu1 B24 Os4'
_cell_volume   355.42410684
_cell_formula_units_Z   1
loop_
 _symmetry_equiv_pos_site_id
 _symmetry_equiv_pos_as_xyz
  1  'x, y, z'
loop_
 _atom_site_type_symbol
 _atom_site_label
 _atom_site_symmetry_multiplicity
 _atom_site_fract_x
 _atom_site_fract_y
 _atom_site_fract_z
 _atom_site_occupancy
  Li  Li0  1  0.000000  0.942869  0.371878  1
  Li  Li1  1  0.000000  0.054728  0.624768  1
  Li  Li2  1  0.000000  0.441627  0.130890  1
  Ho  Ho3  1  0.000000  0.320814  0.411017  1
  Ho  Ho4  1  0.000000  0.681786  0.581580  1
  Ho  Ho5  1  0.000000  0.824077  0.090307  1
  Ho  Ho6  1  0.000000  0.178457  0.916409  1
  Lu  Lu7  1  0.000000  0.556852  0.871521  1
  B  B8  1  0.500000  0.554933  0.431891  1
  B  B9  1  0.500000  0.444709  0.565927  1
  B  B10  1  0.500000  0.056373  0.068530  1
  B  B11  1  0.500000  0.948196  0.933155  1
  B  B12  1  0.500000  0.758188  0.416953  1
  B  B13  1  0.500000  0.240418  0.581319  1
  B  B14  1  0.500000  0.256721  0.084186  1
  B  B15  1  0.500000  0.750260  0.919040  1
  B  B16  1  0.500000  0.793875  0.264459  1
  B  B17  1  0.500000  0.203673  0.735187  1
  B  B18  1  0.500000  0.293550  0.236715  1
  B  B19  1  0.500000  0.709506  0.763015  1
  B  B20  1  0.500000  0.625898  0.183050  1
  B  B21  1  0.500000  0.368675  0.815946  1
  B  B22  1  0.500000  0.124820  0.318865  1
  B  B23  1  0.500000  0.876648  0.679895  1
  B  B24  1  0.500000  0.978917  0.214585  1
  B  B25  1  0.500000  0.021250  0.785277  1
  B  B26  1  0.500000  0.478354  0.286769  1
  B  B27  1  0.500000  0.518837  0.711568  1
  B  B28  1  0.500000  0.591301  0.030884  1
  B  B29  1  0.500000  0.404524  0.979732  1
  B  B30  1  0.500000  0.092674  0.473919  1
  B  B31  1  0.500000  0.907420  0.524295  1
  Os  Os32  1  0.000000  0.639305  0.317698  1
  Os  Os33  1  0.000000  0.357002  0.678562  1
  Os  Os34  1  0.000000  0.138804  0.183234  1
  Os  Os35  1  0.000000  0.863960  0.816972  1
