# generated using pymatgen
data_CeDy7(Si3Ir)4
_symmetry_space_group_name_H-M   'P 1'
_cell_length_a   8.17175700
_cell_length_b   8.17180378
_cell_length_c   7.97438800
_cell_angle_alpha   90.00000000
_cell_angle_beta   90.00000000
_cell_angle_gamma   119.99929421
_symmetry_Int_Tables_number   1
_chemical_formula_structural   CeDy7(Si3Ir)4
_chemical_formula_sum   'Ce1 Dy7 Si12 Ir4'
_cell_volume   461.17361993
_cell_formula_units_Z   1
loop_
 _symmetry_equiv_pos_site_id
 _symmetry_equiv_pos_as_xyz
  1  'x, y, z'
loop_
 _atom_site_type_symbol
 _atom_site_label
 _atom_site_symmetry_multiplicity
 _atom_site_fract_x
 _atom_site_fract_y
 _atom_site_fract_z
 _atom_site_occupancy
  Ce  Ce0  1  0.999986  0.000028  0.250000  1
  Dy  Dy1  1  0.999999  0.000003  0.750000  1
  Dy  Dy2  1  0.508651  0.491349  0.250000  1
  Dy  Dy3  1  0.508648  0.017284  0.250000  1
  Dy  Dy4  1  0.982713  0.491350  0.250000  1
  Dy  Dy5  1  0.490660  0.509345  0.750000  1
  Dy  Dy6  1  0.490649  0.981337  0.750000  1
  Dy  Dy7  1  0.018665  0.509354  0.750000  1
  Si  Si8  1  0.166624  0.833380  0.499993  1
  Si  Si9  1  0.166644  0.333301  0.500037  1
  Si  Si10  1  0.666707  0.833362  0.500030  1
  Si  Si11  1  0.832749  0.167245  0.500182  1
  Si  Si12  1  0.832730  0.665438  0.500244  1
  Si  Si13  1  0.334552  0.167261  0.500237  1
  Si  Si14  1  0.832749  0.167245  0.999818  1
  Si  Si15  1  0.832730  0.665438  0.999756  1
  Si  Si16  1  0.334552  0.167261  0.999763  1
  Si  Si17  1  0.166624  0.833380  0.000007  1
  Si  Si18  1  0.166644  0.333301  0.999963  1
  Si  Si19  1  0.666707  0.833362  0.999970  1
  Ir  Ir20  1  0.333335  0.666664  0.470548  1
  Ir  Ir21  1  0.666673  0.333324  0.534730  1
  Ir  Ir22  1  0.666673  0.333324  0.965270  1
  Ir  Ir23  1  0.333335  0.666664  0.029452  1
