# generated using pymatgen
data_Nd4TmCo19(Si3P)3
_symmetry_space_group_name_H-M   'P 1'
_cell_length_a   12.18710460
_cell_length_b   12.20906077
_cell_length_c   3.73432000
_cell_angle_alpha   90.00000000
_cell_angle_beta   90.00000000
_cell_angle_gamma   120.05961099
_symmetry_Int_Tables_number   1
_chemical_formula_structural   Nd4TmCo19(Si3P)3
_chemical_formula_sum   'Nd4 Tm1 Co19 Si9 P3'
_cell_volume   480.90995875
_cell_formula_units_Z   1
loop_
 _symmetry_equiv_pos_site_id
 _symmetry_equiv_pos_as_xyz
  1  'x, y, z'
loop_
 _atom_site_type_symbol
 _atom_site_label
 _atom_site_symmetry_multiplicity
 _atom_site_fract_x
 _atom_site_fract_y
 _atom_site_fract_z
 _atom_site_occupancy
  Nd  Nd0  1  0.666111  0.333231  0.000000  1
  Nd  Nd1  1  0.333889  0.667122  0.000000  1
  Nd  Nd2  1  0.184494  0.183715  0.500000  1
  Nd  Nd3  1  0.815506  0.999221  0.500000  1
  Tm  Tm4  1  0.000000  0.813790  0.500000  1
  Co  Co5  1  0.824114  0.198737  0.000000  1
  Co  Co6  1  0.804813  0.628105  0.000000  1
  Co  Co7  1  0.372301  0.174027  0.000000  1
  Co  Co8  1  0.195187  0.823293  0.000000  1
  Co  Co9  1  0.627699  0.801728  0.000000  1
  Co  Co10  1  0.175886  0.374625  0.000000  1
  Co  Co11  1  0.559947  0.559303  0.000000  1
  Co  Co12  1  0.440053  0.999356  0.000000  1
  Co  Co13  1  0.000000  0.442847  0.000000  1
  Co  Co14  1  0.643450  0.122368  0.500000  1
  Co  Co15  1  0.878506  0.523695  0.500000  1
  Co  Co16  1  0.478143  0.355929  0.500000  1
  Co  Co17  1  0.121494  0.645188  0.500000  1
  Co  Co18  1  0.521857  0.877785  0.500000  1
  Co  Co19  1  0.356550  0.478917  0.500000  1
  Co  Co20  1  0.724684  0.722171  0.500000  1
  Co  Co21  1  0.275316  0.997487  0.500000  1
  Co  Co22  1  0.000000  0.278996  0.500000  1
  Co  Co23  1  0.000000  0.997656  0.000000  1
  Si  Si24  1  0.373098  0.373174  0.000000  1
  Si  Si25  1  0.626902  0.000075  0.000000  1
  Si  Si26  1  0.000000  0.630543  0.000000  1
  Si  Si27  1  0.842539  0.319258  0.500000  1
  Si  Si28  1  0.682425  0.524373  0.500000  1
  Si  Si29  1  0.474146  0.156465  0.500000  1
  Si  Si30  1  0.317575  0.841949  0.500000  1
  Si  Si31  1  0.525854  0.682319  0.500000  1
  Si  Si32  1  0.157461  0.476719  0.500000  1
  P  P33  1  0.819841  0.815577  0.000000  1
  P  P34  1  0.180159  0.995736  0.000000  1
  P  P35  1  0.000000  0.184519  0.000000  1
