# generated using pymatgen
data_Ca3Pr(OsC2)2
_symmetry_space_group_name_H-M   'P 1'
_cell_length_a   5.21206800
_cell_length_b   6.51267461
_cell_length_c   10.64457507
_cell_angle_alpha   90.23538443
_cell_angle_beta   90.00000000
_cell_angle_gamma   90.00000000
_symmetry_Int_Tables_number   1
_chemical_formula_structural   Ca3Pr(OsC2)2
_chemical_formula_sum   'Ca6 Pr2 Os4 C8'
_cell_volume   361.32176080
_cell_formula_units_Z   2
loop_
 _symmetry_equiv_pos_site_id
 _symmetry_equiv_pos_as_xyz
  1  'x, y, z'
loop_
 _atom_site_type_symbol
 _atom_site_label
 _atom_site_symmetry_multiplicity
 _atom_site_fract_x
 _atom_site_fract_y
 _atom_site_fract_z
 _atom_site_occupancy
  Ca  Ca0  1  0.750000  0.806640  0.049507  1
  Ca  Ca1  1  0.250000  0.193360  0.950493  1
  Ca  Ca2  1  0.250000  0.539164  0.212354  1
  Ca  Ca3  1  0.750000  0.460836  0.787646  1
  Ca  Ca4  1  0.750000  0.968686  0.733898  1
  Ca  Ca5  1  0.250000  0.031314  0.266102  1
  Pr  Pr6  1  0.250000  0.700648  0.551826  1
  Pr  Pr7  1  0.750000  0.299352  0.448174  1
  Os  Os8  1  0.250000  0.732262  0.853573  1
  Os  Os9  1  0.750000  0.267738  0.146427  1
  Os  Os10  1  0.750000  0.769196  0.342718  1
  Os  Os11  1  0.250000  0.230804  0.657282  1
  C  C12  1  0.250000  0.472777  0.759973  1
  C  C13  1  0.750000  0.527223  0.240027  1
  C  C14  1  0.750000  0.030250  0.254825  1
  C  C15  1  0.250000  0.969750  0.745175  1
  C  C16  1  0.250000  0.789520  0.023878  1
  C  C17  1  0.750000  0.210480  0.976122  1
  C  C18  1  0.750000  0.708923  0.516334  1
  C  C19  1  0.250000  0.291077  0.483666  1
