# generated using pymatgen
data_MnTcF6
_symmetry_space_group_name_H-M   'P 1'
_cell_length_a   5.74284451
_cell_length_b   5.74285049
_cell_length_c   5.74285021
_cell_angle_alpha   58.83210631
_cell_angle_beta   58.83227914
_cell_angle_gamma   58.83223652
_symmetry_Int_Tables_number   1
_chemical_formula_structural   MnTcF6
_chemical_formula_sum   'Mn1 Tc1 F6'
_cell_volume   130.35566765
_cell_formula_units_Z   1
loop_
 _symmetry_equiv_pos_site_id
 _symmetry_equiv_pos_as_xyz
  1  'x, y, z'
loop_
 _atom_site_type_symbol
 _atom_site_label
 _atom_site_symmetry_multiplicity
 _atom_site_fract_x
 _atom_site_fract_y
 _atom_site_fract_z
 _atom_site_occupancy
  Mn  Mn0  1  0.500000  0.500000  0.500000  1
  Tc  Tc1  1  0.000000  0.000000  0.000000  1
  F  F2  1  0.827317  0.692727  0.239885  1
  F  F3  1  0.172683  0.307273  0.760115  1
  F  F4  1  0.239884  0.827318  0.692727  1
  F  F5  1  0.692728  0.239884  0.827317  1
  F  F6  1  0.760116  0.172682  0.307273  1
  F  F7  1  0.307272  0.760116  0.172683  1
