# generated using pymatgen
data_Y3ZrAl16(GaRh3)2
_symmetry_space_group_name_H-M   'P 1'
_cell_length_a   7.53100903
_cell_length_b   7.52535266
_cell_length_c   9.46105300
_cell_angle_alpha   90.00000000
_cell_angle_beta   90.00000000
_cell_angle_gamma   119.46660090
_symmetry_Int_Tables_number   1
_chemical_formula_structural   Y3ZrAl16(GaRh3)2
_chemical_formula_sum   'Y3 Zr1 Al16 Ga2 Rh6'
_cell_volume   466.83070233
_cell_formula_units_Z   1
loop_
 _symmetry_equiv_pos_site_id
 _symmetry_equiv_pos_as_xyz
  1  'x, y, z'
loop_
 _atom_site_type_symbol
 _atom_site_label
 _atom_site_symmetry_multiplicity
 _atom_site_fract_x
 _atom_site_fract_y
 _atom_site_fract_z
 _atom_site_occupancy
  Y  Y0  1  0.003334  0.324171  0.750000  1
  Y  Y1  1  0.671819  0.997242  0.250000  1
  Y  Y2  1  0.329476  0.010194  0.750000  1
  Zr  Zr3  1  0.997021  0.671956  0.250000  1
  Al  Al4  1  0.124970  0.122243  0.250000  1
  Al  Al5  1  0.000292  0.338992  0.079511  1
  Al  Al6  1  0.999459  0.665186  0.930553  1
  Al  Al7  1  0.999459  0.665186  0.569447  1
  Al  Al8  1  0.332242  0.997326  0.420834  1
  Al  Al9  1  0.000292  0.338992  0.420489  1
  Al  Al10  1  0.663624  0.996246  0.574124  1
  Al  Al11  1  0.663624  0.996246  0.925876  1
  Al  Al12  1  0.332242  0.997326  0.079166  1
  Al  Al13  1  0.334243  0.334998  0.544221  1
  Al  Al14  1  0.670310  0.667825  0.439651  1
  Al  Al15  1  0.670310  0.667825  0.060349  1
  Al  Al16  1  0.334243  0.334998  0.955779  1
  Al  Al17  1  0.334920  0.551780  0.250000  1
  Al  Al18  1  0.556771  0.343937  0.250000  1
  Al  Al19  1  0.447831  0.657742  0.750000  1
  Ga  Ga20  1  0.870128  0.867142  0.750000  1
  Ga  Ga21  1  0.659815  0.451947  0.750000  1
  Rh  Rh22  1  0.672898  0.328080  0.003055  1
  Rh  Rh23  1  0.329112  0.672418  0.001250  1
  Rh  Rh24  1  0.329112  0.672418  0.498750  1
  Rh  Rh25  1  0.672898  0.328080  0.496945  1
  Rh  Rh26  1  0.999778  0.999753  0.003271  1
  Rh  Rh27  1  0.999778  0.999753  0.496729  1
