# generated using pymatgen
data_ZrTi3(InCu2)2
_symmetry_space_group_name_H-M   'P 1'
_cell_length_a   7.04793900
_cell_length_b   7.04793925
_cell_length_c   6.57565000
_cell_angle_alpha   90.00000000
_cell_angle_beta   90.00000000
_cell_angle_gamma   90.55870848
_symmetry_Int_Tables_number   1
_chemical_formula_structural   ZrTi3(InCu2)2
_chemical_formula_sum   'Zr2 Ti6 In4 Cu8'
_cell_volume   326.61966542
_cell_formula_units_Z   2
loop_
 _symmetry_equiv_pos_site_id
 _symmetry_equiv_pos_as_xyz
  1  'x, y, z'
loop_
 _atom_site_type_symbol
 _atom_site_label
 _atom_site_symmetry_multiplicity
 _atom_site_fract_x
 _atom_site_fract_y
 _atom_site_fract_z
 _atom_site_occupancy
  Zr  Zr0  1  0.649269  0.350731  0.500000  1
  Zr  Zr1  1  0.350731  0.649269  0.500000  1
  Ti  Ti2  1  0.143475  0.143475  0.000000  1
  Ti  Ti3  1  0.856525  0.856525  0.000000  1
  Ti  Ti4  1  0.693440  0.306560  0.000000  1
  Ti  Ti5  1  0.306560  0.693440  0.000000  1
  Ti  Ti6  1  0.807488  0.807488  0.500000  1
  Ti  Ti7  1  0.192512  0.192512  0.500000  1
  In  In8  1  0.500000  0.000000  0.244691  1
  In  In9  1  0.500000  0.000000  0.755309  1
  In  In10  1  0.000000  0.500000  0.244691  1
  In  In11  1  0.000000  0.500000  0.755309  1
  Cu  Cu12  1  0.372839  0.372839  0.193744  1
  Cu  Cu13  1  0.627161  0.627161  0.806256  1
  Cu  Cu14  1  0.627161  0.627161  0.193744  1
  Cu  Cu15  1  0.878529  0.121471  0.705500  1
  Cu  Cu16  1  0.878529  0.121471  0.294500  1
  Cu  Cu17  1  0.372839  0.372839  0.806256  1
  Cu  Cu18  1  0.121471  0.878529  0.294500  1
  Cu  Cu19  1  0.121471  0.878529  0.705500  1
