# generated using pymatgen
data_Li4CaTm3Si8
_symmetry_space_group_name_H-M   'P 1'
_cell_length_a   3.76974300
_cell_length_b   7.70186981
_cell_length_c   10.15263640
_cell_angle_alpha   89.47768360
_cell_angle_beta   90.00000000
_cell_angle_gamma   90.00000000
_symmetry_Int_Tables_number   1
_chemical_formula_structural   Li4CaTm3Si8
_chemical_formula_sum   'Li4 Ca1 Tm3 Si8'
_cell_volume   294.76010567
_cell_formula_units_Z   1
loop_
 _symmetry_equiv_pos_site_id
 _symmetry_equiv_pos_as_xyz
  1  'x, y, z'
loop_
 _atom_site_type_symbol
 _atom_site_label
 _atom_site_symmetry_multiplicity
 _atom_site_fract_x
 _atom_site_fract_y
 _atom_site_fract_z
 _atom_site_occupancy
  Li  Li0  1  0.250000  0.996746  0.393911  1
  Li  Li1  1  0.750000  0.013336  0.608670  1
  Li  Li2  1  0.250000  0.485794  0.109067  1
  Li  Li3  1  0.750000  0.512194  0.894844  1
  Ca  Ca4  1  0.750000  0.361568  0.363390  1
  Tm  Tm5  1  0.250000  0.128789  0.862422  1
  Tm  Tm6  1  0.750000  0.865663  0.133300  1
  Tm  Tm7  1  0.250000  0.634055  0.636068  1
  Si  Si8  1  0.750000  0.257132  0.059280  1
  Si  Si9  1  0.250000  0.735312  0.934207  1
  Si  Si10  1  0.750000  0.773315  0.434023  1
  Si  Si11  1  0.250000  0.238464  0.573608  1
  Si  Si12  1  0.750000  0.840451  0.816285  1
  Si  Si13  1  0.250000  0.149190  0.172819  1
  Si  Si14  1  0.750000  0.343964  0.687536  1
  Si  Si15  1  0.250000  0.664026  0.320569  1
