# generated using pymatgen
data_La2HoThSe6
_symmetry_space_group_name_H-M   'P 1'
_cell_length_a   4.19576500
_cell_length_b   11.08068100
_cell_length_c   11.43788200
_cell_angle_alpha   90.00000000
_cell_angle_beta   90.00000000
_cell_angle_gamma   90.00000000
_symmetry_Int_Tables_number   1
_chemical_formula_structural   La2HoThSe6
_chemical_formula_sum   'La4 Ho2 Th2 Se12'
_cell_volume   531.76924951
_cell_formula_units_Z   2
loop_
 _symmetry_equiv_pos_site_id
 _symmetry_equiv_pos_as_xyz
  1  'x, y, z'
loop_
 _atom_site_type_symbol
 _atom_site_label
 _atom_site_symmetry_multiplicity
 _atom_site_fract_x
 _atom_site_fract_y
 _atom_site_fract_z
 _atom_site_occupancy
  La  La0  1  0.750000  0.505984  0.696078  1
  La  La1  1  0.750000  0.994016  0.196078  1
  La  La2  1  0.250000  0.508840  0.306315  1
  La  La3  1  0.250000  0.991160  0.806315  1
  Ho  Ho4  1  0.750000  0.811539  0.510640  1
  Ho  Ho5  1  0.750000  0.688461  0.010640  1
  Th  Th6  1  0.250000  0.187612  0.487738  1
  Th  Th7  1  0.250000  0.312388  0.987738  1
  Se  Se8  1  0.250000  0.297450  0.727923  1
  Se  Se9  1  0.250000  0.202550  0.227923  1
  Se  Se10  1  0.750000  0.708688  0.268738  1
  Se  Se11  1  0.750000  0.791312  0.768738  1
  Se  Se12  1  0.750000  0.052231  0.617483  1
  Se  Se13  1  0.750000  0.447769  0.117483  1
  Se  Se14  1  0.250000  0.941944  0.387482  1
  Se  Se15  1  0.250000  0.558056  0.887482  1
  Se  Se16  1  0.250000  0.636438  0.543940  1
  Se  Se17  1  0.250000  0.863562  0.043940  1
  Se  Se18  1  0.750000  0.372977  0.453666  1
  Se  Se19  1  0.750000  0.127023  0.953666  1
