# generated using pymatgen
data_HfZr8Sc(Co2Si5)4
_symmetry_space_group_name_H-M   'P 1'
_cell_length_a   11.99705511
_cell_length_b   11.99640911
_cell_length_c   3.92898900
_cell_angle_alpha   90.00000000
_cell_angle_beta   90.00000000
_cell_angle_gamma   89.93208600
_symmetry_Int_Tables_number   1
_chemical_formula_structural   HfZr8Sc(Co2Si5)4
_chemical_formula_sum   'Hf1 Zr8 Sc1 Co8 Si20'
_cell_volume   565.46591193
_cell_formula_units_Z   1
loop_
 _symmetry_equiv_pos_site_id
 _symmetry_equiv_pos_as_xyz
  1  'x, y, z'
loop_
 _atom_site_type_symbol
 _atom_site_label
 _atom_site_symmetry_multiplicity
 _atom_site_fract_x
 _atom_site_fract_y
 _atom_site_fract_z
 _atom_site_occupancy
  Hf  Hf0  1  0.677755  0.178832  0.500000  1
  Zr  Zr1  1  0.999723  0.000089  0.000000  1
  Zr  Zr2  1  0.179228  0.321772  0.500000  1
  Zr  Zr3  1  0.820813  0.678233  0.500000  1
  Zr  Zr4  1  0.321861  0.820792  0.500000  1
  Zr  Zr5  1  0.886833  0.387019  0.500000  1
  Zr  Zr6  1  0.388197  0.112320  0.500000  1
  Zr  Zr7  1  0.612180  0.887958  0.500000  1
  Zr  Zr8  1  0.112499  0.612280  0.500000  1
  Sc  Sc9  1  0.500065  0.499745  0.000000  1
  Co  Co10  1  0.528214  0.255404  0.000000  1
  Co  Co11  1  0.255980  0.472988  0.000000  1
  Co  Co12  1  0.744113  0.526538  0.000000  1
  Co  Co13  1  0.473137  0.744101  0.000000  1
  Co  Co14  1  0.972763  0.755900  0.000000  1
  Co  Co15  1  0.026737  0.244193  0.000000  1
  Co  Co16  1  0.755312  0.028478  0.000000  1
  Co  Co17  1  0.244166  0.972927  0.000000  1
  Si  Si18  1  0.568568  0.068816  0.000000  1
  Si  Si19  1  0.068518  0.431632  0.000000  1
  Si  Si20  1  0.931409  0.568273  0.000000  1
  Si  Si21  1  0.431874  0.931611  0.000000  1
  Si  Si22  1  0.200124  0.154260  0.000000  1
  Si  Si23  1  0.154064  0.799843  0.000000  1
  Si  Si24  1  0.845293  0.200361  0.000000  1
  Si  Si25  1  0.799718  0.846268  0.000000  1
  Si  Si26  1  0.301526  0.652727  0.000000  1
  Si  Si27  1  0.698670  0.346649  0.000000  1
  Si  Si28  1  0.652904  0.698510  0.000000  1
  Si  Si29  1  0.347585  0.301338  0.000000  1
  Si  Si30  1  0.000361  0.165502  0.500000  1
  Si  Si31  1  0.165345  0.999651  0.500000  1
  Si  Si32  1  0.834208  0.000780  0.500000  1
  Si  Si33  1  0.999730  0.834562  0.500000  1
  Si  Si34  1  0.498196  0.662182  0.500000  1
  Si  Si35  1  0.502280  0.337420  0.500000  1
  Si  Si36  1  0.662349  0.501861  0.500000  1
  Si  Si37  1  0.337701  0.498185  0.500000  1
