# generated using pymatgen
data_Er8Cd2RuPt
_symmetry_space_group_name_H-M   'P 1'
_cell_length_a   9.56444966
_cell_length_b   9.56444923
_cell_length_c   9.61192300
_cell_angle_alpha   59.83566685
_cell_angle_beta   59.83566831
_cell_angle_gamma   59.62522918
_symmetry_Int_Tables_number   1
_chemical_formula_structural   Er8Cd2RuPt
_chemical_formula_sum   'Er16 Cd4 Ru2 Pt2'
_cell_volume   618.43341559
_cell_formula_units_Z   2
loop_
 _symmetry_equiv_pos_site_id
 _symmetry_equiv_pos_as_xyz
  1  'x, y, z'
loop_
 _atom_site_type_symbol
 _atom_site_label
 _atom_site_symmetry_multiplicity
 _atom_site_fract_x
 _atom_site_fract_y
 _atom_site_fract_z
 _atom_site_occupancy
  Er  Er0  1  0.349303  0.349303  0.352494  1
  Er  Er1  1  0.349303  0.349303  0.948902  1
  Er  Er2  1  0.347421  0.951943  0.350318  1
  Er  Er3  1  0.951943  0.347421  0.350318  1
  Er  Er4  1  0.815195  0.188403  0.189105  1
  Er  Er5  1  0.188403  0.815195  0.807297  1
  Er  Er6  1  0.188403  0.815195  0.189105  1
  Er  Er7  1  0.815195  0.188403  0.807297  1
  Er  Er8  1  0.187589  0.187589  0.812411  1
  Er  Er9  1  0.809416  0.809416  0.190584  1
  Er  Er10  1  0.937069  0.560106  0.566457  1
  Er  Er11  1  0.560106  0.937069  0.936368  1
  Er  Er12  1  0.560106  0.937069  0.566457  1
  Er  Er13  1  0.937069  0.560106  0.936368  1
  Er  Er14  1  0.564472  0.564472  0.935528  1
  Er  Er15  1  0.938470  0.938470  0.561530  1
  Cd  Cd16  1  0.580005  0.580005  0.581919  1
  Cd  Cd17  1  0.580005  0.580005  0.258072  1
  Cd  Cd18  1  0.581391  0.254897  0.581856  1
  Cd  Cd19  1  0.254897  0.581391  0.581856  1
  Ru  Ru20  1  0.143762  0.143762  0.139725  1
  Ru  Ru21  1  0.143762  0.143762  0.572750  1
  Pt  Pt22  1  0.143835  0.572881  0.141641  1
  Pt  Pt23  1  0.572881  0.143835  0.141641  1
