# generated using pymatgen
data_Ho7Tm3Ga2(NiBi)2
_symmetry_space_group_name_H-M   'P 1'
_cell_length_a   8.52364343
_cell_length_b   8.51875245
_cell_length_c   8.74498400
_cell_angle_alpha   124.58568326
_cell_angle_beta   124.56308338
_cell_angle_gamma   80.51701777
_symmetry_Int_Tables_number   1
_chemical_formula_structural   Ho7Tm3Ga2(NiBi)2
_chemical_formula_sum   'Ho7 Tm3 Ga2 Ni2 Bi2'
_cell_volume   418.75499673
_cell_formula_units_Z   1
loop_
 _symmetry_equiv_pos_site_id
 _symmetry_equiv_pos_as_xyz
  1  'x, y, z'
loop_
 _atom_site_type_symbol
 _atom_site_label
 _atom_site_symmetry_multiplicity
 _atom_site_fract_x
 _atom_site_fract_y
 _atom_site_fract_z
 _atom_site_occupancy
  Ho  Ho0  1  0.779987  0.279279  0.788507  1
  Ho  Ho1  1  0.219709  0.720324  0.211064  1
  Ho  Ho2  1  0.491341  0.990976  0.211605  1
  Ho  Ho3  1  0.302952  0.460660  0.499999  1
  Ho  Ho4  1  0.040626  0.195758  0.500035  1
  Ho  Ho5  1  0.508523  0.008778  0.788825  1
  Ho  Ho6  1  0.696578  0.539805  0.499950  1
  Tm  Tm7  1  0.999319  0.999686  0.998376  1
  Tm  Tm8  1  0.500802  0.500570  0.000789  1
  Tm  Tm9  1  0.957927  0.803142  0.499794  1
  Ga  Ga10  1  0.143756  0.644322  0.787000  1
  Ga  Ga11  1  0.857003  0.357026  0.213271  1
  Ni  Ni12  1  0.627754  0.871462  0.499662  1
  Ni  Ni13  1  0.373340  0.127820  0.500976  1
  Bi  Bi14  1  0.249894  0.250020  0.999637  1
  Bi  Bi15  1  0.750489  0.750373  0.000508  1
