# generated using pymatgen
data_Tm8B24MoIr2Ru
_symmetry_space_group_name_H-M   'P 1'
_cell_length_a   3.62310200
_cell_length_b   9.10386476
_cell_length_c   11.47226400
_cell_angle_alpha   89.86785448
_cell_angle_beta   90.00000000
_cell_angle_gamma   90.00000000
_symmetry_Int_Tables_number   1
_chemical_formula_structural   Tm8B24MoIr2Ru
_chemical_formula_sum   'Tm8 B24 Mo1 Ir2 Ru1'
_cell_volume   378.40279504
_cell_formula_units_Z   1
loop_
 _symmetry_equiv_pos_site_id
 _symmetry_equiv_pos_as_xyz
  1  'x, y, z'
loop_
 _atom_site_type_symbol
 _atom_site_label
 _atom_site_symmetry_multiplicity
 _atom_site_fract_x
 _atom_site_fract_y
 _atom_site_fract_z
 _atom_site_occupancy
  Tm  Tm0  1  0.000000  0.323952  0.412746  1
  Tm  Tm1  1  0.000000  0.681470  0.583459  1
  Tm  Tm2  1  0.000000  0.816327  0.088661  1
  Tm  Tm3  1  0.000000  0.176198  0.914761  1
  Tm  Tm4  1  0.000000  0.943500  0.375026  1
  Tm  Tm5  1  0.000000  0.055527  0.627861  1
  Tm  Tm6  1  0.000000  0.445755  0.125692  1
  Tm  Tm7  1  0.000000  0.558181  0.872675  1
  B  B8  1  0.500000  0.551538  0.435888  1
  B  B9  1  0.500000  0.446466  0.566578  1
  B  B10  1  0.500000  0.052500  0.065890  1
  B  B11  1  0.500000  0.945618  0.933905  1
  B  B12  1  0.500000  0.750745  0.422125  1
  B  B13  1  0.500000  0.251344  0.579161  1
  B  B14  1  0.500000  0.248982  0.078242  1
  B  B15  1  0.500000  0.750765  0.919869  1
  B  B16  1  0.500000  0.794765  0.264055  1
  B  B17  1  0.500000  0.207411  0.735540  1
  B  B18  1  0.500000  0.291876  0.233342  1
  B  B19  1  0.500000  0.709048  0.765179  1
  B  B20  1  0.500000  0.631224  0.182883  1
  B  B21  1  0.500000  0.367623  0.816818  1
  B  B22  1  0.500000  0.132154  0.315965  1
  B  B23  1  0.500000  0.869802  0.684952  1
  B  B24  1  0.500000  0.981272  0.212922  1
  B  B25  1  0.500000  0.017966  0.787668  1
  B  B26  1  0.500000  0.478575  0.286257  1
  B  B27  1  0.500000  0.518416  0.713164  1
  B  B28  1  0.500000  0.606262  0.027685  1
  B  B29  1  0.500000  0.391760  0.969481  1
  B  B30  1  0.500000  0.108571  0.471076  1
  B  B31  1  0.500000  0.895301  0.530749  1
  Mo  Mo32  1  0.000000  0.637289  0.320909  1
  Ir  Ir33  1  0.000000  0.361916  0.679717  1
  Ir  Ir34  1  0.000000  0.137343  0.177944  1
  Ru  Ru35  1  0.000000  0.862559  0.821155  1
