# generated using pymatgen
data_Ba2SrEuTa4O14
_symmetry_space_group_name_H-M   'P 1'
_cell_length_a   4.02026644
_cell_length_b   7.89305878
_cell_length_c   11.22342334
_cell_angle_alpha   110.57929435
_cell_angle_beta   100.31600984
_cell_angle_gamma   89.99555006
_symmetry_Int_Tables_number   1
_chemical_formula_structural   Ba2SrEuTa4O14
_chemical_formula_sum   'Ba2 Sr1 Eu1 Ta4 O14'
_cell_volume   327.26244539
_cell_formula_units_Z   1
loop_
 _symmetry_equiv_pos_site_id
 _symmetry_equiv_pos_as_xyz
  1  'x, y, z'
loop_
 _atom_site_type_symbol
 _atom_site_label
 _atom_site_symmetry_multiplicity
 _atom_site_fract_x
 _atom_site_fract_y
 _atom_site_fract_z
 _atom_site_occupancy
  Ba  Ba0  1  0.739569  0.239596  0.479258  1
  Ba  Ba1  1  0.260444  0.760415  0.520774  1
  Sr  Sr2  1  0.499996  0.999991  0.999995  1
  Eu  Eu3  1  0.500015  0.500053  0.000016  1
  Ta  Ta4  1  0.102115  0.350818  0.204436  1
  Ta  Ta5  1  0.102231  0.853573  0.204459  1
  Ta  Ta6  1  0.897785  0.146446  0.795566  1
  Ta  Ta7  1  0.897863  0.649160  0.795526  1
  O  O8  1  0.999971  0.296709  0.999994  1
  O  O9  1  0.000029  0.703302  0.999992  1
  O  O10  1  0.077990  0.078002  0.156040  1
  O  O11  1  0.589647  0.339735  0.179390  1
  O  O12  1  0.589676  0.839501  0.179370  1
  O  O13  1  0.114146  0.614137  0.228321  1
  O  O14  1  0.191579  0.393042  0.383292  1
  O  O15  1  0.191587  0.990149  0.383233  1
  O  O16  1  0.808407  0.009831  0.616760  1
  O  O17  1  0.808437  0.606963  0.616736  1
  O  O18  1  0.885846  0.385859  0.771659  1
  O  O19  1  0.410321  0.160485  0.820618  1
  O  O20  1  0.410355  0.660259  0.820611  1
  O  O21  1  0.922007  0.921978  0.843951  1
