# generated using pymatgen
data_TmSi3PRh6
_symmetry_space_group_name_H-M   'P 1'
_cell_length_a   7.06046103
_cell_length_b   7.06046030
_cell_length_c   3.72759100
_cell_angle_alpha   90.00000000
_cell_angle_beta   90.00000000
_cell_angle_gamma   120.52714000
_symmetry_Int_Tables_number   1
_chemical_formula_structural   TmSi3PRh6
_chemical_formula_sum   'Tm1 Si3 P1 Rh6'
_cell_volume   160.06393001
_cell_formula_units_Z   1
loop_
 _symmetry_equiv_pos_site_id
 _symmetry_equiv_pos_as_xyz
  1  'x, y, z'
loop_
 _atom_site_type_symbol
 _atom_site_label
 _atom_site_symmetry_multiplicity
 _atom_site_fract_x
 _atom_site_fract_y
 _atom_site_fract_z
 _atom_site_occupancy
  Tm  Tm0  1  0.332852  0.667148  0.000000  1
  Si  Si1  1  0.666557  0.333443  0.000000  1
  Si  Si2  1  0.726985  0.864852  0.500000  1
  Si  Si3  1  0.135148  0.273015  0.500000  1
  P  P4  1  0.140843  0.859157  0.500000  1
  Rh  Rh5  1  0.264755  0.132188  0.000000  1
  Rh  Rh6  1  0.867812  0.735245  0.000000  1
  Rh  Rh7  1  0.866797  0.133203  0.000000  1
  Rh  Rh8  1  0.939942  0.471856  0.500000  1
  Rh  Rh9  1  0.528144  0.060058  0.500000  1
  Rh  Rh10  1  0.530163  0.469837  0.500000  1
