# generated using pymatgen
data_Y6Zn4Ni2Pt11
_symmetry_space_group_name_H-M   'P 1'
_cell_length_a   8.27691239
_cell_length_b   8.27691154
_cell_length_c   8.27387200
_cell_angle_alpha   109.44179171
_cell_angle_beta   109.44178963
_cell_angle_gamma   109.49903111
_symmetry_Int_Tables_number   1
_chemical_formula_structural   Y6Zn4Ni2Pt11
_chemical_formula_sum   'Y6 Zn4 Ni2 Pt11'
_cell_volume   436.50555711
_cell_formula_units_Z   1
loop_
 _symmetry_equiv_pos_site_id
 _symmetry_equiv_pos_as_xyz
  1  'x, y, z'
loop_
 _atom_site_type_symbol
 _atom_site_label
 _atom_site_symmetry_multiplicity
 _atom_site_fract_x
 _atom_site_fract_y
 _atom_site_fract_z
 _atom_site_occupancy
  Y  Y0  1  0.700251  0.700251  0.003840  1
  Y  Y1  1  0.303749  0.002406  0.303479  1
  Y  Y2  1  0.002406  0.303749  0.303479  1
  Y  Y3  1  0.303011  0.303011  0.001225  1
  Y  Y4  1  0.701228  0.004125  0.699044  1
  Y  Y5  1  0.004125  0.701228  0.699044  1
  Zn  Zn6  1  0.003763  0.003763  0.502680  1
  Zn  Zn7  1  0.997203  0.501678  0.995860  1
  Zn  Zn8  1  0.501678  0.997203  0.995860  1
  Zn  Zn9  1  0.506040  0.506040  0.511444  1
  Ni  Ni10  1  0.663768  0.331073  0.664921  1
  Ni  Ni11  1  0.331073  0.663768  0.664921  1
  Pt  Pt12  1  0.339343  0.339343  0.666775  1
  Pt  Pt13  1  0.664095  0.996358  0.329972  1
  Pt  Pt14  1  0.996358  0.664095  0.329972  1
  Pt  Pt15  1  0.665976  0.329629  0.989898  1
  Pt  Pt16  1  0.332171  0.664227  0.340027  1
  Pt  Pt17  1  0.990014  0.332798  0.664377  1
  Pt  Pt18  1  0.329629  0.665976  0.989898  1
  Pt  Pt19  1  0.332798  0.990014  0.664377  1
  Pt  Pt20  1  0.664227  0.332171  0.340027  1
  Pt  Pt21  1  0.667189  0.667189  0.338795  1
  Pt  Pt22  1  0.999904  0.999904  0.000090  1
