# generated using pymatgen
data_Sc2Co9TcB6
_symmetry_space_group_name_H-M   'P 1'
_cell_length_a   5.67202930
_cell_length_b   5.67202974
_cell_length_c   5.67202800
_cell_angle_alpha   95.41335138
_cell_angle_beta   95.41336195
_cell_angle_gamma   95.41335044
_symmetry_Int_Tables_number   1
_chemical_formula_structural   Sc2Co9TcB6
_chemical_formula_sum   'Sc2 Co9 Tc1 B6'
_cell_volume   179.87203439
_cell_formula_units_Z   1
loop_
 _symmetry_equiv_pos_site_id
 _symmetry_equiv_pos_as_xyz
  1  'x, y, z'
loop_
 _atom_site_type_symbol
 _atom_site_label
 _atom_site_symmetry_multiplicity
 _atom_site_fract_x
 _atom_site_fract_y
 _atom_site_fract_z
 _atom_site_occupancy
  Sc  Sc0  1  0.684444  0.684444  0.684444  1
  Sc  Sc1  1  0.315556  0.315556  0.315556  1
  Co  Co2  1  0.500000  0.000000  0.000000  1
  Co  Co3  1  0.000000  0.500000  0.000000  1
  Co  Co4  1  0.000000  0.000000  0.500000  1
  Co  Co5  1  0.705114  0.197794  0.705114  1
  Co  Co6  1  0.705114  0.705114  0.197794  1
  Co  Co7  1  0.197794  0.705114  0.705114  1
  Co  Co8  1  0.294886  0.802206  0.294886  1
  Co  Co9  1  0.294886  0.294886  0.802206  1
  Co  Co10  1  0.802206  0.294886  0.294886  1
  Tc  Tc11  1  0.000000  0.000000  0.000000  1
  B  B12  1  0.386708  0.000000  0.613292  1
  B  B13  1  0.613292  0.386708  0.000000  1
  B  B14  1  0.000000  0.613292  0.386708  1
  B  B15  1  0.613292  0.000000  0.386708  1
  B  B16  1  0.386708  0.613292  0.000000  1
  B  B17  1  0.000000  0.386708  0.613292  1
