# generated using pymatgen
data_HoCrReO8
_symmetry_space_group_name_H-M   'P 1'
_cell_length_a   5.80112000
_cell_length_b   5.80112111
_cell_length_c   6.37449600
_cell_angle_alpha   90.00000000
_cell_angle_beta   90.00000000
_cell_angle_gamma   120.00000505
_symmetry_Int_Tables_number   1
_chemical_formula_structural   HoCrReO8
_chemical_formula_sum   'Ho1 Cr1 Re1 O8'
_cell_volume   185.78055007
_cell_formula_units_Z   1
loop_
 _symmetry_equiv_pos_site_id
 _symmetry_equiv_pos_as_xyz
  1  'x, y, z'
loop_
 _atom_site_type_symbol
 _atom_site_label
 _atom_site_symmetry_multiplicity
 _atom_site_fract_x
 _atom_site_fract_y
 _atom_site_fract_z
 _atom_site_occupancy
  Ho  Ho0  1  0.000000  0.000000  0.972803  1
  Cr  Cr1  1  0.666667  0.333333  0.698590  1
  Re  Re2  1  0.333333  0.666667  0.306950  1
  O  O3  1  0.355642  0.201586  0.788215  1
  O  O4  1  0.182030  0.842880  0.211567  1
  O  O5  1  0.157120  0.339149  0.211567  1
  O  O6  1  0.666667  0.333333  0.445279  1
  O  O7  1  0.333333  0.666667  0.577033  1
  O  O8  1  0.845945  0.644358  0.788215  1
  O  O9  1  0.798414  0.154055  0.788215  1
  O  O10  1  0.660851  0.817970  0.211567  1
