# generated using pymatgen
data_Tb4Tm12Cd4TcNi3
_symmetry_space_group_name_H-M   'P 1'
_cell_length_a   9.51987747
_cell_length_b   9.51127653
_cell_length_c   9.51127663
_cell_angle_alpha   59.52585542
_cell_angle_beta   59.40124507
_cell_angle_gamma   59.40123756
_symmetry_Int_Tables_number   1
_chemical_formula_structural   Tb4Tm12Cd4TcNi3
_chemical_formula_sum   'Tb4 Tm12 Cd4 Tc1 Ni3'
_cell_volume   601.24545390
_cell_formula_units_Z   1
loop_
 _symmetry_equiv_pos_site_id
 _symmetry_equiv_pos_as_xyz
  1  'x, y, z'
loop_
 _atom_site_type_symbol
 _atom_site_label
 _atom_site_symmetry_multiplicity
 _atom_site_fract_x
 _atom_site_fract_y
 _atom_site_fract_z
 _atom_site_occupancy
  Tb  Tb0  1  0.567068  0.934886  0.565726  1
  Tb  Tb1  1  0.940230  0.556257  0.938783  1
  Tb  Tb2  1  0.567068  0.565726  0.934886  1
  Tb  Tb3  1  0.940230  0.938783  0.556257  1
  Tm  Tm4  1  0.346813  0.346435  0.346435  1
  Tm  Tm5  1  0.351704  0.353781  0.955486  1
  Tm  Tm6  1  0.351704  0.955486  0.353781  1
  Tm  Tm7  1  0.952711  0.351626  0.351626  1
  Tm  Tm8  1  0.813064  0.185589  0.185589  1
  Tm  Tm9  1  0.186313  0.811916  0.811916  1
  Tm  Tm10  1  0.187101  0.811057  0.186530  1
  Tm  Tm11  1  0.812405  0.184871  0.811869  1
  Tm  Tm12  1  0.187101  0.186530  0.811057  1
  Tm  Tm13  1  0.812405  0.811869  0.184871  1
  Tm  Tm14  1  0.938830  0.561477  0.561477  1
  Tm  Tm15  1  0.549542  0.943891  0.943891  1
  Cd  Cd16  1  0.580493  0.579026  0.579026  1
  Cd  Cd17  1  0.578157  0.580316  0.256962  1
  Cd  Cd18  1  0.578157  0.256962  0.580316  1
  Cd  Cd19  1  0.256190  0.579127  0.579127  1
  Tc  Tc20  1  0.147681  0.142825  0.142825  1
  Ni  Ni21  1  0.139743  0.143977  0.575393  1
  Ni  Ni22  1  0.139743  0.575393  0.143977  1
  Ni  Ni23  1  0.575546  0.142194  0.142194  1
