# generated using pymatgen
data_Sm3U(BRu)16
_symmetry_space_group_name_H-M   'P 1'
_cell_length_a   9.23520396
_cell_length_b   7.50929654
_cell_length_c   7.50929602
_cell_angle_alpha   90.00878984
_cell_angle_beta   113.98489960
_cell_angle_gamma   113.98489964
_symmetry_Int_Tables_number   1
_chemical_formula_structural   Sm3U(BRu)16
_chemical_formula_sum   'Sm3 U1 B16 Ru16'
_cell_volume   426.09949451
_cell_formula_units_Z   1
loop_
 _symmetry_equiv_pos_site_id
 _symmetry_equiv_pos_as_xyz
  1  'x, y, z'
loop_
 _atom_site_type_symbol
 _atom_site_label
 _atom_site_symmetry_multiplicity
 _atom_site_fract_x
 _atom_site_fract_y
 _atom_site_fract_z
 _atom_site_occupancy
  Sm  Sm0  1  0.749999  0.875000  0.125000  1
  Sm  Sm1  1  0.250000  0.625000  0.375000  1
  Sm  Sm2  1  0.749999  0.375000  0.625000  1
  U  U3  1  0.250000  0.125000  0.875000  1
  B  B4  1  0.913545  0.622081  0.062668  1
  B  B5  1  0.415783  0.851642  0.127845  1
  B  B6  1  0.084216  0.872155  0.148358  1
  B  B7  1  0.589552  0.436829  0.212429  1
  B  B8  1  0.417956  0.348428  0.291243  1
  B  B9  1  0.913545  0.291463  0.350877  1
  B  B10  1  0.586455  0.937332  0.377919  1
  B  B11  1  0.084216  0.212061  0.435859  1
  B  B12  1  0.910448  0.787571  0.563171  1
  B  B13  1  0.417956  0.069528  0.626714  1
  B  B14  1  0.082043  0.708757  0.651572  1
  B  B15  1  0.586455  0.649123  0.708536  1
  B  B16  1  0.415783  0.564141  0.787939  1
  B  B17  1  0.910448  0.122877  0.847277  1
  B  B18  1  0.589552  0.152723  0.877123  1
  B  B19  1  0.082043  0.373286  0.930472  1
  Ru  Ru20  1  0.875496  0.321786  0.043752  1
  Ru  Ru21  1  0.371313  0.527028  0.047759  1
  Ru  Ru22  1  0.128687  0.176446  0.155716  1
  Ru  Ru23  1  0.623216  0.167940  0.176492  1
  Ru  Ru24  1  0.369112  0.036905  0.319698  1
  Ru  Ru25  1  0.875496  0.553710  0.331744  1
  Ru  Ru26  1  0.624504  0.668256  0.446290  1
  Ru  Ru27  1  0.128687  0.952241  0.472971  1
  Ru  Ru28  1  0.876784  0.053276  0.544724  1
  Ru  Ru29  1  0.369112  0.332206  0.549415  1
  Ru  Ru30  1  0.130888  0.450585  0.667793  1
  Ru  Ru31  1  0.624504  0.956248  0.678214  1
  Ru  Ru32  1  0.371313  0.844283  0.823554  1
  Ru  Ru33  1  0.876784  0.823508  0.832060  1
  Ru  Ru34  1  0.623216  0.455276  0.946724  1
  Ru  Ru35  1  0.130888  0.680302  0.963094  1
