# generated using pymatgen
data_Tb3DyFeTc7
_symmetry_space_group_name_H-M   'P 1'
_cell_length_a   5.43364832
_cell_length_b   5.34346929
_cell_length_c   8.72091313
_cell_angle_alpha   89.99999894
_cell_angle_beta   89.98284276
_cell_angle_gamma   119.45251424
_symmetry_Int_Tables_number   1
_chemical_formula_structural   Tb3DyFeTc7
_chemical_formula_sum   'Tb3 Dy1 Fe1 Tc7'
_cell_volume   220.48395985
_cell_formula_units_Z   1
loop_
 _symmetry_equiv_pos_site_id
 _symmetry_equiv_pos_as_xyz
  1  'x, y, z'
loop_
 _atom_site_type_symbol
 _atom_site_label
 _atom_site_symmetry_multiplicity
 _atom_site_fract_x
 _atom_site_fract_y
 _atom_site_fract_z
 _atom_site_occupancy
  Tb  Tb0  1  0.669233  0.334616  0.563446  1
  Tb  Tb1  1  0.669276  0.334638  0.936518  1
  Tb  Tb2  1  0.333102  0.666551  0.061166  1
  Dy  Dy3  1  0.333034  0.666518  0.438625  1
  Fe  Fe4  1  0.658086  0.829043  0.749634  1
  Tc  Tc5  1  0.004004  0.002002  0.505572  1
  Tc  Tc6  1  0.003840  0.001920  0.994689  1
  Tc  Tc7  1  0.829370  0.168903  0.250350  1
  Tc  Tc8  1  0.829370  0.660466  0.250350  1
  Tc  Tc9  1  0.341226  0.170613  0.250332  1
  Tc  Tc10  1  0.164730  0.825238  0.749659  1
  Tc  Tc11  1  0.164730  0.339492  0.749659  1
