# generated using pymatgen
data_Dy4YMg(P2Ru3)6
_symmetry_space_group_name_H-M   'P 1'
_cell_length_a   12.63735622
_cell_length_b   12.47738981
_cell_length_c   3.97875200
_cell_angle_alpha   90.00000000
_cell_angle_beta   90.00000000
_cell_angle_gamma   119.58420204
_symmetry_Int_Tables_number   1
_chemical_formula_structural   Dy4YMg(P2Ru3)6
_chemical_formula_sum   'Dy4 Y1 Mg1 P12 Ru18'
_cell_volume   545.58434221
_cell_formula_units_Z   1
loop_
 _symmetry_equiv_pos_site_id
 _symmetry_equiv_pos_as_xyz
  1  'x, y, z'
loop_
 _atom_site_type_symbol
 _atom_site_label
 _atom_site_symmetry_multiplicity
 _atom_site_fract_x
 _atom_site_fract_y
 _atom_site_fract_z
 _atom_site_occupancy
  Dy  Dy0  1  0.000004  0.181229  0.500000  1
  Dy  Dy1  1  0.816005  0.817175  0.500000  1
  Dy  Dy2  1  0.660137  0.328807  0.000000  1
  Dy  Dy3  1  0.339871  0.668658  0.000000  1
  Y  Y4  1  0.184032  0.001136  0.500000  1
  Mg  Mg5  1  0.000004  0.561466  0.000000  1
  P  P6  1  0.999885  0.811424  0.000000  1
  P  P7  1  0.182843  0.183793  0.000000  1
  P  P8  1  0.817118  0.000833  0.000000  1
  P  P9  1  0.691186  0.172027  0.500000  1
  P  P10  1  0.818454  0.518499  0.500000  1
  P  P11  1  0.474638  0.306941  0.500000  1
  P  P12  1  0.181546  0.700032  0.500000  1
  P  P13  1  0.525371  0.832301  0.500000  1
  P  P14  1  0.308826  0.480844  0.500000  1
  P  P15  1  0.999993  0.360176  0.000000  1
  P  P16  1  0.625319  0.625459  0.000000  1
  P  P17  1  0.374783  0.000152  0.000000  1
  Ru  Ru18  1  0.444256  0.444667  0.000000  1
  Ru  Ru19  1  0.555780  0.000413  0.000000  1
  Ru  Ru20  1  0.999939  0.716072  0.500000  1
  Ru  Ru21  1  0.281539  0.283411  0.500000  1
  Ru  Ru22  1  0.718517  0.001807  0.500000  1
  Ru  Ru23  1  0.805229  0.184467  0.000000  1
  Ru  Ru24  1  0.813200  0.619754  0.000000  1
  Ru  Ru25  1  0.373414  0.189585  0.000000  1
  Ru  Ru26  1  0.186786  0.806390  0.000000  1
  Ru  Ru27  1  0.626762  0.816166  0.000000  1
  Ru  Ru28  1  0.194748  0.379247  0.000000  1
  Ru  Ru29  1  0.874871  0.365680  0.500000  1
  Ru  Ru30  1  0.630755  0.509360  0.500000  1
  Ru  Ru31  1  0.492284  0.128624  0.500000  1
  Ru  Ru32  1  0.369286  0.878602  0.500000  1
  Ru  Ru33  1  0.507751  0.636375  0.500000  1
  Ru  Ru34  1  0.125128  0.490797  0.500000  1
  Ru  Ru35  1  0.999741  0.997631  0.000000  1
