# generated using pymatgen
data_Lu3Sc2SnSb2
_symmetry_space_group_name_H-M   'P 1'
_cell_length_a   8.66003781
_cell_length_b   8.66003822
_cell_length_c   6.08631100
_cell_angle_alpha   90.00000000
_cell_angle_beta   90.00000000
_cell_angle_gamma   119.90765448
_symmetry_Int_Tables_number   1
_chemical_formula_structural   Lu3Sc2SnSb2
_chemical_formula_sum   'Lu6 Sc4 Sn2 Sb4'
_cell_volume   395.66509910
_cell_formula_units_Z   2
loop_
 _symmetry_equiv_pos_site_id
 _symmetry_equiv_pos_as_xyz
  1  'x, y, z'
loop_
 _atom_site_type_symbol
 _atom_site_label
 _atom_site_symmetry_multiplicity
 _atom_site_fract_x
 _atom_site_fract_y
 _atom_site_fract_z
 _atom_site_occupancy
  Lu  Lu0  1  0.756845  0.756845  0.750000  1
  Lu  Lu1  1  0.239393  0.998415  0.750000  1
  Lu  Lu2  1  0.998415  0.239393  0.750000  1
  Lu  Lu3  1  0.240897  0.240897  0.250000  1
  Lu  Lu4  1  0.760445  0.002312  0.250000  1
  Lu  Lu5  1  0.002312  0.760445  0.250000  1
  Sc  Sc6  1  0.667285  0.333449  0.999769  1
  Sc  Sc7  1  0.333449  0.667285  0.999769  1
  Sc  Sc8  1  0.333449  0.667285  0.500231  1
  Sc  Sc9  1  0.667285  0.333449  0.500231  1
  Sn  Sn10  1  0.397958  0.000454  0.250000  1
  Sn  Sn11  1  0.000454  0.397958  0.250000  1
  Sb  Sb12  1  0.394498  0.394498  0.750000  1
  Sb  Sb13  1  0.602655  0.999453  0.750000  1
  Sb  Sb14  1  0.999453  0.602655  0.750000  1
  Sb  Sb15  1  0.605210  0.605210  0.250000  1
