# generated using pymatgen
data_Nd4Ga18(CoPd)3
_symmetry_space_group_name_H-M   'P 1'
_cell_length_a   7.61306845
_cell_length_b   7.61306561
_cell_length_c   9.63648019
_cell_angle_alpha   90.16355039
_cell_angle_beta   90.16356006
_cell_angle_gamma   119.71656272
_symmetry_Int_Tables_number   1
_chemical_formula_structural   Nd4Ga18(CoPd)3
_chemical_formula_sum   'Nd4 Ga18 Co3 Pd3'
_cell_volume   485.05911630
_cell_formula_units_Z   1
loop_
 _symmetry_equiv_pos_site_id
 _symmetry_equiv_pos_as_xyz
  1  'x, y, z'
loop_
 _atom_site_type_symbol
 _atom_site_label
 _atom_site_symmetry_multiplicity
 _atom_site_fract_x
 _atom_site_fract_y
 _atom_site_fract_z
 _atom_site_occupancy
  Nd  Nd0  1  0.327193  0.997076  0.249958  1
  Nd  Nd1  1  0.002930  0.672811  0.750040  1
  Nd  Nd2  1  0.664369  0.990830  0.749939  1
  Nd  Nd3  1  0.009169  0.335625  0.250062  1
  Ga  Ga4  1  0.344586  0.016294  0.923291  1
  Ga  Ga5  1  0.983709  0.655414  0.076709  1
  Ga  Ga6  1  0.335208  0.012124  0.571929  1
  Ga  Ga7  1  0.987876  0.664791  0.428069  1
  Ga  Ga8  1  0.666877  0.011439  0.075322  1
  Ga  Ga9  1  0.988561  0.333125  0.924677  1
  Ga  Ga10  1  0.675127  0.011636  0.428945  1
  Ga  Ga11  1  0.988362  0.324873  0.571055  1
  Ga  Ga12  1  0.663744  0.654313  0.937822  1
  Ga  Ga13  1  0.345689  0.336259  0.062179  1
  Ga  Ga14  1  0.674721  0.666777  0.556157  1
  Ga  Ga15  1  0.333222  0.325277  0.443843  1
  Ga  Ga16  1  0.124300  0.128416  0.741734  1
  Ga  Ga17  1  0.871584  0.875695  0.258265  1
  Ga  Ga18  1  0.466036  0.663610  0.251113  1
  Ga  Ga19  1  0.336390  0.533963  0.748887  1
  Ga  Ga20  1  0.555914  0.338910  0.747611  1
  Ga  Ga21  1  0.661092  0.444087  0.252389  1
  Co  Co22  1  0.999484  0.000516  0.500000  1
  Co  Co23  1  0.668706  0.331295  0.000000  1
  Co  Co24  1  0.668926  0.331073  0.500000  1
  Pd  Pd25  1  0.999449  0.000553  0.000000  1
  Pd  Pd26  1  0.328219  0.671780  0.000002  1
  Pd  Pd27  1  0.328557  0.671440  0.499998  1
