# generated using pymatgen
data_K3Te(OF)3
_symmetry_space_group_name_H-M   'P 1'
_cell_length_a   6.32253056
_cell_length_b   6.32252991
_cell_length_c   6.32252980
_cell_angle_alpha   60.58863143
_cell_angle_beta   60.58863836
_cell_angle_gamma   60.58863011
_symmetry_Int_Tables_number   1
_chemical_formula_structural   K3Te(OF)3
_chemical_formula_sum   'K3 Te1 O3 F3'
_cell_volume   181.08970250
_cell_formula_units_Z   1
loop_
 _symmetry_equiv_pos_site_id
 _symmetry_equiv_pos_as_xyz
  1  'x, y, z'
loop_
 _atom_site_type_symbol
 _atom_site_label
 _atom_site_symmetry_multiplicity
 _atom_site_fract_x
 _atom_site_fract_y
 _atom_site_fract_z
 _atom_site_occupancy
  K  K0  1  0.253723  0.253723  0.253723  1
  K  K1  1  0.486209  0.486209  0.486209  1
  K  K2  1  0.750076  0.750076  0.750076  1
  Te  Te3  1  0.001419  0.001419  0.001419  1
  O  O4  1  0.274101  0.761047  0.122688  1
  O  O5  1  0.761046  0.122688  0.274101  1
  O  O6  1  0.122688  0.274100  0.761046  1
  F  F7  1  0.847389  0.710830  0.166757  1
  F  F8  1  0.166758  0.847389  0.710829  1
  F  F9  1  0.710829  0.166758  0.847389  1
