# generated using pymatgen
data_NpZn(SO5)2
_symmetry_space_group_name_H-M   'P 1'
_cell_length_a   5.74901300
_cell_length_b   5.36134168
_cell_length_c   7.55925944
_cell_angle_alpha   105.34185168
_cell_angle_beta   109.42913462
_cell_angle_gamma   98.38009639
_symmetry_Int_Tables_number   1
_chemical_formula_structural   NpZn(SO5)2
_chemical_formula_sum   'Np1 Zn1 S2 O10'
_cell_volume   204.77782645
_cell_formula_units_Z   1
loop_
 _symmetry_equiv_pos_site_id
 _symmetry_equiv_pos_as_xyz
  1  'x, y, z'
loop_
 _atom_site_type_symbol
 _atom_site_label
 _atom_site_symmetry_multiplicity
 _atom_site_fract_x
 _atom_site_fract_y
 _atom_site_fract_z
 _atom_site_occupancy
  Np  Np0  1  0.000000  0.000000  0.500000  1
  Zn  Zn1  1  0.000000  0.000000  0.000000  1
  S  S2  1  0.672175  0.343551  0.763792  1
  S  S3  1  0.327825  0.656449  0.236208  1
  O  O4  1  0.071085  0.921813  0.728297  1
  O  O5  1  0.928915  0.078187  0.271703  1
  O  O6  1  0.700209  0.149900  0.871092  1
  O  O7  1  0.825623  0.316586  0.634214  1
  O  O8  1  0.299791  0.850100  0.128908  1
  O  O9  1  0.174377  0.683414  0.365786  1
  O  O10  1  0.397418  0.276186  0.622809  1
  O  O11  1  0.743989  0.620548  0.895980  1
  O  O12  1  0.602582  0.723814  0.377191  1
  O  O13  1  0.256011  0.379452  0.104020  1
