# generated using pymatgen
data_Dy16Al4IrRh3
_symmetry_space_group_name_H-M   'P 1'
_cell_length_a   9.53900824
_cell_length_b   9.53900851
_cell_length_c   9.53901034
_cell_angle_alpha   59.91073724
_cell_angle_beta   59.91073739
_cell_angle_gamma   59.91073803
_symmetry_Int_Tables_number   1
_chemical_formula_structural   Dy16Al4IrRh3
_chemical_formula_sum   'Dy16 Al4 Ir1 Rh3'
_cell_volume   612.51181662
_cell_formula_units_Z   1
loop_
 _symmetry_equiv_pos_site_id
 _symmetry_equiv_pos_as_xyz
  1  'x, y, z'
loop_
 _atom_site_type_symbol
 _atom_site_label
 _atom_site_symmetry_multiplicity
 _atom_site_fract_x
 _atom_site_fract_y
 _atom_site_fract_z
 _atom_site_occupancy
  Dy  Dy0  1  0.693111  0.307400  0.307400  1
  Dy  Dy1  1  0.692305  0.692305  0.308759  1
  Dy  Dy2  1  0.307400  0.693111  0.307400  1
  Dy  Dy3  1  0.936648  0.936648  0.562925  1
  Dy  Dy4  1  0.146023  0.146023  0.558927  1
  Dy  Dy5  1  0.562118  0.938104  0.562118  1
  Dy  Dy6  1  0.148710  0.148710  0.148710  1
  Dy  Dy7  1  0.307400  0.307400  0.693111  1
  Dy  Dy8  1  0.938104  0.562118  0.562118  1
  Dy  Dy9  1  0.562118  0.562118  0.938104  1
  Dy  Dy10  1  0.562925  0.936648  0.936648  1
  Dy  Dy11  1  0.936648  0.562925  0.936648  1
  Dy  Dy12  1  0.146023  0.558927  0.146023  1
  Dy  Dy13  1  0.308759  0.692305  0.692305  1
  Dy  Dy14  1  0.692305  0.308759  0.692305  1
  Dy  Dy15  1  0.558927  0.146023  0.146023  1
  Al  Al16  1  0.922953  0.922953  0.231882  1
  Al  Al17  1  0.231882  0.922953  0.922953  1
  Al  Al18  1  0.922953  0.231882  0.922953  1
  Al  Al19  1  0.922456  0.922456  0.922456  1
  Ir  Ir20  1  0.356957  0.356957  0.356957  1
  Rh  Rh21  1  0.927909  0.357683  0.357683  1
  Rh  Rh22  1  0.357683  0.357683  0.927909  1
  Rh  Rh23  1  0.357683  0.927909  0.357683  1
