# generated using pymatgen
data_Li4Ni3PtO8
_symmetry_space_group_name_H-M   'P 1'
_cell_length_a   10.17736396
_cell_length_b   10.17747075
_cell_length_c   14.36481086
_cell_angle_alpha   19.79430069
_cell_angle_beta   19.79440946
_cell_angle_gamma   34.10813341
_symmetry_Int_Tables_number   1
_chemical_formula_structural   Li4Ni3PtO8
_chemical_formula_sum   'Li4 Ni3 Pt1 O8'
_cell_volume   147.77456911
_cell_formula_units_Z   1
loop_
 _symmetry_equiv_pos_site_id
 _symmetry_equiv_pos_as_xyz
  1  'x, y, z'
loop_
 _atom_site_type_symbol
 _atom_site_label
 _atom_site_symmetry_multiplicity
 _atom_site_fract_x
 _atom_site_fract_y
 _atom_site_fract_z
 _atom_site_occupancy
  Li  Li0  1  0.000007  0.000001  0.499995  1
  Li  Li1  1  0.000018  0.499993  0.499994  1
  Li  Li2  1  0.500011  0.999996  0.499995  1
  Li  Li3  1  0.500024  0.499998  0.499986  1
  Ni  Ni4  1  0.999801  0.499803  0.000278  1
  Ni  Ni5  1  0.500130  0.000092  0.999825  1
  Ni  Ni6  1  0.499901  0.500149  0.999976  1
  Pt  Pt7  1  0.000151  0.999905  0.999954  1
  O  O8  1  0.000761  0.000765  0.261770  1
  O  O9  1  0.999747  0.514648  0.244749  1
  O  O10  1  0.514569  0.999753  0.244790  1
  O  O11  1  0.999262  0.999223  0.738220  1
  O  O12  1  0.484982  0.484971  0.274362  1
  O  O13  1  0.000270  0.485447  0.755186  1
  O  O14  1  0.485364  0.000250  0.755253  1
  O  O15  1  0.515003  0.515004  0.725668  1
