# generated using pymatgen
data_Dy5(NiTe)2
_symmetry_space_group_name_H-M   'P 1'
_cell_length_a   4.07328100
_cell_length_b   14.61757700
_cell_length_c   15.91947900
_cell_angle_alpha   90.00000000
_cell_angle_beta   90.00000000
_cell_angle_gamma   90.00000000
_symmetry_Int_Tables_number   1
_chemical_formula_structural   Dy5(NiTe)2
_chemical_formula_sum   'Dy20 Ni8 Te8'
_cell_volume   947.86963755
_cell_formula_units_Z   4
loop_
 _symmetry_equiv_pos_site_id
 _symmetry_equiv_pos_as_xyz
  1  'x, y, z'
loop_
 _atom_site_type_symbol
 _atom_site_label
 _atom_site_symmetry_multiplicity
 _atom_site_fract_x
 _atom_site_fract_y
 _atom_site_fract_z
 _atom_site_occupancy
  Dy  Dy0  1  0.250000  0.150914  0.260638  1
  Dy  Dy1  1  0.250000  0.650914  0.239362  1
  Dy  Dy2  1  0.750000  0.849086  0.739362  1
  Dy  Dy3  1  0.750000  0.349086  0.760638  1
  Dy  Dy4  1  0.250000  0.884955  0.189928  1
  Dy  Dy5  1  0.250000  0.384955  0.310072  1
  Dy  Dy6  1  0.750000  0.115045  0.810072  1
  Dy  Dy7  1  0.750000  0.615045  0.689928  1
  Dy  Dy8  1  0.250000  0.880689  0.554358  1
  Dy  Dy9  1  0.250000  0.380689  0.945642  1
  Dy  Dy10  1  0.750000  0.119311  0.445642  1
  Dy  Dy11  1  0.750000  0.619311  0.054358  1
  Dy  Dy12  1  0.250000  0.207966  0.623741  1
  Dy  Dy13  1  0.250000  0.707966  0.876259  1
  Dy  Dy14  1  0.750000  0.792034  0.376259  1
  Dy  Dy15  1  0.750000  0.292034  0.123741  1
  Dy  Dy16  1  0.250000  0.139548  0.994246  1
  Dy  Dy17  1  0.250000  0.639548  0.505754  1
  Dy  Dy18  1  0.750000  0.860452  0.005754  1
  Dy  Dy19  1  0.750000  0.360452  0.494246  1
  Ni  Ni20  1  0.250000  0.739338  0.675913  1
  Ni  Ni21  1  0.250000  0.239338  0.824087  1
  Ni  Ni22  1  0.750000  0.260662  0.324087  1
  Ni  Ni23  1  0.750000  0.760662  0.175913  1
  Ni  Ni24  1  0.250000  0.246835  0.432804  1
  Ni  Ni25  1  0.250000  0.746835  0.067196  1
  Ni  Ni26  1  0.750000  0.753165  0.567196  1
  Ni  Ni27  1  0.750000  0.253165  0.932804  1
  Te  Te28  1  0.250000  0.965322  0.372599  1
  Te  Te29  1  0.250000  0.465322  0.127401  1
  Te  Te30  1  0.750000  0.034678  0.627401  1
  Te  Te31  1  0.750000  0.534678  0.872599  1
  Te  Te32  1  0.250000  0.950545  0.872220  1
  Te  Te33  1  0.250000  0.450545  0.627780  1
  Te  Te34  1  0.750000  0.049455  0.127780  1
  Te  Te35  1  0.750000  0.549455  0.372220  1
