# generated using pymatgen
data_Ho2Tm2Co3Si4Ru
_symmetry_space_group_name_H-M   'P 1'
_cell_length_a   4.20860600
_cell_length_b   6.84217292
_cell_length_c   7.01444323
_cell_angle_alpha   90.24215617
_cell_angle_beta   90.00000000
_cell_angle_gamma   90.00000000
_symmetry_Int_Tables_number   1
_chemical_formula_structural   Ho2Tm2Co3Si4Ru
_chemical_formula_sum   'Ho2 Tm2 Co3 Si4 Ru1'
_cell_volume   201.98617348
_cell_formula_units_Z   1
loop_
 _symmetry_equiv_pos_site_id
 _symmetry_equiv_pos_as_xyz
  1  'x, y, z'
loop_
 _atom_site_type_symbol
 _atom_site_label
 _atom_site_symmetry_multiplicity
 _atom_site_fract_x
 _atom_site_fract_y
 _atom_site_fract_z
 _atom_site_occupancy
  Ho  Ho0  1  0.750000  0.012087  0.192747  1
  Ho  Ho1  1  0.750000  0.510686  0.315385  1
  Tm  Tm2  1  0.250000  0.985095  0.803273  1
  Tm  Tm3  1  0.250000  0.481283  0.688220  1
  Co  Co4  1  0.750000  0.853091  0.570622  1
  Co  Co5  1  0.250000  0.155020  0.437208  1
  Co  Co6  1  0.750000  0.350714  0.930650  1
  Si  Si7  1  0.250000  0.298673  0.100104  1
  Si  Si8  1  0.750000  0.696259  0.887612  1
  Si  Si9  1  0.250000  0.805436  0.400805  1
  Si  Si10  1  0.750000  0.195748  0.607927  1
  Ru  Ru11  1  0.250000  0.655908  0.065447  1
