# generated using pymatgen
data_Yb3DyTmSi4
_symmetry_space_group_name_H-M   'P 1'
_cell_length_a   7.37443000
_cell_length_b   7.78956500
_cell_length_c   15.07422400
_cell_angle_alpha   90.00000000
_cell_angle_beta   90.00000000
_cell_angle_gamma   90.00000000
_symmetry_Int_Tables_number   1
_chemical_formula_structural   Yb3DyTmSi4
_chemical_formula_sum   'Yb12 Dy4 Tm4 Si16'
_cell_volume   865.91772125
_cell_formula_units_Z   4
loop_
 _symmetry_equiv_pos_site_id
 _symmetry_equiv_pos_as_xyz
  1  'x, y, z'
loop_
 _atom_site_type_symbol
 _atom_site_label
 _atom_site_symmetry_multiplicity
 _atom_site_fract_x
 _atom_site_fract_y
 _atom_site_fract_z
 _atom_site_occupancy
  Yb  Yb0  1  0.974303  0.816244  0.404100  1
  Yb  Yb1  1  0.474303  0.683756  0.095900  1
  Yb  Yb2  1  0.525697  0.316244  0.595900  1
  Yb  Yb3  1  0.025697  0.183756  0.904100  1
  Yb  Yb4  1  0.027023  0.183878  0.596069  1
  Yb  Yb5  1  0.527023  0.316122  0.903931  1
  Yb  Yb6  1  0.472977  0.683878  0.403931  1
  Yb  Yb7  1  0.972977  0.816122  0.096069  1
  Yb  Yb8  1  0.352372  0.020464  0.749790  1
  Yb  Yb9  1  0.852372  0.479536  0.750210  1
  Yb  Yb10  1  0.147628  0.520464  0.250210  1
  Yb  Yb11  1  0.647628  0.979536  0.249790  1
  Dy  Dy12  1  0.314822  0.177174  0.121026  1
  Dy  Dy13  1  0.814822  0.322826  0.378974  1
  Dy  Dy14  1  0.185178  0.677174  0.878974  1
  Dy  Dy15  1  0.685178  0.822826  0.621026  1
  Tm  Tm16  1  0.314215  0.175853  0.378734  1
  Tm  Tm17  1  0.814215  0.324147  0.121266  1
  Tm  Tm18  1  0.185785  0.675853  0.621266  1
  Tm  Tm19  1  0.685785  0.824147  0.878734  1
  Si  Si20  1  0.860301  0.533619  0.538627  1
  Si  Si21  1  0.360301  0.966381  0.961373  1
  Si  Si22  1  0.639699  0.033619  0.461373  1
  Si  Si23  1  0.139699  0.466381  0.038627  1
  Si  Si24  1  0.145450  0.466394  0.462218  1
  Si  Si25  1  0.645450  0.033606  0.037782  1
  Si  Si26  1  0.354550  0.966394  0.537782  1
  Si  Si27  1  0.854550  0.533606  0.962218  1
  Si  Si28  1  0.977221  0.881734  0.750442  1
  Si  Si29  1  0.477221  0.618266  0.749558  1
  Si  Si30  1  0.522779  0.381734  0.249558  1
  Si  Si31  1  0.022779  0.118266  0.250442  1
  Si  Si32  1  0.249442  0.395553  0.749328  1
  Si  Si33  1  0.749442  0.104447  0.750672  1
  Si  Si34  1  0.250558  0.895553  0.250672  1
  Si  Si35  1  0.750558  0.604447  0.249328  1
