# generated using pymatgen
data_Nd7Er3(Pb3Br)2
_symmetry_space_group_name_H-M   'P 1'
_cell_length_a   9.50918500
_cell_length_b   9.50918544
_cell_length_c   6.80626300
_cell_angle_alpha   90.00000000
_cell_angle_beta   90.00000000
_cell_angle_gamma   120.00000194
_symmetry_Int_Tables_number   1
_chemical_formula_structural   Nd7Er3(Pb3Br)2
_chemical_formula_sum   'Nd7 Er3 Pb6 Br2'
_cell_volume   532.99847102
_cell_formula_units_Z   1
loop_
 _symmetry_equiv_pos_site_id
 _symmetry_equiv_pos_as_xyz
  1  'x, y, z'
loop_
 _atom_site_type_symbol
 _atom_site_label
 _atom_site_symmetry_multiplicity
 _atom_site_fract_x
 _atom_site_fract_y
 _atom_site_fract_z
 _atom_site_occupancy
  Nd  Nd0  1  0.266680  0.000269  0.249353  1
  Nd  Nd1  1  0.733590  0.000269  0.750647  1
  Nd  Nd2  1  0.999731  0.266410  0.249353  1
  Nd  Nd3  1  0.999731  0.733320  0.750647  1
  Nd  Nd4  1  0.733590  0.733320  0.249353  1
  Nd  Nd5  1  0.266680  0.266410  0.750647  1
  Nd  Nd6  1  0.333333  0.666667  0.500000  1
  Er  Er7  1  0.333333  0.666667  0.000000  1
  Er  Er8  1  0.666667  0.333333  0.000000  1
  Er  Er9  1  0.666667  0.333333  0.500000  1
  Pb  Pb10  1  0.611607  0.002421  0.248484  1
  Pb  Pb11  1  0.390815  0.002421  0.751516  1
  Pb  Pb12  1  0.997579  0.609185  0.248484  1
  Pb  Pb13  1  0.997579  0.388393  0.751516  1
  Pb  Pb14  1  0.390815  0.388393  0.248484  1
  Pb  Pb15  1  0.611607  0.609185  0.751516  1
  Br  Br16  1  0.000000  0.000000  0.000000  1
  Br  Br17  1  0.000000  0.000000  0.500000  1
