# generated using pymatgen
data_NdHoLuGa8Ag3
_symmetry_space_group_name_H-M   'P 1'
_cell_length_a   4.35274538
_cell_length_b   8.38853220
_cell_length_c   8.38853287
_cell_angle_alpha   69.47881261
_cell_angle_beta   74.96278714
_cell_angle_gamma   74.96279275
_symmetry_Int_Tables_number   1
_chemical_formula_structural   NdHoLuGa8Ag3
_chemical_formula_sum   'Nd1 Ho1 Lu1 Ga8 Ag3'
_cell_volume   272.18298069
_cell_formula_units_Z   1
loop_
 _symmetry_equiv_pos_site_id
 _symmetry_equiv_pos_as_xyz
  1  'x, y, z'
loop_
 _atom_site_type_symbol
 _atom_site_label
 _atom_site_symmetry_multiplicity
 _atom_site_fract_x
 _atom_site_fract_y
 _atom_site_fract_z
 _atom_site_occupancy
  Nd  Nd0  1  0.499674  0.500326  0.500326  1
  Ho  Ho1  1  0.800276  0.199724  0.199724  1
  Lu  Lu2  1  0.199216  0.800784  0.800784  1
  Ga  Ga3  1  0.355598  0.361588  0.927216  1
  Ga  Ga4  1  0.644688  0.639027  0.071598  1
  Ga  Ga5  1  0.355598  0.927216  0.361588  1
  Ga  Ga6  1  0.644688  0.071598  0.639027  1
  Ga  Ga7  1  0.160260  0.471679  0.207800  1
  Ga  Ga8  1  0.838845  0.529216  0.793094  1
  Ga  Ga9  1  0.160260  0.207800  0.471679  1
  Ga  Ga10  1  0.838845  0.793094  0.529216  1
  Ag  Ag11  1  0.500734  0.999266  0.999266  1
  Ag  Ag12  1  0.000658  0.804558  0.194125  1
  Ag  Ag13  1  0.000658  0.194125  0.804558  1
