# generated using pymatgen
data_Tm4Ga4RuPt2Rh
_symmetry_space_group_name_H-M   'P 1'
_cell_length_a   4.33934600
_cell_length_b   6.76538303
_cell_length_c   7.73763290
_cell_angle_alpha   89.63741853
_cell_angle_beta   90.00000000
_cell_angle_gamma   90.00000000
_symmetry_Int_Tables_number   1
_chemical_formula_structural   Tm4Ga4RuPt2Rh
_chemical_formula_sum   'Tm4 Ga4 Ru1 Pt2 Rh1'
_cell_volume   227.15175454
_cell_formula_units_Z   1
loop_
 _symmetry_equiv_pos_site_id
 _symmetry_equiv_pos_as_xyz
  1  'x, y, z'
loop_
 _atom_site_type_symbol
 _atom_site_label
 _atom_site_symmetry_multiplicity
 _atom_site_fract_x
 _atom_site_fract_y
 _atom_site_fract_z
 _atom_site_occupancy
  Tm  Tm0  1  0.250000  0.975879  0.311257  1
  Tm  Tm1  1  0.250000  0.476447  0.187078  1
  Tm  Tm2  1  0.750000  0.019232  0.696871  1
  Tm  Tm3  1  0.750000  0.516024  0.805521  1
  Ga  Ga4  1  0.250000  0.341270  0.574434  1
  Ga  Ga5  1  0.250000  0.840221  0.925709  1
  Ga  Ga6  1  0.750000  0.663383  0.431505  1
  Ga  Ga7  1  0.750000  0.166150  0.068717  1
  Ru  Ru8  1  0.250000  0.232015  0.893795  1
  Pt  Pt9  1  0.750000  0.768347  0.105766  1
  Pt  Pt10  1  0.750000  0.268670  0.393957  1
  Rh  Rh11  1  0.250000  0.732363  0.605392  1
