# generated using pymatgen
data_Li3Dy3HgPt2
_symmetry_space_group_name_H-M   'P 1'
_cell_length_a   7.38504700
_cell_length_b   7.38504735
_cell_length_c   3.96796800
_cell_angle_alpha   90.00000000
_cell_angle_beta   90.00000000
_cell_angle_gamma   119.99999396
_symmetry_Int_Tables_number   1
_chemical_formula_structural   Li3Dy3HgPt2
_chemical_formula_sum   'Li3 Dy3 Hg1 Pt2'
_cell_volume   187.41543999
_cell_formula_units_Z   1
loop_
 _symmetry_equiv_pos_site_id
 _symmetry_equiv_pos_as_xyz
  1  'x, y, z'
loop_
 _atom_site_type_symbol
 _atom_site_label
 _atom_site_symmetry_multiplicity
 _atom_site_fract_x
 _atom_site_fract_y
 _atom_site_fract_z
 _atom_site_occupancy
  Li  Li0  1  0.750252  0.750252  0.500000  1
  Li  Li1  1  0.249748  0.000000  0.500000  1
  Li  Li2  1  0.000000  0.249748  0.500000  1
  Dy  Dy3  1  0.424510  0.424510  0.000000  1
  Dy  Dy4  1  0.575490  0.000000  0.000000  1
  Dy  Dy5  1  0.000000  0.575490  0.000000  1
  Hg  Hg6  1  0.000000  0.000000  0.000000  1
  Pt  Pt7  1  0.666667  0.333333  0.500000  1
  Pt  Pt8  1  0.333333  0.666667  0.500000  1
