# generated using pymatgen
data_Er3Sb(AuCl6)4
_symmetry_space_group_name_H-M   'P 1'
_cell_length_a   8.05824954
_cell_length_b   10.01016601
_cell_length_c   14.01632800
_cell_angle_alpha   102.84960179
_cell_angle_beta   97.33939642
_cell_angle_gamma   113.18990192
_symmetry_Int_Tables_number   1
_chemical_formula_structural   Er3Sb(AuCl6)4
_chemical_formula_sum   'Er3 Sb1 Au4 Cl24'
_cell_volume   983.56386185
_cell_formula_units_Z   1
loop_
 _symmetry_equiv_pos_site_id
 _symmetry_equiv_pos_as_xyz
  1  'x, y, z'
loop_
 _atom_site_type_symbol
 _atom_site_label
 _atom_site_symmetry_multiplicity
 _atom_site_fract_x
 _atom_site_fract_y
 _atom_site_fract_z
 _atom_site_occupancy
  Er  Er0  1  0.031552  0.686335  0.128422  1
  Er  Er1  1  0.417761  0.076679  0.375762  1
  Er  Er2  1  0.975921  0.319726  0.873867  1
  Sb  Sb3  1  0.587989  0.946821  0.622505  1
  Au  Au4  1  0.288475  0.631150  0.766875  1
  Au  Au5  1  0.497345  0.496218  0.497772  1
  Au  Au6  1  0.711457  0.366843  0.236538  1
  Au  Au7  1  0.999389  0.999134  0.999024  1
  Cl  Cl8  1  0.793021  0.104981  0.972621  1
  Cl  Cl9  1  0.715409  0.149889  0.268008  1
  Cl  Cl10  1  0.277581  0.847178  0.740604  1
  Cl  Cl11  1  0.781259  0.788793  0.030454  1
  Cl  Cl12  1  0.624475  0.196799  0.740085  1
  Cl  Cl13  1  0.290988  0.408948  0.791725  1
  Cl  Cl14  1  0.708365  0.587037  0.209489  1
  Cl  Cl15  1  0.303539  0.614413  0.492883  1
  Cl  Cl16  1  0.218924  0.209639  0.968292  1
  Cl  Cl17  1  0.751236  0.726695  0.525700  1
  Cl  Cl18  1  0.207595  0.895364  0.026272  1
  Cl  Cl19  1  0.722324  0.056168  0.488155  1
  Cl  Cl20  1  0.593794  0.722241  0.755690  1
  Cl  Cl21  1  0.934798  0.065268  0.730879  1
  Cl  Cl22  1  0.246390  0.259962  0.467409  1
  Cl  Cl23  1  0.373331  0.811762  0.257118  1
  Cl  Cl24  1  0.978543  0.533527  0.777017  1
  Cl  Cl25  1  0.778190  0.436103  0.976362  1
  Cl  Cl26  1  0.225765  0.564380  0.024564  1
  Cl  Cl27  1  0.018797  0.464374  0.224273  1
  Cl  Cl28  1  0.404223  0.267535  0.249655  1
  Cl  Cl29  1  0.290037  0.956664  0.515226  1
  Cl  Cl30  1  0.685227  0.368502  0.499086  1
  Cl  Cl31  1  0.066302  0.940870  0.267669  1
