# generated using pymatgen
data_Zr3PaIr2
_symmetry_space_group_name_H-M   'P 1'
_cell_length_a   5.40186714
_cell_length_b   5.40186729
_cell_length_c   5.59014499
_cell_angle_alpha   105.29099823
_cell_angle_beta   105.29100434
_cell_angle_gamma   117.01173472
_symmetry_Int_Tables_number   1
_chemical_formula_structural   Zr3PaIr2
_chemical_formula_sum   'Zr3 Pa1 Ir2'
_cell_volume   125.45022236
_cell_formula_units_Z   1
loop_
 _symmetry_equiv_pos_site_id
 _symmetry_equiv_pos_as_xyz
  1  'x, y, z'
loop_
 _atom_site_type_symbol
 _atom_site_label
 _atom_site_symmetry_multiplicity
 _atom_site_fract_x
 _atom_site_fract_y
 _atom_site_fract_z
 _atom_site_occupancy
  Zr  Zr0  1  0.351746  0.851746  0.203491  1
  Zr  Zr1  1  0.831162  0.661627  0.492788  1
  Zr  Zr2  1  0.161627  0.331162  0.492788  1
  Pa  Pa3  1  0.671889  0.171889  0.843779  1
  Ir  Ir4  1  0.741788  0.741788  0.983576  1
  Ir  Ir5  1  0.241788  0.241788  0.983576  1
