# generated using pymatgen
data_Ho10Tl5CuPPb
_symmetry_space_group_name_H-M   'P 1'
_cell_length_a   9.08064947
_cell_length_b   9.08064845
_cell_length_c   6.75509701
_cell_angle_alpha   90.06171237
_cell_angle_beta   90.06171198
_cell_angle_gamma   119.79039018
_symmetry_Int_Tables_number   1
_chemical_formula_structural   Ho10Tl5CuPPb
_chemical_formula_sum   'Ho10 Tl5 Cu1 P1 Pb1'
_cell_volume   483.40198284
_cell_formula_units_Z   1
loop_
 _symmetry_equiv_pos_site_id
 _symmetry_equiv_pos_as_xyz
  1  'x, y, z'
loop_
 _atom_site_type_symbol
 _atom_site_label
 _atom_site_symmetry_multiplicity
 _atom_site_fract_x
 _atom_site_fract_y
 _atom_site_fract_z
 _atom_site_occupancy
  Ho  Ho0  1  0.247711  0.001959  0.735529  1
  Ho  Ho1  1  0.754714  0.001100  0.263794  1
  Ho  Ho2  1  0.001959  0.247711  0.735529  1
  Ho  Ho3  1  0.001100  0.754714  0.263794  1
  Ho  Ho4  1  0.753965  0.753965  0.737977  1
  Ho  Ho5  1  0.244344  0.244344  0.264844  1
  Ho  Ho6  1  0.332821  0.665099  0.501420  1
  Ho  Ho7  1  0.665099  0.332821  0.501420  1
  Ho  Ho8  1  0.664320  0.330955  0.998258  1
  Ho  Ho9  1  0.330955  0.664320  0.998258  1
  Tl  Tl10  1  0.598201  0.999690  0.749035  1
  Tl  Tl11  1  0.402877  0.998927  0.251357  1
  Tl  Tl12  1  0.999690  0.598201  0.749035  1
  Tl  Tl13  1  0.998927  0.402877  0.251357  1
  Tl  Tl14  1  0.398542  0.398542  0.749506  1
  Cu  Cu15  1  0.001848  0.001848  0.998585  1
  P  P16  1  0.999205  0.999205  0.500204  1
  Pb  Pb17  1  0.603721  0.603721  0.250098  1
