# generated using pymatgen
data_Pa3Al2ZnPt3
_symmetry_space_group_name_H-M   'P 1'
_cell_length_a   6.98803520
_cell_length_b   7.01255933
_cell_length_c   8.41350580
_cell_angle_alpha   90.00366229
_cell_angle_beta   89.99115194
_cell_angle_gamma   119.85151633
_symmetry_Int_Tables_number   1
_chemical_formula_structural   Pa3Al2ZnPt3
_chemical_formula_sum   'Pa6 Al4 Zn2 Pt6'
_cell_volume   357.59144100
_cell_formula_units_Z   2
loop_
 _symmetry_equiv_pos_site_id
 _symmetry_equiv_pos_as_xyz
  1  'x, y, z'
loop_
 _atom_site_type_symbol
 _atom_site_label
 _atom_site_symmetry_multiplicity
 _atom_site_fract_x
 _atom_site_fract_y
 _atom_site_fract_z
 _atom_site_occupancy
  Pa  Pa0  1  0.997860  0.574001  0.748285  1
  Pa  Pa1  1  0.997889  0.574277  0.251788  1
  Pa  Pa2  1  0.580989  0.999908  0.249956  1
  Pa  Pa3  1  0.581141  0.000104  0.749952  1
  Pa  Pa4  1  0.423984  0.426083  0.248271  1
  Pa  Pa5  1  0.423760  0.425843  0.751802  1
  Al  Al6  1  0.998581  0.230338  0.000090  1
  Al  Al7  1  0.237281  0.003791  0.499937  1
  Al  Al8  1  0.233389  0.996125  0.999999  1
  Al  Al9  1  0.768285  0.769615  0.500098  1
  Zn  Zn10  1  0.001644  0.245420  0.499888  1
  Zn  Zn11  1  0.756201  0.754551  0.999865  1
  Pt  Pt12  1  0.340810  0.678714  0.500263  1
  Pt  Pt13  1  0.659566  0.337571  0.499770  1
  Pt  Pt14  1  0.662011  0.321280  0.000282  1
  Pt  Pt15  1  0.007279  0.999992  0.249993  1
  Pt  Pt16  1  0.007337  0.999976  0.749960  1
  Pt  Pt17  1  0.321993  0.662410  0.999803  1
