# generated using pymatgen
data_Y3Er17(NiPd3)2
_symmetry_space_group_name_H-M   'P 1'
_cell_length_a   9.37176300
_cell_length_b   9.37176326
_cell_length_c   9.14072500
_cell_angle_alpha   90.00000000
_cell_angle_beta   90.00000000
_cell_angle_gamma   119.99998850
_symmetry_Int_Tables_number   1
_chemical_formula_structural   Y3Er17(NiPd3)2
_chemical_formula_sum   'Y3 Er17 Ni2 Pd6'
_cell_volume   695.27070659
_cell_formula_units_Z   1
loop_
 _symmetry_equiv_pos_site_id
 _symmetry_equiv_pos_as_xyz
  1  'x, y, z'
loop_
 _atom_site_type_symbol
 _atom_site_label
 _atom_site_symmetry_multiplicity
 _atom_site_fract_x
 _atom_site_fract_y
 _atom_site_fract_z
 _atom_site_occupancy
  Y  Y0  1  0.457725  0.542275  0.750000  1
  Y  Y1  1  0.457725  0.915450  0.750000  1
  Y  Y2  1  0.084550  0.542275  0.750000  1
  Er  Er3  1  0.000000  0.000000  0.499436  1
  Er  Er4  1  0.000000  0.000000  0.000564  1
  Er  Er5  1  0.542980  0.457020  0.250000  1
  Er  Er6  1  0.542980  0.085959  0.250000  1
  Er  Er7  1  0.914041  0.457020  0.250000  1
  Er  Er8  1  0.206767  0.793233  0.440141  1
  Er  Er9  1  0.206767  0.413533  0.440141  1
  Er  Er10  1  0.586467  0.793233  0.440141  1
  Er  Er11  1  0.793049  0.206951  0.557938  1
  Er  Er12  1  0.793049  0.586097  0.557938  1
  Er  Er13  1  0.413903  0.206951  0.557938  1
  Er  Er14  1  0.793049  0.206951  0.942062  1
  Er  Er15  1  0.793049  0.586097  0.942062  1
  Er  Er16  1  0.413903  0.206951  0.942062  1
  Er  Er17  1  0.206767  0.793233  0.059859  1
  Er  Er18  1  0.206767  0.413533  0.059859  1
  Er  Er19  1  0.586467  0.793233  0.059859  1
  Ni  Ni20  1  0.333333  0.666667  0.250000  1
  Ni  Ni21  1  0.666667  0.333333  0.750000  1
  Pd  Pd22  1  0.879155  0.120845  0.250000  1
  Pd  Pd23  1  0.879155  0.758311  0.250000  1
  Pd  Pd24  1  0.241689  0.120845  0.250000  1
  Pd  Pd25  1  0.119099  0.880901  0.750000  1
  Pd  Pd26  1  0.119099  0.238198  0.750000  1
  Pd  Pd27  1  0.761802  0.880901  0.750000  1
