# generated using pymatgen
data_Sr2Bi2S3O2
_symmetry_space_group_name_H-M   'P 1'
_cell_length_a   9.61346109
_cell_length_b   4.01279000
_cell_length_c   13.28602473
_cell_angle_alpha   89.99992299
_cell_angle_beta   124.70845211
_cell_angle_gamma   90.00001171
_symmetry_Int_Tables_number   1
_chemical_formula_structural   Sr2Bi2S3O2
_chemical_formula_sum   'Sr4 Bi4 S6 O4'
_cell_volume   421.33235101
_cell_formula_units_Z   2
loop_
 _symmetry_equiv_pos_site_id
 _symmetry_equiv_pos_as_xyz
  1  'x, y, z'
loop_
 _atom_site_type_symbol
 _atom_site_label
 _atom_site_symmetry_multiplicity
 _atom_site_fract_x
 _atom_site_fract_y
 _atom_site_fract_z
 _atom_site_occupancy
  Sr  Sr0  1  0.890243  0.002708  0.099126  1
  Sr  Sr1  1  0.109756  0.502712  0.400873  1
  Sr  Sr2  1  0.890243  0.497290  0.599127  1
  Sr  Sr3  1  0.109756  0.997293  0.900873  1
  Bi  Bi4  1  0.633073  0.501829  0.190517  1
  Bi  Bi5  1  0.366928  0.001832  0.309482  1
  Bi  Bi6  1  0.633073  0.998165  0.690517  1
  Bi  Bi7  1  0.366926  0.498164  0.809482  1
  S  S8  1  0.500000  0.000001  0.000001  1
  S  S9  1  0.220995  0.501009  0.130868  1
  S  S10  1  0.779006  0.001006  0.369134  1
  S  S11  1  0.500000  0.500001  0.500000  1
  S  S12  1  0.220993  0.998995  0.630867  1
  S  S13  1  0.779006  0.498992  0.869133  1
  O  O14  1  0.850280  0.502421  0.187026  1
  O  O15  1  0.149721  0.002423  0.312973  1
  O  O16  1  0.850282  0.997578  0.687028  1
  O  O17  1  0.149719  0.497577  0.812972  1
