# generated using pymatgen
data_Th2Co17Si8Ru
_symmetry_space_group_name_H-M   'P 1'
_cell_length_a   7.97566262
_cell_length_b   7.97566334
_cell_length_c   7.95336519
_cell_angle_alpha   121.63723950
_cell_angle_beta   121.07630089
_cell_angle_gamma   87.83318309
_symmetry_Int_Tables_number   1
_chemical_formula_structural   Th2Co17Si8Ru
_chemical_formula_sum   'Th2 Co17 Si8 Ru1'
_cell_volume   349.58595702
_cell_formula_units_Z   1
loop_
 _symmetry_equiv_pos_site_id
 _symmetry_equiv_pos_as_xyz
  1  'x, y, z'
loop_
 _atom_site_type_symbol
 _atom_site_label
 _atom_site_symmetry_multiplicity
 _atom_site_fract_x
 _atom_site_fract_y
 _atom_site_fract_z
 _atom_site_occupancy
  Th  Th0  1  0.748343  0.749260  0.999940  1
  Th  Th1  1  0.250680  0.251597  0.999940  1
  Co  Co2  1  0.930229  0.805604  0.735834  1
  Co  Co3  1  0.568384  0.300726  0.869110  1
  Co  Co4  1  0.434670  0.696975  0.131645  1
  Co  Co5  1  0.788412  0.068815  0.857227  1
  Co  Co6  1  0.206510  0.918697  0.125207  1
  Co  Co7  1  0.701664  0.570977  0.272640  1
  Co  Co8  1  0.301741  0.433832  0.735574  1
  Co  Co9  1  0.447769  0.950461  0.762025  1
  Co  Co10  1  0.188978  0.684855  0.237762  1
  Co  Co11  1  0.951606  0.187161  0.502192  1
  Co  Co12  1  0.687850  0.452958  0.501487  1
  Co  Co13  1  0.552906  0.048783  0.237762  1
  Co  Co14  1  0.811565  0.314256  0.762025  1
  Co  Co15  1  0.048529  0.813637  0.501487  1
  Co  Co16  1  0.315031  0.550586  0.502192  1
  Co  Co17  1  0.000424  0.503363  0.503787  1
  Co  Co18  1  0.496695  0.998921  0.495616  1
  Si  Si19  1  0.046885  0.547209  0.835703  1
  Si  Si20  1  0.707256  0.214715  0.163700  1
  Si  Si21  1  0.548172  0.712392  0.501106  1
  Si  Si22  1  0.213792  0.045679  0.504229  1
  Si  Si23  1  0.948985  0.456443  0.163700  1
  Si  Si24  1  0.288495  0.788820  0.835703  1
  Si  Si25  1  0.458550  0.290437  0.504229  1
  Si  Si26  1  0.788714  0.952935  0.501106  1
  Ru  Ru27  1  0.067165  0.189906  0.257070  1
