# generated using pymatgen
data_HoTh(Fe4B)2
_symmetry_space_group_name_H-M   'P 1'
_cell_length_a   5.08714900
_cell_length_b   5.08714938
_cell_length_c   7.06372900
_cell_angle_alpha   90.00000000
_cell_angle_beta   90.00000000
_cell_angle_gamma   119.99999099
_symmetry_Int_Tables_number   1
_chemical_formula_structural   HoTh(Fe4B)2
_chemical_formula_sum   'Ho1 Th1 Fe8 B2'
_cell_volume   158.31193213
_cell_formula_units_Z   1
loop_
 _symmetry_equiv_pos_site_id
 _symmetry_equiv_pos_as_xyz
  1  'x, y, z'
loop_
 _atom_site_type_symbol
 _atom_site_label
 _atom_site_symmetry_multiplicity
 _atom_site_fract_x
 _atom_site_fract_y
 _atom_site_fract_z
 _atom_site_occupancy
  Ho  Ho0  1  0.000000  0.000000  0.500000  1
  Th  Th1  1  0.000000  0.000000  0.000000  1
  Fe  Fe2  1  0.333333  0.666667  0.000000  1
  Fe  Fe3  1  0.666667  0.333333  0.000000  1
  Fe  Fe4  1  0.500000  0.000000  0.290144  1
  Fe  Fe5  1  0.500000  0.500000  0.290144  1
  Fe  Fe6  1  0.000000  0.500000  0.290144  1
  Fe  Fe7  1  0.500000  0.000000  0.709856  1
  Fe  Fe8  1  0.500000  0.500000  0.709856  1
  Fe  Fe9  1  0.000000  0.500000  0.709856  1
  B  B10  1  0.666667  0.333333  0.500000  1
  B  B11  1  0.333333  0.666667  0.500000  1
