# generated using pymatgen
data_InH4Br4N
_symmetry_space_group_name_H-M   'P 1'
_cell_length_a   9.87335194
_cell_length_b   9.87335206
_cell_length_c   9.87335145
_cell_angle_alpha   134.61446082
_cell_angle_beta   134.61446495
_cell_angle_gamma   66.12983468
_symmetry_Int_Tables_number   1
_chemical_formula_structural   InH4Br4N
_chemical_formula_sum   'In2 H8 Br8 N2'
_cell_volume   480.20460825
_cell_formula_units_Z   2
loop_
 _symmetry_equiv_pos_site_id
 _symmetry_equiv_pos_as_xyz
  1  'x, y, z'
loop_
 _atom_site_type_symbol
 _atom_site_label
 _atom_site_symmetry_multiplicity
 _atom_site_fract_x
 _atom_site_fract_y
 _atom_site_fract_z
 _atom_site_occupancy
  In  In0  1  0.500000  0.500000  0.000000  1
  In  In1  1  0.250000  0.750000  0.500000  1
  H  H2  1  0.896898  0.285836  0.609837  1
  H  H3  1  0.712939  0.103102  0.388938  1
  H  H4  1  0.714164  0.324001  0.611062  1
  H  H5  1  0.074001  0.962939  0.109837  1
  H  H6  1  0.675999  0.287061  0.390163  1
  H  H7  1  0.035836  0.925999  0.888938  1
  H  H8  1  0.037061  0.146898  0.111062  1
  H  H9  1  0.853102  0.964164  0.890163  1
  Br  Br10  1  0.731010  0.345651  0.906880  1
  Br  Br11  1  0.095651  0.688771  0.114640  1
  Br  Br12  1  0.175869  0.268990  0.614640  1
  Br  Br13  1  0.438771  0.824131  0.093120  1
  Br  Br14  1  0.311229  0.425869  0.406880  1
  Br  Br15  1  0.574131  0.981010  0.885360  1
  Br  Br16  1  0.654349  0.561229  0.385360  1
  Br  Br17  1  0.018990  0.904349  0.593120  1
  N  N18  1  0.750000  0.250000  0.500000  1
  N  N19  1  0.000000  0.000000  0.000000  1
