# generated using pymatgen
data_Tb2Er3Bi2Ru
_symmetry_space_group_name_H-M   'P 1'
_cell_length_a   7.95820500
_cell_length_b   8.99386000
_cell_length_c   12.46455300
_cell_angle_alpha   90.00000000
_cell_angle_beta   90.00000000
_cell_angle_gamma   90.00000000
_symmetry_Int_Tables_number   1
_chemical_formula_structural   Tb2Er3Bi2Ru
_chemical_formula_sum   'Tb8 Er12 Bi8 Ru4'
_cell_volume   892.15015189
_cell_formula_units_Z   4
loop_
 _symmetry_equiv_pos_site_id
 _symmetry_equiv_pos_as_xyz
  1  'x, y, z'
loop_
 _atom_site_type_symbol
 _atom_site_label
 _atom_site_symmetry_multiplicity
 _atom_site_fract_x
 _atom_site_fract_y
 _atom_site_fract_z
 _atom_site_occupancy
  Tb  Tb0  1  0.658046  0.750000  0.705299  1
  Tb  Tb1  1  0.341954  0.250000  0.294701  1
  Tb  Tb2  1  0.158046  0.250000  0.794701  1
  Tb  Tb3  1  0.841954  0.750000  0.205299  1
  Tb  Tb4  1  0.127255  0.750000  0.810952  1
  Tb  Tb5  1  0.872745  0.250000  0.189048  1
  Tb  Tb6  1  0.627255  0.250000  0.689048  1
  Tb  Tb7  1  0.372745  0.750000  0.310952  1
  Er  Er8  1  0.553998  0.750000  0.995227  1
  Er  Er9  1  0.446002  0.250000  0.004773  1
  Er  Er10  1  0.053998  0.250000  0.504773  1
  Er  Er11  1  0.946002  0.750000  0.495227  1
  Er  Er12  1  0.825679  0.460332  0.934618  1
  Er  Er13  1  0.174321  0.539668  0.065382  1
  Er  Er14  1  0.325679  0.539668  0.565382  1
  Er  Er15  1  0.174321  0.960332  0.065382  1
  Er  Er16  1  0.674321  0.460332  0.434618  1
  Er  Er17  1  0.825679  0.039668  0.934618  1
  Er  Er18  1  0.674321  0.039668  0.434618  1
  Er  Er19  1  0.325679  0.960332  0.565382  1
  Bi  Bi20  1  0.935210  0.005627  0.671645  1
  Bi  Bi21  1  0.064790  0.994373  0.328355  1
  Bi  Bi22  1  0.435210  0.994373  0.828355  1
  Bi  Bi23  1  0.064790  0.505627  0.328355  1
  Bi  Bi24  1  0.564790  0.005627  0.171645  1
  Bi  Bi25  1  0.935210  0.494373  0.671645  1
  Bi  Bi26  1  0.564790  0.494373  0.171645  1
  Bi  Bi27  1  0.435210  0.505627  0.828355  1
  Ru  Ru28  1  0.930187  0.750000  0.990954  1
  Ru  Ru29  1  0.069813  0.250000  0.009046  1
  Ru  Ru30  1  0.430187  0.250000  0.509046  1
  Ru  Ru31  1  0.569813  0.750000  0.490954  1
