# generated using pymatgen
data_Tm4Co3ReOs4
_symmetry_space_group_name_H-M   'P 1'
_cell_length_a   5.26498673
_cell_length_b   5.20283664
_cell_length_c   8.66614000
_cell_angle_alpha   90.00000000
_cell_angle_beta   90.00000000
_cell_angle_gamma   121.50427519
_symmetry_Int_Tables_number   1
_chemical_formula_structural   Tm4Co3ReOs4
_chemical_formula_sum   'Tm4 Co3 Re1 Os4'
_cell_volume   202.39934295
_cell_formula_units_Z   1
loop_
 _symmetry_equiv_pos_site_id
 _symmetry_equiv_pos_as_xyz
  1  'x, y, z'
loop_
 _atom_site_type_symbol
 _atom_site_label
 _atom_site_symmetry_multiplicity
 _atom_site_fract_x
 _atom_site_fract_y
 _atom_site_fract_z
 _atom_site_occupancy
  Tm  Tm0  1  0.672138  0.341336  0.560486  1
  Tm  Tm1  1  0.337663  0.672215  0.432946  1
  Tm  Tm2  1  0.337663  0.672215  0.067054  1
  Tm  Tm3  1  0.672138  0.341336  0.939514  1
  Co  Co4  1  0.171628  0.820289  0.750000  1
  Co  Co5  1  0.816039  0.650521  0.250000  1
  Co  Co6  1  0.821246  0.161567  0.250000  1
  Re  Re7  1  0.165757  0.324251  0.750000  1
  Os  Os8  1  0.011321  0.015719  0.495428  1
  Os  Os9  1  0.011321  0.015719  0.004572  1
  Os  Os10  1  0.649515  0.816887  0.750000  1
  Os  Os11  1  0.333570  0.167945  0.250000  1
