# generated using pymatgen
data_NdEr2V(Co4P3)2
_symmetry_space_group_name_H-M   'P 1'
_cell_length_a   3.69964300
_cell_length_b   10.56869800
_cell_length_c   12.26298700
_cell_angle_alpha   90.00000000
_cell_angle_beta   90.00000000
_cell_angle_gamma   90.00000000
_symmetry_Int_Tables_number   1
_chemical_formula_structural   NdEr2V(Co4P3)2
_chemical_formula_sum   'Nd2 Er4 V2 Co16 P12'
_cell_volume   479.48781431
_cell_formula_units_Z   2
loop_
 _symmetry_equiv_pos_site_id
 _symmetry_equiv_pos_as_xyz
  1  'x, y, z'
loop_
 _atom_site_type_symbol
 _atom_site_label
 _atom_site_symmetry_multiplicity
 _atom_site_fract_x
 _atom_site_fract_y
 _atom_site_fract_z
 _atom_site_occupancy
  Nd  Nd0  1  0.750000  0.250000  0.476317  1
  Nd  Nd1  1  0.250000  0.750000  0.523683  1
  Er  Er2  1  0.250000  0.931284  0.796813  1
  Er  Er3  1  0.250000  0.568716  0.796813  1
  Er  Er4  1  0.750000  0.068716  0.203187  1
  Er  Er5  1  0.750000  0.431284  0.203187  1
  V  V6  1  0.250000  0.250000  0.848364  1
  V  V7  1  0.750000  0.750000  0.151636  1
  Co  Co8  1  0.250000  0.250000  0.294520  1
  Co  Co9  1  0.750000  0.750000  0.705480  1
  Co  Co10  1  0.750000  0.250000  0.013483  1
  Co  Co11  1  0.250000  0.750000  0.986517  1
  Co  Co12  1  0.250000  0.417686  0.007136  1
  Co  Co13  1  0.250000  0.082314  0.007136  1
  Co  Co14  1  0.750000  0.582314  0.992864  1
  Co  Co15  1  0.750000  0.917686  0.992864  1
  Co  Co16  1  0.250000  0.454806  0.570475  1
  Co  Co17  1  0.250000  0.045194  0.570475  1
  Co  Co18  1  0.750000  0.545194  0.429525  1
  Co  Co19  1  0.750000  0.954806  0.429525  1
  Co  Co20  1  0.250000  0.871273  0.289277  1
  Co  Co21  1  0.250000  0.628727  0.289277  1
  Co  Co22  1  0.750000  0.128727  0.710723  1
  Co  Co23  1  0.750000  0.371273  0.710723  1
  P  P24  1  0.250000  0.250000  0.117252  1
  P  P25  1  0.750000  0.750000  0.882748  1
  P  P26  1  0.250000  0.250000  0.657564  1
  P  P27  1  0.750000  0.750000  0.342436  1
  P  P28  1  0.250000  0.441652  0.381824  1
  P  P29  1  0.250000  0.058348  0.381824  1
  P  P30  1  0.750000  0.558348  0.618176  1
  P  P31  1  0.750000  0.941652  0.618176  1
  P  P32  1  0.250000  0.904569  0.107249  1
  P  P33  1  0.250000  0.595431  0.107249  1
  P  P34  1  0.750000  0.095431  0.892751  1
  P  P35  1  0.750000  0.404569  0.892751  1
