# generated using pymatgen
data_Ta2AlRh5
_symmetry_space_group_name_H-M   'P 1'
_cell_length_a   5.48552954
_cell_length_b   5.48552867
_cell_length_c   8.03986300
_cell_angle_alpha   90.00024986
_cell_angle_beta   90.00025384
_cell_angle_gamma   97.42927145
_symmetry_Int_Tables_number   1
_chemical_formula_structural   Ta2AlRh5
_chemical_formula_sum   'Ta4 Al2 Rh10'
_cell_volume   239.89682818
_cell_formula_units_Z   2
loop_
 _symmetry_equiv_pos_site_id
 _symmetry_equiv_pos_as_xyz
  1  'x, y, z'
loop_
 _atom_site_type_symbol
 _atom_site_label
 _atom_site_symmetry_multiplicity
 _atom_site_fract_x
 _atom_site_fract_y
 _atom_site_fract_z
 _atom_site_occupancy
  Ta  Ta0  1  0.782377  0.217623  0.500000  1
  Ta  Ta1  1  0.217632  0.782368  0.000000  1
  Ta  Ta2  1  0.217623  0.782377  0.500000  1
  Ta  Ta3  1  0.782368  0.217632  0.000000  1
  Al  Al4  1  0.500294  0.500294  0.749975  1
  Al  Al5  1  0.499706  0.499706  0.250025  1
  Rh  Rh6  1  0.717366  0.717366  0.000145  1
  Rh  Rh7  1  0.717342  0.717342  0.499847  1
  Rh  Rh8  1  0.282634  0.282634  0.999855  1
  Rh  Rh9  1  0.282658  0.282658  0.500153  1
  Rh  Rh10  1  0.499997  0.000077  0.749994  1
  Rh  Rh11  1  0.500003  0.999923  0.250006  1
  Rh  Rh12  1  0.000078  0.000078  0.250003  1
  Rh  Rh13  1  0.999922  0.999922  0.749997  1
  Rh  Rh14  1  0.000077  0.499997  0.749994  1
  Rh  Rh15  1  0.999923  0.500003  0.250006  1
