# generated using pymatgen
data_Dy2Y2Al17GeIr6
_symmetry_space_group_name_H-M   'P 1'
_cell_length_a   7.55271441
_cell_length_b   7.55271312
_cell_length_c   9.46690900
_cell_angle_alpha   90.00000000
_cell_angle_beta   90.00000000
_cell_angle_gamma   119.61158179
_symmetry_Int_Tables_number   1
_chemical_formula_structural   Dy2Y2Al17GeIr6
_chemical_formula_sum   'Dy2 Y2 Al17 Ge1 Ir6'
_cell_volume   469.49549112
_cell_formula_units_Z   1
loop_
 _symmetry_equiv_pos_site_id
 _symmetry_equiv_pos_as_xyz
  1  'x, y, z'
loop_
 _atom_site_type_symbol
 _atom_site_label
 _atom_site_symmetry_multiplicity
 _atom_site_fract_x
 _atom_site_fract_y
 _atom_site_fract_z
 _atom_site_occupancy
  Dy  Dy0  1  0.994931  0.675066  0.750000  1
  Dy  Dy1  1  0.675066  0.994931  0.750000  1
  Y  Y2  1  0.003904  0.329030  0.250000  1
  Y  Y3  1  0.329030  0.003904  0.250000  1
  Al  Al4  1  0.871779  0.871779  0.250000  1
  Al  Al5  1  0.000261  0.337383  0.573481  1
  Al  Al6  1  0.998206  0.664820  0.425190  1
  Al  Al7  1  0.998206  0.664820  0.074810  1
  Al  Al8  1  0.337383  0.000261  0.926519  1
  Al  Al9  1  0.000261  0.337383  0.926519  1
  Al  Al10  1  0.664820  0.998206  0.074810  1
  Al  Al11  1  0.664820  0.998206  0.425190  1
  Al  Al12  1  0.337383  0.000261  0.573481  1
  Al  Al13  1  0.333277  0.333277  0.058057  1
  Al  Al14  1  0.664319  0.664319  0.948139  1
  Al  Al15  1  0.664319  0.664319  0.551861  1
  Al  Al16  1  0.333277  0.333277  0.441943  1
  Al  Al17  1  0.336990  0.552406  0.750000  1
  Al  Al18  1  0.661179  0.451613  0.250000  1
  Al  Al19  1  0.552406  0.336990  0.750000  1
  Al  Al20  1  0.451613  0.661179  0.250000  1
  Ge  Ge21  1  0.134469  0.134469  0.750000  1
  Ir  Ir22  1  0.669747  0.326879  0.500463  1
  Ir  Ir23  1  0.326879  0.669747  0.500463  1
  Ir  Ir24  1  0.326879  0.669747  0.999537  1
  Ir  Ir25  1  0.669747  0.326879  0.999537  1
  Ir  Ir26  1  0.999425  0.999425  0.500931  1
  Ir  Ir27  1  0.999425  0.999425  0.999069  1
