# generated using pymatgen
data_Tb2Er2TcPt3F28
_symmetry_space_group_name_H-M   'P 1'
_cell_length_a   5.55447724
_cell_length_b   8.90044422
_cell_length_c   12.00177568
_cell_angle_alpha   62.39572670
_cell_angle_beta   90.11747398
_cell_angle_gamma   90.09062073
_symmetry_Int_Tables_number   1
_chemical_formula_structural   Tb2Er2TcPt3F28
_chemical_formula_sum   'Tb2 Er2 Tc1 Pt3 F28'
_cell_volume   525.79435671
_cell_formula_units_Z   1
loop_
 _symmetry_equiv_pos_site_id
 _symmetry_equiv_pos_as_xyz
  1  'x, y, z'
loop_
 _atom_site_type_symbol
 _atom_site_label
 _atom_site_symmetry_multiplicity
 _atom_site_fract_x
 _atom_site_fract_y
 _atom_site_fract_z
 _atom_site_occupancy
  Tb  Tb0  1  0.760988  0.183661  0.236692  1
  Tb  Tb1  1  0.239540  0.815245  0.763507  1
  Er  Er2  1  0.259783  0.812914  0.265379  1
  Er  Er3  1  0.739480  0.186233  0.736229  1
  Tc  Tc4  1  0.757354  0.727115  0.043655  1
  Pt  Pt5  1  0.241092  0.271866  0.956933  1
  Pt  Pt6  1  0.259240  0.273507  0.457784  1
  Pt  Pt7  1  0.740988  0.725657  0.542744  1
  F  F8  1  0.936952  0.704221  0.414418  1
  F  F9  1  0.062017  0.295472  0.585412  1
  F  F10  1  0.436716  0.295604  0.084564  1
  F  F11  1  0.554773  0.708584  0.917396  1
  F  F12  1  0.473288  0.730502  0.139484  1
  F  F13  1  0.533163  0.272309  0.864114  1
  F  F14  1  0.967623  0.273664  0.364689  1
  F  F15  1  0.033176  0.725897  0.635059  1
  F  F16  1  0.958413  0.745981  0.172285  1
  F  F17  1  0.048399  0.255401  0.824759  1
  F  F18  1  0.449876  0.257095  0.325494  1
  F  F19  1  0.552351  0.742422  0.675322  1
  F  F20  1  0.770628  0.479209  0.140694  1
  F  F21  1  0.229210  0.520343  0.858334  1
  F  F22  1  0.270031  0.522361  0.358466  1
  F  F23  1  0.729832  0.476781  0.642145  1
  F  F24  1  0.942969  0.280044  0.042931  1
  F  F25  1  0.051474  0.720940  0.954322  1
  F  F26  1  0.440543  0.719409  0.456597  1
  F  F27  1  0.559025  0.279809  0.544350  1
  F  F28  1  0.742204  0.974283  0.449904  1
  F  F29  1  0.258331  0.024906  0.550195  1
  F  F30  1  0.241826  0.023034  0.051910  1
  F  F31  1  0.758853  0.974361  0.945443  1
  F  F32  1  0.582165  0.967307  0.232528  1
  F  F33  1  0.417367  0.032941  0.767144  1
  F  F34  1  0.087930  0.027769  0.268597  1
  F  F35  1  0.912402  0.973159  0.730523  1
