# generated using pymatgen
data_Np2ReIrF24
_symmetry_space_group_name_H-M   'P 1'
_cell_length_a   5.35857637
_cell_length_b   9.26868800
_cell_length_c   10.12304783
_cell_angle_alpha   90.00000000
_cell_angle_beta   90.02833651
_cell_angle_gamma   90.00000000
_symmetry_Int_Tables_number   1
_chemical_formula_structural   Np2ReIrF24
_chemical_formula_sum   'Np2 Re1 Ir1 F24'
_cell_volume   502.78107626
_cell_formula_units_Z   1
loop_
 _symmetry_equiv_pos_site_id
 _symmetry_equiv_pos_as_xyz
  1  'x, y, z'
loop_
 _atom_site_type_symbol
 _atom_site_label
 _atom_site_symmetry_multiplicity
 _atom_site_fract_x
 _atom_site_fract_y
 _atom_site_fract_z
 _atom_site_occupancy
  Np  Np0  1  0.406178  0.750000  0.127452  1
  Np  Np1  1  0.092387  0.750000  0.626424  1
  Re  Re2  1  0.594399  0.250000  0.872661  1
  Ir  Ir3  1  0.906213  0.250000  0.373206  1
  F  F4  1  0.252232  0.596612  0.515493  1
  F  F5  1  0.249017  0.903952  0.014910  1
  F  F6  1  0.935276  0.903875  0.738923  1
  F  F7  1  0.186477  0.250000  0.485215  1
  F  F8  1  0.742099  0.106730  0.974990  1
  F  F9  1  0.564454  0.903144  0.238710  1
  F  F10  1  0.311888  0.250000  0.979966  1
  F  F11  1  0.252232  0.903388  0.515493  1
  F  F12  1  0.757347  0.393536  0.479008  1
  F  F13  1  0.446330  0.393115  0.770470  1
  F  F14  1  0.742099  0.393270  0.974990  1
  F  F15  1  0.791652  0.750000  0.508152  1
  F  F16  1  0.706655  0.750000  0.008507  1
  F  F17  1  0.249017  0.596048  0.014910  1
  F  F18  1  0.446330  0.106885  0.770470  1
  F  F19  1  0.054803  0.393702  0.267536  1
  F  F20  1  0.625401  0.250000  0.261163  1
  F  F21  1  0.564454  0.596856  0.238710  1
  F  F22  1  0.877323  0.250000  0.765891  1
  F  F23  1  0.104663  0.750000  0.245546  1
  F  F24  1  0.054803  0.106298  0.267536  1
  F  F25  1  0.935276  0.596125  0.738923  1
  F  F26  1  0.393651  0.750000  0.745737  1
  F  F27  1  0.757347  0.106464  0.479008  1
