# generated using pymatgen
data_Yb4(Ga8Pt3)3
_symmetry_space_group_name_H-M   'P 1'
_cell_length_a   7.51180704
_cell_length_b   7.56020351
_cell_length_c   13.47395964
_cell_angle_alpha   84.38409855
_cell_angle_beta   79.18715184
_cell_angle_gamma   60.20162063
_symmetry_Int_Tables_number   1
_chemical_formula_structural   Yb4(Ga8Pt3)3
_chemical_formula_sum   'Yb4 Ga24 Pt9'
_cell_volume   652.22291455
_cell_formula_units_Z   1
loop_
 _symmetry_equiv_pos_site_id
 _symmetry_equiv_pos_as_xyz
  1  'x, y, z'
loop_
 _atom_site_type_symbol
 _atom_site_label
 _atom_site_symmetry_multiplicity
 _atom_site_fract_x
 _atom_site_fract_y
 _atom_site_fract_z
 _atom_site_occupancy
  Yb  Yb0  1  0.397019  0.167666  0.808098  1
  Yb  Yb1  1  0.602981  0.832334  0.191902  1
  Yb  Yb2  1  0.731742  0.500970  0.807976  1
  Yb  Yb3  1  0.268258  0.499030  0.192025  1
  Ga  Ga4  1  0.686898  0.833181  0.940036  1
  Ga  Ga5  1  0.313103  0.166819  0.059964  1
  Ga  Ga6  1  0.147383  0.832088  0.558471  1
  Ga  Ga7  1  0.852616  0.167912  0.441529  1
  Ga  Ga8  1  0.479142  0.166914  0.555411  1
  Ga  Ga9  1  0.520858  0.833086  0.444589  1
  Ga  Ga10  1  0.219859  0.164711  0.323633  1
  Ga  Ga11  1  0.780141  0.835289  0.676367  1
  Ga  Ga12  1  0.436099  0.505030  0.675599  1
  Ga  Ga13  1  0.563901  0.494970  0.324401  1
  Ga  Ga14  1  0.107358  0.159880  0.674813  1
  Ga  Ga15  1  0.892642  0.840120  0.325187  1
  Ga  Ga16  1  0.357033  0.497227  0.940978  1
  Ga  Ga17  1  0.642967  0.502773  0.059022  1
  Ga  Ga18  1  0.019263  0.168859  0.945902  1
  Ga  Ga19  1  0.980737  0.831140  0.054098  1
  Ga  Ga20  1  0.185675  0.497715  0.444914  1
  Ga  Ga21  1  0.814325  0.502286  0.555086  1
  Ga  Ga22  1  0.733145  0.164451  0.181916  1
  Ga  Ga23  1  0.266855  0.835550  0.818084  1
  Ga  Ga24  1  0.062117  0.628272  0.816960  1
  Ga  Ga25  1  0.937882  0.371729  0.183040  1
  Ga  Ga26  1  0.854891  0.041134  0.816235  1
  Ga  Ga27  1  0.145111  0.958865  0.183764  1
  Pt  Pt28  1  0.118135  0.492265  0.639816  1
  Pt  Pt29  1  0.881865  0.507735  0.360184  1
  Pt  Pt30  1  0.661767  0.169278  0.998864  1
  Pt  Pt31  1  0.338233  0.830722  0.001137  1
  Pt  Pt32  1  0.538818  0.167401  0.360799  1
  Pt  Pt33  1  0.461181  0.832599  0.639201  1
  Pt  Pt34  1  0.778686  0.174971  0.635877  1
  Pt  Pt35  1  0.221314  0.825029  0.364123  1
  Pt  Pt36  1  0.000000  0.499999  0.000000  1
