# generated using pymatgen
data_Nd4Ga16CoPd2
_symmetry_space_group_name_H-M   'P 1'
_cell_length_a   6.22575700
_cell_length_b   6.25217800
_cell_length_c   11.38075900
_cell_angle_alpha   90.00000000
_cell_angle_beta   90.00000000
_cell_angle_gamma   90.00000000
_symmetry_Int_Tables_number   1
_chemical_formula_structural   Nd4Ga16CoPd2
_chemical_formula_sum   'Nd4 Ga16 Co1 Pd2'
_cell_volume   442.99081972
_cell_formula_units_Z   1
loop_
 _symmetry_equiv_pos_site_id
 _symmetry_equiv_pos_as_xyz
  1  'x, y, z'
loop_
 _atom_site_type_symbol
 _atom_site_label
 _atom_site_symmetry_multiplicity
 _atom_site_fract_x
 _atom_site_fract_y
 _atom_site_fract_z
 _atom_site_occupancy
  Nd  Nd0  1  0.500000  0.000000  0.809096  1
  Nd  Nd1  1  0.000000  0.500000  0.199055  1
  Nd  Nd2  1  0.000000  0.500000  0.800945  1
  Nd  Nd3  1  0.500000  0.000000  0.190904  1
  Ga  Ga4  1  0.000000  0.000000  0.768430  1
  Ga  Ga5  1  0.287370  0.292450  0.000000  1
  Ga  Ga6  1  0.500000  0.500000  0.803068  1
  Ga  Ga7  1  0.712630  0.292450  0.000000  1
  Ga  Ga8  1  0.500000  0.500000  0.196932  1
  Ga  Ga9  1  0.712630  0.707550  0.000000  1
  Ga  Ga10  1  0.000000  0.000000  0.231570  1
  Ga  Ga11  1  0.737481  0.756064  0.615410  1
  Ga  Ga12  1  0.737481  0.243936  0.384590  1
  Ga  Ga13  1  0.262519  0.243936  0.615410  1
  Ga  Ga14  1  0.262519  0.756064  0.384590  1
  Ga  Ga15  1  0.287370  0.707550  0.000000  1
  Ga  Ga16  1  0.737481  0.756064  0.384590  1
  Ga  Ga17  1  0.737481  0.243936  0.615410  1
  Ga  Ga18  1  0.262519  0.243936  0.384590  1
  Ga  Ga19  1  0.262519  0.756064  0.615410  1
  Co  Co20  1  0.500000  0.000000  0.500000  1
  Pd  Pd21  1  0.000000  0.500000  0.500000  1
  Pd  Pd22  1  0.000000  0.000000  0.000000  1
