# generated using pymatgen
data_Sm2TaSb5O18
_symmetry_space_group_name_H-M   'P 1'
_cell_length_a   7.58080125
_cell_length_b   5.46508112
_cell_length_c   8.20319055
_cell_angle_alpha   86.38861658
_cell_angle_beta   89.82102085
_cell_angle_gamma   90.01748516
_symmetry_Int_Tables_number   1
_chemical_formula_structural   Sm2TaSb5O18
_chemical_formula_sum   'Sm2 Ta1 Sb5 O18'
_cell_volume   339.17910133
_cell_formula_units_Z   1
loop_
 _symmetry_equiv_pos_site_id
 _symmetry_equiv_pos_as_xyz
  1  'x, y, z'
loop_
 _atom_site_type_symbol
 _atom_site_label
 _atom_site_symmetry_multiplicity
 _atom_site_fract_x
 _atom_site_fract_y
 _atom_site_fract_z
 _atom_site_occupancy
  Sm  Sm0  1  0.249807  0.966160  0.432983  1
  Sm  Sm1  1  0.750193  0.033840  0.567017  1
  Ta  Ta2  1  0.500000  0.000000  0.000000  1
  Sb  Sb3  1  0.000000  0.000000  0.000000  1
  Sb  Sb4  1  0.494974  0.532422  0.696357  1
  Sb  Sb5  1  0.005194  0.529154  0.698031  1
  Sb  Sb6  1  0.994806  0.470846  0.301969  1
  Sb  Sb7  1  0.505026  0.467578  0.303643  1
  O  O8  1  0.250393  0.906806  0.988846  1
  O  O9  1  0.942547  0.853287  0.780351  1
  O  O10  1  0.558869  0.849647  0.781307  1
  O  O11  1  0.962154  0.733693  0.472852  1
  O  O12  1  0.537811  0.733922  0.470877  1
  O  O13  1  0.249882  0.658864  0.659315  1
  O  O14  1  0.933507  0.679747  0.115193  1
  O  O15  1  0.553687  0.685859  0.119122  1
  O  O16  1  0.249504  0.583691  0.310382  1
  O  O17  1  0.750496  0.416309  0.689618  1
  O  O18  1  0.066493  0.320253  0.884807  1
  O  O19  1  0.446313  0.314141  0.880878  1
  O  O20  1  0.750118  0.341136  0.340685  1
  O  O21  1  0.037846  0.266307  0.527148  1
  O  O22  1  0.462189  0.266078  0.529123  1
  O  O23  1  0.057453  0.146713  0.219649  1
  O  O24  1  0.441131  0.150353  0.218693  1
  O  O25  1  0.749607  0.093194  0.011154  1
