# generated using pymatgen
data_Ti4Nb6Si6BH
_symmetry_space_group_name_H-M   'P 1'
_cell_length_a   7.57235500
_cell_length_b   7.57235456
_cell_length_c   5.19145500
_cell_angle_alpha   90.00000000
_cell_angle_beta   90.00000000
_cell_angle_gamma   120.00000629
_symmetry_Int_Tables_number   1
_chemical_formula_structural   Ti4Nb6Si6BH
_chemical_formula_sum   'Ti4 Nb6 Si6 B1 H1'
_cell_volume   257.79922339
_cell_formula_units_Z   1
loop_
 _symmetry_equiv_pos_site_id
 _symmetry_equiv_pos_as_xyz
  1  'x, y, z'
loop_
 _atom_site_type_symbol
 _atom_site_label
 _atom_site_symmetry_multiplicity
 _atom_site_fract_x
 _atom_site_fract_y
 _atom_site_fract_z
 _atom_site_occupancy
  Ti  Ti0  1  0.666667  0.333333  0.500000  1
  Ti  Ti1  1  0.333333  0.666667  0.500000  1
  Ti  Ti2  1  0.333333  0.666667  0.000000  1
  Ti  Ti3  1  0.666667  0.333333  0.000000  1
  Nb  Nb4  1  0.754289  0.754289  0.254193  1
  Nb  Nb5  1  0.245711  0.000000  0.254193  1
  Nb  Nb6  1  0.000000  0.245711  0.254193  1
  Nb  Nb7  1  0.245711  0.245711  0.745807  1
  Nb  Nb8  1  0.754289  0.000000  0.745807  1
  Nb  Nb9  1  0.000000  0.754289  0.745807  1
  Si  Si10  1  0.401658  0.401658  0.251344  1
  Si  Si11  1  0.598342  0.000000  0.251344  1
  Si  Si12  1  0.000000  0.598342  0.251344  1
  Si  Si13  1  0.598342  0.598342  0.748656  1
  Si  Si14  1  0.401658  0.000000  0.748656  1
  Si  Si15  1  0.000000  0.401658  0.748656  1
  B  B16  1  0.000000  0.000000  0.000000  1
  H  H17  1  0.000000  0.000000  0.500000  1
