# generated using pymatgen
data_Nd11Sm(SiBr3)4
_symmetry_space_group_name_H-M   'P 1'
_cell_length_a   10.42845773
_cell_length_b   10.43441936
_cell_length_c   10.42451721
_cell_angle_alpha   109.50104133
_cell_angle_beta   109.47126313
_cell_angle_gamma   109.47537188
_symmetry_Int_Tables_number   1
_chemical_formula_structural   Nd11Sm(SiBr3)4
_chemical_formula_sum   'Nd11 Sm1 Si4 Br12'
_cell_volume   872.85069576
_cell_formula_units_Z   1
loop_
 _symmetry_equiv_pos_site_id
 _symmetry_equiv_pos_as_xyz
  1  'x, y, z'
loop_
 _atom_site_type_symbol
 _atom_site_label
 _atom_site_symmetry_multiplicity
 _atom_site_fract_x
 _atom_site_fract_y
 _atom_site_fract_z
 _atom_site_occupancy
  Nd  Nd0  1  0.261811  0.011883  0.023620  1
  Nd  Nd1  1  0.023886  0.261993  0.012254  1
  Nd  Nd2  1  0.488323  0.750227  0.012225  1
  Nd  Nd3  1  0.750487  0.238532  0.262178  1
  Nd  Nd4  1  0.011747  0.023686  0.262192  1
  Nd  Nd5  1  0.011779  0.488404  0.750321  1
  Nd  Nd6  1  0.238562  0.261882  0.750362  1
  Nd  Nd7  1  0.261597  0.749410  0.238011  1
  Nd  Nd8  1  0.238430  0.476836  0.488774  1
  Nd  Nd9  1  0.476371  0.488502  0.237987  1
  Nd  Nd10  1  0.750405  0.012011  0.488842  1
  Sm  Sm11  1  0.486893  0.236944  0.473869  1
  Si  Si12  1  0.000095  0.250106  0.500204  1
  Si  Si13  1  0.250063  0.500067  0.000118  1
  Si  Si14  1  0.500132  0.001207  0.251450  1
  Si  Si15  1  0.251327  0.250251  0.251465  1
  Br  Br16  1  0.755124  0.745406  0.250234  1
  Br  Br17  1  0.504775  0.249694  0.995179  1
  Br  Br18  1  0.253610  0.998592  0.505088  1
  Br  Br19  1  0.509647  0.501879  0.752230  1
  Br  Br20  1  0.995216  0.990304  0.745382  1
  Br  Br21  1  0.745163  0.995149  0.990330  1
  Br  Br22  1  0.504802  0.754790  0.509576  1
  Br  Br23  1  0.751474  0.506491  0.505098  1
  Br  Br24  1  0.995104  0.504846  0.250232  1
  Br  Br25  1  0.990425  0.745505  0.995168  1
  Br  Br26  1  0.250167  0.755052  0.745391  1
  Br  Br27  1  0.742584  0.250350  0.752220  1
