# generated using pymatgen
data_Ba2SmC2(O2F)3
_symmetry_space_group_name_H-M   'P 1'
_cell_length_a   9.67836300
_cell_length_b   7.07025500
_cell_length_c   12.00947300
_cell_angle_alpha   90.00000000
_cell_angle_beta   90.00000000
_cell_angle_gamma   90.00000000
_symmetry_Int_Tables_number   1
_chemical_formula_structural   Ba2SmC2(O2F)3
_chemical_formula_sum   'Ba8 Sm4 C8 O24 F12'
_cell_volume   821.79015584
_cell_formula_units_Z   4
loop_
 _symmetry_equiv_pos_site_id
 _symmetry_equiv_pos_as_xyz
  1  'x, y, z'
loop_
 _atom_site_type_symbol
 _atom_site_label
 _atom_site_symmetry_multiplicity
 _atom_site_fract_x
 _atom_site_fract_y
 _atom_site_fract_z
 _atom_site_occupancy
  Ba  Ba0  1  0.380533  0.239529  0.071618  1
  Ba  Ba1  1  0.119466  0.739530  0.071618  1
  Ba  Ba2  1  0.619466  0.239529  0.428382  1
  Ba  Ba3  1  0.880534  0.739530  0.428382  1
  Ba  Ba4  1  0.119466  0.260470  0.571618  1
  Ba  Ba5  1  0.380533  0.760470  0.571618  1
  Ba  Ba6  1  0.880534  0.260470  0.928381  1
  Ba  Ba7  1  0.619466  0.760470  0.928381  1
  Sm  Sm8  1  0.000000  0.272666  0.250000  1
  Sm  Sm9  1  0.500000  0.772665  0.250000  1
  Sm  Sm10  1  0.500000  0.227335  0.750000  1
  Sm  Sm11  1  0.000000  0.727335  0.750000  1
  C  C12  1  0.694455  0.478485  0.177572  1
  C  C13  1  0.805545  0.978485  0.177572  1
  C  C14  1  0.305546  0.478485  0.322427  1
  C  C15  1  0.194454  0.978485  0.322427  1
  C  C16  1  0.805545  0.021516  0.677572  1
  C  C17  1  0.694455  0.521515  0.677572  1
  C  C18  1  0.194454  0.021516  0.822427  1
  C  C19  1  0.305546  0.521515  0.822427  1
  O  O20  1  0.910472  0.019426  0.113506  1
  O  O21  1  0.589528  0.519425  0.113506  1
  O  O22  1  0.796978  0.382040  0.141180  1
  O  O23  1  0.703023  0.882039  0.141180  1
  O  O24  1  0.189150  0.039861  0.219542  1
  O  O25  1  0.310850  0.539861  0.219542  1
  O  O26  1  0.810849  0.039861  0.280458  1
  O  O27  1  0.689150  0.539861  0.280458  1
  O  O28  1  0.203023  0.382040  0.358819  1
  O  O29  1  0.296977  0.882039  0.358819  1
  O  O30  1  0.089528  0.019426  0.386494  1
  O  O31  1  0.410472  0.519425  0.386494  1
  O  O32  1  0.589528  0.480574  0.613506  1
  O  O33  1  0.910472  0.980575  0.613506  1
  O  O34  1  0.703023  0.117960  0.641180  1
  O  O35  1  0.796978  0.617961  0.641180  1
  O  O36  1  0.310850  0.460140  0.719542  1
  O  O37  1  0.189150  0.960139  0.719542  1
  O  O38  1  0.689150  0.460140  0.780458  1
  O  O39  1  0.810849  0.960139  0.780458  1
  O  O40  1  0.296977  0.117960  0.858819  1
  O  O41  1  0.203023  0.617961  0.858819  1
  O  O42  1  0.410472  0.480574  0.886495  1
  O  O43  1  0.089528  0.980575  0.886495  1
  F  F44  1  0.095778  0.350166  0.075684  1
  F  F45  1  0.404222  0.850165  0.075684  1
  F  F46  1  0.500000  0.104288  0.250000  1
  F  F47  1  0.000000  0.604288  0.250000  1
  F  F48  1  0.904221  0.350166  0.424316  1
  F  F49  1  0.595778  0.850165  0.424316  1
  F  F50  1  0.404222  0.149835  0.575684  1
  F  F51  1  0.095778  0.649835  0.575684  1
  F  F52  1  0.000000  0.395713  0.750000  1
  F  F53  1  0.500000  0.895712  0.750000  1
  F  F54  1  0.595778  0.149835  0.924315  1
  F  F55  1  0.904221  0.649835  0.924315  1
