# generated using pymatgen
data_La7Nd3(GaSi)3
_symmetry_space_group_name_H-M   'P 1'
_cell_length_a   7.98052404
_cell_length_b   7.95235221
_cell_length_c   14.58020900
_cell_angle_alpha   90.11515575
_cell_angle_beta   89.99432105
_cell_angle_gamma   89.96920333
_symmetry_Int_Tables_number   1
_chemical_formula_structural   La7Nd3(GaSi)3
_chemical_formula_sum   'La14 Nd6 Ga6 Si6'
_cell_volume   925.31547265
_cell_formula_units_Z   2
loop_
 _symmetry_equiv_pos_site_id
 _symmetry_equiv_pos_as_xyz
  1  'x, y, z'
loop_
 _atom_site_type_symbol
 _atom_site_label
 _atom_site_symmetry_multiplicity
 _atom_site_fract_x
 _atom_site_fract_y
 _atom_site_fract_z
 _atom_site_occupancy
  La  La0  1  0.667285  0.684975  0.105288  1
  La  La1  1  0.006248  0.499782  0.718639  1
  La  La2  1  0.817614  0.838438  0.605183  1
  La  La3  1  0.314990  0.330338  0.393162  1
  La  La4  1  0.182518  0.838882  0.104079  1
  La  La5  1  0.184328  0.164113  0.607139  1
  La  La6  1  0.814823  0.163785  0.105865  1
  La  La7  1  0.332070  0.684536  0.606140  1
  La  La8  1  0.501614  0.004474  0.281281  1
  La  La9  1  0.685175  0.330378  0.894322  1
  La  La10  1  0.667842  0.311867  0.608072  1
  La  La11  1  0.311430  0.666908  0.893938  1
  La  La12  1  0.160621  0.816470  0.395517  1
  La  La13  1  0.687383  0.667095  0.392804  1
  Nd  Nd14  1  0.498255  0.004352  0.778790  1
  Nd  Nd15  1  0.333369  0.310894  0.109278  1
  Nd  Nd16  1  0.841083  0.816696  0.893846  1
  Nd  Nd17  1  0.994007  0.500035  0.221511  1
  Nd  Nd18  1  0.835632  0.185593  0.390690  1
  Nd  Nd19  1  0.164104  0.185519  0.892041  1
  Ga  Ga20  1  0.499895  0.999223  0.497423  1
  Ga  Ga21  1  0.001576  0.496502  0.004816  1
  Ga  Ga22  1  0.380689  0.616249  0.248582  1
  Ga  Ga23  1  0.619004  0.620028  0.751121  1
  Ga  Ga24  1  0.499073  0.000263  0.994145  1
  Ga  Ga25  1  0.997884  0.494978  0.501362  1
  Si  Si26  1  0.617602  0.382284  0.249065  1
  Si  Si27  1  0.886278  0.113101  0.752652  1
  Si  Si28  1  0.885893  0.886529  0.249535  1
  Si  Si29  1  0.114812  0.886850  0.751905  1
  Si  Si30  1  0.383456  0.382034  0.751562  1
  Si  Si31  1  0.113443  0.116828  0.250247  1
