# generated using pymatgen
data_CuBi2Ru4PbO14
_symmetry_space_group_name_H-M   'P 1'
_cell_length_a   7.32755612
_cell_length_b   7.32755638
_cell_length_c   7.21271662
_cell_angle_alpha   59.49552750
_cell_angle_beta   59.49552433
_cell_angle_gamma   60.22812658
_symmetry_Int_Tables_number   1
_chemical_formula_structural   CuBi2Ru4PbO14
_chemical_formula_sum   'Cu1 Bi2 Ru4 Pb1 O14'
_cell_volume   272.19470117
_cell_formula_units_Z   1
loop_
 _symmetry_equiv_pos_site_id
 _symmetry_equiv_pos_as_xyz
  1  'x, y, z'
loop_
 _atom_site_type_symbol
 _atom_site_label
 _atom_site_symmetry_multiplicity
 _atom_site_fract_x
 _atom_site_fract_y
 _atom_site_fract_z
 _atom_site_occupancy
  Cu  Cu0  1  0.125000  0.125000  0.625000  1
  Bi  Bi1  1  0.125000  0.625000  0.125000  1
  Bi  Bi2  1  0.625000  0.125000  0.125000  1
  Ru  Ru3  1  0.625000  0.625000  0.125000  1
  Ru  Ru4  1  0.625000  0.125000  0.625000  1
  Ru  Ru5  1  0.125000  0.625000  0.625000  1
  Ru  Ru6  1  0.625000  0.625000  0.625000  1
  Pb  Pb7  1  0.125000  0.125000  0.125000  1
  O  O8  1  0.238297  0.238297  0.302803  1
  O  O9  1  0.011703  0.011703  0.947197  1
  O  O10  1  0.564202  0.944303  0.545339  1
  O  O11  1  0.297744  0.699657  0.292772  1
  O  O12  1  0.543362  0.543362  0.957912  1
  O  O13  1  0.944303  0.564202  0.545339  1
  O  O14  1  0.550343  0.952256  0.957228  1
  O  O15  1  0.943265  0.943265  0.554321  1
  O  O16  1  0.952256  0.550343  0.957228  1
  O  O17  1  0.699657  0.297744  0.292772  1
  O  O18  1  0.305697  0.685798  0.704661  1
  O  O19  1  0.685798  0.305697  0.704661  1
  O  O20  1  0.306735  0.306735  0.695679  1
  O  O21  1  0.706638  0.706638  0.292088  1
