# generated using pymatgen
data_La2PrTmCoI5
_symmetry_space_group_name_H-M   'P 1'
_cell_length_a   9.81796159
_cell_length_b   9.81796035
_cell_length_c   9.27269320
_cell_angle_alpha   76.51922693
_cell_angle_beta   76.51923005
_cell_angle_gamma   25.30596563
_symmetry_Int_Tables_number   1
_chemical_formula_structural   La2PrTmCoI5
_chemical_formula_sum   'La2 Pr1 Tm1 Co1 I5'
_cell_volume   370.99878114
_cell_formula_units_Z   1
loop_
 _symmetry_equiv_pos_site_id
 _symmetry_equiv_pos_as_xyz
  1  'x, y, z'
loop_
 _atom_site_type_symbol
 _atom_site_label
 _atom_site_symmetry_multiplicity
 _atom_site_fract_x
 _atom_site_fract_y
 _atom_site_fract_z
 _atom_site_occupancy
  La  La0  1  0.866873  0.866873  0.074040  1
  La  La1  1  0.132917  0.132917  0.937107  1
  Pr  Pr2  1  0.499470  0.499470  0.779707  1
  Tm  Tm3  1  0.499924  0.499924  0.201954  1
  Co  Co4  1  0.999913  0.999913  0.003583  1
  I  I5  1  0.668818  0.668818  0.181997  1
  I  I6  1  0.325858  0.325858  0.828454  1
  I  I7  1  0.668836  0.668836  0.657007  1
  I  I8  1  0.337096  0.337096  0.348690  1
  I  I9  1  0.000293  0.000293  0.487461  1
