# generated using pymatgen
data_SmNi5Sn
_symmetry_space_group_name_H-M   'P 1'
_cell_length_a   8.10320100
_cell_length_b   4.90138500
_cell_length_c   10.27091800
_cell_angle_alpha   90.00000000
_cell_angle_beta   90.00000000
_cell_angle_gamma   90.00000000
_symmetry_Int_Tables_number   1
_chemical_formula_structural   SmNi5Sn
_chemical_formula_sum   'Sm4 Ni20 Sn4'
_cell_volume   407.92910357
_cell_formula_units_Z   4
loop_
 _symmetry_equiv_pos_site_id
 _symmetry_equiv_pos_as_xyz
  1  'x, y, z'
loop_
 _atom_site_type_symbol
 _atom_site_label
 _atom_site_symmetry_multiplicity
 _atom_site_fract_x
 _atom_site_fract_y
 _atom_site_fract_z
 _atom_site_occupancy
  Sm  Sm0  1  0.750747  0.750001  0.059281  1
  Sm  Sm1  1  0.250746  0.750001  0.440718  1
  Sm  Sm2  1  0.749254  0.249999  0.559282  1
  Sm  Sm3  1  0.249254  0.249999  0.940718  1
  Ni  Ni4  1  0.914387  0.249999  0.017288  1
  Ni  Ni5  1  0.549238  0.249999  0.101143  1
  Ni  Ni6  1  0.066101  0.500595  0.190859  1
  Ni  Ni7  1  0.066101  0.999404  0.190859  1
  Ni  Ni8  1  0.812808  0.249999  0.244158  1
  Ni  Ni9  1  0.312808  0.249999  0.255842  1
  Ni  Ni10  1  0.566101  0.500595  0.309141  1
  Ni  Ni11  1  0.566101  0.999404  0.309141  1
  Ni  Ni12  1  0.049238  0.249999  0.398858  1
  Ni  Ni13  1  0.414387  0.249999  0.482712  1
  Ni  Ni14  1  0.585613  0.750001  0.517289  1
  Ni  Ni15  1  0.950762  0.750001  0.601142  1
  Ni  Ni16  1  0.433899  0.000596  0.690858  1
  Ni  Ni17  1  0.433899  0.499405  0.690858  1
  Ni  Ni18  1  0.687192  0.750001  0.744158  1
  Ni  Ni19  1  0.187192  0.750001  0.755842  1
  Ni  Ni20  1  0.933899  0.000596  0.809142  1
  Ni  Ni21  1  0.933899  0.499405  0.809142  1
  Ni  Ni22  1  0.450762  0.750001  0.898857  1
  Ni  Ni23  1  0.085613  0.750001  0.982711  1
  Sn  Sn24  1  0.358552  0.750001  0.139813  1
  Sn  Sn25  1  0.858552  0.750001  0.360187  1
  Sn  Sn26  1  0.141448  0.249999  0.639813  1
  Sn  Sn27  1  0.641448  0.249999  0.860187  1
