# generated using pymatgen
data_Tb16In3AgRuRh3
_symmetry_space_group_name_H-M   'P 1'
_cell_length_a   9.65844322
_cell_length_b   9.68736483
_cell_length_c   9.65844291
_cell_angle_alpha   60.03108318
_cell_angle_beta   59.88920828
_cell_angle_gamma   60.03108117
_symmetry_Int_Tables_number   1
_chemical_formula_structural   Tb16In3AgRuRh3
_chemical_formula_sum   'Tb16 In3 Ag1 Ru1 Rh3'
_cell_volume   638.76848712
_cell_formula_units_Z   1
loop_
 _symmetry_equiv_pos_site_id
 _symmetry_equiv_pos_as_xyz
  1  'x, y, z'
loop_
 _atom_site_type_symbol
 _atom_site_label
 _atom_site_symmetry_multiplicity
 _atom_site_fract_x
 _atom_site_fract_y
 _atom_site_fract_z
 _atom_site_occupancy
  Tb  Tb0  1  0.808577  0.807872  0.192146  1
  Tb  Tb1  1  0.808692  0.193648  0.808692  1
  Tb  Tb2  1  0.188262  0.191955  0.812477  1
  Tb  Tb3  1  0.649069  0.049565  0.649069  1
  Tb  Tb4  1  0.061756  0.061429  0.439227  1
  Tb  Tb5  1  0.441321  0.436603  0.064365  1
  Tb  Tb6  1  0.651021  0.649799  0.651021  1
  Tb  Tb7  1  0.812477  0.191955  0.188262  1
  Tb  Tb8  1  0.192146  0.807872  0.808577  1
  Tb  Tb9  1  0.047826  0.649090  0.650579  1
  Tb  Tb10  1  0.439227  0.061429  0.061756  1
  Tb  Tb11  1  0.437552  0.064710  0.437552  1
  Tb  Tb12  1  0.060613  0.438217  0.060613  1
  Tb  Tb13  1  0.650579  0.649090  0.047826  1
  Tb  Tb14  1  0.190836  0.811126  0.190836  1
  Tb  Tb15  1  0.064365  0.436603  0.441321  1
  In  In16  1  0.418302  0.417982  0.745146  1
  In  In17  1  0.418449  0.745091  0.418449  1
  In  In18  1  0.745146  0.417982  0.418302  1
  Ag  Ag19  1  0.417411  0.416628  0.417411  1
  Ru  Ru20  1  0.857111  0.424334  0.857111  1
  Rh  Rh21  1  0.857109  0.859654  0.857109  1
  Rh  Rh22  1  0.857867  0.858683  0.424288  1
  Rh  Rh23  1  0.424288  0.858683  0.857867  1
