# generated using pymatgen
data_Tm6Mn6Co16Mo
_symmetry_space_group_name_H-M   'P 1'
_cell_length_a   8.33511533
_cell_length_b   8.33511581
_cell_length_c   8.33511400
_cell_angle_alpha   60.00000718
_cell_angle_beta   60.00000527
_cell_angle_gamma   60.00000313
_symmetry_Int_Tables_number   1
_chemical_formula_structural   Tm6Mn6Co16Mo
_chemical_formula_sum   'Tm6 Mn6 Co16 Mo1'
_cell_volume   409.46788851
_cell_formula_units_Z   1
loop_
 _symmetry_equiv_pos_site_id
 _symmetry_equiv_pos_as_xyz
  1  'x, y, z'
loop_
 _atom_site_type_symbol
 _atom_site_label
 _atom_site_symmetry_multiplicity
 _atom_site_fract_x
 _atom_site_fract_y
 _atom_site_fract_z
 _atom_site_occupancy
  Tm  Tm0  1  0.712617  0.287383  0.287383  1
  Tm  Tm1  1  0.287383  0.712617  0.712617  1
  Tm  Tm2  1  0.287383  0.712617  0.287383  1
  Tm  Tm3  1  0.287383  0.287383  0.712617  1
  Tm  Tm4  1  0.712617  0.287383  0.712617  1
  Tm  Tm5  1  0.712617  0.712617  0.287383  1
  Mn  Mn6  1  0.500000  0.000000  0.000000  1
  Mn  Mn7  1  0.000000  0.500000  0.500000  1
  Mn  Mn8  1  0.000000  0.500000  0.000000  1
  Mn  Mn9  1  0.000000  0.000000  0.500000  1
  Mn  Mn10  1  0.500000  0.000000  0.500000  1
  Mn  Mn11  1  0.500000  0.500000  0.000000  1
  Co  Co12  1  0.323562  0.323562  0.323562  1
  Co  Co13  1  0.323562  0.323562  0.029317  1
  Co  Co14  1  0.029317  0.323562  0.323562  1
  Co  Co15  1  0.323562  0.029317  0.323562  1
  Co  Co16  1  0.676438  0.676438  0.676438  1
  Co  Co17  1  0.676438  0.676438  0.970683  1
  Co  Co18  1  0.676438  0.970683  0.676438  1
  Co  Co19  1  0.970683  0.676438  0.676438  1
  Co  Co20  1  0.122874  0.122874  0.122874  1
  Co  Co21  1  0.122874  0.122874  0.631377  1
  Co  Co22  1  0.631377  0.122874  0.122874  1
  Co  Co23  1  0.122874  0.631377  0.122874  1
  Co  Co24  1  0.877126  0.877126  0.877126  1
  Co  Co25  1  0.877126  0.877126  0.368623  1
  Co  Co26  1  0.877126  0.368623  0.877126  1
  Co  Co27  1  0.368623  0.877126  0.877126  1
  Mo  Mo28  1  0.000000  0.000000  0.000000  1
