# generated using pymatgen
data_Tb6Zr2(Al2Os)7
_symmetry_space_group_name_H-M   'P 1'
_cell_length_a   9.02397889
_cell_length_b   9.01314044
_cell_length_c   9.01314000
_cell_angle_alpha   59.85880513
_cell_angle_beta   59.96021445
_cell_angle_gamma   59.96020885
_symmetry_Int_Tables_number   1
_chemical_formula_structural   Tb6Zr2(Al2Os)7
_chemical_formula_sum   'Tb6 Zr2 Al14 Os7'
_cell_volume   517.49822799
_cell_formula_units_Z   1
loop_
 _symmetry_equiv_pos_site_id
 _symmetry_equiv_pos_as_xyz
  1  'x, y, z'
loop_
 _atom_site_type_symbol
 _atom_site_label
 _atom_site_symmetry_multiplicity
 _atom_site_fract_x
 _atom_site_fract_y
 _atom_site_fract_z
 _atom_site_occupancy
  Tb  Tb0  1  0.705718  0.709690  0.286053  1
  Tb  Tb1  1  0.298540  0.709690  0.286053  1
  Tb  Tb2  1  0.700881  0.299119  0.299119  1
  Tb  Tb3  1  0.298540  0.286053  0.709690  1
  Tb  Tb4  1  0.705718  0.286053  0.709690  1
  Tb  Tb5  1  0.284986  0.715014  0.715014  1
  Zr  Zr6  1  0.879931  0.883209  0.356928  1
  Zr  Zr7  1  0.879931  0.356928  0.883209  1
  Al  Al8  1  0.364786  0.879202  0.879202  1
  Al  Al9  1  0.876808  0.879202  0.879202  1
  Al  Al10  1  0.121506  0.126412  0.630577  1
  Al  Al11  1  0.121506  0.630577  0.126412  1
  Al  Al12  1  0.637993  0.120126  0.120126  1
  Al  Al13  1  0.121756  0.120126  0.120126  1
  Al  Al14  1  0.667482  0.671666  0.993373  1
  Al  Al15  1  0.667482  0.993373  0.671666  1
  Al  Al16  1  0.997857  0.669173  0.669173  1
  Al  Al17  1  0.663799  0.669173  0.669173  1
  Al  Al18  1  0.330823  0.331500  0.006852  1
  Al  Al19  1  0.330823  0.006852  0.331500  1
  Al  Al20  1  0.004197  0.332159  0.332159  1
  Al  Al21  1  0.331482  0.332159  0.332159  1
  Os  Os22  1  0.010131  0.989869  0.989869  1
  Os  Os23  1  0.001924  0.999992  0.501475  1
  Os  Os24  1  0.496609  0.999992  0.501475  1
  Os  Os25  1  0.000594  0.499406  0.499406  1
  Os  Os26  1  0.496609  0.501475  0.999992  1
  Os  Os27  1  0.001924  0.501475  0.999992  1
  Os  Os28  1  0.499661  0.000339  0.000339  1
