# generated using pymatgen
data_SmDy(Si7Rh3)2
_symmetry_space_group_name_H-M   'P 1'
_cell_length_a   8.01533166
_cell_length_b   8.01533219
_cell_length_c   8.01533177
_cell_angle_alpha   57.07773463
_cell_angle_beta   57.07773378
_cell_angle_gamma   57.07772552
_symmetry_Int_Tables_number   1
_chemical_formula_structural   SmDy(Si7Rh3)2
_chemical_formula_sum   'Sm1 Dy1 Si14 Rh6'
_cell_volume   339.59867375
_cell_formula_units_Z   1
loop_
 _symmetry_equiv_pos_site_id
 _symmetry_equiv_pos_as_xyz
  1  'x, y, z'
loop_
 _atom_site_type_symbol
 _atom_site_label
 _atom_site_symmetry_multiplicity
 _atom_site_fract_x
 _atom_site_fract_y
 _atom_site_fract_z
 _atom_site_occupancy
  Sm  Sm0  1  0.000000  0.000000  0.000000  1
  Dy  Dy1  1  0.500000  0.500000  0.500000  1
  Si  Si2  1  0.749886  0.749886  0.749886  1
  Si  Si3  1  0.250114  0.250114  0.250114  1
  Si  Si4  1  0.851254  0.065180  0.672110  1
  Si  Si5  1  0.672110  0.851254  0.065180  1
  Si  Si6  1  0.065180  0.672110  0.851254  1
  Si  Si7  1  0.647912  0.827347  0.435343  1
  Si  Si8  1  0.435343  0.647912  0.827347  1
  Si  Si9  1  0.827347  0.435343  0.647912  1
  Si  Si10  1  0.172653  0.564657  0.352088  1
  Si  Si11  1  0.564657  0.352088  0.172653  1
  Si  Si12  1  0.352088  0.172653  0.564657  1
  Si  Si13  1  0.934820  0.327890  0.148746  1
  Si  Si14  1  0.327890  0.148746  0.934820  1
  Si  Si15  1  0.148746  0.934820  0.327890  1
  Rh  Rh16  1  0.070030  0.431336  0.748905  1
  Rh  Rh17  1  0.251095  0.929970  0.568664  1
  Rh  Rh18  1  0.568664  0.251095  0.929970  1
  Rh  Rh19  1  0.929970  0.568664  0.251095  1
  Rh  Rh20  1  0.431336  0.748905  0.070030  1
  Rh  Rh21  1  0.748905  0.070030  0.431336  1
