# generated using pymatgen
data_K2BiSb3Au4
_symmetry_space_group_name_H-M   'P 1'
_cell_length_a   4.85570900
_cell_length_b   5.01411800
_cell_length_c   11.32705241
_cell_angle_alpha   88.20256356
_cell_angle_beta   90.00000000
_cell_angle_gamma   90.00000000
_symmetry_Int_Tables_number   1
_chemical_formula_structural   K2BiSb3Au4
_chemical_formula_sum   'K2 Bi1 Sb3 Au4'
_cell_volume   275.64515983
_cell_formula_units_Z   1
loop_
 _symmetry_equiv_pos_site_id
 _symmetry_equiv_pos_as_xyz
  1  'x, y, z'
loop_
 _atom_site_type_symbol
 _atom_site_label
 _atom_site_symmetry_multiplicity
 _atom_site_fract_x
 _atom_site_fract_y
 _atom_site_fract_z
 _atom_site_occupancy
  K  K0  1  0.250000  0.737199  0.759730  1
  K  K1  1  0.750000  0.262666  0.240770  1
  Bi  Bi2  1  0.750000  0.753304  0.500829  1
  Sb  Sb3  1  0.250000  0.248854  0.500117  1
  Sb  Sb4  1  0.250000  0.801102  0.118920  1
  Sb  Sb5  1  0.750000  0.198249  0.880628  1
  Au  Au6  1  0.750000  0.690015  0.001019  1
  Au  Au7  1  0.750000  0.247756  0.639935  1
  Au  Au8  1  0.250000  0.750174  0.359160  1
  Au  Au9  1  0.250000  0.310682  0.998891  1
