# generated using pymatgen
data_Tb4Pr2EuRuI12
_symmetry_space_group_name_H-M   'P 1'
_cell_length_a   10.01304920
_cell_length_b   9.95466871
_cell_length_c   9.96547385
_cell_angle_alpha   106.62415263
_cell_angle_beta   106.37539606
_cell_angle_gamma   106.90717487
_symmetry_Int_Tables_number   1
_chemical_formula_structural   Tb4Pr2EuRuI12
_chemical_formula_sum   'Tb4 Pr2 Eu1 Ru1 I12'
_cell_volume   835.32344877
_cell_formula_units_Z   1
loop_
 _symmetry_equiv_pos_site_id
 _symmetry_equiv_pos_as_xyz
  1  'x, y, z'
loop_
 _atom_site_type_symbol
 _atom_site_label
 _atom_site_symmetry_multiplicity
 _atom_site_fract_x
 _atom_site_fract_y
 _atom_site_fract_z
 _atom_site_occupancy
  Tb  Tb0  1  0.697859  0.976806  0.904280  1
  Tb  Tb1  1  0.093894  0.289834  0.023416  1
  Tb  Tb2  1  0.022874  0.095236  0.288642  1
  Tb  Tb3  1  0.303343  0.024358  0.099440  1
  Pr  Pr4  1  0.903764  0.700924  0.976947  1
  Pr  Pr5  1  0.978299  0.906007  0.702490  1
  Eu  Eu6  1  0.499648  0.500446  0.499944  1
  Ru  Ru7  1  0.000539  0.999184  0.999823  1
  I  I8  1  0.621781  0.857426  0.550428  1
  I  I9  1  0.541763  0.628514  0.853376  1
  I  I10  1  0.850058  0.539334  0.619327  1
  I  I11  1  0.368573  0.142685  0.449334  1
  I  I12  1  0.448070  0.371067  0.142387  1
  I  I13  1  0.143435  0.448981  0.369939  1
  I  I14  1  0.683090  0.073974  0.222853  1
  I  I15  1  0.230577  0.684419  0.076402  1
  I  I16  1  0.077263  0.233743  0.686651  1
  I  I17  1  0.327972  0.929339  0.784343  1
  I  I18  1  0.779426  0.314132  0.927174  1
  I  I19  1  0.927772  0.783592  0.322805  1
