# generated using pymatgen
data_LiTb3(B6Os)2
_symmetry_space_group_name_H-M   'P 1'
_cell_length_a   3.61025600
_cell_length_b   9.01942125
_cell_length_c   11.41774902
_cell_angle_alpha   89.75825083
_cell_angle_beta   90.00000000
_cell_angle_gamma   90.00000000
_symmetry_Int_Tables_number   1
_chemical_formula_structural   LiTb3(B6Os)2
_chemical_formula_sum   'Li2 Tb6 B24 Os4'
_cell_volume   371.78622592
_cell_formula_units_Z   2
loop_
 _symmetry_equiv_pos_site_id
 _symmetry_equiv_pos_as_xyz
  1  'x, y, z'
loop_
 _atom_site_type_symbol
 _atom_site_label
 _atom_site_symmetry_multiplicity
 _atom_site_fract_x
 _atom_site_fract_y
 _atom_site_fract_z
 _atom_site_occupancy
  Li  Li0  1  0.000000  0.945410  0.376375  1
  Li  Li1  1  0.000000  0.054590  0.623626  1
  Tb  Tb2  1  0.000000  0.315650  0.415919  1
  Tb  Tb3  1  0.000000  0.684350  0.584081  1
  Tb  Tb4  1  0.000000  0.825040  0.088362  1
  Tb  Tb5  1  0.000000  0.174960  0.911638  1
  Tb  Tb6  1  0.000000  0.441931  0.132182  1
  Tb  Tb7  1  0.000000  0.558069  0.867817  1
  B  B8  1  0.500000  0.555747  0.433737  1
  B  B9  1  0.500000  0.444253  0.566263  1
  B  B10  1  0.500000  0.052657  0.068779  1
  B  B11  1  0.500000  0.947343  0.931221  1
  B  B12  1  0.500000  0.760222  0.418208  1
  B  B13  1  0.500000  0.239778  0.581792  1
  B  B14  1  0.500000  0.246196  0.083309  1
  B  B15  1  0.500000  0.753804  0.916691  1
  B  B16  1  0.500000  0.796283  0.266636  1
  B  B17  1  0.500000  0.203717  0.733364  1
  B  B18  1  0.500000  0.285897  0.237470  1
  B  B19  1  0.500000  0.714102  0.762530  1
  B  B20  1  0.500000  0.633236  0.187874  1
  B  B21  1  0.500000  0.366764  0.812126  1
  B  B22  1  0.500000  0.121470  0.320128  1
  B  B23  1  0.500000  0.878530  0.679872  1
  B  B24  1  0.500000  0.978552  0.215729  1
  B  B25  1  0.500000  0.021448  0.784271  1
  B  B26  1  0.500000  0.483863  0.290611  1
  B  B27  1  0.500000  0.516137  0.709389  1
  B  B28  1  0.500000  0.604191  0.028289  1
  B  B29  1  0.500000  0.395809  0.971711  1
  B  B30  1  0.500000  0.090644  0.474474  1
  B  B31  1  0.500000  0.909356  0.525526  1
  Os  Os32  1  0.000000  0.644205  0.324110  1
  Os  Os33  1  0.000000  0.355795  0.675890  1
  Os  Os34  1  0.000000  0.133143  0.184891  1
  Os  Os35  1  0.000000  0.866857  0.815109  1
