# generated using pymatgen
data_YbTlAg2(NO3)8
_symmetry_space_group_name_H-M   'P 1'
_cell_length_a   8.20698746
_cell_length_b   8.01648471
_cell_length_c   7.83134440
_cell_angle_alpha   90.43870321
_cell_angle_beta   88.50000120
_cell_angle_gamma   90.05896475
_symmetry_Int_Tables_number   1
_chemical_formula_structural   YbTlAg2(NO3)8
_chemical_formula_sum   'Yb1 Tl1 Ag2 N8 O24'
_cell_volume   515.04163121
_cell_formula_units_Z   1
loop_
 _symmetry_equiv_pos_site_id
 _symmetry_equiv_pos_as_xyz
  1  'x, y, z'
loop_
 _atom_site_type_symbol
 _atom_site_label
 _atom_site_symmetry_multiplicity
 _atom_site_fract_x
 _atom_site_fract_y
 _atom_site_fract_z
 _atom_site_occupancy
  Yb  Yb0  1  0.000000  0.000000  0.000000  1
  Tl  Tl1  1  0.000000  0.500000  0.500000  1
  Ag  Ag2  1  0.500000  0.500000  0.000000  1
  Ag  Ag3  1  0.500000  0.000000  0.500000  1
  N  N4  1  0.327202  0.342308  0.328368  1
  N  N5  1  0.336643  0.164916  0.831788  1
  N  N6  1  0.161913  0.824360  0.335779  1
  N  N7  1  0.846979  0.322382  0.174655  1
  N  N8  1  0.672798  0.657692  0.671632  1
  N  N9  1  0.153021  0.677618  0.825345  1
  N  N10  1  0.838087  0.175640  0.664221  1
  N  N11  1  0.663357  0.835084  0.168212  1
  O  O12  1  0.753596  0.298185  0.053988  1
  O  O13  1  0.174389  0.945485  0.235216  1
  O  O14  1  0.257737  0.799734  0.453130  1
  O  O15  1  0.229940  0.179227  0.949786  1
  O  O16  1  0.223834  0.319463  0.453257  1
  O  O17  1  0.446133  0.245899  0.313085  1
  O  O18  1  0.305145  0.460459  0.226047  1
  O  O19  1  0.176204  0.548627  0.727973  1
  O  O20  1  0.959306  0.277533  0.688721  1
  O  O21  1  0.676564  0.955319  0.274612  1
  O  O22  1  0.036743  0.776042  0.796543  1
  O  O23  1  0.545782  0.734833  0.182803  1
  O  O24  1  0.825611  0.054515  0.764784  1
  O  O25  1  0.742263  0.200266  0.546870  1
  O  O26  1  0.770060  0.820773  0.050214  1
  O  O27  1  0.246404  0.701815  0.946012  1
  O  O28  1  0.776166  0.680537  0.546743  1
  O  O29  1  0.553867  0.754101  0.686915  1
  O  O30  1  0.694855  0.539541  0.773953  1
  O  O31  1  0.823796  0.451373  0.272027  1
  O  O32  1  0.040694  0.722467  0.311279  1
  O  O33  1  0.323436  0.044681  0.725388  1
  O  O34  1  0.963257  0.223958  0.203457  1
  O  O35  1  0.454218  0.265167  0.817197  1
