# generated using pymatgen
data_Li2DyY(SiO4)2
_symmetry_space_group_name_H-M   'P 1'
_cell_length_a   5.44960809
_cell_length_b   10.94655693
_cell_length_c   6.24275300
_cell_angle_alpha   89.99995333
_cell_angle_beta   90.00001971
_cell_angle_gamma   113.61779530
_symmetry_Int_Tables_number   1
_chemical_formula_structural   Li2DyY(SiO4)2
_chemical_formula_sum   'Li4 Dy2 Y2 Si4 O16'
_cell_volume   341.21445842
_cell_formula_units_Z   2
loop_
 _symmetry_equiv_pos_site_id
 _symmetry_equiv_pos_as_xyz
  1  'x, y, z'
loop_
 _atom_site_type_symbol
 _atom_site_label
 _atom_site_symmetry_multiplicity
 _atom_site_fract_x
 _atom_site_fract_y
 _atom_site_fract_z
 _atom_site_occupancy
  Li  Li0  1  0.919211  0.570038  0.134123  1
  Li  Li1  1  0.919212  0.070036  0.365877  1
  Li  Li2  1  0.080737  0.930068  0.633851  1
  Li  Li3  1  0.080739  0.430067  0.866149  1
  Dy  Dy4  1  0.445166  0.151896  0.116723  1
  Dy  Dy5  1  0.445170  0.651898  0.383277  1
  Y  Y6  1  0.554427  0.347754  0.616555  1
  Y  Y7  1  0.554427  0.847754  0.883444  1
  Si  Si8  1  0.095700  0.859051  0.152255  1
  Si  Si9  1  0.095703  0.359053  0.347747  1
  Si  Si10  1  0.904375  0.640985  0.651517  1
  Si  Si11  1  0.904376  0.140986  0.848481  1
  O  O12  1  0.773098  0.055334  0.071117  1
  O  O13  1  0.768991  0.776169  0.142197  1
  O  O14  1  0.185331  0.475851  0.163233  1
  O  O15  1  0.241355  0.752404  0.162773  1
  O  O16  1  0.241354  0.252404  0.337230  1
  O  O17  1  0.185322  0.975849  0.336768  1
  O  O18  1  0.768991  0.276170  0.357801  1
  O  O19  1  0.773094  0.555334  0.428882  1
  O  O20  1  0.226125  0.444706  0.570561  1
  O  O21  1  0.231134  0.723471  0.640544  1
  O  O22  1  0.815609  0.024677  0.663239  1
  O  O23  1  0.758746  0.747598  0.661736  1
  O  O24  1  0.758741  0.247596  0.838263  1
  O  O25  1  0.815604  0.524678  0.836760  1
  O  O26  1  0.231134  0.223470  0.859454  1
  O  O27  1  0.226128  0.944705  0.929441  1
