# generated using pymatgen
data_La2Gd3US10
_symmetry_space_group_name_H-M   'P 1'
_cell_length_a   7.56392400
_cell_length_b   8.09570225
_cell_length_c   11.97613300
_cell_angle_alpha   90.00000000
_cell_angle_beta   90.00000000
_cell_angle_gamma   89.94863289
_symmetry_Int_Tables_number   1
_chemical_formula_structural   La2Gd3US10
_chemical_formula_sum   'La4 Gd6 U2 S20'
_cell_volume   733.36152180
_cell_formula_units_Z   2
loop_
 _symmetry_equiv_pos_site_id
 _symmetry_equiv_pos_as_xyz
  1  'x, y, z'
loop_
 _atom_site_type_symbol
 _atom_site_label
 _atom_site_symmetry_multiplicity
 _atom_site_fract_x
 _atom_site_fract_y
 _atom_site_fract_z
 _atom_site_occupancy
  La  La0  1  0.525992  0.503593  0.324853  1
  La  La1  1  0.974008  0.996407  0.824853  1
  La  La2  1  0.478562  0.000235  0.675304  1
  La  La3  1  0.021438  0.499765  0.175304  1
  Gd  Gd4  1  0.485969  0.504999  0.680488  1
  Gd  Gd5  1  0.014031  0.995001  0.180488  1
  Gd  Gd6  1  0.522767  0.999752  0.320120  1
  Gd  Gd7  1  0.977233  0.500248  0.820120  1
  Gd  Gd8  1  0.076091  0.749084  0.492638  1
  Gd  Gd9  1  0.423909  0.750916  0.992638  1
  U  U10  1  0.942482  0.248072  0.506088  1
  U  U11  1  0.557518  0.251928  0.006088  1
  S  S12  1  0.842174  0.968396  0.595707  1
  S  S13  1  0.657826  0.531604  0.095707  1
  S  S14  1  0.159173  0.451352  0.404225  1
  S  S15  1  0.340827  0.048648  0.904225  1
  S  S16  1  0.164108  0.047005  0.402629  1
  S  S17  1  0.335892  0.452995  0.902629  1
  S  S18  1  0.837620  0.529254  0.597807  1
  S  S19  1  0.662380  0.970746  0.097807  1
  S  S20  1  0.828232  0.758135  0.310725  1
  S  S21  1  0.671768  0.741865  0.810725  1
  S  S22  1  0.166955  0.256317  0.682882  1
  S  S23  1  0.333045  0.243683  0.182882  1
  S  S24  1  0.458895  0.750445  0.498722  1
  S  S25  1  0.041105  0.749555  0.998722  1
  S  S26  1  0.551584  0.250191  0.500416  1
  S  S27  1  0.948416  0.249809  0.000416  1
  S  S28  1  0.197721  0.740345  0.716882  1
  S  S29  1  0.302279  0.759655  0.216882  1
  S  S30  1  0.807481  0.241096  0.290515  1
  S  S31  1  0.692519  0.258904  0.790515  1
