# generated using pymatgen
data_UBr5Cl
_symmetry_space_group_name_H-M   'P 1'
_cell_length_a   12.50441800
_cell_length_b   12.50441744
_cell_length_c   6.83471200
_cell_angle_alpha   90.00000000
_cell_angle_beta   90.00000000
_cell_angle_gamma   120.00000148
_symmetry_Int_Tables_number   1
_chemical_formula_structural   UBr5Cl
_chemical_formula_sum   'U3 Br15 Cl3'
_cell_volume   925.50291432
_cell_formula_units_Z   3
loop_
 _symmetry_equiv_pos_site_id
 _symmetry_equiv_pos_as_xyz
  1  'x, y, z'
loop_
 _atom_site_type_symbol
 _atom_site_label
 _atom_site_symmetry_multiplicity
 _atom_site_fract_x
 _atom_site_fract_y
 _atom_site_fract_z
 _atom_site_occupancy
  U  U0  1  0.666667  0.333333  0.504782  1
  U  U1  1  0.333333  0.666667  0.484987  1
  U  U2  1  0.000000  0.000000  0.000184  1
  Br  Br3  1  0.233956  0.766044  0.708129  1
  Br  Br4  1  0.233956  0.467911  0.708129  1
  Br  Br5  1  0.532089  0.766044  0.708129  1
  Br  Br6  1  0.099340  0.900660  0.223341  1
  Br  Br7  1  0.099340  0.198682  0.223341  1
  Br  Br8  1  0.801318  0.900660  0.223341  1
  Br  Br9  1  0.198682  0.099340  0.776772  1
  Br  Br10  1  0.900660  0.801318  0.776772  1
  Br  Br11  1  0.900660  0.099340  0.776772  1
  Br  Br12  1  0.432787  0.567213  0.262257  1
  Br  Br13  1  0.432787  0.865573  0.262257  1
  Br  Br14  1  0.134427  0.567213  0.262257  1
  Br  Br15  1  0.863234  0.431617  0.732317  1
  Br  Br16  1  0.568383  0.136766  0.732317  1
  Br  Br17  1  0.568383  0.431617  0.732317  1
  Cl  Cl18  1  0.760905  0.239095  0.300533  1
  Cl  Cl19  1  0.760905  0.521810  0.300533  1
  Cl  Cl20  1  0.478190  0.239095  0.300533  1
