# generated using pymatgen
data_CaTb3SnSb5Rh7
_symmetry_space_group_name_H-M   'P 1'
_cell_length_a   7.62712587
_cell_length_b   7.63922958
_cell_length_c   7.63922902
_cell_angle_alpha   109.59176550
_cell_angle_beta   109.39403045
_cell_angle_gamma   109.39402449
_symmetry_Int_Tables_number   1
_chemical_formula_structural   CaTb3SnSb5Rh7
_chemical_formula_sum   'Ca1 Tb3 Sn1 Sb5 Rh7'
_cell_volume   342.78204923
_cell_formula_units_Z   1
loop_
 _symmetry_equiv_pos_site_id
 _symmetry_equiv_pos_as_xyz
  1  'x, y, z'
loop_
 _atom_site_type_symbol
 _atom_site_label
 _atom_site_symmetry_multiplicity
 _atom_site_fract_x
 _atom_site_fract_y
 _atom_site_fract_z
 _atom_site_occupancy
  Ca  Ca0  1  0.497691  0.000379  0.000379  1
  Tb  Tb1  1  0.000184  0.502875  0.000622  1
  Tb  Tb2  1  0.000184  0.000622  0.502875  1
  Tb  Tb3  1  0.502338  0.502910  0.502910  1
  Sn  Sn4  1  0.996584  0.312783  0.312783  1
  Sb  Sb5  1  0.680596  0.001643  0.685896  1
  Sb  Sb6  1  0.680596  0.685896  0.001643  1
  Sb  Sb7  1  0.002766  0.677393  0.677393  1
  Sb  Sb8  1  0.319333  0.002284  0.318228  1
  Sb  Sb9  1  0.319333  0.318228  0.002284  1
  Rh  Rh10  1  0.999576  0.994495  0.994495  1
  Rh  Rh11  1  0.500226  0.749176  0.254280  1
  Rh  Rh12  1  0.752088  0.505424  0.250837  1
  Rh  Rh13  1  0.248095  0.747417  0.493357  1
  Rh  Rh14  1  0.248095  0.493357  0.747417  1
  Rh  Rh15  1  0.500226  0.254280  0.749176  1
  Rh  Rh16  1  0.752088  0.250837  0.505424  1
