# generated using pymatgen
data_Sr8Fe2PtRhO16
_symmetry_space_group_name_H-M   'P 1'
_cell_length_a   5.61528449
_cell_length_b   5.61546744
_cell_length_c   13.27029436
_cell_angle_alpha   102.19808779
_cell_angle_beta   102.19532579
_cell_angle_gamma   90.00137403
_symmetry_Int_Tables_number   1
_chemical_formula_structural   Sr8Fe2PtRhO16
_chemical_formula_sum   'Sr8 Fe2 Pt1 Rh1 O16'
_cell_volume   399.33080772
_cell_formula_units_Z   1
loop_
 _symmetry_equiv_pos_site_id
 _symmetry_equiv_pos_as_xyz
  1  'x, y, z'
loop_
 _atom_site_type_symbol
 _atom_site_label
 _atom_site_symmetry_multiplicity
 _atom_site_fract_x
 _atom_site_fract_y
 _atom_site_fract_z
 _atom_site_occupancy
  Sr  Sr0  1  0.824100  0.824045  0.645256  1
  Sr  Sr1  1  0.073920  0.574350  0.145230  1
  Sr  Sr2  1  0.178196  0.177970  0.354741  1
  Sr  Sr3  1  0.428211  0.928003  0.854776  1
  Sr  Sr4  1  0.320875  0.320400  0.643229  1
  Sr  Sr5  1  0.570309  0.070726  0.143150  1
  Sr  Sr6  1  0.676869  0.677209  0.356774  1
  Sr  Sr7  1  0.927234  0.426904  0.856845  1
  Fe  Fe8  1  0.999790  0.000037  0.000000  1
  Fe  Fe9  1  0.250040  0.749901  0.500005  1
  Pt  Pt10  1  0.499997  0.500433  0.999998  1
  Rh  Rh11  1  0.750146  0.250114  0.499990  1
  O  O12  1  0.005851  0.489733  0.499987  1
  O  O13  1  0.915635  0.921911  0.838118  1
  O  O14  1  0.083439  0.077006  0.161883  1
  O  O15  1  0.173077  0.666797  0.340266  1
  O  O16  1  0.325981  0.832130  0.659739  1
  O  O17  1  0.240353  0.739602  0.997738  1
  O  O18  1  0.259311  0.241457  0.999967  1
  O  O19  1  0.494442  0.010123  0.499976  1
  O  O20  1  0.511436  0.506759  0.502033  1
  O  O21  1  0.421673  0.416177  0.836861  1
  O  O22  1  0.578942  0.584737  0.163135  1
  O  O23  1  0.667822  0.173586  0.340109  1
  O  O24  1  0.833034  0.327106  0.659889  1
  O  O25  1  0.740429  0.758658  0.999919  1
  O  O26  1  0.759909  0.260794  0.002375  1
  O  O27  1  0.988981  0.993334  0.498008  1
