# generated using pymatgen
data_Ho2ErTm3(RuI3)2
_symmetry_space_group_name_H-M   'P 1'
_cell_length_a   4.18178000
_cell_length_b   8.83283809
_cell_length_c   12.27677058
_cell_angle_alpha   94.46016537
_cell_angle_beta   90.00000000
_cell_angle_gamma   90.00000000
_symmetry_Int_Tables_number   1
_chemical_formula_structural   Ho2ErTm3(RuI3)2
_chemical_formula_sum   'Ho2 Er1 Tm3 Ru2 I6'
_cell_volume   452.09363872
_cell_formula_units_Z   1
loop_
 _symmetry_equiv_pos_site_id
 _symmetry_equiv_pos_as_xyz
  1  'x, y, z'
loop_
 _atom_site_type_symbol
 _atom_site_label
 _atom_site_symmetry_multiplicity
 _atom_site_fract_x
 _atom_site_fract_y
 _atom_site_fract_z
 _atom_site_occupancy
  Ho  Ho0  1  0.750000  0.263213  0.603485  1
  Ho  Ho1  1  0.250000  0.736913  0.396197  1
  Er  Er2  1  0.250000  0.104565  0.813664  1
  Tm  Tm3  1  0.750000  0.873493  0.626055  1
  Tm  Tm4  1  0.250000  0.126424  0.373696  1
  Tm  Tm5  1  0.750000  0.895410  0.187143  1
  Ru  Ru6  1  0.750000  0.943577  0.407808  1
  Ru  Ru7  1  0.250000  0.056287  0.591820  1
  I  I8  1  0.750000  0.422314  0.366188  1
  I  I9  1  0.250000  0.577740  0.633769  1
  I  I10  1  0.750000  0.864200  0.890126  1
  I  I11  1  0.250000  0.135227  0.110039  1
  I  I12  1  0.750000  0.358408  0.866233  1
  I  I13  1  0.250000  0.642230  0.133776  1
