# generated using pymatgen
data_Er3Tm2PtPb3
_symmetry_space_group_name_H-M   'P 1'
_cell_length_a   9.13290200
_cell_length_b   9.13341890
_cell_length_c   6.77095400
_cell_angle_alpha   90.00000000
_cell_angle_beta   90.00000000
_cell_angle_gamma   119.99812790
_symmetry_Int_Tables_number   1
_chemical_formula_structural   Er3Tm2PtPb3
_chemical_formula_sum   'Er6 Tm4 Pt2 Pb6'
_cell_volume   489.13738989
_cell_formula_units_Z   2
loop_
 _symmetry_equiv_pos_site_id
 _symmetry_equiv_pos_as_xyz
  1  'x, y, z'
loop_
 _atom_site_type_symbol
 _atom_site_label
 _atom_site_symmetry_multiplicity
 _atom_site_fract_x
 _atom_site_fract_y
 _atom_site_fract_z
 _atom_site_occupancy
  Er  Er0  1  0.755547  0.755560  0.250000  1
  Er  Er1  1  0.000013  0.755560  0.750000  1
  Er  Er2  1  0.333328  0.666658  0.500000  1
  Er  Er3  1  0.666625  0.333249  0.500000  1
  Er  Er4  1  0.333328  0.666658  0.000000  1
  Er  Er5  1  0.666625  0.333249  0.000000  1
  Tm  Tm6  1  0.244193  0.000019  0.250000  1
  Tm  Tm7  1  0.244095  0.244100  0.750000  1
  Tm  Tm8  1  0.000004  0.244100  0.250000  1
  Tm  Tm9  1  0.755827  0.000019  0.750000  1
  Pt  Pt10  1  0.000272  0.000545  0.000000  1
  Pt  Pt11  1  0.000272  0.000545  0.500000  1
  Pb  Pb12  1  0.401548  0.000065  0.750000  1
  Pb  Pb13  1  0.598518  0.000065  0.250000  1
  Pb  Pb14  1  0.401238  0.401232  0.250000  1
  Pb  Pb15  1  0.000082  0.598572  0.250000  1
  Pb  Pb16  1  0.999994  0.401232  0.750000  1
  Pb  Pb17  1  0.598489  0.598572  0.750000  1
