# generated using pymatgen
data_ScNb2Ir8Rh
_symmetry_space_group_name_H-M   'P 1'
_cell_length_a   5.57345338
_cell_length_b   5.57080813
_cell_length_c   13.57869608
_cell_angle_alpha   90.00043641
_cell_angle_beta   89.99232447
_cell_angle_gamma   119.97016280
_symmetry_Int_Tables_number   1
_chemical_formula_structural   ScNb2Ir8Rh
_chemical_formula_sum   'Sc2 Nb4 Ir16 Rh2'
_cell_volume   365.22606538
_cell_formula_units_Z   2
loop_
 _symmetry_equiv_pos_site_id
 _symmetry_equiv_pos_as_xyz
  1  'x, y, z'
loop_
 _atom_site_type_symbol
 _atom_site_label
 _atom_site_symmetry_multiplicity
 _atom_site_fract_x
 _atom_site_fract_y
 _atom_site_fract_z
 _atom_site_occupancy
  Sc  Sc0  1  0.999869  0.999801  0.250023  1
  Sc  Sc1  1  0.001266  0.000516  0.749591  1
  Nb  Nb2  1  0.333600  0.666208  0.410678  1
  Nb  Nb3  1  0.665997  0.332757  0.589070  1
  Nb  Nb4  1  0.666150  0.333007  0.910701  1
  Nb  Nb5  1  0.333195  0.666672  0.089344  1
  Ir  Ir6  1  0.503301  0.495930  0.250342  1
  Ir  Ir7  1  0.503171  0.006717  0.250086  1
  Ir  Ir8  1  0.993524  0.496575  0.250079  1
  Ir  Ir9  1  0.495815  0.502856  0.749592  1
  Ir  Ir10  1  0.496352  0.993027  0.750148  1
  Ir  Ir11  1  0.167807  0.335608  0.919349  1
  Ir  Ir12  1  0.665042  0.832827  0.918518  1
  Ir  Ir13  1  0.168329  0.832540  0.919394  1
  Ir  Ir14  1  0.832079  0.664483  0.081029  1
  Ir  Ir15  1  0.335950  0.168036  0.080573  1
  Ir  Ir16  1  0.832221  0.167827  0.081199  1
  Ir  Ir17  1  0.832487  0.665144  0.418823  1
  Ir  Ir18  1  0.335329  0.167647  0.419263  1
  Ir  Ir19  1  0.832223  0.167627  0.419349  1
  Ir  Ir20  1  0.168727  0.336193  0.580471  1
  Ir  Ir21  1  0.663893  0.832094  0.581327  1
  Rh  Rh22  1  0.006037  0.503033  0.750060  1
  Rh  Rh23  1  0.167637  0.832877  0.580993  1
