# generated using pymatgen
data_KCaPr2CuSe5
_symmetry_space_group_name_H-M   'P 1'
_cell_length_a   4.24694900
_cell_length_b   7.45905840
_cell_length_c   18.55491700
_cell_angle_alpha   90.00000000
_cell_angle_beta   90.00000000
_cell_angle_gamma   73.46003596
_symmetry_Int_Tables_number   1
_chemical_formula_structural   KCaPr2CuSe5
_chemical_formula_sum   'K2 Ca2 Pr4 Cu2 Se10'
_cell_volume   563.46531646
_cell_formula_units_Z   2
loop_
 _symmetry_equiv_pos_site_id
 _symmetry_equiv_pos_as_xyz
  1  'x, y, z'
loop_
 _atom_site_type_symbol
 _atom_site_label
 _atom_site_symmetry_multiplicity
 _atom_site_fract_x
 _atom_site_fract_y
 _atom_site_fract_z
 _atom_site_occupancy
  K  K0  1  0.522285  0.955433  0.250000  1
  K  K1  1  0.477716  0.044567  0.750000  1
  Ca  Ca2  1  0.000000  0.000000  0.000000  1
  Ca  Ca3  1  0.000000  0.000000  0.500000  1
  Pr  Pr4  1  0.270088  0.459824  0.103331  1
  Pr  Pr5  1  0.270088  0.459824  0.396669  1
  Pr  Pr6  1  0.729913  0.540176  0.603331  1
  Pr  Pr7  1  0.729913  0.540176  0.896670  1
  Cu  Cu8  1  0.797443  0.405116  0.250000  1
  Cu  Cu9  1  0.202558  0.594883  0.750000  1
  Se  Se10  1  0.635641  0.728720  0.046419  1
  Se  Se11  1  0.902114  0.195774  0.141685  1
  Se  Se12  1  0.199176  0.601646  0.250000  1
  Se  Se13  1  0.902114  0.195774  0.358315  1
  Se  Se14  1  0.635641  0.728720  0.453582  1
  Se  Se15  1  0.364360  0.271280  0.546418  1
  Se  Se16  1  0.097886  0.804226  0.641685  1
  Se  Se17  1  0.800825  0.398354  0.750000  1
  Se  Se18  1  0.097886  0.804226  0.858315  1
  Se  Se19  1  0.364360  0.271280  0.953582  1
