# generated using pymatgen
data_DyEr4Si6P6Ir19
_symmetry_space_group_name_H-M   'P 1'
_cell_length_a   12.78838400
_cell_length_b   12.78838327
_cell_length_c   3.94534300
_cell_angle_alpha   90.00000000
_cell_angle_beta   90.00000000
_cell_angle_gamma   120.00000706
_symmetry_Int_Tables_number   1
_chemical_formula_structural   DyEr4Si6P6Ir19
_chemical_formula_sum   'Dy1 Er4 Si6 P6 Ir19'
_cell_volume   558.78749544
_cell_formula_units_Z   1
loop_
 _symmetry_equiv_pos_site_id
 _symmetry_equiv_pos_as_xyz
  1  'x, y, z'
loop_
 _atom_site_type_symbol
 _atom_site_label
 _atom_site_symmetry_multiplicity
 _atom_site_fract_x
 _atom_site_fract_y
 _atom_site_fract_z
 _atom_site_occupancy
  Dy  Dy0  1  0.666667  0.333333  0.000000  1
  Er  Er1  1  0.333333  0.666667  0.000000  1
  Er  Er2  1  0.816681  0.814854  0.500000  1
  Er  Er3  1  0.185146  0.001827  0.500000  1
  Er  Er4  1  0.998173  0.183319  0.500000  1
  Si  Si5  1  0.682001  0.162603  0.500000  1
  Si  Si6  1  0.837397  0.519398  0.500000  1
  Si  Si7  1  0.480602  0.317999  0.500000  1
  Si  Si8  1  0.636653  0.635848  0.000000  1
  Si  Si9  1  0.364152  0.000806  0.000000  1
  Si  Si10  1  0.999194  0.363347  0.000000  1
  P  P11  1  0.177881  0.693768  0.500000  1
  P  P12  1  0.515887  0.822119  0.500000  1
  P  P13  1  0.306232  0.484113  0.500000  1
  P  P14  1  0.176033  0.180073  0.000000  1
  P  P15  1  0.819927  0.995959  0.000000  1
  P  P16  1  0.004041  0.823967  0.000000  1
  Ir  Ir17  1  0.809210  0.175708  0.000000  1
  Ir  Ir18  1  0.824292  0.633503  0.000000  1
  Ir  Ir19  1  0.366497  0.190790  0.000000  1
  Ir  Ir20  1  0.182849  0.801227  0.000000  1
  Ir  Ir21  1  0.618378  0.817151  0.000000  1
  Ir  Ir22  1  0.198773  0.381622  0.000000  1
  Ir  Ir23  1  0.457927  0.443343  0.000000  1
  Ir  Ir24  1  0.556657  0.014584  0.000000  1
  Ir  Ir25  1  0.985416  0.542073  0.000000  1
  Ir  Ir26  1  0.277503  0.284093  0.500000  1
  Ir  Ir27  1  0.715907  0.993410  0.500000  1
  Ir  Ir28  1  0.006590  0.722497  0.500000  1
  Ir  Ir29  1  0.869096  0.353328  0.500000  1
  Ir  Ir30  1  0.646672  0.515769  0.500000  1
  Ir  Ir31  1  0.484231  0.130904  0.500000  1
  Ir  Ir32  1  0.368174  0.873465  0.500000  1
  Ir  Ir33  1  0.505293  0.631826  0.500000  1
  Ir  Ir34  1  0.126535  0.494707  0.500000  1
  Ir  Ir35  1  0.000000  0.000000  0.000000  1
