# generated using pymatgen
data_Pr6Sn6Ir5Pt
_symmetry_space_group_name_H-M   'P 1'
_cell_length_a   7.70272400
_cell_length_b   7.70272566
_cell_length_c   8.03609500
_cell_angle_alpha   90.00000000
_cell_angle_beta   90.00000000
_cell_angle_gamma   120.00000147
_symmetry_Int_Tables_number   1
_chemical_formula_structural   Pr6Sn6Ir5Pt
_chemical_formula_sum   'Pr6 Sn6 Ir5 Pt1'
_cell_volume   412.91860782
_cell_formula_units_Z   1
loop_
 _symmetry_equiv_pos_site_id
 _symmetry_equiv_pos_as_xyz
  1  'x, y, z'
loop_
 _atom_site_type_symbol
 _atom_site_label
 _atom_site_symmetry_multiplicity
 _atom_site_fract_x
 _atom_site_fract_y
 _atom_site_fract_z
 _atom_site_occupancy
  Pr  Pr0  1  0.408121  0.997486  0.248056  1
  Pr  Pr1  1  0.589365  0.591879  0.248056  1
  Pr  Pr2  1  0.002514  0.410635  0.248056  1
  Pr  Pr3  1  0.407674  0.996632  0.751951  1
  Pr  Pr4  1  0.588958  0.592326  0.751951  1
  Pr  Pr5  1  0.003368  0.411042  0.751951  1
  Sn  Sn6  1  0.255018  0.253654  0.999945  1
  Sn  Sn7  1  0.998635  0.744982  0.999945  1
  Sn  Sn8  1  0.003389  0.748695  0.499963  1
  Sn  Sn9  1  0.745304  0.996611  0.499963  1
  Sn  Sn10  1  0.251305  0.254696  0.499963  1
  Sn  Sn11  1  0.746346  0.001365  0.999945  1
  Ir  Ir12  1  0.000000  0.000000  0.750097  1
  Ir  Ir13  1  0.000000  0.000000  0.249835  1
  Ir  Ir14  1  0.666667  0.333333  0.999595  1
  Ir  Ir15  1  0.333333  0.666667  0.499405  1
  Ir  Ir16  1  0.333333  0.666667  0.000619  1
  Pt  Pt17  1  0.666667  0.333333  0.500705  1
