# generated using pymatgen
data_Hf2Ta4C5
_symmetry_space_group_name_H-M   'P 1'
_cell_length_a   5.55141568
_cell_length_b   5.55141531
_cell_length_c   5.50326212
_cell_angle_alpha   80.85584842
_cell_angle_beta   80.85583886
_cell_angle_gamma   120.40223211
_symmetry_Int_Tables_number   1
_chemical_formula_structural   Hf2Ta4C5
_chemical_formula_sum   'Hf2 Ta4 C5'
_cell_volume   138.59850681
_cell_formula_units_Z   1
loop_
 _symmetry_equiv_pos_site_id
 _symmetry_equiv_pos_as_xyz
  1  'x, y, z'
loop_
 _atom_site_type_symbol
 _atom_site_label
 _atom_site_symmetry_multiplicity
 _atom_site_fract_x
 _atom_site_fract_y
 _atom_site_fract_z
 _atom_site_occupancy
  Hf  Hf0  1  0.744532  0.744532  0.743399  1
  Hf  Hf1  1  0.255468  0.255468  0.256601  1
  Ta  Ta2  1  0.087259  0.438815  0.746118  1
  Ta  Ta3  1  0.561185  0.912741  0.253882  1
  Ta  Ta4  1  0.912741  0.561185  0.253882  1
  Ta  Ta5  1  0.438815  0.087259  0.746118  1
  C  C6  1  0.500000  0.500000  0.500000  1
  C  C7  1  0.669718  0.330282  0.000000  1
  C  C8  1  0.330282  0.669718  0.000000  1
  C  C9  1  0.829314  0.170686  0.500000  1
  C  C10  1  0.170686  0.829314  0.500000  1
