# generated using pymatgen
data_Er9Lu(InBi)3
_symmetry_space_group_name_H-M   'P 1'
_cell_length_a   8.97610700
_cell_length_b   8.97610839
_cell_length_c   6.50226300
_cell_angle_alpha   90.00000000
_cell_angle_beta   90.00000000
_cell_angle_gamma   119.99999858
_symmetry_Int_Tables_number   1
_chemical_formula_structural   Er9Lu(InBi)3
_chemical_formula_sum   'Er9 Lu1 In3 Bi3'
_cell_volume   453.70261090
_cell_formula_units_Z   1
loop_
 _symmetry_equiv_pos_site_id
 _symmetry_equiv_pos_as_xyz
  1  'x, y, z'
loop_
 _atom_site_type_symbol
 _atom_site_label
 _atom_site_symmetry_multiplicity
 _atom_site_fract_x
 _atom_site_fract_y
 _atom_site_fract_z
 _atom_site_occupancy
  Er  Er0  1  0.333333  0.666667  0.007338  1
  Er  Er1  1  0.333333  0.666667  0.492487  1
  Er  Er2  1  0.666667  0.333333  0.492555  1
  Er  Er3  1  0.763868  0.763796  0.750155  1
  Er  Er4  1  0.236204  0.000073  0.750155  1
  Er  Er5  1  0.999927  0.236132  0.750155  1
  Er  Er6  1  0.238116  0.237953  0.249873  1
  Er  Er7  1  0.762047  0.000163  0.249873  1
  Er  Er8  1  0.999837  0.761884  0.249873  1
  Lu  Lu9  1  0.666667  0.333333  0.007961  1
  In  In10  1  0.606551  0.606220  0.249584  1
  In  In11  1  0.393780  0.000331  0.249584  1
  In  In12  1  0.999669  0.393449  0.249584  1
  Bi  Bi13  1  0.396503  0.396024  0.750274  1
  Bi  Bi14  1  0.603976  0.000479  0.750274  1
  Bi  Bi15  1  0.999521  0.603497  0.750274  1
