# generated using pymatgen
data_Tm3TiAl11Ru4
_symmetry_space_group_name_H-M   'P 1'
_cell_length_a   8.82809700
_cell_length_b   8.82809652
_cell_length_c   9.51167700
_cell_angle_alpha   90.00000000
_cell_angle_beta   90.00000000
_cell_angle_gamma   119.99999806
_symmetry_Int_Tables_number   1
_chemical_formula_structural   Tm3TiAl11Ru4
_chemical_formula_sum   'Tm6 Ti2 Al22 Ru8'
_cell_volume   641.98059828
_cell_formula_units_Z   2
loop_
 _symmetry_equiv_pos_site_id
 _symmetry_equiv_pos_as_xyz
  1  'x, y, z'
loop_
 _atom_site_type_symbol
 _atom_site_label
 _atom_site_symmetry_multiplicity
 _atom_site_fract_x
 _atom_site_fract_y
 _atom_site_fract_z
 _atom_site_occupancy
  Tm  Tm0  1  0.194992  0.389985  0.250650  1
  Tm  Tm1  1  0.805008  0.610015  0.749350  1
  Tm  Tm2  1  0.610015  0.805008  0.250650  1
  Tm  Tm3  1  0.389985  0.194992  0.749350  1
  Tm  Tm4  1  0.194992  0.805008  0.250650  1
  Tm  Tm5  1  0.805008  0.194992  0.749350  1
  Ti  Ti6  1  0.333333  0.666667  0.997776  1
  Ti  Ti7  1  0.666667  0.333333  0.002224  1
  Al  Al8  1  0.666667  0.333333  0.518414  1
  Al  Al9  1  0.333333  0.666667  0.481586  1
  Al  Al10  1  0.161382  0.322765  0.577763  1
  Al  Al11  1  0.838618  0.677235  0.422237  1
  Al  Al12  1  0.677235  0.838618  0.577763  1
  Al  Al13  1  0.840886  0.681771  0.078207  1
  Al  Al14  1  0.322765  0.161382  0.422237  1
  Al  Al15  1  0.159114  0.318229  0.921793  1
  Al  Al16  1  0.161382  0.838618  0.577763  1
  Al  Al17  1  0.318229  0.159114  0.078207  1
  Al  Al18  1  0.838618  0.161382  0.422237  1
  Al  Al19  1  0.681771  0.840886  0.921793  1
  Al  Al20  1  0.840886  0.159114  0.078207  1
  Al  Al21  1  0.159114  0.840886  0.921793  1
  Al  Al22  1  0.560590  0.121180  0.252260  1
  Al  Al23  1  0.439410  0.878820  0.747740  1
  Al  Al24  1  0.878820  0.439410  0.252260  1
  Al  Al25  1  0.121180  0.560590  0.747740  1
  Al  Al26  1  0.560590  0.439410  0.252260  1
  Al  Al27  1  0.439410  0.560590  0.747740  1
  Al  Al28  1  0.000000  0.000000  0.250357  1
  Al  Al29  1  0.000000  0.000000  0.749643  1
  Ru  Ru30  1  0.500000  0.000000  0.000000  1
  Ru  Ru31  1  0.000000  0.500000  0.000000  1
  Ru  Ru32  1  0.500000  0.000000  0.500000  1
  Ru  Ru33  1  0.500000  0.500000  0.000000  1
  Ru  Ru34  1  0.000000  0.500000  0.500000  1
  Ru  Ru35  1  0.500000  0.500000  0.500000  1
  Ru  Ru36  1  0.000000  0.000000  0.000000  1
  Ru  Ru37  1  0.000000  0.000000  0.500000  1
