# generated using pymatgen
data_Th4Si3Tc16Ge5
_symmetry_space_group_name_H-M   'P 1'
_cell_length_a   4.18402800
_cell_length_b   7.30648513
_cell_length_c   15.77442059
_cell_angle_alpha   89.80551006
_cell_angle_beta   90.00000000
_cell_angle_gamma   90.00000000
_symmetry_Int_Tables_number   1
_chemical_formula_structural   Th4Si3Tc16Ge5
_chemical_formula_sum   'Th4 Si3 Tc16 Ge5'
_cell_volume   482.22975145
_cell_formula_units_Z   1
loop_
 _symmetry_equiv_pos_site_id
 _symmetry_equiv_pos_as_xyz
  1  'x, y, z'
loop_
 _atom_site_type_symbol
 _atom_site_label
 _atom_site_symmetry_multiplicity
 _atom_site_fract_x
 _atom_site_fract_y
 _atom_site_fract_z
 _atom_site_occupancy
  Th  Th0  1  0.000000  0.595029  0.119415  1
  Th  Th1  1  0.000000  0.404031  0.879626  1
  Th  Th2  1  0.500000  0.094394  0.380418  1
  Th  Th3  1  0.500000  0.905189  0.620359  1
  Si  Si4  1  0.000000  0.688465  0.727290  1
  Si  Si5  1  0.500000  0.811960  0.226252  1
  Si  Si6  1  0.500000  0.188362  0.772822  1
  Tc  Tc7  1  0.000000  0.135093  0.051311  1
  Tc  Tc8  1  0.000000  0.863847  0.947339  1
  Tc  Tc9  1  0.500000  0.637795  0.449075  1
  Tc  Tc10  1  0.500000  0.364579  0.552897  1
  Tc  Tc11  1  0.000000  0.733108  0.318857  1
  Tc  Tc12  1  0.000000  0.269207  0.682204  1
  Tc  Tc13  1  0.500000  0.226105  0.180151  1
  Tc  Tc14  1  0.500000  0.769558  0.817784  1
  Tc  Tc15  1  0.000000  0.434538  0.422346  1
  Tc  Tc16  1  0.000000  0.568617  0.580593  1
  Tc  Tc17  1  0.500000  0.930254  0.078747  1
  Tc  Tc18  1  0.500000  0.067919  0.919830  1
  Tc  Tc19  1  0.000000  0.998598  0.204668  1
  Tc  Tc20  1  0.000000  0.995700  0.793203  1
  Tc  Tc21  1  0.500000  0.510390  0.295090  1
  Tc  Tc22  1  0.500000  0.496476  0.706963  1
  Ge  Ge23  1  0.000000  0.831333  0.473079  1
  Ge  Ge24  1  0.000000  0.169984  0.528291  1
  Ge  Ge25  1  0.500000  0.330440  0.027383  1
  Ge  Ge26  1  0.500000  0.668639  0.971606  1
  Ge  Ge27  1  0.000000  0.310391  0.272403  1
