# generated using pymatgen
data_Tm20FeCo3Bi8
_symmetry_space_group_name_H-M   'P 1'
_cell_length_a   7.84947704
_cell_length_b   8.83122100
_cell_length_c   12.23862106
_cell_angle_alpha   90.00000000
_cell_angle_beta   89.92566709
_cell_angle_gamma   90.00000000
_symmetry_Int_Tables_number   1
_chemical_formula_structural   Tm20FeCo3Bi8
_chemical_formula_sum   'Tm20 Fe1 Co3 Bi8'
_cell_volume   848.38620737
_cell_formula_units_Z   1
loop_
 _symmetry_equiv_pos_site_id
 _symmetry_equiv_pos_as_xyz
  1  'x, y, z'
loop_
 _atom_site_type_symbol
 _atom_site_label
 _atom_site_symmetry_multiplicity
 _atom_site_fract_x
 _atom_site_fract_y
 _atom_site_fract_z
 _atom_site_occupancy
  Tm  Tm0  1  0.346415  0.750000  0.700609  1
  Tm  Tm1  1  0.652615  0.250000  0.300749  1
  Tm  Tm2  1  0.847494  0.250000  0.799977  1
  Tm  Tm3  1  0.151795  0.750000  0.199248  1
  Tm  Tm4  1  0.887416  0.750000  0.812337  1
  Tm  Tm5  1  0.113752  0.250000  0.188231  1
  Tm  Tm6  1  0.386160  0.250000  0.687386  1
  Tm  Tm7  1  0.613241  0.750000  0.313215  1
  Tm  Tm8  1  0.674488  0.537661  0.563274  1
  Tm  Tm9  1  0.325508  0.461348  0.436851  1
  Tm  Tm10  1  0.173275  0.464187  0.937695  1
  Tm  Tm11  1  0.325508  0.038652  0.436851  1
  Tm  Tm12  1  0.825261  0.539306  0.062744  1
  Tm  Tm13  1  0.674488  0.962339  0.563274  1
  Tm  Tm14  1  0.825261  0.960694  0.062744  1
  Tm  Tm15  1  0.173275  0.035813  0.937695  1
  Tm  Tm16  1  0.054887  0.750000  0.497137  1
  Tm  Tm17  1  0.945803  0.250000  0.502474  1
  Tm  Tm18  1  0.556067  0.250000  0.002867  1
  Tm  Tm19  1  0.443879  0.750000  0.996454  1
  Fe  Fe20  1  0.069502  0.750000  0.990961  1
  Co  Co21  1  0.932566  0.250000  0.008231  1
  Co  Co22  1  0.566304  0.250000  0.508076  1
  Co  Co23  1  0.433773  0.750000  0.492690  1
  Bi  Bi24  1  0.571543  0.509013  0.826686  1
  Bi  Bi25  1  0.429342  0.490933  0.172859  1
  Bi  Bi26  1  0.071139  0.490935  0.672743  1
  Bi  Bi27  1  0.429342  0.009067  0.172859  1
  Bi  Bi28  1  0.928609  0.509314  0.326829  1
  Bi  Bi29  1  0.571543  0.990987  0.826686  1
  Bi  Bi30  1  0.928609  0.990686  0.326829  1
  Bi  Bi31  1  0.071139  0.009065  0.672743  1
