# generated using pymatgen
data_La2Eu6GePd24
_symmetry_space_group_name_H-M   'P 1'
_cell_length_a   8.52438580
_cell_length_b   8.52438580
_cell_length_c   8.52438580
_cell_angle_alpha   89.96490894
_cell_angle_beta   89.96490894
_cell_angle_gamma   89.96490894
_symmetry_Int_Tables_number   1
_chemical_formula_structural   La2Eu6GePd24
_chemical_formula_sum   'La2 Eu6 Ge1 Pd24'
_cell_volume   619.42545210
_cell_formula_units_Z   1
loop_
 _symmetry_equiv_pos_site_id
 _symmetry_equiv_pos_as_xyz
  1  'x, y, z'
loop_
 _atom_site_type_symbol
 _atom_site_label
 _atom_site_symmetry_multiplicity
 _atom_site_fract_x
 _atom_site_fract_y
 _atom_site_fract_z
 _atom_site_occupancy
  La  La0  1  0.254317  0.254317  0.254317  1
  La  La1  1  0.745683  0.745683  0.745683  1
  Eu  Eu2  1  0.749336  0.749336  0.251392  1
  Eu  Eu3  1  0.749336  0.251392  0.749336  1
  Eu  Eu4  1  0.250664  0.250664  0.748608  1
  Eu  Eu5  1  0.250664  0.748608  0.250664  1
  Eu  Eu6  1  0.251392  0.749336  0.749336  1
  Eu  Eu7  1  0.748608  0.250664  0.250664  1
  Ge  Ge8  1  0.000000  0.000000  0.000000  1
  Pd  Pd9  1  0.261691  0.500188  0.999014  1
  Pd  Pd10  1  0.738309  0.499812  0.000986  1
  Pd  Pd11  1  0.999014  0.261691  0.500188  1
  Pd  Pd12  1  0.500188  0.261691  0.999014  1
  Pd  Pd13  1  0.000986  0.738309  0.499812  1
  Pd  Pd14  1  0.499812  0.738309  0.000986  1
  Pd  Pd15  1  0.500188  0.999014  0.261691  1
  Pd  Pd16  1  0.261691  0.999014  0.500188  1
  Pd  Pd17  1  0.499812  0.000986  0.738309  1
  Pd  Pd18  1  0.738309  0.000986  0.499812  1
  Pd  Pd19  1  0.999014  0.500188  0.261691  1
  Pd  Pd20  1  0.000986  0.499812  0.738309  1
  Pd  Pd21  1  0.253723  0.501333  0.501333  1
  Pd  Pd22  1  0.746277  0.498667  0.498667  1
  Pd  Pd23  1  0.501333  0.253723  0.501333  1
  Pd  Pd24  1  0.498667  0.746277  0.498667  1
  Pd  Pd25  1  0.501333  0.501333  0.253723  1
  Pd  Pd26  1  0.498667  0.498667  0.746277  1
  Pd  Pd27  1  0.294543  0.999655  0.999655  1
  Pd  Pd28  1  0.705457  0.000345  0.000345  1
  Pd  Pd29  1  0.999655  0.294543  0.999655  1
  Pd  Pd30  1  0.000345  0.705457  0.000345  1
  Pd  Pd31  1  0.999655  0.999655  0.294543  1
  Pd  Pd32  1  0.000345  0.000345  0.705457  1
