# generated using pymatgen
data_Mn5SbPd10
_symmetry_space_group_name_H-M   'P 1'
_cell_length_a   5.51769468
_cell_length_b   10.96449166
_cell_length_c   4.14372200
_cell_angle_alpha   90.00000000
_cell_angle_beta   90.00000000
_cell_angle_gamma   89.95162290
_symmetry_Int_Tables_number   1
_chemical_formula_structural   Mn5SbPd10
_chemical_formula_sum   'Mn5 Sb1 Pd10'
_cell_volume   250.68977660
_cell_formula_units_Z   1
loop_
 _symmetry_equiv_pos_site_id
 _symmetry_equiv_pos_as_xyz
  1  'x, y, z'
loop_
 _atom_site_type_symbol
 _atom_site_label
 _atom_site_symmetry_multiplicity
 _atom_site_fract_x
 _atom_site_fract_y
 _atom_site_fract_z
 _atom_site_occupancy
  Mn  Mn0  1  0.000000  0.000000  0.000000  1
  Mn  Mn1  1  0.309494  0.133347  0.500001  1
  Mn  Mn2  1  0.817600  0.355280  0.500001  1
  Mn  Mn3  1  0.182399  0.644719  0.500001  1
  Mn  Mn4  1  0.690507  0.866653  0.500001  1
  Sb  Sb5  1  0.499999  0.500000  0.000000  1
  Pd  Pd6  1  0.499999  0.000000  0.000000  1
  Pd  Pd7  1  0.066963  0.240934  0.000000  1
  Pd  Pd8  1  0.565998  0.252321  0.000000  1
  Pd  Pd9  1  0.000000  0.500000  0.000000  1
  Pd  Pd10  1  0.434001  0.747679  0.000000  1
  Pd  Pd11  1  0.933038  0.759066  0.000000  1
  Pd  Pd12  1  0.802229  0.111826  0.500001  1
  Pd  Pd13  1  0.296516  0.383073  0.500001  1
  Pd  Pd14  1  0.703485  0.616927  0.500001  1
  Pd  Pd15  1  0.197771  0.888174  0.500001  1
