# generated using pymatgen
data_La2Cr3O12
_symmetry_space_group_name_H-M   'P 1'
_cell_length_a   11.94966501
_cell_length_b   11.94966480
_cell_length_c   7.30537562
_cell_angle_alpha   74.96511636
_cell_angle_beta   74.96511817
_cell_angle_gamma   34.44099555
_symmetry_Int_Tables_number   1
_chemical_formula_structural   La2Cr3O12
_chemical_formula_sum   'La4 Cr6 O24'
_cell_volume   567.79709363
_cell_formula_units_Z   2
loop_
 _symmetry_equiv_pos_site_id
 _symmetry_equiv_pos_as_xyz
  1  'x, y, z'
loop_
 _atom_site_type_symbol
 _atom_site_label
 _atom_site_symmetry_multiplicity
 _atom_site_fract_x
 _atom_site_fract_y
 _atom_site_fract_z
 _atom_site_occupancy
  La  La0  1  0.232716  0.504496  0.633696  1
  La  La1  1  0.495504  0.767284  0.866304  1
  La  La2  1  0.767284  0.495504  0.366304  1
  La  La3  1  0.504496  0.232716  0.133696  1
  Cr  Cr4  1  0.665994  0.334006  0.250000  1
  Cr  Cr5  1  0.334006  0.665994  0.750000  1
  Cr  Cr6  1  0.003180  0.364753  0.819451  1
  Cr  Cr7  1  0.635247  0.996820  0.680549  1
  Cr  Cr8  1  0.996820  0.635247  0.180549  1
  Cr  Cr9  1  0.364753  0.003180  0.319451  1
  O  O10  1  0.591674  0.527497  0.134872  1
  O  O11  1  0.472503  0.408326  0.365128  1
  O  O12  1  0.408326  0.472503  0.865128  1
  O  O13  1  0.527497  0.591674  0.634872  1
  O  O14  1  0.170665  0.125118  0.871336  1
  O  O15  1  0.874882  0.829335  0.628664  1
  O  O16  1  0.829335  0.874882  0.128664  1
  O  O17  1  0.125118  0.170665  0.371336  1
  O  O18  1  0.819373  0.235800  0.396818  1
  O  O19  1  0.764200  0.180627  0.103182  1
  O  O20  1  0.529547  0.167720  0.814311  1
  O  O21  1  0.832280  0.470453  0.685689  1
  O  O22  1  0.470453  0.832280  0.185689  1
  O  O23  1  0.167720  0.529547  0.314311  1
  O  O24  1  0.399611  0.112069  0.206341  1
  O  O25  1  0.887931  0.600389  0.293659  1
  O  O26  1  0.600389  0.887931  0.793659  1
  O  O27  1  0.112069  0.399611  0.706341  1
  O  O28  1  0.486224  0.867662  0.515244  1
  O  O29  1  0.132338  0.513776  0.984756  1
  O  O30  1  0.513776  0.132338  0.484756  1
  O  O31  1  0.867662  0.486224  0.015244  1
  O  O32  1  0.235800  0.819373  0.896818  1
  O  O33  1  0.180627  0.764200  0.603182  1
