# generated using pymatgen
data_Tb8Cu11P12Pd
_symmetry_space_group_name_H-M   'P 1'
_cell_length_a   3.87523100
_cell_length_b   10.70149455
_cell_length_c   13.01014852
_cell_angle_alpha   90.10564709
_cell_angle_beta   90.00000000
_cell_angle_gamma   90.00000000
_symmetry_Int_Tables_number   1
_chemical_formula_structural   Tb8Cu11P12Pd
_chemical_formula_sum   'Tb8 Cu11 P12 Pd1'
_cell_volume   539.53987450
_cell_formula_units_Z   1
loop_
 _symmetry_equiv_pos_site_id
 _symmetry_equiv_pos_as_xyz
  1  'x, y, z'
loop_
 _atom_site_type_symbol
 _atom_site_label
 _atom_site_symmetry_multiplicity
 _atom_site_fract_x
 _atom_site_fract_y
 _atom_site_fract_z
 _atom_site_occupancy
  Tb  Tb0  1  0.250000  0.930515  0.793100  1
  Tb  Tb1  1  0.750000  0.430800  0.708105  1
  Tb  Tb2  1  0.250000  0.567432  0.293143  1
  Tb  Tb3  1  0.750000  0.071442  0.207136  1
  Tb  Tb4  1  0.250000  0.842686  0.502640  1
  Tb  Tb5  1  0.750000  0.341256  0.997146  1
  Tb  Tb6  1  0.250000  0.658494  0.002720  1
  Tb  Tb7  1  0.750000  0.160849  0.497851  1
  Cu  Cu8  1  0.750000  0.902034  0.986311  1
  Cu  Cu9  1  0.250000  0.097912  0.013407  1
  Cu  Cu10  1  0.750000  0.598651  0.485760  1
  Cu  Cu11  1  0.250000  0.271715  0.330341  1
  Cu  Cu12  1  0.750000  0.772971  0.168374  1
  Cu  Cu13  1  0.250000  0.227255  0.832086  1
  Cu  Cu14  1  0.750000  0.726966  0.667681  1
  Cu  Cu15  1  0.250000  0.860612  0.279775  1
  Cu  Cu16  1  0.750000  0.360461  0.218322  1
  Cu  Cu17  1  0.250000  0.638656  0.779976  1
  Cu  Cu18  1  0.750000  0.138075  0.721609  1
  P  P19  1  0.250000  0.235386  0.647129  1
  P  P20  1  0.750000  0.740546  0.855811  1
  P  P21  1  0.250000  0.259632  0.143075  1
  P  P22  1  0.750000  0.758554  0.356101  1
  P  P23  1  0.250000  0.608828  0.601947  1
  P  P24  1  0.750000  0.103063  0.900731  1
  P  P25  1  0.250000  0.896243  0.100470  1
  P  P26  1  0.750000  0.394801  0.394088  1
  P  P27  1  0.250000  0.056437  0.368688  1
  P  P28  1  0.750000  0.557767  0.130653  1
  P  P29  1  0.250000  0.442554  0.869287  1
  P  P30  1  0.750000  0.942921  0.631614  1
  Pd  Pd31  1  0.250000  0.404485  0.514923  1
