# generated using pymatgen
data_Tm8Zr11Si16Ru
_symmetry_space_group_name_H-M   'P 1'
_cell_length_a   7.01791816
_cell_length_b   7.23365034
_cell_length_c   13.82306600
_cell_angle_alpha   90.00000000
_cell_angle_beta   90.00000000
_cell_angle_gamma   89.92019856
_symmetry_Int_Tables_number   1
_chemical_formula_structural   Tm8Zr11Si16Ru
_chemical_formula_sum   'Tm8 Zr11 Si16 Ru1'
_cell_volume   701.72956058
_cell_formula_units_Z   1
loop_
 _symmetry_equiv_pos_site_id
 _symmetry_equiv_pos_as_xyz
  1  'x, y, z'
loop_
 _atom_site_type_symbol
 _atom_site_label
 _atom_site_symmetry_multiplicity
 _atom_site_fract_x
 _atom_site_fract_y
 _atom_site_fract_z
 _atom_site_occupancy
  Tm  Tm0  1  0.012898  0.177647  0.094910  1
  Tm  Tm1  1  0.988408  0.821833  0.901634  1
  Tm  Tm2  1  0.487427  0.675042  0.902573  1
  Tm  Tm3  1  0.988408  0.821833  0.598366  1
  Tm  Tm4  1  0.514301  0.322731  0.095795  1
  Tm  Tm5  1  0.012898  0.177647  0.405090  1
  Tm  Tm6  1  0.514301  0.322731  0.404205  1
  Tm  Tm7  1  0.487427  0.675042  0.597427  1
  Zr  Zr8  1  0.845043  0.500555  0.250000  1
  Zr  Zr9  1  0.343682  0.998648  0.250000  1
  Zr  Zr10  1  0.654715  0.001502  0.750000  1
  Zr  Zr11  1  0.325217  0.176527  0.626017  1
  Zr  Zr12  1  0.671106  0.823146  0.376025  1
  Zr  Zr13  1  0.172142  0.676678  0.377152  1
  Zr  Zr14  1  0.671106  0.823146  0.123975  1
  Zr  Zr15  1  0.829389  0.326728  0.627029  1
  Zr  Zr16  1  0.325217  0.176527  0.873983  1
  Zr  Zr17  1  0.829389  0.326728  0.872971  1
  Zr  Zr18  1  0.172142  0.676678  0.122848  1
  Si  Si19  1  0.032262  0.110511  0.750000  1
  Si  Si20  1  0.967427  0.882851  0.250000  1
  Si  Si21  1  0.468072  0.614024  0.250000  1
  Si  Si22  1  0.519803  0.391291  0.750000  1
  Si  Si23  1  0.281815  0.860904  0.750000  1
  Si  Si24  1  0.719420  0.129803  0.250000  1
  Si  Si25  1  0.217880  0.369246  0.250000  1
  Si  Si26  1  0.792808  0.629538  0.750000  1
  Si  Si27  1  0.156683  0.469243  0.545143  1
  Si  Si28  1  0.842052  0.533140  0.462059  1
  Si  Si29  1  0.343539  0.970105  0.460401  1
  Si  Si30  1  0.842052  0.533140  0.037941  1
  Si  Si31  1  0.658433  0.032801  0.541488  1
  Si  Si32  1  0.156683  0.469243  0.954857  1
  Si  Si33  1  0.658433  0.032801  0.958512  1
  Si  Si34  1  0.343539  0.970105  0.039599  1
  Ru  Ru35  1  0.153879  0.499882  0.750000  1
