# generated using pymatgen
data_La2Gd3Pb4
_symmetry_space_group_name_H-M   'P 1'
_cell_length_a   8.39302800
_cell_length_b   8.44112700
_cell_length_c   16.08627900
_cell_angle_alpha   90.00000000
_cell_angle_beta   90.00000000
_cell_angle_gamma   90.00000000
_symmetry_Int_Tables_number   1
_chemical_formula_structural   La2Gd3Pb4
_chemical_formula_sum   'La8 Gd12 Pb16'
_cell_volume   1139.65841932
_cell_formula_units_Z   4
loop_
 _symmetry_equiv_pos_site_id
 _symmetry_equiv_pos_as_xyz
  1  'x, y, z'
loop_
 _atom_site_type_symbol
 _atom_site_label
 _atom_site_symmetry_multiplicity
 _atom_site_fract_x
 _atom_site_fract_y
 _atom_site_fract_z
 _atom_site_occupancy
  La  La0  1  0.028823  0.179610  0.099580  1
  La  La1  1  0.528823  0.320390  0.400420  1
  La  La2  1  0.471177  0.679610  0.900420  1
  La  La3  1  0.971177  0.820390  0.599580  1
  La  La4  1  0.971177  0.820390  0.900420  1
  La  La5  1  0.471177  0.679610  0.599580  1
  La  La6  1  0.528823  0.320390  0.099580  1
  La  La7  1  0.028823  0.179610  0.400420  1
  Gd  Gd8  1  0.875891  0.659092  0.119824  1
  Gd  Gd9  1  0.375891  0.840908  0.380176  1
  Gd  Gd10  1  0.624109  0.159092  0.880176  1
  Gd  Gd11  1  0.124109  0.340908  0.619824  1
  Gd  Gd12  1  0.124109  0.340908  0.880176  1
  Gd  Gd13  1  0.624109  0.159092  0.619824  1
  Gd  Gd14  1  0.375891  0.840908  0.119824  1
  Gd  Gd15  1  0.875891  0.659092  0.380176  1
  Gd  Gd16  1  0.707973  0.993943  0.250000  1
  Gd  Gd17  1  0.207973  0.506057  0.250000  1
  Gd  Gd18  1  0.792027  0.493943  0.750000  1
  Gd  Gd19  1  0.292027  0.006057  0.750000  1
  Pb  Pb20  1  0.071835  0.872535  0.250000  1
  Pb  Pb21  1  0.571835  0.627465  0.250000  1
  Pb  Pb22  1  0.428165  0.372535  0.750000  1
  Pb  Pb23  1  0.928165  0.127465  0.750000  1
  Pb  Pb24  1  0.837103  0.356612  0.250000  1
  Pb  Pb25  1  0.337103  0.143388  0.250000  1
  Pb  Pb26  1  0.662897  0.856612  0.750000  1
  Pb  Pb27  1  0.162897  0.643388  0.750000  1
  Pb  Pb28  1  0.787317  0.464426  0.955827  1
  Pb  Pb29  1  0.287317  0.035574  0.544173  1
  Pb  Pb30  1  0.712683  0.964426  0.044173  1
  Pb  Pb31  1  0.212683  0.535574  0.455827  1
  Pb  Pb32  1  0.212683  0.535574  0.044173  1
  Pb  Pb33  1  0.712683  0.964426  0.455827  1
  Pb  Pb34  1  0.287317  0.035574  0.955827  1
  Pb  Pb35  1  0.787317  0.464426  0.544173  1
