# generated using pymatgen
data_Ho8Zr12Si15As
_symmetry_space_group_name_H-M   'P 1'
_cell_length_a   7.14199093
_cell_length_b   7.28787892
_cell_length_c   13.92509760
_cell_angle_alpha   90.10927359
_cell_angle_beta   89.33611277
_cell_angle_gamma   90.08333558
_symmetry_Int_Tables_number   1
_chemical_formula_structural   Ho8Zr12Si15As
_chemical_formula_sum   'Ho8 Zr12 Si15 As1'
_cell_volume   724.75012826
_cell_formula_units_Z   1
loop_
 _symmetry_equiv_pos_site_id
 _symmetry_equiv_pos_as_xyz
  1  'x, y, z'
loop_
 _atom_site_type_symbol
 _atom_site_label
 _atom_site_symmetry_multiplicity
 _atom_site_fract_x
 _atom_site_fract_y
 _atom_site_fract_z
 _atom_site_occupancy
  Ho  Ho0  1  0.012615  0.176980  0.096770  1
  Ho  Ho1  1  0.987265  0.823493  0.903054  1
  Ho  Ho2  1  0.487174  0.676423  0.902818  1
  Ho  Ho3  1  0.990723  0.822097  0.596946  1
  Ho  Ho4  1  0.512697  0.323447  0.097458  1
  Ho  Ho5  1  0.008173  0.177876  0.403483  1
  Ho  Ho6  1  0.506790  0.322190  0.402309  1
  Ho  Ho7  1  0.496693  0.677642  0.598126  1
  Zr  Zr8  1  0.161099  0.497165  0.750837  1
  Zr  Zr9  1  0.839322  0.501495  0.251069  1
  Zr  Zr10  1  0.339060  0.999524  0.250098  1
  Zr  Zr11  1  0.661250  0.000069  0.750328  1
  Zr  Zr12  1  0.335880  0.173348  0.625799  1
  Zr  Zr13  1  0.665333  0.824872  0.374662  1
  Zr  Zr14  1  0.161810  0.677119  0.375080  1
  Zr  Zr15  1  0.668352  0.823065  0.124844  1
  Zr  Zr16  1  0.835304  0.324528  0.623708  1
  Zr  Zr17  1  0.330687  0.177241  0.875238  1
  Zr  Zr18  1  0.831212  0.322396  0.875128  1
  Zr  Zr19  1  0.169212  0.677567  0.124955  1
  Si  Si20  1  0.036362  0.115822  0.749439  1
  Si  Si21  1  0.963111  0.884626  0.249592  1
  Si  Si22  1  0.461671  0.617123  0.250035  1
  Si  Si23  1  0.538326  0.382158  0.749873  1
  Si  Si24  1  0.287920  0.870541  0.750044  1
  Si  Si25  1  0.712565  0.128916  0.249745  1
  Si  Si26  1  0.211841  0.372493  0.250021  1
  Si  Si27  1  0.788978  0.627710  0.749921  1
  Si  Si28  1  0.821843  0.534890  0.458457  1
  Si  Si29  1  0.338377  0.966264  0.460164  1
  Si  Si30  1  0.844369  0.531667  0.040381  1
  Si  Si31  1  0.662372  0.033962  0.539744  1
  Si  Si32  1  0.155227  0.469090  0.959555  1
  Si  Si33  1  0.655101  0.031188  0.959599  1
  Si  Si34  1  0.344750  0.969000  0.040390  1
  As  As35  1  0.176538  0.466007  0.540330  1
