# generated using pymatgen
data_Er3Lu9Co5Hg
_symmetry_space_group_name_H-M   'P 1'
_cell_length_a   8.09262134
_cell_length_b   8.08724869
_cell_length_c   8.09262153
_cell_angle_alpha   110.84159792
_cell_angle_beta   110.75918274
_cell_angle_gamma   106.87007104
_symmetry_Int_Tables_number   1
_chemical_formula_structural   Er3Lu9Co5Hg
_chemical_formula_sum   'Er3 Lu9 Co5 Hg1'
_cell_volume   406.95339948
_cell_formula_units_Z   1
loop_
 _symmetry_equiv_pos_site_id
 _symmetry_equiv_pos_as_xyz
  1  'x, y, z'
loop_
 _atom_site_type_symbol
 _atom_site_label
 _atom_site_symmetry_multiplicity
 _atom_site_fract_x
 _atom_site_fract_y
 _atom_site_fract_z
 _atom_site_occupancy
  Er  Er0  1  0.782742  0.590370  0.807627  1
  Er  Er1  1  0.217124  0.025383  0.808259  1
  Er  Er2  1  0.782189  0.975412  0.193224  1
  Lu  Lu3  1  0.285058  0.182845  0.467233  1
  Lu  Lu4  1  0.713202  0.816049  0.530147  1
  Lu  Lu5  1  0.285902  0.816049  0.102846  1
  Lu  Lu6  1  0.715613  0.182845  0.897787  1
  Lu  Lu7  1  0.620144  0.316608  0.305058  1
  Lu  Lu8  1  0.378598  0.683308  0.694381  1
  Lu  Lu9  1  0.011551  0.316608  0.696464  1
  Lu  Lu10  1  0.988926  0.683308  0.304710  1
  Lu  Lu11  1  0.217848  0.411679  0.193832  1
  Co  Co12  1  0.999908  0.373222  0.373312  1
  Co  Co13  1  0.999779  0.624230  0.624451  1
  Co  Co14  1  0.385721  0.884144  0.498423  1
  Co  Co15  1  0.614479  0.114304  0.499825  1
  Co  Co16  1  0.001170  0.003551  0.002381  1
  Hg  Hg17  1  0.500045  0.500085  0.000040  1
