# generated using pymatgen
data_Cs4Hf6CoI18
_symmetry_space_group_name_H-M   'P 1'
_cell_length_a   11.58677745
_cell_length_b   11.89133779
_cell_length_c   12.02298400
_cell_angle_alpha   118.36952684
_cell_angle_beta   100.30306847
_cell_angle_gamma   104.18128373
_symmetry_Int_Tables_number   1
_chemical_formula_structural   Cs4Hf6CoI18
_chemical_formula_sum   'Cs4 Hf6 Co1 I18'
_cell_volume   1325.83998345
_cell_formula_units_Z   1
loop_
 _symmetry_equiv_pos_site_id
 _symmetry_equiv_pos_as_xyz
  1  'x, y, z'
loop_
 _atom_site_type_symbol
 _atom_site_label
 _atom_site_symmetry_multiplicity
 _atom_site_fract_x
 _atom_site_fract_y
 _atom_site_fract_z
 _atom_site_occupancy
  Cs  Cs0  1  0.657057  0.536928  0.229302  1
  Cs  Cs1  1  0.342943  0.463072  0.770698  1
  Cs  Cs2  1  0.692284  0.227095  0.564307  1
  Cs  Cs3  1  0.307716  0.772905  0.435693  1
  Hf  Hf4  1  0.140600  0.052376  0.213025  1
  Hf  Hf5  1  0.859400  0.947624  0.786975  1
  Hf  Hf6  1  0.870172  0.115119  0.121174  1
  Hf  Hf7  1  0.129828  0.884881  0.878826  1
  Hf  Hf8  1  0.136315  0.221747  0.042601  1
  Hf  Hf9  1  0.863685  0.778253  0.957399  1
  Co  Co10  1  0.000000  0.000000  0.000000  1
  I  I11  1  0.007238  0.393960  0.188674  1
  I  I12  1  0.992762  0.606040  0.811326  1
  I  I13  1  0.323010  0.323701  0.301757  1
  I  I14  1  0.676990  0.676299  0.698243  1
  I  I15  1  0.307352  0.501339  0.095644  1
  I  I16  1  0.692648  0.498661  0.904356  1
  I  I17  1  0.003539  0.802718  0.201389  1
  I  I18  1  0.996461  0.197282  0.798611  1
  I  I19  1  0.711489  0.256840  0.269748  1
  I  I20  1  0.288511  0.743160  0.730252  1
  I  I21  1  0.310364  0.126071  0.908772  1
  I  I22  1  0.689636  0.873929  0.091228  1
  I  I23  1  0.014504  0.196553  0.392096  1
  I  I24  1  0.985496  0.803447  0.607904  1
  I  I25  1  0.314217  0.927998  0.108596  1
  I  I26  1  0.685783  0.072002  0.891404  1
  I  I27  1  0.319734  0.117511  0.481032  1
  I  I28  1  0.680266  0.882489  0.518968  1
