# generated using pymatgen
data_YbPrDy5CoI12
_symmetry_space_group_name_H-M   'P 1'
_cell_length_a   9.78726830
_cell_length_b   9.83511034
_cell_length_c   9.82686288
_cell_angle_alpha   106.82699787
_cell_angle_beta   107.23973914
_cell_angle_gamma   106.76003856
_symmetry_Int_Tables_number   1
_chemical_formula_structural   YbPrDy5CoI12
_chemical_formula_sum   'Yb1 Pr1 Dy5 Co1 I12'
_cell_volume   788.99841537
_cell_formula_units_Z   1
loop_
 _symmetry_equiv_pos_site_id
 _symmetry_equiv_pos_as_xyz
  1  'x, y, z'
loop_
 _atom_site_type_symbol
 _atom_site_label
 _atom_site_symmetry_multiplicity
 _atom_site_fract_x
 _atom_site_fract_y
 _atom_site_fract_z
 _atom_site_occupancy
  Yb  Yb0  1  0.500489  0.498978  0.499751  1
  Pr  Pr1  1  0.709460  0.977208  0.905176  1
  Dy  Dy2  1  0.974808  0.903195  0.704454  1
  Dy  Dy3  1  0.024080  0.096969  0.296000  1
  Dy  Dy4  1  0.097960  0.295073  0.024569  1
  Dy  Dy5  1  0.277822  0.022720  0.091509  1
  Dy  Dy6  1  0.905327  0.705864  0.976340  1
  Co  Co7  1  0.998468  0.000669  0.999846  1
  I  I8  1  0.543056  0.612965  0.845919  1
  I  I9  1  0.456347  0.375081  0.152091  1
  I  I10  1  0.315405  0.927690  0.779081  1
  I  I11  1  0.378374  0.151052  0.454179  1
  I  I12  1  0.929181  0.778360  0.320253  1
  I  I13  1  0.684277  0.075593  0.233123  1
  I  I14  1  0.072250  0.222022  0.680161  1
  I  I15  1  0.783337  0.330060  0.929935  1
  I  I16  1  0.226358  0.683963  0.073826  1
  I  I17  1  0.850552  0.544999  0.622704  1
  I  I18  1  0.151344  0.455701  0.377244  1
  I  I19  1  0.621105  0.841838  0.533840  1
