# generated using pymatgen
data_La2Pr3AlZnRu3
_symmetry_space_group_name_H-M   'P 1'
_cell_length_a   8.57129609
_cell_length_b   8.63650100
_cell_length_c   8.55383036
_cell_angle_alpha   109.37409366
_cell_angle_beta   109.38071210
_cell_angle_gamma   109.49188974
_symmetry_Int_Tables_number   1
_chemical_formula_structural   La2Pr3AlZnRu3
_chemical_formula_sum   'La4 Pr6 Al2 Zn2 Ru6'
_cell_volume   488.44348261
_cell_formula_units_Z   2
loop_
 _symmetry_equiv_pos_site_id
 _symmetry_equiv_pos_as_xyz
  1  'x, y, z'
loop_
 _atom_site_type_symbol
 _atom_site_label
 _atom_site_symmetry_multiplicity
 _atom_site_fract_x
 _atom_site_fract_y
 _atom_site_fract_z
 _atom_site_occupancy
  La  La0  1  0.253614  0.688439  0.444170  1
  La  La1  1  0.746824  0.810417  0.056418  1
  La  La2  1  0.440119  0.249897  0.689899  1
  La  La3  1  0.689683  0.439355  0.251449  1
  Pr  Pr4  1  0.065862  0.750776  0.814818  1
  Pr  Pr5  1  0.815420  0.064276  0.750564  1
  Pr  Pr6  1  0.219745  0.221047  0.218964  1
  Pr  Pr7  1  0.500497  0.998085  0.279145  1
  Pr  Pr8  1  0.281945  0.500964  0.999147  1
  Pr  Pr9  1  0.999835  0.282210  0.501799  1
  Al  Al10  1  0.913052  0.500512  0.001960  1
  Al  Al11  1  0.997932  0.909627  0.497819  1
  Zn  Zn12  1  0.590507  0.587418  0.587535  1
  Zn  Zn13  1  0.499534  0.002436  0.914008  1
  Ru  Ru14  1  0.243407  0.123823  0.859823  1
  Ru  Ru15  1  0.744723  0.370154  0.634929  1
  Ru  Ru16  1  0.874261  0.261702  0.127650  1
  Ru  Ru17  1  0.113512  0.862806  0.246629  1
  Ru  Ru18  1  0.633732  0.746638  0.372579  1
  Ru  Ru19  1  0.375796  0.629418  0.750695  1
