# generated using pymatgen
data_Be8CrOs3
_symmetry_space_group_name_H-M   'P 1'
_cell_length_a   4.32011800
_cell_length_b   4.32011856
_cell_length_c   7.02340900
_cell_angle_alpha   90.00000000
_cell_angle_beta   90.00000000
_cell_angle_gamma   120.00001106
_symmetry_Int_Tables_number   1
_chemical_formula_structural   Be8CrOs3
_chemical_formula_sum   'Be8 Cr1 Os3'
_cell_volume   113.51932959
_cell_formula_units_Z   1
loop_
 _symmetry_equiv_pos_site_id
 _symmetry_equiv_pos_as_xyz
  1  'x, y, z'
loop_
 _atom_site_type_symbol
 _atom_site_label
 _atom_site_symmetry_multiplicity
 _atom_site_fract_x
 _atom_site_fract_y
 _atom_site_fract_z
 _atom_site_occupancy
  Be  Be0  1  0.169781  0.339561  0.749796  1
  Be  Be1  1  0.169781  0.830219  0.749796  1
  Be  Be2  1  0.337694  0.168847  0.250486  1
  Be  Be3  1  0.831153  0.662306  0.250486  1
  Be  Be4  1  0.000000  0.000000  0.999660  1
  Be  Be5  1  0.660439  0.830219  0.749796  1
  Be  Be6  1  0.831153  0.168847  0.250486  1
  Be  Be7  1  0.000000  0.000000  0.500369  1
  Cr  Cr8  1  0.666667  0.333333  0.563625  1
  Os  Os9  1  0.333333  0.666667  0.448088  1
  Os  Os10  1  0.666667  0.333333  0.927018  1
  Os  Os11  1  0.333333  0.666667  0.060393  1
