# generated using pymatgen
data_Hf2(CoP)3
_symmetry_space_group_name_H-M   'P 1'
_cell_length_a   3.61754400
_cell_length_b   9.88994700
_cell_length_c   12.11753700
_cell_angle_alpha   90.00000000
_cell_angle_beta   90.00000000
_cell_angle_gamma   90.00000000
_symmetry_Int_Tables_number   1
_chemical_formula_structural   Hf2(CoP)3
_chemical_formula_sum   'Hf8 Co12 P12'
_cell_volume   433.53297984
_cell_formula_units_Z   4
loop_
 _symmetry_equiv_pos_site_id
 _symmetry_equiv_pos_as_xyz
  1  'x, y, z'
loop_
 _atom_site_type_symbol
 _atom_site_label
 _atom_site_symmetry_multiplicity
 _atom_site_fract_x
 _atom_site_fract_y
 _atom_site_fract_z
 _atom_site_occupancy
  Hf  Hf0  1  0.250000  0.336995  0.996578  1
  Hf  Hf1  1  0.250000  0.163005  0.496578  1
  Hf  Hf2  1  0.750000  0.663005  0.003422  1
  Hf  Hf3  1  0.750000  0.836995  0.503422  1
  Hf  Hf4  1  0.250000  0.428938  0.710222  1
  Hf  Hf5  1  0.250000  0.071062  0.210222  1
  Hf  Hf6  1  0.750000  0.571062  0.289778  1
  Hf  Hf7  1  0.750000  0.928938  0.789778  1
  Co  Co8  1  0.250000  0.902840  0.980184  1
  Co  Co9  1  0.250000  0.597160  0.480184  1
  Co  Co10  1  0.750000  0.097160  0.019816  1
  Co  Co11  1  0.750000  0.402840  0.519816  1
  Co  Co12  1  0.250000  0.133835  0.716783  1
  Co  Co13  1  0.250000  0.366165  0.216783  1
  Co  Co14  1  0.750000  0.866165  0.283217  1
  Co  Co15  1  0.750000  0.633835  0.783217  1
  Co  Co16  1  0.250000  0.771113  0.165654  1
  Co  Co17  1  0.250000  0.728887  0.665654  1
  Co  Co18  1  0.750000  0.228887  0.834346  1
  Co  Co19  1  0.750000  0.271113  0.334346  1
  P  P20  1  0.250000  0.102451  0.898179  1
  P  P21  1  0.250000  0.397549  0.398179  1
  P  P22  1  0.750000  0.897549  0.101821  1
  P  P23  1  0.750000  0.602451  0.601821  1
  P  P24  1  0.250000  0.736729  0.850555  1
  P  P25  1  0.250000  0.763271  0.350555  1
  P  P26  1  0.750000  0.263271  0.149445  1
  P  P27  1  0.750000  0.236729  0.649445  1
  P  P28  1  0.250000  0.553236  0.125032  1
  P  P29  1  0.250000  0.946764  0.625032  1
  P  P30  1  0.750000  0.446764  0.874968  1
  P  P31  1  0.750000  0.053236  0.374968  1
