# generated using pymatgen
data_Ho2Fe8Co4P7
_symmetry_space_group_name_H-M   'P 1'
_cell_length_a   8.95713879
_cell_length_b   8.95291968
_cell_length_c   3.60892400
_cell_angle_alpha   90.00000000
_cell_angle_beta   90.00000000
_cell_angle_gamma   119.94305832
_symmetry_Int_Tables_number   1
_chemical_formula_structural   Ho2Fe8Co4P7
_chemical_formula_sum   'Ho2 Fe8 Co4 P7'
_cell_volume   250.77905670
_cell_formula_units_Z   1
loop_
 _symmetry_equiv_pos_site_id
 _symmetry_equiv_pos_as_xyz
  1  'x, y, z'
loop_
 _atom_site_type_symbol
 _atom_site_label
 _atom_site_symmetry_multiplicity
 _atom_site_fract_x
 _atom_site_fract_y
 _atom_site_fract_z
 _atom_site_occupancy
  Ho  Ho0  1  0.000583  0.999307  0.000000  1
  Ho  Ho1  1  0.332618  0.666837  0.500000  1
  Fe  Fe2  1  0.098174  0.392566  0.000000  1
  Fe  Fe3  1  0.786025  0.178426  0.000000  1
  Fe  Fe4  1  0.393271  0.214771  0.000000  1
  Fe  Fe5  1  0.819562  0.606021  0.000000  1
  Fe  Fe6  1  0.052893  0.768889  0.500000  1
  Fe  Fe7  1  0.539647  0.104817  0.500000  1
  Fe  Fe8  1  0.565341  0.460946  0.500000  1
  Fe  Fe9  1  0.888966  0.432225  0.500000  1
  Co  Co10  1  0.296312  0.902746  0.000000  1
  Co  Co11  1  0.607437  0.706251  0.000000  1
  Co  Co12  1  0.717955  0.947572  0.500000  1
  Co  Co13  1  0.231448  0.282625  0.500000  1
  P  P14  1  0.555106  0.926408  0.000000  1
  P  P15  1  0.369973  0.445549  0.000000  1
  P  P16  1  0.073790  0.628853  0.000000  1
  P  P17  1  0.956599  0.223504  0.500000  1
  P  P18  1  0.264764  0.044300  0.500000  1
  P  P19  1  0.782986  0.734622  0.500000  1
  P  P20  1  0.666552  0.332762  0.000000  1
