# generated using pymatgen
data_Pr4Si7
_symmetry_space_group_name_H-M   'P 1'
_cell_length_a   8.11491233
_cell_length_b   8.11491164
_cell_length_c   8.52317100
_cell_angle_alpha   90.00000000
_cell_angle_beta   90.00000000
_cell_angle_gamma   120.08092723
_symmetry_Int_Tables_number   1
_chemical_formula_structural   Pr4Si7
_chemical_formula_sum   'Pr8 Si14'
_cell_volume   485.67385661
_cell_formula_units_Z   2
loop_
 _symmetry_equiv_pos_site_id
 _symmetry_equiv_pos_as_xyz
  1  'x, y, z'
loop_
 _atom_site_type_symbol
 _atom_site_label
 _atom_site_symmetry_multiplicity
 _atom_site_fract_x
 _atom_site_fract_y
 _atom_site_fract_z
 _atom_site_occupancy
  Pr  Pr0  1  0.253889  0.253889  0.000000  1
  Pr  Pr1  1  0.746111  0.746111  0.000000  1
  Pr  Pr2  1  0.746111  0.746111  0.500000  1
  Pr  Pr3  1  0.253889  0.253889  0.500000  1
  Pr  Pr4  1  0.251804  0.748196  0.495221  1
  Pr  Pr5  1  0.748196  0.251804  0.504779  1
  Pr  Pr6  1  0.748196  0.251804  0.995221  1
  Pr  Pr7  1  0.251804  0.748196  0.004779  1
  Si  Si8  1  0.071339  0.393058  0.250000  1
  Si  Si9  1  0.928661  0.606942  0.750000  1
  Si  Si10  1  0.583773  0.416227  0.250000  1
  Si  Si11  1  0.416227  0.583773  0.750000  1
  Si  Si12  1  0.412812  0.587188  0.250000  1
  Si  Si13  1  0.587188  0.412812  0.750000  1
  Si  Si14  1  0.072492  0.927508  0.250000  1
  Si  Si15  1  0.927508  0.072492  0.750000  1
  Si  Si16  1  0.606942  0.928661  0.250000  1
  Si  Si17  1  0.393058  0.071339  0.750000  1
  Si  Si18  1  0.923845  0.584732  0.250000  1
  Si  Si19  1  0.076155  0.415268  0.750000  1
  Si  Si20  1  0.415268  0.076155  0.250000  1
  Si  Si21  1  0.584732  0.923845  0.750000  1
