# generated using pymatgen
data_Tm4Mn2(AlRe)3
_symmetry_space_group_name_H-M   'P 1'
_cell_length_a   5.39050200
_cell_length_b   5.39050228
_cell_length_c   8.77632900
_cell_angle_alpha   90.00000000
_cell_angle_beta   90.00000000
_cell_angle_gamma   119.99999825
_symmetry_Int_Tables_number   1
_chemical_formula_structural   Tm4Mn2(AlRe)3
_chemical_formula_sum   'Tm4 Mn2 Al3 Re3'
_cell_volume   220.85232757
_cell_formula_units_Z   1
loop_
 _symmetry_equiv_pos_site_id
 _symmetry_equiv_pos_as_xyz
  1  'x, y, z'
loop_
 _atom_site_type_symbol
 _atom_site_label
 _atom_site_symmetry_multiplicity
 _atom_site_fract_x
 _atom_site_fract_y
 _atom_site_fract_z
 _atom_site_occupancy
  Tm  Tm0  1  0.333333  0.666667  0.444601  1
  Tm  Tm1  1  0.666667  0.333333  0.566869  1
  Tm  Tm2  1  0.666667  0.333333  0.933131  1
  Tm  Tm3  1  0.333333  0.666667  0.055399  1
  Mn  Mn4  1  0.000000  0.000000  0.504358  1
  Mn  Mn5  1  0.000000  0.000000  0.995642  1
  Al  Al6  1  0.834295  0.165705  0.250000  1
  Al  Al7  1  0.834295  0.668588  0.250000  1
  Al  Al8  1  0.331412  0.165705  0.250000  1
  Re  Re9  1  0.169151  0.830849  0.750000  1
  Re  Re10  1  0.169151  0.338302  0.750000  1
  Re  Re11  1  0.661698  0.830849  0.750000  1
