# generated using pymatgen
data_Ho3ThCd2CuNi3
_symmetry_space_group_name_H-M   'P 1'
_cell_length_a   7.52029708
_cell_length_b   7.49766630
_cell_length_c   3.62239700
_cell_angle_alpha   90.00000000
_cell_angle_beta   90.00000000
_cell_angle_gamma   91.73782461
_symmetry_Int_Tables_number   1
_chemical_formula_structural   Ho3ThCd2CuNi3
_chemical_formula_sum   'Ho3 Th1 Cd2 Cu1 Ni3'
_cell_volume   204.15374624
_cell_formula_units_Z   1
loop_
 _symmetry_equiv_pos_site_id
 _symmetry_equiv_pos_as_xyz
  1  'x, y, z'
loop_
 _atom_site_type_symbol
 _atom_site_label
 _atom_site_symmetry_multiplicity
 _atom_site_fract_x
 _atom_site_fract_y
 _atom_site_fract_z
 _atom_site_occupancy
  Ho  Ho0  1  0.327144  0.812620  0.500000  1
  Ho  Ho1  1  0.167014  0.340471  0.500000  1
  Ho  Ho2  1  0.827621  0.676188  0.500000  1
  Th  Th3  1  0.688191  0.168371  0.500000  1
  Cd  Cd4  1  0.014985  0.992943  0.000000  1
  Cd  Cd5  1  0.498974  0.502585  0.000000  1
  Cu  Cu6  1  0.373406  0.118977  0.000000  1
  Ni  Ni7  1  0.111985  0.618191  0.000000  1
  Ni  Ni8  1  0.870436  0.377610  0.000000  1
  Ni  Ni9  1  0.620244  0.892044  0.000000  1
