# generated using pymatgen
data_Tb6DyHo13Pb16
_symmetry_space_group_name_H-M   'P 1'
_cell_length_a   8.21107799
_cell_length_b   8.28784310
_cell_length_c   15.63957869
_cell_angle_alpha   90.00572083
_cell_angle_beta   90.06637667
_cell_angle_gamma   89.98927331
_symmetry_Int_Tables_number   1
_chemical_formula_structural   Tb6DyHo13Pb16
_chemical_formula_sum   'Tb6 Dy1 Ho13 Pb16'
_cell_volume   1064.30584319
_cell_formula_units_Z   1
loop_
 _symmetry_equiv_pos_site_id
 _symmetry_equiv_pos_as_xyz
  1  'x, y, z'
loop_
 _atom_site_type_symbol
 _atom_site_label
 _atom_site_symmetry_multiplicity
 _atom_site_fract_x
 _atom_site_fract_y
 _atom_site_fract_z
 _atom_site_occupancy
  Tb  Tb0  1  0.036116  0.176689  0.600096  1
  Tb  Tb1  1  0.463877  0.676673  0.399955  1
  Tb  Tb2  1  0.963786  0.823430  0.100064  1
  Tb  Tb3  1  0.463796  0.676582  0.100035  1
  Tb  Tb4  1  0.963874  0.823321  0.399953  1
  Tb  Tb5  1  0.536113  0.323362  0.600034  1
  Dy  Dy6  1  0.036278  0.176671  0.899874  1
  Ho  Ho7  1  0.376591  0.841323  0.879045  1
  Ho  Ho8  1  0.876527  0.658777  0.621047  1
  Ho  Ho9  1  0.623469  0.158809  0.379012  1
  Ho  Ho10  1  0.123319  0.341067  0.120883  1
  Ho  Ho11  1  0.623311  0.158938  0.120819  1
  Ho  Ho12  1  0.123472  0.341174  0.379010  1
  Ho  Ho13  1  0.376549  0.841233  0.621060  1
  Ho  Ho14  1  0.876529  0.658647  0.879041  1
  Ho  Ho15  1  0.536434  0.323454  0.899821  1
  Ho  Ho16  1  0.208449  0.504384  0.750218  1
  Ho  Ho17  1  0.708322  0.995592  0.750201  1
  Ho  Ho18  1  0.791662  0.495427  0.249922  1
  Ho  Ho19  1  0.291675  0.004576  0.249912  1
  Pb  Pb20  1  0.281482  0.033343  0.042723  1
  Pb  Pb21  1  0.781688  0.466706  0.457216  1
  Pb  Pb22  1  0.718276  0.966684  0.542849  1
  Pb  Pb23  1  0.218682  0.532808  0.957088  1
  Pb  Pb24  1  0.718294  0.967140  0.957105  1
  Pb  Pb25  1  0.218272  0.533326  0.542845  1
  Pb  Pb26  1  0.281696  0.033297  0.457227  1
  Pb  Pb27  1  0.781366  0.466481  0.042587  1
  Pb  Pb28  1  0.571401  0.626350  0.750013  1
  Pb  Pb29  1  0.071457  0.873551  0.750021  1
  Pb  Pb30  1  0.428509  0.373541  0.250000  1
  Pb  Pb31  1  0.928507  0.126479  0.250014  1
  Pb  Pb32  1  0.347024  0.153383  0.750205  1
  Pb  Pb33  1  0.846795  0.346788  0.750102  1
  Pb  Pb34  1  0.653203  0.846872  0.249997  1
  Pb  Pb35  1  0.153200  0.653122  0.250003  1
