# generated using pymatgen
data_Ce4ThMnFeB6
_symmetry_space_group_name_H-M   'P 1'
_cell_length_a   5.36828505
_cell_length_b   5.36828561
_cell_length_c   8.23591009
_cell_angle_alpha   70.97943869
_cell_angle_beta   70.97944999
_cell_angle_gamma   59.99998564
_symmetry_Int_Tables_number   1
_chemical_formula_structural   Ce4ThMnFeB6
_chemical_formula_sum   'Ce4 Th1 Mn1 Fe1 B6'
_cell_volume   190.43770754
_cell_formula_units_Z   1
loop_
 _symmetry_equiv_pos_site_id
 _symmetry_equiv_pos_as_xyz
  1  'x, y, z'
loop_
 _atom_site_type_symbol
 _atom_site_label
 _atom_site_symmetry_multiplicity
 _atom_site_fract_x
 _atom_site_fract_y
 _atom_site_fract_z
 _atom_site_occupancy
  Ce  Ce0  1  0.744460  0.744460  0.766620  1
  Ce  Ce1  1  0.255503  0.255503  0.233493  1
  Ce  Ce2  1  0.588370  0.588370  0.234890  1
  Ce  Ce3  1  0.411141  0.411141  0.766577  1
  Th  Th4  1  0.998969  0.998969  0.003093  1
  Mn  Mn5  1  0.888047  0.888047  0.335861  1
  Fe  Fe6  1  0.112961  0.112961  0.661117  1
  B  B7  1  0.499999  0.167749  0.499725  1
  B  B8  1  0.832528  0.499999  0.499725  1
  B  B9  1  0.167749  0.832528  0.499725  1
  B  B10  1  0.167749  0.499999  0.499725  1
  B  B11  1  0.832528  0.167749  0.499725  1
  B  B12  1  0.499999  0.832528  0.499725  1
