# generated using pymatgen
data_Tm2Zr2CN3
_symmetry_space_group_name_H-M   'P 1'
_cell_length_a   11.10997353
_cell_length_b   11.10997359
_cell_length_c   11.10997396
_cell_angle_alpha   17.31387589
_cell_angle_beta   17.31387224
_cell_angle_gamma   17.31387783
_symmetry_Int_Tables_number   1
_chemical_formula_structural   Tm2Zr2CN3
_chemical_formula_sum   'Tm2 Zr2 C1 N3'
_cell_volume   105.98517329
_cell_formula_units_Z   1
loop_
 _symmetry_equiv_pos_site_id
 _symmetry_equiv_pos_as_xyz
  1  'x, y, z'
loop_
 _atom_site_type_symbol
 _atom_site_label
 _atom_site_symmetry_multiplicity
 _atom_site_fract_x
 _atom_site_fract_y
 _atom_site_fract_z
 _atom_site_occupancy
  Tm  Tm0  1  0.875720  0.875720  0.875720  1
  Tm  Tm1  1  0.124280  0.124280  0.124280  1
  Zr  Zr2  1  0.373689  0.373689  0.373689  1
  Zr  Zr3  1  0.626311  0.626311  0.626311  1
  C  C4  1  0.000000  0.000000  0.000000  1
  N  N5  1  0.251303  0.251303  0.251303  1
  N  N6  1  0.500000  0.500000  0.500000  1
  N  N7  1  0.748697  0.748697  0.748697  1
