# generated using pymatgen
data_Hf5Pa3(InRh2)4
_symmetry_space_group_name_H-M   'P 1'
_cell_length_a   7.54409485
_cell_length_b   7.54409542
_cell_length_c   6.91303700
_cell_angle_alpha   90.00000000
_cell_angle_beta   90.00000000
_cell_angle_gamma   91.00895189
_symmetry_Int_Tables_number   1
_chemical_formula_structural   Hf5Pa3(InRh2)4
_chemical_formula_sum   'Hf5 Pa3 In4 Rh8'
_cell_volume   393.38324135
_cell_formula_units_Z   1
loop_
 _symmetry_equiv_pos_site_id
 _symmetry_equiv_pos_as_xyz
  1  'x, y, z'
loop_
 _atom_site_type_symbol
 _atom_site_label
 _atom_site_symmetry_multiplicity
 _atom_site_fract_x
 _atom_site_fract_y
 _atom_site_fract_z
 _atom_site_occupancy
  Hf  Hf0  1  0.179921  0.820079  0.500000  1
  Hf  Hf1  1  0.320053  0.321975  0.000000  1
  Hf  Hf2  1  0.821090  0.178910  0.500000  1
  Hf  Hf3  1  0.678025  0.679947  0.000000  1
  Hf  Hf4  1  0.841136  0.158864  0.000000  1
  Pa  Pa5  1  0.660644  0.656550  0.500000  1
  Pa  Pa6  1  0.155378  0.844622  0.000000  1
  Pa  Pa7  1  0.343450  0.339356  0.500000  1
  In  In8  1  0.507148  0.002561  0.755205  1
  In  In9  1  0.997439  0.492852  0.244795  1
  In  In10  1  0.997439  0.492852  0.755205  1
  In  In11  1  0.507148  0.002561  0.244795  1
  Rh  Rh12  1  0.136290  0.131347  0.277345  1
  Rh  Rh13  1  0.868653  0.863710  0.722655  1
  Rh  Rh14  1  0.868653  0.863710  0.277345  1
  Rh  Rh15  1  0.136290  0.131347  0.722655  1
  Rh  Rh16  1  0.361623  0.638377  0.221760  1
  Rh  Rh17  1  0.629001  0.370999  0.776900  1
  Rh  Rh18  1  0.361623  0.638377  0.778240  1
  Rh  Rh19  1  0.629001  0.370999  0.223100  1
