# generated using pymatgen
data_LaNdSi6Pd20Au
_symmetry_space_group_name_H-M   'P 1'
_cell_length_a   8.72971342
_cell_length_b   8.72971369
_cell_length_c   8.72971300
_cell_angle_alpha   60.00000642
_cell_angle_beta   60.00000538
_cell_angle_gamma   60.00000681
_symmetry_Int_Tables_number   1
_chemical_formula_structural   LaNdSi6Pd20Au
_chemical_formula_sum   'La1 Nd1 Si6 Pd20 Au1'
_cell_volume   470.41917579
_cell_formula_units_Z   1
loop_
 _symmetry_equiv_pos_site_id
 _symmetry_equiv_pos_as_xyz
  1  'x, y, z'
loop_
 _atom_site_type_symbol
 _atom_site_label
 _atom_site_symmetry_multiplicity
 _atom_site_fract_x
 _atom_site_fract_y
 _atom_site_fract_z
 _atom_site_occupancy
  La  La0  1  0.250000  0.250000  0.250000  1
  Nd  Nd1  1  0.750000  0.750000  0.750000  1
  Si  Si2  1  0.733950  0.266050  0.266050  1
  Si  Si3  1  0.266050  0.733950  0.733950  1
  Si  Si4  1  0.266050  0.733950  0.266050  1
  Si  Si5  1  0.733950  0.266050  0.733950  1
  Si  Si6  1  0.266050  0.266050  0.733950  1
  Si  Si7  1  0.733950  0.733950  0.266050  1
  Pd  Pd8  1  0.344277  0.999911  0.999911  1
  Pd  Pd9  1  0.655902  0.999911  0.999911  1
  Pd  Pd10  1  0.999911  0.344277  0.655902  1
  Pd  Pd11  1  0.999911  0.655902  0.344277  1
  Pd  Pd12  1  0.999911  0.344277  0.999911  1
  Pd  Pd13  1  0.655902  0.999911  0.344277  1
  Pd  Pd14  1  0.999911  0.655902  0.999911  1
  Pd  Pd15  1  0.344277  0.999911  0.655902  1
  Pd  Pd16  1  0.999911  0.999911  0.344277  1
  Pd  Pd17  1  0.999911  0.999911  0.655902  1
  Pd  Pd18  1  0.655902  0.344277  0.999911  1
  Pd  Pd19  1  0.344277  0.655902  0.999911  1
  Pd  Pd20  1  0.385251  0.385251  0.385251  1
  Pd  Pd21  1  0.614783  0.614783  0.614783  1
  Pd  Pd22  1  0.385251  0.385251  0.844246  1
  Pd  Pd23  1  0.385251  0.844246  0.385251  1
  Pd  Pd24  1  0.614783  0.614783  0.155653  1
  Pd  Pd25  1  0.614783  0.155653  0.614783  1
  Pd  Pd26  1  0.844246  0.385251  0.385251  1
  Pd  Pd27  1  0.155653  0.614783  0.614783  1
  Au  Au28  1  0.000000  0.000000  0.000000  1
