# generated using pymatgen
data_Li4TaNi9P7
_symmetry_space_group_name_H-M   'P 1'
_cell_length_a   9.11038860
_cell_length_b   9.08436943
_cell_length_c   3.61681500
_cell_angle_alpha   90.00000000
_cell_angle_beta   90.00000000
_cell_angle_gamma   120.34473763
_symmetry_Int_Tables_number   1
_chemical_formula_structural   Li4TaNi9P7
_chemical_formula_sum   'Li4 Ta1 Ni9 P7'
_cell_volume   258.32679510
_cell_formula_units_Z   1
loop_
 _symmetry_equiv_pos_site_id
 _symmetry_equiv_pos_as_xyz
  1  'x, y, z'
loop_
 _atom_site_type_symbol
 _atom_site_label
 _atom_site_symmetry_multiplicity
 _atom_site_fract_x
 _atom_site_fract_y
 _atom_site_fract_z
 _atom_site_occupancy
  Li  Li0  1  0.898413  0.122514  0.500000  1
  Li  Li1  1  0.222823  0.102024  0.500000  1
  Li  Li2  1  0.332504  0.666589  0.000000  1
  Li  Li3  1  0.665096  0.331822  0.500000  1
  Ta  Ta4  1  0.876291  0.780249  0.500000  1
  Ni  Ni5  1  0.710443  0.881803  0.000000  1
  Ni  Ni6  1  0.167049  0.287510  0.000000  1
  Ni  Ni7  1  0.126602  0.835661  0.000000  1
  Ni  Ni8  1  0.626546  0.565775  0.000000  1
  Ni  Ni9  1  0.940376  0.369377  0.000000  1
  Ni  Ni10  1  0.431025  0.059505  0.000000  1
  Ni  Ni11  1  0.562863  0.954769  0.500000  1
  Ni  Ni12  1  0.391117  0.435569  0.500000  1
  Ni  Ni13  1  0.054051  0.609532  0.500000  1
  P  P14  1  0.576370  0.711689  0.500000  1
  P  P15  1  0.130570  0.416849  0.500000  1
  P  P16  1  0.289784  0.871692  0.500000  1
  P  P17  1  0.002057  0.001628  0.000000  1
  P  P18  1  0.878829  0.573973  0.000000  1
  P  P19  1  0.697094  0.122915  0.000000  1
  P  P20  1  0.420096  0.298554  0.000000  1
