# generated using pymatgen
data_Ac4Cd3Ni2
_symmetry_space_group_name_H-M   'P 1'
_cell_length_a   4.01904200
_cell_length_b   7.91288965
_cell_length_c   8.74774847
_cell_angle_alpha   71.74097876
_cell_angle_beta   90.00000000
_cell_angle_gamma   90.00000000
_symmetry_Int_Tables_number   1
_chemical_formula_structural   Ac4Cd3Ni2
_chemical_formula_sum   'Ac4 Cd3 Ni2'
_cell_volume   264.19063909
_cell_formula_units_Z   1
loop_
 _symmetry_equiv_pos_site_id
 _symmetry_equiv_pos_as_xyz
  1  'x, y, z'
loop_
 _atom_site_type_symbol
 _atom_site_label
 _atom_site_symmetry_multiplicity
 _atom_site_fract_x
 _atom_site_fract_y
 _atom_site_fract_z
 _atom_site_occupancy
  Ac  Ac0  1  0.500000  0.606762  0.185568  1
  Ac  Ac1  1  0.500000  0.912994  0.722761  1
  Ac  Ac2  1  0.500000  0.087006  0.277239  1
  Ac  Ac3  1  0.500000  0.393238  0.814432  1
  Cd  Cd4  1  0.000000  0.698631  0.507497  1
  Cd  Cd5  1  0.000000  0.301369  0.492503  1
  Cd  Cd6  1  0.000000  0.000000  0.000000  1
  Ni  Ni7  1  0.000000  0.351279  0.103708  1
  Ni  Ni8  1  0.000000  0.648721  0.896292  1
