# generated using pymatgen
data_La16Yb4Si15Os
_symmetry_space_group_name_H-M   'P 1'
_cell_length_a   7.79314300
_cell_length_b   8.16107678
_cell_length_c   15.38507100
_cell_angle_alpha   90.00000000
_cell_angle_beta   90.00000000
_cell_angle_gamma   89.90265210
_symmetry_Int_Tables_number   1
_chemical_formula_structural   La16Yb4Si15Os
_chemical_formula_sum   'La16 Yb4 Si15 Os1'
_cell_volume   978.49584772
_cell_formula_units_Z   1
loop_
 _symmetry_equiv_pos_site_id
 _symmetry_equiv_pos_as_xyz
  1  'x, y, z'
loop_
 _atom_site_type_symbol
 _atom_site_label
 _atom_site_symmetry_multiplicity
 _atom_site_fract_x
 _atom_site_fract_y
 _atom_site_fract_z
 _atom_site_occupancy
  La  La0  1  0.812483  0.319678  0.622391  1
  La  La1  1  0.461137  0.691438  0.898548  1
  La  La2  1  0.962648  0.811868  0.901022  1
  La  La3  1  0.201625  0.675292  0.129553  1
  La  La4  1  0.681219  0.809977  0.127071  1
  La  La5  1  0.311924  0.182937  0.876794  1
  La  La6  1  0.201625  0.675292  0.370447  1
  La  La7  1  0.037903  0.188079  0.102740  1
  La  La8  1  0.311924  0.182937  0.623206  1
  La  La9  1  0.530826  0.320939  0.395567  1
  La  La10  1  0.812483  0.319678  0.877609  1
  La  La11  1  0.962648  0.811868  0.598978  1
  La  La12  1  0.461137  0.691438  0.601452  1
  La  La13  1  0.037903  0.188079  0.397260  1
  La  La14  1  0.681219  0.809977  0.372929  1
  La  La15  1  0.530826  0.320939  0.104433  1
  Yb  Yb16  1  0.141622  0.518100  0.750000  1
  Yb  Yb17  1  0.847953  0.486838  0.250000  1
  Yb  Yb18  1  0.364390  0.011771  0.250000  1
  Yb  Yb19  1  0.639577  0.985987  0.750000  1
  Si  Si20  1  0.246858  0.365210  0.250000  1
  Si  Si21  1  0.869595  0.525382  0.460804  1
  Si  Si22  1  0.520561  0.413678  0.750000  1
  Si  Si23  1  0.634920  0.026615  0.961960  1
  Si  Si24  1  0.017380  0.087611  0.750000  1
  Si  Si25  1  0.750101  0.621367  0.750000  1
  Si  Si26  1  0.753185  0.118517  0.250000  1
  Si  Si27  1  0.362195  0.975731  0.462012  1
  Si  Si28  1  0.981741  0.909841  0.250000  1
  Si  Si29  1  0.362195  0.975731  0.037988  1
  Si  Si30  1  0.634920  0.026615  0.538040  1
  Si  Si31  1  0.139032  0.475056  0.962829  1
  Si  Si32  1  0.139032  0.475056  0.537171  1
  Si  Si33  1  0.869595  0.525382  0.039196  1
  Si  Si34  1  0.247180  0.881340  0.750000  1
  Os  Os35  1  0.478440  0.593752  0.250000  1
