# generated using pymatgen
data_Nd2NbReH18
_symmetry_space_group_name_H-M   'P 1'
_cell_length_a   4.87071272
_cell_length_b   4.87071204
_cell_length_c   9.08017100
_cell_angle_alpha   90.00000000
_cell_angle_beta   90.00000000
_cell_angle_gamma   120.11775808
_symmetry_Int_Tables_number   1
_chemical_formula_structural   Nd2NbReH18
_chemical_formula_sum   'Nd2 Nb1 Re1 H18'
_cell_volume   186.33441182
_cell_formula_units_Z   1
loop_
 _symmetry_equiv_pos_site_id
 _symmetry_equiv_pos_as_xyz
  1  'x, y, z'
loop_
 _atom_site_type_symbol
 _atom_site_label
 _atom_site_symmetry_multiplicity
 _atom_site_fract_x
 _atom_site_fract_y
 _atom_site_fract_z
 _atom_site_occupancy
  Nd  Nd0  1  0.991997  0.008003  0.523393  1
  Nd  Nd1  1  0.991997  0.008003  0.976607  1
  Nb  Nb2  1  0.324673  0.675327  0.750000  1
  Re  Re3  1  0.677973  0.322027  0.250000  1
  H  H4  1  0.473137  0.526863  0.595176  1
  H  H5  1  0.559382  0.440618  0.401176  1
  H  H6  1  0.473137  0.526863  0.904824  1
  H  H7  1  0.559382  0.440618  0.098824  1
  H  H8  1  0.478669  0.984694  0.897961  1
  H  H9  1  0.989606  0.489105  0.129252  1
  H  H10  1  0.478669  0.984694  0.602039  1
  H  H11  1  0.989606  0.489105  0.370748  1
  H  H12  1  0.510895  0.010394  0.129252  1
  H  H13  1  0.015306  0.521331  0.897961  1
  H  H14  1  0.510895  0.010394  0.370748  1
  H  H15  1  0.015306  0.521331  0.602039  1
  H  H16  1  0.747252  0.881864  0.750000  1
  H  H17  1  0.822285  0.718082  0.250000  1
  H  H18  1  0.281918  0.177715  0.250000  1
  H  H19  1  0.118136  0.252748  0.750000  1
  H  H20  1  0.115165  0.884835  0.750000  1
  H  H21  1  0.874615  0.125385  0.250000  1
