# generated using pymatgen
data_Sr6Cd2RuRhO12
_symmetry_space_group_name_H-M   'P 1'
_cell_length_a   6.85235907
_cell_length_b   6.85236073
_cell_length_c   6.85235913
_cell_angle_alpha   90.58290220
_cell_angle_beta   90.58289340
_cell_angle_gamma   90.58289328
_symmetry_Int_Tables_number   1
_chemical_formula_structural   Sr6Cd2RuRhO12
_chemical_formula_sum   'Sr6 Cd2 Ru1 Rh1 O12'
_cell_volume   321.70110829
_cell_formula_units_Z   1
loop_
 _symmetry_equiv_pos_site_id
 _symmetry_equiv_pos_as_xyz
  1  'x, y, z'
loop_
 _atom_site_type_symbol
 _atom_site_label
 _atom_site_symmetry_multiplicity
 _atom_site_fract_x
 _atom_site_fract_y
 _atom_site_fract_z
 _atom_site_occupancy
  Sr  Sr0  1  0.883038  0.609963  0.255940  1
  Sr  Sr1  1  0.116962  0.390037  0.744060  1
  Sr  Sr2  1  0.255940  0.883038  0.609963  1
  Sr  Sr3  1  0.609963  0.255940  0.883038  1
  Sr  Sr4  1  0.390037  0.744060  0.116962  1
  Sr  Sr5  1  0.744060  0.116962  0.390037  1
  Cd  Cd6  1  0.746337  0.746337  0.746337  1
  Cd  Cd7  1  0.253663  0.253663  0.253663  1
  Ru  Ru8  1  0.000000  0.000000  0.000000  1
  Rh  Rh9  1  0.500000  0.500000  0.500000  1
  O  O10  1  0.448260  0.585059  0.788390  1
  O  O11  1  0.585059  0.788390  0.448260  1
  O  O12  1  0.948298  0.278294  0.077981  1
  O  O13  1  0.551740  0.414941  0.211610  1
  O  O14  1  0.211610  0.551740  0.414941  1
  O  O15  1  0.051702  0.721706  0.922019  1
  O  O16  1  0.788390  0.448260  0.585059  1
  O  O17  1  0.721706  0.922019  0.051702  1
  O  O18  1  0.077981  0.948298  0.278294  1
  O  O19  1  0.922019  0.051702  0.721706  1
  O  O20  1  0.414941  0.211610  0.551740  1
  O  O21  1  0.278294  0.077981  0.948298  1
