# generated using pymatgen
data_NpU3N4
_symmetry_space_group_name_H-M   'P 1'
_cell_length_a   5.95033100
_cell_length_b   5.95033036
_cell_length_c   5.95033181
_cell_angle_alpha   131.77834556
_cell_angle_beta   131.77833885
_cell_angle_gamma   70.57933334
_symmetry_Int_Tables_number   1
_chemical_formula_structural   NpU3N4
_chemical_formula_sum   'Np1 U3 N4'
_cell_volume   114.78698849
_cell_formula_units_Z   1
loop_
 _symmetry_equiv_pos_site_id
 _symmetry_equiv_pos_as_xyz
  1  'x, y, z'
loop_
 _atom_site_type_symbol
 _atom_site_label
 _atom_site_symmetry_multiplicity
 _atom_site_fract_x
 _atom_site_fract_y
 _atom_site_fract_z
 _atom_site_occupancy
  Np  Np0  1  0.500000  0.500000  0.000000  1
  U  U1  1  0.000000  0.000000  0.000000  1
  U  U2  1  0.750000  0.250000  0.500000  1
  U  U3  1  0.250000  0.750000  0.500000  1
  N  N4  1  0.753248  0.753248  0.000000  1
  N  N5  1  0.246752  0.246752  0.000000  1
  N  N6  1  0.000184  0.500184  0.500000  1
  N  N7  1  0.499816  0.999816  0.500000  1
