# generated using pymatgen
data_YbPr6ZnBr12
_symmetry_space_group_name_H-M   'P 1'
_cell_length_a   9.64957470
_cell_length_b   9.64957511
_cell_length_c   9.64957478
_cell_angle_alpha   107.46311795
_cell_angle_beta   107.46311565
_cell_angle_gamma   107.46309318
_symmetry_Int_Tables_number   1
_chemical_formula_structural   YbPr6ZnBr12
_chemical_formula_sum   'Yb1 Pr6 Zn1 Br12'
_cell_volume   738.63343305
_cell_formula_units_Z   1
loop_
 _symmetry_equiv_pos_site_id
 _symmetry_equiv_pos_as_xyz
  1  'x, y, z'
loop_
 _atom_site_type_symbol
 _atom_site_label
 _atom_site_symmetry_multiplicity
 _atom_site_fract_x
 _atom_site_fract_y
 _atom_site_fract_z
 _atom_site_occupancy
  Yb  Yb0  1  0.500000  0.500000  0.500000  1
  Pr  Pr1  1  0.107045  0.324575  0.026708  1
  Pr  Pr2  1  0.324575  0.026709  0.107044  1
  Pr  Pr3  1  0.026709  0.107044  0.324576  1
  Pr  Pr4  1  0.973292  0.892956  0.675425  1
  Pr  Pr5  1  0.675425  0.973292  0.892956  1
  Pr  Pr6  1  0.892955  0.675425  0.973292  1
  Zn  Zn7  1  0.000000  0.000000  0.000000  1
  Br  Br8  1  0.222597  0.684456  0.072774  1
  Br  Br9  1  0.456212  0.380459  0.169058  1
  Br  Br10  1  0.684457  0.072774  0.222597  1
  Br  Br11  1  0.927227  0.777403  0.315544  1
  Br  Br12  1  0.169058  0.456212  0.380459  1
  Br  Br13  1  0.380459  0.169058  0.456212  1
  Br  Br14  1  0.619541  0.830942  0.543789  1
  Br  Br15  1  0.830943  0.543788  0.619541  1
  Br  Br16  1  0.072774  0.222597  0.684457  1
  Br  Br17  1  0.315544  0.927227  0.777403  1
  Br  Br18  1  0.543788  0.619541  0.830943  1
  Br  Br19  1  0.777403  0.315544  0.927226  1
