# generated using pymatgen
data_TbYB6IrRh8
_symmetry_space_group_name_H-M   'P 1'
_cell_length_a   5.62263002
_cell_length_b   5.60974287
_cell_length_c   8.59609300
_cell_angle_alpha   90.00000000
_cell_angle_beta   90.00000000
_cell_angle_gamma   119.92420646
_symmetry_Int_Tables_number   1
_chemical_formula_structural   TbYB6IrRh8
_chemical_formula_sum   'Tb1 Y1 B6 Ir1 Rh8'
_cell_volume   234.98783671
_cell_formula_units_Z   1
loop_
 _symmetry_equiv_pos_site_id
 _symmetry_equiv_pos_as_xyz
  1  'x, y, z'
loop_
 _atom_site_type_symbol
 _atom_site_label
 _atom_site_symmetry_multiplicity
 _atom_site_fract_x
 _atom_site_fract_y
 _atom_site_fract_z
 _atom_site_occupancy
  Tb  Tb0  1  0.000000  0.000000  0.705714  1
  Y  Y1  1  0.000000  0.000000  0.294310  1
  B  B2  1  0.666856  0.333427  0.000032  1
  B  B3  1  0.333144  0.666573  0.000032  1
  B  B4  1  0.667753  0.333876  0.667830  1
  B  B5  1  0.332247  0.666124  0.667830  1
  B  B6  1  0.332250  0.666125  0.332154  1
  B  B7  1  0.667750  0.333875  0.332154  1
  Ir  Ir8  1  0.000000  0.500000  0.499974  1
  Rh  Rh9  1  0.500000  0.500000  0.835825  1
  Rh  Rh10  1  0.500000  0.000000  0.835825  1
  Rh  Rh11  1  0.000000  0.500000  0.836353  1
  Rh  Rh12  1  0.500000  0.500000  0.164181  1
  Rh  Rh13  1  0.500000  0.000000  0.164181  1
  Rh  Rh14  1  0.000000  0.500000  0.163647  1
  Rh  Rh15  1  0.500000  0.500000  0.499981  1
  Rh  Rh16  1  0.500000  0.000000  0.499981  1
