# generated using pymatgen
data_Tm10Cd3Fe
_symmetry_space_group_name_H-M   'P 1'
_cell_length_a   9.41452400
_cell_length_b   9.41452491
_cell_length_c   9.67490700
_cell_angle_alpha   90.00000000
_cell_angle_beta   90.00000000
_cell_angle_gamma   119.99999680
_symmetry_Int_Tables_number   1
_chemical_formula_structural   Tm10Cd3Fe
_chemical_formula_sum   'Tm20 Cd6 Fe2'
_cell_volume   742.63296020
_cell_formula_units_Z   2
loop_
 _symmetry_equiv_pos_site_id
 _symmetry_equiv_pos_as_xyz
  1  'x, y, z'
loop_
 _atom_site_type_symbol
 _atom_site_label
 _atom_site_symmetry_multiplicity
 _atom_site_fract_x
 _atom_site_fract_y
 _atom_site_fract_z
 _atom_site_occupancy
  Tm  Tm0  1  0.000000  0.000000  0.500000  1
  Tm  Tm1  1  0.000000  0.000000  0.000000  1
  Tm  Tm2  1  0.541039  0.458961  0.250000  1
  Tm  Tm3  1  0.541039  0.082078  0.250000  1
  Tm  Tm4  1  0.917922  0.458961  0.250000  1
  Tm  Tm5  1  0.458961  0.541039  0.750000  1
  Tm  Tm6  1  0.458961  0.917922  0.750000  1
  Tm  Tm7  1  0.082078  0.541039  0.750000  1
  Tm  Tm8  1  0.212139  0.787861  0.436551  1
  Tm  Tm9  1  0.212139  0.424279  0.436551  1
  Tm  Tm10  1  0.575721  0.787861  0.436551  1
  Tm  Tm11  1  0.787861  0.212139  0.563449  1
  Tm  Tm12  1  0.787861  0.575721  0.563449  1
  Tm  Tm13  1  0.424279  0.212139  0.563449  1
  Tm  Tm14  1  0.787861  0.212139  0.936551  1
  Tm  Tm15  1  0.787861  0.575721  0.936551  1
  Tm  Tm16  1  0.424279  0.212139  0.936551  1
  Tm  Tm17  1  0.212139  0.787861  0.063449  1
  Tm  Tm18  1  0.212139  0.424279  0.063449  1
  Tm  Tm19  1  0.575721  0.787861  0.063449  1
  Cd  Cd20  1  0.885346  0.114654  0.250000  1
  Cd  Cd21  1  0.885346  0.770692  0.250000  1
  Cd  Cd22  1  0.229308  0.114654  0.250000  1
  Cd  Cd23  1  0.114654  0.885346  0.750000  1
  Cd  Cd24  1  0.114654  0.229308  0.750000  1
  Cd  Cd25  1  0.770692  0.885346  0.750000  1
  Fe  Fe26  1  0.333333  0.666667  0.250000  1
  Fe  Fe27  1  0.666667  0.333333  0.750000  1
