# generated using pymatgen
data_Er4LuSi12Ir19
_symmetry_space_group_name_H-M   'P 1'
_cell_length_a   12.81781001
_cell_length_b   12.81780984
_cell_length_c   3.97394500
_cell_angle_alpha   90.00000000
_cell_angle_beta   90.00000000
_cell_angle_gamma   120.00551539
_symmetry_Int_Tables_number   1
_chemical_formula_structural   Er4LuSi12Ir19
_chemical_formula_sum   'Er4 Lu1 Si12 Ir19'
_cell_volume   565.40025372
_cell_formula_units_Z   1
loop_
 _symmetry_equiv_pos_site_id
 _symmetry_equiv_pos_as_xyz
  1  'x, y, z'
loop_
 _atom_site_type_symbol
 _atom_site_label
 _atom_site_symmetry_multiplicity
 _atom_site_fract_x
 _atom_site_fract_y
 _atom_site_fract_z
 _atom_site_occupancy
  Er  Er0  1  0.666674  0.333313  0.000000  1
  Er  Er1  1  0.333313  0.666674  0.000000  1
  Er  Er2  1  0.185080  0.999968  0.500000  1
  Er  Er3  1  0.999968  0.185080  0.500000  1
  Lu  Lu4  1  0.814964  0.814964  0.500000  1
  Si  Si5  1  0.687959  0.169074  0.500000  1
  Si  Si6  1  0.830862  0.518795  0.500000  1
  Si  Si7  1  0.481244  0.312077  0.500000  1
  Si  Si8  1  0.169074  0.687959  0.500000  1
  Si  Si9  1  0.518795  0.830862  0.500000  1
  Si  Si10  1  0.312077  0.481244  0.500000  1
  Si  Si11  1  0.632679  0.632679  0.000000  1
  Si  Si12  1  0.367666  0.000017  0.000000  1
  Si  Si13  1  0.000017  0.367666  0.000000  1
  Si  Si14  1  0.180707  0.180707  0.000000  1
  Si  Si15  1  0.819134  0.999664  0.000000  1
  Si  Si16  1  0.999664  0.819134  0.000000  1
  Ir  Ir17  1  0.806283  0.182576  0.000000  1
  Ir  Ir18  1  0.817230  0.624164  0.000000  1
  Ir  Ir19  1  0.376360  0.193736  0.000000  1
  Ir  Ir20  1  0.182576  0.806283  0.000000  1
  Ir  Ir21  1  0.624164  0.817230  0.000000  1
  Ir  Ir22  1  0.193736  0.376360  0.000000  1
  Ir  Ir23  1  0.447094  0.447094  0.000000  1
  Ir  Ir24  1  0.553046  0.000036  0.000000  1
  Ir  Ir25  1  0.000036  0.553046  0.000000  1
  Ir  Ir26  1  0.282441  0.282441  0.500000  1
  Ir  Ir27  1  0.717737  0.999765  0.500000  1
  Ir  Ir28  1  0.999765  0.717737  0.500000  1
  Ir  Ir29  1  0.873441  0.361556  0.500000  1
  Ir  Ir30  1  0.638512  0.511975  0.500000  1
  Ir  Ir31  1  0.488167  0.126573  0.500000  1
  Ir  Ir32  1  0.361556  0.873441  0.500000  1
  Ir  Ir33  1  0.511975  0.638512  0.500000  1
  Ir  Ir34  1  0.126573  0.488167  0.500000  1
  Ir  Ir35  1  0.999431  0.999431  0.000000  1
