# generated using pymatgen
data_TbYTi3P7Rh9
_symmetry_space_group_name_H-M   'P 1'
_cell_length_a   3.84112800
_cell_length_b   9.68800247
_cell_length_c   9.68706314
_cell_angle_alpha   119.98975292
_cell_angle_beta   89.99954629
_cell_angle_gamma   90.00043587
_symmetry_Int_Tables_number   1
_chemical_formula_structural   TbYTi3P7Rh9
_chemical_formula_sum   'Tb1 Y1 Ti3 P7 Rh9'
_cell_volume   312.21992653
_cell_formula_units_Z   1
loop_
 _symmetry_equiv_pos_site_id
 _symmetry_equiv_pos_as_xyz
  1  'x, y, z'
loop_
 _atom_site_type_symbol
 _atom_site_label
 _atom_site_symmetry_multiplicity
 _atom_site_fract_x
 _atom_site_fract_y
 _atom_site_fract_z
 _atom_site_occupancy
  Tb  Tb0  1  0.261657  0.666632  0.333312  1
  Y  Y1  1  0.761779  0.333446  0.666676  1
  Ti  Ti2  1  0.762119  0.100115  0.878773  1
  Ti  Ti3  1  0.762143  0.121025  0.221249  1
  Ti  Ti4  1  0.762111  0.778704  0.899917  1
  P  P5  1  0.262626  0.999826  0.999935  1
  P  P6  1  0.761785  0.876652  0.589069  1
  P  P7  1  0.761797  0.410780  0.287516  1
  P  P8  1  0.761753  0.712459  0.123365  1
  P  P9  1  0.261839  0.116080  0.416652  1
  P  P10  1  0.261867  0.583484  0.699415  1
  P  P11  1  0.261836  0.300657  0.884076  1
  Rh  Rh12  1  0.261787  0.884006  0.159642  1
  Rh  Rh13  1  0.261892  0.840432  0.724351  1
  Rh  Rh14  1  0.261835  0.275354  0.115848  1
  Rh  Rh15  1  0.761910  0.610148  0.558531  1
  Rh  Rh16  1  0.761846  0.441440  0.051648  1
  Rh  Rh17  1  0.761796  0.948513  0.390001  1
  Rh  Rh18  1  0.261957  0.365135  0.436197  1
  Rh  Rh19  1  0.261885  0.563737  0.928818  1
  Rh  Rh20  1  0.261780  0.071371  0.635011  1
