# generated using pymatgen
data_Er12Tc3Ir
_symmetry_space_group_name_H-M   'P 1'
_cell_length_a   6.23145504
_cell_length_b   7.35290910
_cell_length_c   9.02424300
_cell_angle_alpha   90.00000000
_cell_angle_beta   90.00000000
_cell_angle_gamma   89.98423316
_symmetry_Int_Tables_number   1
_chemical_formula_structural   Er12Tc3Ir
_chemical_formula_sum   'Er12 Tc3 Ir1'
_cell_volume   413.48468434
_cell_formula_units_Z   1
loop_
 _symmetry_equiv_pos_site_id
 _symmetry_equiv_pos_as_xyz
  1  'x, y, z'
loop_
 _atom_site_type_symbol
 _atom_site_label
 _atom_site_symmetry_multiplicity
 _atom_site_fract_x
 _atom_site_fract_y
 _atom_site_fract_z
 _atom_site_occupancy
  Er  Er0  1  0.334482  0.676034  0.063709  1
  Er  Er1  1  0.161749  0.175398  0.437118  1
  Er  Er2  1  0.663503  0.322890  0.561249  1
  Er  Er3  1  0.836599  0.825574  0.938511  1
  Er  Er4  1  0.663503  0.322890  0.938751  1
  Er  Er5  1  0.836599  0.825574  0.561489  1
  Er  Er6  1  0.334482  0.676034  0.436291  1
  Er  Er7  1  0.161749  0.175398  0.062882  1
  Er  Er8  1  0.875353  0.539921  0.250000  1
  Er  Er9  1  0.623995  0.037951  0.250000  1
  Er  Er10  1  0.130281  0.458642  0.750000  1
  Er  Er11  1  0.372558  0.960493  0.750000  1
  Tc  Tc12  1  0.039538  0.883670  0.250000  1
  Tc  Tc13  1  0.462726  0.386020  0.250000  1
  Tc  Tc14  1  0.960331  0.116720  0.750000  1
  Ir  Ir15  1  0.542552  0.616792  0.750000  1
