# generated using pymatgen
data_Sc12Tc(AuI8)2
_symmetry_space_group_name_H-M   'P 1'
_cell_length_a   9.12859238
_cell_length_b   11.99622407
_cell_length_c   12.60638200
_cell_angle_alpha   117.07671335
_cell_angle_beta   101.13270831
_cell_angle_gamma   100.63230000
_symmetry_Int_Tables_number   1
_chemical_formula_structural   Sc12Tc(AuI8)2
_chemical_formula_sum   'Sc12 Tc1 Au2 I16'
_cell_volume   1145.94940247
_cell_formula_units_Z   1
loop_
 _symmetry_equiv_pos_site_id
 _symmetry_equiv_pos_as_xyz
  1  'x, y, z'
loop_
 _atom_site_type_symbol
 _atom_site_label
 _atom_site_symmetry_multiplicity
 _atom_site_fract_x
 _atom_site_fract_y
 _atom_site_fract_z
 _atom_site_occupancy
  Sc  Sc0  1  0.095271  0.271551  0.359470  1
  Sc  Sc1  1  0.911949  0.738402  0.646566  1
  Sc  Sc2  1  0.775582  0.536713  0.322241  1
  Sc  Sc3  1  0.225971  0.465087  0.669563  1
  Sc  Sc4  1  0.281871  0.729108  0.640322  1
  Sc  Sc5  1  0.717556  0.261035  0.353811  1
  Sc  Sc6  1  0.151483  0.535156  0.330519  1
  Sc  Sc7  1  0.853697  0.463145  0.677837  1
  Sc  Sc8  1  0.396624  0.360204  0.276008  1
  Sc  Sc9  1  0.583199  0.639740  0.723863  1
  Sc  Sc10  1  0.449245  0.309902  0.521138  1
  Sc  Sc11  1  0.530949  0.689967  0.478679  1
  Tc  Tc12  1  0.340947  0.500106  0.499632  1
  Au  Au13  1  0.998992  0.500197  0.500285  1
  Au  Au14  1  0.661549  0.499779  0.500351  1
  I  I15  1  0.392249  0.742510  0.888489  1
  I  I16  1  0.608298  0.261203  0.116969  1
  I  I17  1  0.188336  0.964998  0.783770  1
  I  I18  1  0.811554  0.034871  0.216267  1
  I  I19  1  0.345160  0.095000  0.251495  1
  I  I20  1  0.670809  0.905045  0.748595  1
  I  I21  1  0.567676  0.437557  0.800649  1
  I  I22  1  0.447135  0.562206  0.199201  1
  I  I23  1  0.301998  0.829607  0.460914  1
  I  I24  1  0.697020  0.174991  0.538670  1
  I  I25  1  0.160467  0.169989  0.536365  1
  I  I26  1  0.835757  0.825395  0.463720  1
  I  I27  1  0.926562  0.574720  0.157032  1
  I  I28  1  0.076506  0.425435  0.843035  1
  I  I29  1  0.926700  0.737615  0.883273  1
  I  I30  1  0.068884  0.258767  0.111272  1
