# generated using pymatgen
data_Tm2Cr3Co9P7
_symmetry_space_group_name_H-M   'P 1'
_cell_length_a   8.93882800
_cell_length_b   8.93882839
_cell_length_c   3.62066800
_cell_angle_alpha   90.00000000
_cell_angle_beta   90.00000000
_cell_angle_gamma   120.00000596
_symmetry_Int_Tables_number   1
_chemical_formula_structural   Tm2Cr3Co9P7
_chemical_formula_sum   'Tm2 Cr3 Co9 P7'
_cell_volume   250.54197096
_cell_formula_units_Z   1
loop_
 _symmetry_equiv_pos_site_id
 _symmetry_equiv_pos_as_xyz
  1  'x, y, z'
loop_
 _atom_site_type_symbol
 _atom_site_label
 _atom_site_symmetry_multiplicity
 _atom_site_fract_x
 _atom_site_fract_y
 _atom_site_fract_z
 _atom_site_occupancy
  Tm  Tm0  1  0.000000  0.000000  0.000000  1
  Tm  Tm1  1  0.666667  0.333333  0.500000  1
  Cr  Cr2  1  0.456635  0.570310  0.500000  1
  Cr  Cr3  1  0.429690  0.886325  0.500000  1
  Cr  Cr4  1  0.113675  0.543365  0.500000  1
  Co  Co5  1  0.706245  0.605446  0.000000  1
  Co  Co6  1  0.394554  0.100800  0.000000  1
  Co  Co7  1  0.899200  0.293755  0.000000  1
  Co  Co8  1  0.212237  0.389180  0.000000  1
  Co  Co9  1  0.610820  0.823057  0.000000  1
  Co  Co10  1  0.176943  0.787763  0.000000  1
  Co  Co11  1  0.282038  0.231508  0.500000  1
  Co  Co12  1  0.768492  0.050530  0.500000  1
  Co  Co13  1  0.949470  0.717962  0.500000  1
  P  P14  1  0.446972  0.372171  0.000000  1
  P  P15  1  0.627829  0.074801  0.000000  1
  P  P16  1  0.925199  0.553028  0.000000  1
  P  P17  1  0.042453  0.262093  0.500000  1
  P  P18  1  0.737907  0.780361  0.500000  1
  P  P19  1  0.219639  0.957547  0.500000  1
  P  P20  1  0.333333  0.666667  0.000000  1
