# generated using pymatgen
data_NaP4IrO13
_symmetry_space_group_name_H-M   'P 1'
_cell_length_a   5.10834918
_cell_length_b   8.00816701
_cell_length_c   15.35533403
_cell_angle_alpha   83.07797410
_cell_angle_beta   86.43788039
_cell_angle_gamma   80.42637288
_symmetry_Int_Tables_number   1
_chemical_formula_structural   NaP4IrO13
_chemical_formula_sum   'Na2 P8 Ir2 O26'
_cell_volume   614.33180085
_cell_formula_units_Z   2
loop_
 _symmetry_equiv_pos_site_id
 _symmetry_equiv_pos_as_xyz
  1  'x, y, z'
loop_
 _atom_site_type_symbol
 _atom_site_label
 _atom_site_symmetry_multiplicity
 _atom_site_fract_x
 _atom_site_fract_y
 _atom_site_fract_z
 _atom_site_occupancy
  Na  Na0  1  0.472938  0.482485  0.502489  1
  Na  Na1  1  0.937607  0.625644  0.001908  1
  P  P2  1  0.370397  0.581925  0.805917  1
  P  P3  1  0.011194  0.095632  0.838124  1
  P  P4  1  0.700167  0.322011  0.705460  1
  P  P5  1  0.862139  0.214514  0.353863  1
  P  P6  1  0.979421  0.899007  0.161810  1
  P  P7  1  0.287348  0.674462  0.295344  1
  P  P8  1  0.136212  0.782480  0.642694  1
  P  P9  1  0.627699  0.417831  0.191835  1
  Ir  Ir10  1  0.421329  0.057886  0.257424  1
  Ir  Ir11  1  0.574281  0.938342  0.740076  1
  O  O12  1  0.466484  0.598330  0.214497  1
  O  O13  1  0.673695  0.967843  0.165877  1
  O  O14  1  0.558706  0.176182  0.682422  1
  O  O15  1  0.861503  0.947135  0.819769  1
  O  O16  1  0.177046  0.636447  0.725821  1
  O  O17  1  0.769698  0.445439  0.106382  1
  O  O18  1  0.425406  0.822853  0.317122  1
  O  O19  1  0.419615  0.294586  0.199277  1
  O  O20  1  0.521791  0.397216  0.787118  1
  O  O21  1  0.017815  0.756838  0.248274  1
  O  O22  1  0.588317  0.698749  0.796859  1
  O  O23  1  0.970431  0.237451  0.751476  1
  O  O24  1  0.286697  0.929062  0.660898  1
  O  O25  1  0.064460  0.821720  0.079917  1
  O  O26  1  0.833101  0.858637  0.648789  1
  O  O27  1  0.929748  0.167001  0.921338  1
  O  O28  1  0.736263  0.450863  0.630668  1
  O  O29  1  0.314601  0.019521  0.830827  1
  O  O30  1  0.772841  0.281475  0.438000  1
  O  O31  1  0.249308  0.546490  0.370216  1
  O  O32  1  0.167734  0.144778  0.349578  1
  O  O33  1  0.124999  0.047428  0.180843  1
  O  O34  1  0.224557  0.567777  0.891364  1
  O  O35  1  0.823860  0.361726  0.271116  1
  O  O36  1  0.719256  0.066145  0.332371  1
  O  O37  1  0.214584  0.712171  0.558734  1
