# generated using pymatgen
data_Nd6Ga2(IrRh)3
_symmetry_space_group_name_H-M   'P 1'
_cell_length_a   5.76193565
_cell_length_b   5.76193590
_cell_length_c   14.01798334
_cell_angle_alpha   90.11460353
_cell_angle_beta   89.88539757
_cell_angle_gamma   137.58605440
_symmetry_Int_Tables_number   1
_chemical_formula_structural   Nd6Ga2(IrRh)3
_chemical_formula_sum   'Nd6 Ga2 Ir3 Rh3'
_cell_volume   313.90034866
_cell_formula_units_Z   1
loop_
 _symmetry_equiv_pos_site_id
 _symmetry_equiv_pos_as_xyz
  1  'x, y, z'
loop_
 _atom_site_type_symbol
 _atom_site_label
 _atom_site_symmetry_multiplicity
 _atom_site_fract_x
 _atom_site_fract_y
 _atom_site_fract_z
 _atom_site_occupancy
  Nd  Nd0  1  0.792444  0.207556  0.393363  1
  Nd  Nd1  1  0.207624  0.792376  0.607777  1
  Nd  Nd2  1  0.792216  0.207784  0.106927  1
  Nd  Nd3  1  0.207196  0.792804  0.892746  1
  Nd  Nd4  1  0.515722  0.484278  0.250788  1
  Nd  Nd5  1  0.483123  0.516877  0.750282  1
  Ga  Ga6  1  0.501467  0.498533  0.499268  1
  Ga  Ga7  1  0.499919  0.500081  0.999744  1
  Ir  Ir8  1  0.078945  0.921055  0.411932  1
  Ir  Ir9  1  0.232672  0.767328  0.250401  1
  Ir  Ir10  1  0.764495  0.235505  0.750514  1
  Rh  Rh11  1  0.922638  0.077362  0.587109  1
  Rh  Rh12  1  0.079101  0.920899  0.086084  1
  Rh  Rh13  1  0.922438  0.077562  0.913066  1
