# generated using pymatgen
data_Ba5SrRh
_symmetry_space_group_name_H-M   'P 1'
_cell_length_a   13.39016600
_cell_length_b   13.39016521
_cell_length_c   7.51961200
_cell_angle_alpha   90.00000000
_cell_angle_beta   90.00000000
_cell_angle_gamma   120.00000196
_symmetry_Int_Tables_number   1
_chemical_formula_structural   Ba5SrRh
_chemical_formula_sum   'Ba15 Sr3 Rh3'
_cell_volume   1167.61039226
_cell_formula_units_Z   3
loop_
 _symmetry_equiv_pos_site_id
 _symmetry_equiv_pos_as_xyz
  1  'x, y, z'
loop_
 _atom_site_type_symbol
 _atom_site_label
 _atom_site_symmetry_multiplicity
 _atom_site_fract_x
 _atom_site_fract_y
 _atom_site_fract_z
 _atom_site_occupancy
  Ba  Ba0  1  0.120396  0.560197  0.248870  1
  Ba  Ba1  1  0.439802  0.560197  0.248870  1
  Ba  Ba2  1  0.439803  0.879604  0.248870  1
  Ba  Ba3  1  0.449717  0.224859  0.277160  1
  Ba  Ba4  1  0.775142  0.224859  0.277160  1
  Ba  Ba5  1  0.775141  0.550283  0.277160  1
  Ba  Ba6  1  0.225177  0.450353  0.720611  1
  Ba  Ba7  1  0.225176  0.774823  0.720611  1
  Ba  Ba8  1  0.549647  0.774823  0.720611  1
  Ba  Ba9  1  0.559837  0.119675  0.750678  1
  Ba  Ba10  1  0.559838  0.440163  0.750678  1
  Ba  Ba11  1  0.880325  0.440163  0.750678  1
  Ba  Ba12  1  0.212572  0.106287  0.764872  1
  Ba  Ba13  1  0.893713  0.106287  0.764872  1
  Ba  Ba14  1  0.893713  0.787429  0.764872  1
  Sr  Sr15  1  0.104007  0.208012  0.235693  1
  Sr  Sr16  1  0.104007  0.895993  0.235693  1
  Sr  Sr17  1  0.791987  0.895993  0.235693  1
  Rh  Rh18  1  0.000000  0.000000  0.003707  1
  Rh  Rh19  1  0.333333  0.666666  0.490416  1
  Rh  Rh20  1  0.666667  0.333334  0.512217  1
