# generated using pymatgen
data_Ho2Lu(ThIr6)3
_symmetry_space_group_name_H-M   'P 1'
_cell_length_a   5.33974779
_cell_length_b   5.33974722
_cell_length_c   17.86735400
_cell_angle_alpha   98.59374930
_cell_angle_beta   98.59374767
_cell_angle_gamma   60.00000815
_symmetry_Int_Tables_number   1
_chemical_formula_structural   Ho2Lu(ThIr6)3
_chemical_formula_sum   'Ho2 Lu1 Th3 Ir18'
_cell_volume   434.57964767
_cell_formula_units_Z   1
loop_
 _symmetry_equiv_pos_site_id
 _symmetry_equiv_pos_as_xyz
  1  'x, y, z'
loop_
 _atom_site_type_symbol
 _atom_site_label
 _atom_site_symmetry_multiplicity
 _atom_site_fract_x
 _atom_site_fract_y
 _atom_site_fract_z
 _atom_site_occupancy
  Ho  Ho0  1  0.429045  0.429045  0.287136  1
  Ho  Ho1  1  0.931313  0.931313  0.793940  1
  Lu  Lu2  1  0.070410  0.070410  0.211230  1
  Th  Th3  1  0.570107  0.570107  0.710321  1
  Th  Th4  1  0.000865  0.000865  0.002596  1
  Th  Th5  1  0.498270  0.498270  0.494809  1
  Ir  Ir6  1  0.457199  0.958438  0.374075  1
  Ir  Ir7  1  0.959475  0.458947  0.877370  1
  Ir  Ir8  1  0.958438  0.958438  0.374075  1
  Ir  Ir9  1  0.458947  0.458947  0.877370  1
  Ir  Ir10  1  0.958438  0.457199  0.374075  1
  Ir  Ir11  1  0.458947  0.959475  0.877370  1
  Ir  Ir12  1  0.042426  0.541670  0.125765  1
  Ir  Ir13  1  0.540925  0.040799  0.622525  1
  Ir  Ir14  1  0.541670  0.541670  0.125765  1
  Ir  Ir15  1  0.040799  0.040799  0.622525  1
  Ir  Ir16  1  0.541670  0.042426  0.125765  1
  Ir  Ir17  1  0.040799  0.540925  0.622525  1
  Ir  Ir18  1  0.333951  0.333951  0.001853  1
  Ir  Ir19  1  0.833024  0.833024  0.499073  1
  Ir  Ir20  1  0.166162  0.166162  0.498486  1
  Ir  Ir21  1  0.666845  0.666845  0.000534  1
  Ir  Ir22  1  0.749965  0.749965  0.249896  1
  Ir  Ir23  1  0.250308  0.250308  0.750926  1
