# generated using pymatgen
data_La4P6N13
_symmetry_space_group_name_H-M   'P 1'
_cell_length_a   7.58086716
_cell_length_b   7.58086761
_cell_length_c   7.58086900
_cell_angle_alpha   109.47122169
_cell_angle_beta   109.47122289
_cell_angle_gamma   109.47122474
_symmetry_Int_Tables_number   1
_chemical_formula_structural   La4P6N13
_chemical_formula_sum   'La4 P6 N13'
_cell_volume   335.37822349
_cell_formula_units_Z   1
loop_
 _symmetry_equiv_pos_site_id
 _symmetry_equiv_pos_as_xyz
  1  'x, y, z'
loop_
 _atom_site_type_symbol
 _atom_site_label
 _atom_site_symmetry_multiplicity
 _atom_site_fract_x
 _atom_site_fract_y
 _atom_site_fract_z
 _atom_site_occupancy
  La  La0  1  0.685129  0.000000  0.000000  1
  La  La1  1  0.000000  0.000000  0.685129  1
  La  La2  1  0.000000  0.685129  0.000000  1
  La  La3  1  0.314871  0.314871  0.314871  1
  P  P4  1  0.250000  0.750000  0.500000  1
  P  P5  1  0.750000  0.250000  0.500000  1
  P  P6  1  0.750000  0.500000  0.250000  1
  P  P7  1  0.250000  0.500000  0.750000  1
  P  P8  1  0.500000  0.750000  0.250000  1
  P  P9  1  0.500000  0.250000  0.750000  1
  N  N10  1  0.000000  0.000000  0.000000  1
  N  N11  1  0.694611  0.301860  0.301860  1
  N  N12  1  0.301860  0.694611  0.301860  1
  N  N13  1  0.305389  0.607249  0.607249  1
  N  N14  1  0.607249  0.607249  0.305389  1
  N  N15  1  0.392751  0.698140  0.000000  1
  N  N16  1  0.000000  0.698140  0.392751  1
  N  N17  1  0.607249  0.305389  0.607249  1
  N  N18  1  0.698140  0.000000  0.392751  1
  N  N19  1  0.392751  0.000000  0.698140  1
  N  N20  1  0.698140  0.392751  0.000000  1
  N  N21  1  0.301860  0.301860  0.694611  1
  N  N22  1  0.000000  0.392751  0.698140  1
