# generated using pymatgen
data_LiLa6(DyRh3)2
_symmetry_space_group_name_H-M   'P 1'
_cell_length_a   7.62502185
_cell_length_b   7.62502081
_cell_length_c   7.62502193
_cell_angle_alpha   70.51039526
_cell_angle_beta   70.51040116
_cell_angle_gamma   70.51039578
_symmetry_Int_Tables_number   1
_chemical_formula_structural   LiLa6(DyRh3)2
_chemical_formula_sum   'Li1 La6 Dy2 Rh6'
_cell_volume   381.45038575
_cell_formula_units_Z   1
loop_
 _symmetry_equiv_pos_site_id
 _symmetry_equiv_pos_as_xyz
  1  'x, y, z'
loop_
 _atom_site_type_symbol
 _atom_site_label
 _atom_site_symmetry_multiplicity
 _atom_site_fract_x
 _atom_site_fract_y
 _atom_site_fract_z
 _atom_site_occupancy
  Li  Li0  1  0.000000  0.000000  0.000000  1
  La  La1  1  0.149325  0.382030  0.680739  1
  La  La2  1  0.680739  0.149325  0.382030  1
  La  La3  1  0.382030  0.680739  0.149325  1
  La  La4  1  0.850675  0.617970  0.319261  1
  La  La5  1  0.319261  0.850675  0.617970  1
  La  La6  1  0.617970  0.319261  0.850675  1
  Dy  Dy7  1  0.812419  0.812419  0.812419  1
  Dy  Dy8  1  0.187581  0.187581  0.187581  1
  Rh  Rh9  1  0.952216  0.179496  0.573824  1
  Rh  Rh10  1  0.573824  0.952216  0.179496  1
  Rh  Rh11  1  0.179496  0.573824  0.952216  1
  Rh  Rh12  1  0.047784  0.820504  0.426176  1
  Rh  Rh13  1  0.426176  0.047784  0.820504  1
  Rh  Rh14  1  0.820504  0.426176  0.047784  1
