# generated using pymatgen
data_Tb8AgHgPt2
_symmetry_space_group_name_H-M   'P 1'
_cell_length_a   9.65462837
_cell_length_b   9.65462828
_cell_length_c   9.62759600
_cell_angle_alpha   60.09257777
_cell_angle_beta   60.09257809
_cell_angle_gamma   60.09405533
_symmetry_Int_Tables_number   1
_chemical_formula_structural   Tb8AgHgPt2
_chemical_formula_sum   'Tb16 Ag2 Hg2 Pt4'
_cell_volume   635.90010448
_cell_formula_units_Z   2
loop_
 _symmetry_equiv_pos_site_id
 _symmetry_equiv_pos_as_xyz
  1  'x, y, z'
loop_
 _atom_site_type_symbol
 _atom_site_label
 _atom_site_symmetry_multiplicity
 _atom_site_fract_x
 _atom_site_fract_y
 _atom_site_fract_z
 _atom_site_occupancy
  Tb  Tb0  1  0.353793  0.353793  0.352973  1
  Tb  Tb1  1  0.353793  0.353793  0.939442  1
  Tb  Tb2  1  0.356033  0.934914  0.354527  1
  Tb  Tb3  1  0.934914  0.356033  0.354527  1
  Tb  Tb4  1  0.810603  0.189949  0.190892  1
  Tb  Tb5  1  0.189949  0.810603  0.808555  1
  Tb  Tb6  1  0.189949  0.810603  0.190892  1
  Tb  Tb7  1  0.810603  0.189949  0.808555  1
  Tb  Tb8  1  0.191742  0.191742  0.808258  1
  Tb  Tb9  1  0.811103  0.811103  0.188897  1
  Tb  Tb10  1  0.933881  0.563845  0.565218  1
  Tb  Tb11  1  0.563845  0.933881  0.937056  1
  Tb  Tb12  1  0.563845  0.933881  0.565218  1
  Tb  Tb13  1  0.933881  0.563845  0.937056  1
  Tb  Tb14  1  0.564214  0.564214  0.935786  1
  Tb  Tb15  1  0.935869  0.935869  0.564131  1
  Ag  Ag16  1  0.585363  0.585363  0.582848  1
  Ag  Ag17  1  0.585363  0.585363  0.246427  1
  Hg  Hg18  1  0.587366  0.243711  0.584462  1
  Hg  Hg19  1  0.243711  0.587366  0.584462  1
  Pt  Pt20  1  0.144109  0.144109  0.144965  1
  Pt  Pt21  1  0.144109  0.144109  0.566817  1
  Pt  Pt22  1  0.142881  0.569083  0.144018  1
  Pt  Pt23  1  0.569083  0.142881  0.144018  1
