# generated using pymatgen
data_Nb12Ni8Sn3WN4
_symmetry_space_group_name_H-M   'P 1'
_cell_length_a   8.22707666
_cell_length_b   8.31943507
_cell_length_c   8.22707700
_cell_angle_alpha   60.36655568
_cell_angle_beta   59.99999461
_cell_angle_gamma   60.36655974
_symmetry_Int_Tables_number   1
_chemical_formula_structural   Nb12Ni8Sn3WN4
_chemical_formula_sum   'Nb12 Ni8 Sn3 W1 N4'
_cell_volume   400.36310992
_cell_formula_units_Z   1
loop_
 _symmetry_equiv_pos_site_id
 _symmetry_equiv_pos_as_xyz
  1  'x, y, z'
loop_
 _atom_site_type_symbol
 _atom_site_label
 _atom_site_symmetry_multiplicity
 _atom_site_fract_x
 _atom_site_fract_y
 _atom_site_fract_z
 _atom_site_occupancy
  Nb  Nb0  1  0.818076  0.819369  0.181277  1
  Nb  Nb1  1  0.190796  0.177163  0.816020  1
  Nb  Nb2  1  0.816020  0.177163  0.816020  1
  Nb  Nb3  1  0.181277  0.819369  0.181277  1
  Nb  Nb4  1  0.181277  0.819369  0.818076  1
  Nb  Nb5  1  0.816020  0.177163  0.190796  1
  Nb  Nb6  1  0.431924  0.430631  0.068723  1
  Nb  Nb7  1  0.059204  0.072837  0.433980  1
  Nb  Nb8  1  0.433980  0.072837  0.433980  1
  Nb  Nb9  1  0.068723  0.430631  0.068723  1
  Nb  Nb10  1  0.068723  0.430631  0.431924  1
  Nb  Nb11  1  0.433980  0.072837  0.059204  1
  Ni  Ni12  1  0.748517  0.409344  0.421069  1
  Ni  Ni13  1  0.410424  0.768728  0.410424  1
  Ni  Ni14  1  0.421069  0.409344  0.748517  1
  Ni  Ni15  1  0.421069  0.409344  0.421069  1
  Ni  Ni16  1  0.501483  0.840656  0.828931  1
  Ni  Ni17  1  0.839576  0.481272  0.839576  1
  Ni  Ni18  1  0.828931  0.840656  0.501483  1
  Ni  Ni19  1  0.828931  0.840656  0.828931  1
  Sn  Sn20  1  0.125000  0.625000  0.625000  1
  Sn  Sn21  1  0.625000  0.625000  0.125000  1
  Sn  Sn22  1  0.625000  0.625000  0.625000  1
  W  W23  1  0.625000  0.125000  0.625000  1
  N  N24  1  0.625000  0.125000  0.125000  1
  N  N25  1  0.125000  0.625000  0.125000  1
  N  N26  1  0.125000  0.125000  0.625000  1
  N  N27  1  0.125000  0.125000  0.125000  1
