# generated using pymatgen
data_Ho6CoRe2(P4Rh5)3
_symmetry_space_group_name_H-M   'P 1'
_cell_length_a   3.90347400
_cell_length_b   11.08223900
_cell_length_c   12.78544000
_cell_angle_alpha   90.00000000
_cell_angle_beta   90.00000000
_cell_angle_gamma   90.00000000
_symmetry_Int_Tables_number   1
_chemical_formula_structural   Ho6CoRe2(P4Rh5)3
_chemical_formula_sum   'Ho6 Co1 Re2 P12 Rh15'
_cell_volume   553.08831260
_cell_formula_units_Z   1
loop_
 _symmetry_equiv_pos_site_id
 _symmetry_equiv_pos_as_xyz
  1  'x, y, z'
loop_
 _atom_site_type_symbol
 _atom_site_label
 _atom_site_symmetry_multiplicity
 _atom_site_fract_x
 _atom_site_fract_y
 _atom_site_fract_z
 _atom_site_occupancy
  Ho  Ho0  1  0.000000  0.500000  0.521953  1
  Ho  Ho1  1  0.500000  0.000000  0.477735  1
  Ho  Ho2  1  0.500000  0.818077  0.203795  1
  Ho  Ho3  1  0.500000  0.181923  0.203795  1
  Ho  Ho4  1  0.000000  0.685481  0.796086  1
  Ho  Ho5  1  0.000000  0.314519  0.796086  1
  Co  Co6  1  0.500000  0.000000  0.007840  1
  Re  Re7  1  0.500000  0.500000  0.158217  1
  Re  Re8  1  0.000000  0.000000  0.843164  1
  P  P9  1  0.500000  0.315191  0.618841  1
  P  P10  1  0.500000  0.684809  0.618841  1
  P  P11  1  0.000000  0.183465  0.381022  1
  P  P12  1  0.000000  0.816535  0.381022  1
  P  P13  1  0.500000  0.500000  0.875387  1
  P  P14  1  0.000000  0.000000  0.121647  1
  P  P15  1  0.500000  0.854058  0.891835  1
  P  P16  1  0.500000  0.145942  0.891835  1
  P  P17  1  0.000000  0.652692  0.111460  1
  P  P18  1  0.000000  0.347308  0.111460  1
  P  P19  1  0.500000  0.500000  0.346561  1
  P  P20  1  0.000000  0.000000  0.653803  1
  Rh  Rh21  1  0.000000  0.500000  0.988242  1
  Rh  Rh22  1  0.500000  0.295930  0.432015  1
  Rh  Rh23  1  0.500000  0.704070  0.432015  1
  Rh  Rh24  1  0.000000  0.203387  0.568389  1
  Rh  Rh25  1  0.000000  0.796613  0.568389  1
  Rh  Rh26  1  0.500000  0.875386  0.711164  1
  Rh  Rh27  1  0.500000  0.124614  0.711164  1
  Rh  Rh28  1  0.000000  0.625282  0.289838  1
  Rh  Rh29  1  0.000000  0.374718  0.289838  1
  Rh  Rh30  1  0.500000  0.330096  0.984086  1
  Rh  Rh31  1  0.500000  0.669904  0.984086  1
  Rh  Rh32  1  0.000000  0.164387  0.015180  1
  Rh  Rh33  1  0.000000  0.835613  0.015180  1
  Rh  Rh34  1  0.500000  0.500000  0.699586  1
  Rh  Rh35  1  0.000000  0.000000  0.298440  1
