# generated using pymatgen
data_Yb12Al8Si11Ge
_symmetry_space_group_name_H-M   'P 1'
_cell_length_a   4.32625200
_cell_length_b   11.20918841
_cell_length_c   14.54421200
_cell_angle_alpha   89.98363695
_cell_angle_beta   90.00000000
_cell_angle_gamma   90.00000000
_symmetry_Int_Tables_number   1
_chemical_formula_structural   Yb12Al8Si11Ge
_chemical_formula_sum   'Yb12 Al8 Si11 Ge1'
_cell_volume   705.30369801
_cell_formula_units_Z   1
loop_
 _symmetry_equiv_pos_site_id
 _symmetry_equiv_pos_as_xyz
  1  'x, y, z'
loop_
 _atom_site_type_symbol
 _atom_site_label
 _atom_site_symmetry_multiplicity
 _atom_site_fract_x
 _atom_site_fract_y
 _atom_site_fract_z
 _atom_site_occupancy
  Yb  Yb0  1  0.250000  0.895326  0.567791  1
  Yb  Yb1  1  0.750000  0.104258  0.432112  1
  Yb  Yb2  1  0.250000  0.394371  0.932171  1
  Yb  Yb3  1  0.750000  0.604469  0.067987  1
  Yb  Yb4  1  0.250000  0.605265  0.437097  1
  Yb  Yb5  1  0.750000  0.394973  0.562158  1
  Yb  Yb6  1  0.250000  0.105215  0.063104  1
  Yb  Yb7  1  0.750000  0.894201  0.936908  1
  Yb  Yb8  1  0.750000  0.377881  0.297615  1
  Yb  Yb9  1  0.250000  0.622346  0.702764  1
  Yb  Yb10  1  0.750000  0.877722  0.203172  1
  Yb  Yb11  1  0.250000  0.122591  0.796736  1
  Al  Al12  1  0.750000  0.859292  0.709778  1
  Al  Al13  1  0.250000  0.140623  0.290376  1
  Al  Al14  1  0.750000  0.362568  0.788254  1
  Al  Al15  1  0.250000  0.640840  0.210202  1
  Al  Al16  1  0.250000  0.682907  0.912121  1
  Al  Al17  1  0.750000  0.317950  0.089715  1
  Al  Al18  1  0.250000  0.182743  0.587536  1
  Al  Al19  1  0.750000  0.817064  0.412265  1
  Si  Si20  1  0.250000  0.928153  0.363086  1
  Si  Si21  1  0.750000  0.071910  0.636719  1
  Si  Si22  1  0.250000  0.428492  0.137043  1
  Si  Si23  1  0.750000  0.571929  0.863690  1
  Si  Si24  1  0.250000  0.859226  0.798039  1
  Si  Si25  1  0.750000  0.140912  0.202390  1
  Si  Si26  1  0.250000  0.359426  0.700916  1
  Si  Si27  1  0.750000  0.640920  0.298486  1
  Si  Si28  1  0.250000  0.298994  0.433704  1
  Si  Si29  1  0.750000  0.701132  0.566243  1
  Si  Si30  1  0.250000  0.798828  0.066375  1
  Ge  Ge31  1  0.750000  0.197475  0.933446  1
