# generated using pymatgen
data_Nd3Tm5Pt4
_symmetry_space_group_name_H-M   'P 1'
_cell_length_a   4.79654700
_cell_length_b   7.20192432
_cell_length_c   8.80042430
_cell_angle_alpha   90.29725476
_cell_angle_beta   90.00000000
_cell_angle_gamma   90.00000000
_symmetry_Int_Tables_number   1
_chemical_formula_structural   Nd3Tm5Pt4
_chemical_formula_sum   'Nd3 Tm5 Pt4'
_cell_volume   304.00100825
_cell_formula_units_Z   1
loop_
 _symmetry_equiv_pos_site_id
 _symmetry_equiv_pos_as_xyz
  1  'x, y, z'
loop_
 _atom_site_type_symbol
 _atom_site_label
 _atom_site_symmetry_multiplicity
 _atom_site_fract_x
 _atom_site_fract_y
 _atom_site_fract_z
 _atom_site_occupancy
  Nd  Nd0  1  0.250000  0.491373  0.170727  1
  Nd  Nd1  1  0.750000  0.009089  0.675138  1
  Nd  Nd2  1  0.250000  0.991329  0.327124  1
  Tm  Tm3  1  0.750000  0.640697  0.424704  1
  Tm  Tm4  1  0.250000  0.359535  0.583593  1
  Tm  Tm5  1  0.750000  0.143082  0.076121  1
  Tm  Tm6  1  0.250000  0.854367  0.920059  1
  Tm  Tm7  1  0.750000  0.509060  0.832709  1
  Pt  Pt8  1  0.750000  0.250429  0.408298  1
  Pt  Pt9  1  0.250000  0.747577  0.591869  1
  Pt  Pt10  1  0.750000  0.749571  0.085282  1
  Pt  Pt11  1  0.250000  0.253894  0.904376  1
