# generated using pymatgen
data_Pr8Ho3Er9Si16
_symmetry_space_group_name_H-M   'P 1'
_cell_length_a   7.50929321
_cell_length_b   7.79072514
_cell_length_c   14.78609619
_cell_angle_alpha   90.00587003
_cell_angle_beta   89.98236470
_cell_angle_gamma   89.97932895
_symmetry_Int_Tables_number   1
_chemical_formula_structural   Pr8Ho3Er9Si16
_chemical_formula_sum   'Pr8 Ho3 Er9 Si16'
_cell_volume   865.02850892
_cell_formula_units_Z   1
loop_
 _symmetry_equiv_pos_site_id
 _symmetry_equiv_pos_as_xyz
  1  'x, y, z'
loop_
 _atom_site_type_symbol
 _atom_site_label
 _atom_site_symmetry_multiplicity
 _atom_site_fract_x
 _atom_site_fract_y
 _atom_site_fract_z
 _atom_site_occupancy
  Pr  Pr0  1  0.976024  0.821427  0.098017  1
  Pr  Pr1  1  0.475883  0.678584  0.401947  1
  Pr  Pr2  1  0.524003  0.321454  0.902074  1
  Pr  Pr3  1  0.024073  0.178571  0.597996  1
  Pr  Pr4  1  0.023936  0.178684  0.902049  1
  Pr  Pr5  1  0.523873  0.321340  0.597972  1
  Pr  Pr6  1  0.476052  0.678613  0.098016  1
  Pr  Pr7  1  0.976151  0.821371  0.401963  1
  Ho  Ho8  1  0.819096  0.321822  0.376677  1
  Ho  Ho9  1  0.180872  0.678150  0.876764  1
  Ho  Ho10  1  0.680907  0.821854  0.623255  1
  Er  Er11  1  0.649522  0.990207  0.249834  1
  Er  Er12  1  0.149630  0.509692  0.249875  1
  Er  Er13  1  0.850430  0.490065  0.750061  1
  Er  Er14  1  0.350443  0.009918  0.749982  1
  Er  Er15  1  0.680776  0.822257  0.876613  1
  Er  Er16  1  0.180808  0.677867  0.623435  1
  Er  Er17  1  0.819209  0.322051  0.123395  1
  Er  Er18  1  0.319146  0.177907  0.376533  1
  Er  Er19  1  0.319217  0.177884  0.123551  1
  Si  Si20  1  0.769495  0.620472  0.249821  1
  Si  Si21  1  0.269508  0.879862  0.249996  1
  Si  Si22  1  0.730591  0.120401  0.750150  1
  Si  Si23  1  0.230571  0.379567  0.749859  1
  Si  Si24  1  0.024147  0.113465  0.249834  1
  Si  Si25  1  0.523457  0.386292  0.249789  1
  Si  Si26  1  0.476201  0.613378  0.749990  1
  Si  Si27  1  0.976212  0.886673  0.750054  1
  Si  Si28  1  0.855454  0.531059  0.959988  1
  Si  Si29  1  0.355450  0.968906  0.540041  1
  Si  Si30  1  0.644138  0.031368  0.040180  1
  Si  Si31  1  0.144537  0.468875  0.459954  1
  Si  Si32  1  0.143925  0.468400  0.040417  1
  Si  Si33  1  0.643496  0.031247  0.459703  1
  Si  Si34  1  0.356285  0.969083  0.959963  1
  Si  Si35  1  0.856483  0.531235  0.540253  1
