# generated using pymatgen
data_Er2IrO6
_symmetry_space_group_name_H-M   'P 1'
_cell_length_a   5.24732500
_cell_length_b   9.10765000
_cell_length_c   9.81934900
_cell_angle_alpha   90.00000000
_cell_angle_beta   90.00000000
_cell_angle_gamma   90.00000000
_symmetry_Int_Tables_number   1
_chemical_formula_structural   Er2IrO6
_chemical_formula_sum   'Er8 Ir4 O24'
_cell_volume   469.27453964
_cell_formula_units_Z   4
loop_
 _symmetry_equiv_pos_site_id
 _symmetry_equiv_pos_as_xyz
  1  'x, y, z'
loop_
 _atom_site_type_symbol
 _atom_site_label
 _atom_site_symmetry_multiplicity
 _atom_site_fract_x
 _atom_site_fract_y
 _atom_site_fract_z
 _atom_site_occupancy
  Er  Er0  1  0.017175  0.399066  0.033214  1
  Er  Er1  1  0.042886  0.281279  0.628931  1
  Er  Er2  1  0.457114  0.718721  0.128931  1
  Er  Er3  1  0.482825  0.600934  0.533214  1
  Er  Er4  1  0.517175  0.100934  0.966786  1
  Er  Er5  1  0.542886  0.218721  0.371069  1
  Er  Er6  1  0.957114  0.781279  0.871069  1
  Er  Er7  1  0.982825  0.899066  0.466786  1
  Ir  Ir8  1  0.041828  0.004041  0.148779  1
  Ir  Ir9  1  0.458172  0.995959  0.648779  1
  Ir  Ir10  1  0.541828  0.495959  0.851221  1
  Ir  Ir11  1  0.958172  0.504041  0.351221  1
  O  O12  1  0.085043  0.657268  0.472860  1
  O  O13  1  0.165521  0.554497  0.198794  1
  O  O14  1  0.188692  0.855812  0.265502  1
  O  O15  1  0.168357  0.865622  0.682676  1
  O  O16  1  0.238022  0.384757  0.429860  1
  O  O17  1  0.252162  0.089682  0.501286  1
  O  O18  1  0.247838  0.910318  0.001286  1
  O  O19  1  0.261978  0.615243  0.929860  1
  O  O20  1  0.331643  0.134378  0.182676  1
  O  O21  1  0.311308  0.144188  0.765502  1
  O  O22  1  0.334479  0.445503  0.698794  1
  O  O23  1  0.414957  0.342732  0.972860  1
  O  O24  1  0.585043  0.842732  0.527140  1
  O  O25  1  0.665521  0.945503  0.801206  1
  O  O26  1  0.688692  0.644188  0.734498  1
  O  O27  1  0.668357  0.634378  0.317324  1
  O  O28  1  0.738022  0.115243  0.570140  1
  O  O29  1  0.752162  0.410318  0.498714  1
  O  O30  1  0.747838  0.589682  0.998714  1
  O  O31  1  0.761978  0.884757  0.070140  1
  O  O32  1  0.831643  0.365622  0.817324  1
  O  O33  1  0.811308  0.355812  0.234498  1
  O  O34  1  0.834479  0.054497  0.301206  1
  O  O35  1  0.914957  0.157268  0.027140  1
