# generated using pymatgen
data_AlV6SiIr8
_symmetry_space_group_name_H-M   'P 1'
_cell_length_a   8.71222589
_cell_length_b   8.71222558
_cell_length_c   6.64190733
_cell_angle_alpha   69.25004738
_cell_angle_beta   69.25005525
_cell_angle_gamma   80.68962997
_symmetry_Int_Tables_number   1
_chemical_formula_structural   AlV6SiIr8
_chemical_formula_sum   'Al2 V12 Si2 Ir16'
_cell_volume   440.48028891
_cell_formula_units_Z   2
loop_
 _symmetry_equiv_pos_site_id
 _symmetry_equiv_pos_as_xyz
  1  'x, y, z'
loop_
 _atom_site_type_symbol
 _atom_site_label
 _atom_site_symmetry_multiplicity
 _atom_site_fract_x
 _atom_site_fract_y
 _atom_site_fract_z
 _atom_site_occupancy
  Al  Al0  1  0.622356  0.377644  0.000000  1
  Al  Al1  1  0.377644  0.622356  0.000000  1
  V  V2  1  0.012480  0.264182  0.280292  1
  V  V3  1  0.264182  0.012480  0.280292  1
  V  V4  1  0.763600  0.515858  0.275496  1
  V  V5  1  0.515858  0.763600  0.275496  1
  V  V6  1  0.124896  0.374863  0.499718  1
  V  V7  1  0.374863  0.124896  0.499718  1
  V  V8  1  0.875104  0.625137  0.500282  1
  V  V9  1  0.625137  0.875104  0.500282  1
  V  V10  1  0.735818  0.987520  0.719708  1
  V  V11  1  0.987520  0.735818  0.719708  1
  V  V12  1  0.484142  0.236400  0.724504  1
  V  V13  1  0.236400  0.484142  0.724504  1
  Si  Si14  1  0.871279  0.128721  0.000000  1
  Si  Si15  1  0.128721  0.871279  0.000000  1
  Ir  Ir16  1  0.321430  0.321430  0.101803  1
  Ir  Ir17  1  0.046498  0.046498  0.657980  1
  Ir  Ir18  1  0.829787  0.829787  0.093077  1
  Ir  Ir19  1  0.551832  0.551832  0.643290  1
  Ir  Ir20  1  0.448168  0.448168  0.356710  1
  Ir  Ir21  1  0.170213  0.170213  0.906923  1
  Ir  Ir22  1  0.953502  0.953502  0.342020  1
  Ir  Ir23  1  0.678570  0.678570  0.898197  1
  Ir  Ir24  1  0.074225  0.576571  0.097479  1
  Ir  Ir25  1  0.576571  0.074225  0.097479  1
  Ir  Ir26  1  0.799727  0.298229  0.650729  1
  Ir  Ir27  1  0.298229  0.799727  0.650729  1
  Ir  Ir28  1  0.200273  0.701771  0.349271  1
  Ir  Ir29  1  0.701771  0.200273  0.349271  1
  Ir  Ir30  1  0.925775  0.423429  0.902521  1
  Ir  Ir31  1  0.423429  0.925775  0.902521  1
