# generated using pymatgen
data_TmSc8(FeGe)10
_symmetry_space_group_name_H-M   'P 1'
_cell_length_a   9.70731138
_cell_length_b   9.69803763
_cell_length_c   9.69532144
_cell_angle_alpha   148.68204723
_cell_angle_beta   96.48876711
_cell_angle_gamma   91.84626761
_symmetry_Int_Tables_number   1
_chemical_formula_structural   TmSc8(FeGe)10
_chemical_formula_sum   'Tm1 Sc8 Fe10 Ge10'
_cell_volume   456.50350394
_cell_formula_units_Z   1
loop_
 _symmetry_equiv_pos_site_id
 _symmetry_equiv_pos_as_xyz
  1  'x, y, z'
loop_
 _atom_site_type_symbol
 _atom_site_label
 _atom_site_symmetry_multiplicity
 _atom_site_fract_x
 _atom_site_fract_y
 _atom_site_fract_z
 _atom_site_occupancy
  Tm  Tm0  1  0.500000  0.000000  0.500000  1
  Sc  Sc1  1  0.785625  0.000089  0.785554  1
  Sc  Sc2  1  0.214375  0.999911  0.214446  1
  Sc  Sc3  1  0.194166  0.194230  0.999909  1
  Sc  Sc4  1  0.805834  0.805770  0.000091  1
  Sc  Sc5  1  0.988434  0.633734  0.354720  1
  Sc  Sc6  1  0.011566  0.366266  0.645280  1
  Sc  Sc7  1  0.721145  0.366294  0.354828  1
  Sc  Sc8  1  0.278855  0.633706  0.645172  1
  Fe  Fe9  1  0.403158  0.403199  0.999914  1
  Fe  Fe10  1  0.596842  0.596801  0.000086  1
  Fe  Fe11  1  0.201291  0.097253  0.606102  1
  Fe  Fe12  1  0.798715  0.404715  0.895870  1
  Fe  Fe13  1  0.508797  0.902663  0.103923  1
  Fe  Fe14  1  0.491230  0.595212  0.393977  1
  Fe  Fe15  1  0.798709  0.902747  0.393898  1
  Fe  Fe16  1  0.201285  0.595285  0.104130  1
  Fe  Fe17  1  0.491203  0.097337  0.896077  1
  Fe  Fe18  1  0.508770  0.404788  0.606023  1
  Ge  Ge19  1  0.999995  0.752210  0.752211  1
  Ge  Ge20  1  0.000005  0.247790  0.247789  1
  Ge  Ge21  1  0.679137  0.500083  0.178986  1
  Ge  Ge22  1  0.320863  0.499917  0.821014  1
  Ge  Ge23  1  0.284745  0.784900  0.499997  1
  Ge  Ge24  1  0.715255  0.215100  0.500003  1
  Ge  Ge25  1  0.996059  0.204033  0.791937  1
  Ge  Ge26  1  0.003941  0.795967  0.208063  1
  Ge  Ge27  1  0.588084  0.796179  0.792143  1
  Ge  Ge28  1  0.411916  0.203821  0.207857  1
