# generated using pymatgen
data_Tm2Mn4Cr(PRh)7
_symmetry_space_group_name_H-M   'P 1'
_cell_length_a   9.40792937
_cell_length_b   9.41378131
_cell_length_c   3.79164100
_cell_angle_alpha   90.00000000
_cell_angle_beta   90.00000000
_cell_angle_gamma   120.23474656
_symmetry_Int_Tables_number   1
_chemical_formula_structural   Tm2Mn4Cr(PRh)7
_chemical_formula_sum   'Tm2 Mn4 Cr1 P7 Rh7'
_cell_volume   290.12410962
_cell_formula_units_Z   1
loop_
 _symmetry_equiv_pos_site_id
 _symmetry_equiv_pos_as_xyz
  1  'x, y, z'
loop_
 _atom_site_type_symbol
 _atom_site_label
 _atom_site_symmetry_multiplicity
 _atom_site_fract_x
 _atom_site_fract_y
 _atom_site_fract_z
 _atom_site_occupancy
  Tm  Tm0  1  0.001463  0.000440  0.000000  1
  Tm  Tm1  1  0.665844  0.330769  0.500000  1
  Mn  Mn2  1  0.220346  0.397644  0.000000  1
  Mn  Mn3  1  0.605004  0.824409  0.000000  1
  Mn  Mn4  1  0.172329  0.776255  0.000000  1
  Mn  Mn5  1  0.110998  0.546747  0.500000  1
  Cr  Cr6  1  0.434917  0.885690  0.500000  1
  P  P7  1  0.442415  0.366897  0.000000  1
  P  P8  1  0.628652  0.071721  0.000000  1
  P  P9  1  0.922039  0.553922  0.000000  1
  P  P10  1  0.056649  0.268422  0.500000  1
  P  P11  1  0.733030  0.790284  0.500000  1
  P  P12  1  0.215414  0.941580  0.500000  1
  P  P13  1  0.334749  0.671785  0.000000  1
  Rh  Rh14  1  0.696802  0.601836  0.000000  1
  Rh  Rh15  1  0.397733  0.094873  0.000000  1
  Rh  Rh16  1  0.903521  0.302236  0.000000  1
  Rh  Rh17  1  0.278215  0.222509  0.500000  1
  Rh  Rh18  1  0.777727  0.054729  0.500000  1
  Rh  Rh19  1  0.942941  0.721841  0.500000  1
  Rh  Rh20  1  0.459209  0.575413  0.500000  1
