# generated using pymatgen
data_Pr20Sn11Bi5
_symmetry_space_group_name_H-M   'P 1'
_cell_length_a   8.47085739
_cell_length_b   8.53759044
_cell_length_c   16.28365856
_cell_angle_alpha   90.01778661
_cell_angle_beta   90.26285594
_cell_angle_gamma   89.89815380
_symmetry_Int_Tables_number   1
_chemical_formula_structural   Pr20Sn11Bi5
_chemical_formula_sum   'Pr20 Sn11 Bi5'
_cell_volume   1177.63145861
_cell_formula_units_Z   1
loop_
 _symmetry_equiv_pos_site_id
 _symmetry_equiv_pos_as_xyz
  1  'x, y, z'
loop_
 _atom_site_type_symbol
 _atom_site_label
 _atom_site_symmetry_multiplicity
 _atom_site_fract_x
 _atom_site_fract_y
 _atom_site_fract_z
 _atom_site_occupancy
  Pr  Pr0  1  0.395057  0.835173  0.880796  1
  Pr  Pr1  1  0.896956  0.663196  0.618794  1
  Pr  Pr2  1  0.602975  0.163188  0.380743  1
  Pr  Pr3  1  0.101193  0.336219  0.118538  1
  Pr  Pr4  1  0.607457  0.167814  0.119178  1
  Pr  Pr5  1  0.111565  0.334325  0.382602  1
  Pr  Pr6  1  0.387660  0.835468  0.618096  1
  Pr  Pr7  1  0.891451  0.661457  0.881969  1
  Pr  Pr8  1  0.555705  0.331225  0.890854  1
  Pr  Pr9  1  0.052368  0.175457  0.607725  1
  Pr  Pr10  1  0.447838  0.674828  0.392506  1
  Pr  Pr11  1  0.948002  0.823464  0.110256  1
  Pr  Pr12  1  0.451954  0.670627  0.109205  1
  Pr  Pr13  1  0.958443  0.825968  0.392884  1
  Pr  Pr14  1  0.541800  0.326006  0.606960  1
  Pr  Pr15  1  0.049819  0.175045  0.890699  1
  Pr  Pr16  1  0.221667  0.498220  0.745418  1
  Pr  Pr17  1  0.721424  0.002004  0.748652  1
  Pr  Pr18  1  0.778726  0.501400  0.248126  1
  Pr  Pr19  1  0.278359  0.997964  0.254029  1
  Sn  Sn20  1  0.231076  0.523138  0.544156  1
  Sn  Sn21  1  0.269599  0.021951  0.455737  1
  Sn  Sn22  1  0.766519  0.481735  0.045714  1
  Sn  Sn23  1  0.592736  0.623169  0.749400  1
  Sn  Sn24  1  0.092251  0.876807  0.751813  1
  Sn  Sn25  1  0.405977  0.377417  0.249197  1
  Sn  Sn26  1  0.907018  0.122415  0.250763  1
  Sn  Sn27  1  0.350748  0.136678  0.750985  1
  Sn  Sn28  1  0.850606  0.363245  0.749727  1
  Sn  Sn29  1  0.650274  0.863677  0.250393  1
  Sn  Sn30  1  0.150254  0.635337  0.250094  1
  Bi  Bi31  1  0.266510  0.017128  0.045893  1
  Bi  Bi32  1  0.768858  0.478306  0.455353  1
  Bi  Bi33  1  0.731144  0.979236  0.544268  1
  Bi  Bi34  1  0.232681  0.518252  0.954068  1
  Bi  Bi35  1  0.733330  0.982460  0.954412  1
