# generated using pymatgen
data_Tm5Lu7(Zn3C)4
_symmetry_space_group_name_H-M   'P 1'
_cell_length_a   8.99284506
_cell_length_b   8.99163626
_cell_length_c   8.99163720
_cell_angle_alpha   59.94192002
_cell_angle_beta   59.99554673
_cell_angle_gamma   59.99554882
_symmetry_Int_Tables_number   1
_chemical_formula_structural   Tm5Lu7(Zn3C)4
_chemical_formula_sum   'Tm5 Lu7 Zn12 C4'
_cell_volume   513.85362300
_cell_formula_units_Z   1
loop_
 _symmetry_equiv_pos_site_id
 _symmetry_equiv_pos_as_xyz
  1  'x, y, z'
loop_
 _atom_site_type_symbol
 _atom_site_label
 _atom_site_symmetry_multiplicity
 _atom_site_fract_x
 _atom_site_fract_y
 _atom_site_fract_z
 _atom_site_occupancy
  Tm  Tm0  1  0.447004  0.446895  0.053185  1
  Tm  Tm1  1  0.052916  0.446895  0.053185  1
  Tm  Tm2  1  0.447052  0.052948  0.052948  1
  Tm  Tm3  1  0.052916  0.053185  0.446895  1
  Tm  Tm4  1  0.447004  0.053185  0.446895  1
  Lu  Lu5  1  0.053490  0.446510  0.446510  1
  Lu  Lu6  1  0.804102  0.803665  0.196341  1
  Lu  Lu7  1  0.195891  0.803665  0.196341  1
  Lu  Lu8  1  0.804032  0.195968  0.195968  1
  Lu  Lu9  1  0.195891  0.196341  0.803665  1
  Lu  Lu10  1  0.804102  0.196341  0.803665  1
  Lu  Lu11  1  0.195601  0.804399  0.804399  1
  Zn  Zn12  1  0.827799  0.827380  0.517024  1
  Zn  Zn13  1  0.827799  0.517024  0.827380  1
  Zn  Zn14  1  0.517122  0.827674  0.827674  1
  Zn  Zn15  1  0.827530  0.827674  0.827674  1
  Zn  Zn16  1  0.422649  0.422692  0.732010  1
  Zn  Zn17  1  0.422649  0.732010  0.422692  1
  Zn  Zn18  1  0.732338  0.422666  0.422666  1
  Zn  Zn19  1  0.422329  0.422666  0.422666  1
  Zn  Zn20  1  0.625012  0.624946  0.125031  1
  Zn  Zn21  1  0.625012  0.125031  0.624946  1
  Zn  Zn22  1  0.124954  0.624824  0.624824  1
  Zn  Zn23  1  0.625399  0.624824  0.624824  1
  C  C24  1  0.123475  0.125400  0.627649  1
  C  C25  1  0.123475  0.627649  0.125400  1
  C  C26  1  0.628673  0.123771  0.123771  1
  C  C27  1  0.123784  0.123771  0.123771  1
