# generated using pymatgen
data_Dy16MgCo(NiHg)3
_symmetry_space_group_name_H-M   'P 1'
_cell_length_a   9.53442142
_cell_length_b   9.49383675
_cell_length_c   9.49383700
_cell_angle_alpha   60.00000262
_cell_angle_beta   60.14071174
_cell_angle_gamma   60.14070123
_symmetry_Int_Tables_number   1
_chemical_formula_structural   Dy16MgCo(NiHg)3
_chemical_formula_sum   'Dy16 Mg1 Co1 Ni3 Hg3'
_cell_volume   608.95228770
_cell_formula_units_Z   1
loop_
 _symmetry_equiv_pos_site_id
 _symmetry_equiv_pos_as_xyz
  1  'x, y, z'
loop_
 _atom_site_type_symbol
 _atom_site_label
 _atom_site_symmetry_multiplicity
 _atom_site_fract_x
 _atom_site_fract_y
 _atom_site_fract_z
 _atom_site_occupancy
  Dy  Dy0  1  0.805298  0.189856  0.189856  1
  Dy  Dy1  1  0.185886  0.813128  0.813128  1
  Dy  Dy2  1  0.185886  0.813128  0.187859  1
  Dy  Dy3  1  0.805298  0.189856  0.814989  1
  Dy  Dy4  1  0.185886  0.187859  0.813128  1
  Dy  Dy5  1  0.805298  0.814989  0.189856  1
  Dy  Dy6  1  0.934463  0.565207  0.565207  1
  Dy  Dy7  1  0.564541  0.936157  0.936157  1
  Dy  Dy8  1  0.564541  0.936157  0.563145  1
  Dy  Dy9  1  0.934463  0.565207  0.935122  1
  Dy  Dy10  1  0.564541  0.563145  0.936157  1
  Dy  Dy11  1  0.934463  0.935122  0.565207  1
  Dy  Dy12  1  0.350451  0.344835  0.344835  1
  Dy  Dy13  1  0.350451  0.344835  0.959878  1
  Dy  Dy14  1  0.350451  0.959878  0.344835  1
  Dy  Dy15  1  0.948564  0.350478  0.350478  1
  Mg  Mg16  1  0.284299  0.571901  0.571901  1
  Co  Co17  1  0.575637  0.141454  0.141454  1
  Ni  Ni18  1  0.139454  0.142537  0.142537  1
  Ni  Ni19  1  0.139454  0.142537  0.575471  1
  Ni  Ni20  1  0.139454  0.575471  0.142537  1
  Hg  Hg21  1  0.583740  0.586119  0.586119  1
  Hg  Hg22  1  0.583740  0.586119  0.244022  1
  Hg  Hg23  1  0.583740  0.244022  0.586119  1
