# generated using pymatgen
data_Er3(ThCo)2
_symmetry_space_group_name_H-M   'P 1'
_cell_length_a   8.77383181
_cell_length_b   8.77383141
_cell_length_c   6.91062934
_cell_angle_alpha   84.98129542
_cell_angle_beta   84.98129634
_cell_angle_gamma   41.54784534
_symmetry_Int_Tables_number   1
_chemical_formula_structural   Er3(ThCo)2
_chemical_formula_sum   'Er6 Th4 Co4'
_cell_volume   351.28614027
_cell_formula_units_Z   2
loop_
 _symmetry_equiv_pos_site_id
 _symmetry_equiv_pos_as_xyz
  1  'x, y, z'
loop_
 _atom_site_type_symbol
 _atom_site_label
 _atom_site_symmetry_multiplicity
 _atom_site_fract_x
 _atom_site_fract_y
 _atom_site_fract_z
 _atom_site_occupancy
  Er  Er0  1  0.358269  0.214488  0.820945  1
  Er  Er1  1  0.785512  0.641731  0.679055  1
  Er  Er2  1  0.641731  0.785512  0.179055  1
  Er  Er3  1  0.214488  0.358269  0.320945  1
  Er  Er4  1  0.577759  0.422241  0.750000  1
  Er  Er5  1  0.422241  0.577759  0.250000  1
  Th  Th6  1  0.004178  0.804334  0.908665  1
  Th  Th7  1  0.195666  0.995822  0.591335  1
  Th  Th8  1  0.995822  0.195666  0.091335  1
  Th  Th9  1  0.804334  0.004178  0.408665  1
  Co  Co10  1  0.166703  0.610294  0.588399  1
  Co  Co11  1  0.389706  0.833297  0.911601  1
  Co  Co12  1  0.833297  0.389706  0.411601  1
  Co  Co13  1  0.610294  0.166703  0.088399  1
