# generated using pymatgen
data_Er10TlIn7IrPd3
_symmetry_space_group_name_H-M   'P 1'
_cell_length_a   3.59621600
_cell_length_b   8.11963714
_cell_length_c   18.20480245
_cell_angle_alpha   90.00225206
_cell_angle_beta   90.00000000
_cell_angle_gamma   90.00000000
_symmetry_Int_Tables_number   1
_chemical_formula_structural   Er10TlIn7IrPd3
_chemical_formula_sum   'Er10 Tl1 In7 Ir1 Pd3'
_cell_volume   531.57966654
_cell_formula_units_Z   1
loop_
 _symmetry_equiv_pos_site_id
 _symmetry_equiv_pos_as_xyz
  1  'x, y, z'
loop_
 _atom_site_type_symbol
 _atom_site_label
 _atom_site_symmetry_multiplicity
 _atom_site_fract_x
 _atom_site_fract_y
 _atom_site_fract_z
 _atom_site_occupancy
  Er  Er0  1  0.000000  0.500331  0.499807  1
  Er  Er1  1  0.000000  0.001168  0.000827  1
  Er  Er2  1  0.000000  0.729604  0.277571  1
  Er  Er3  1  0.000000  0.259940  0.719356  1
  Er  Er4  1  0.000000  0.759069  0.779606  1
  Er  Er5  1  0.000000  0.254519  0.220412  1
  Er  Er6  1  0.000000  0.615308  0.087604  1
  Er  Er7  1  0.000000  0.381990  0.916197  1
  Er  Er8  1  0.000000  0.882494  0.583261  1
  Er  Er9  1  0.000000  0.116943  0.415178  1
  Tl  Tl10  1  0.500000  0.709371  0.933450  1
  In  In11  1  0.500000  0.291959  0.068088  1
  In  In12  1  0.500000  0.791599  0.431929  1
  In  In13  1  0.500000  0.207866  0.566980  1
  In  In14  1  0.500000  0.578511  0.649155  1
  In  In15  1  0.500000  0.422092  0.351701  1
  In  In16  1  0.500000  0.924648  0.150140  1
  In  In17  1  0.500000  0.079749  0.850074  1
  Ir  Ir18  1  0.500000  0.521093  0.195740  1
  Pd  Pd19  1  0.500000  0.474301  0.803364  1
  Pd  Pd20  1  0.500000  0.976223  0.695590  1
  Pd  Pd21  1  0.500000  0.021222  0.303969  1
