# generated using pymatgen
data_SrEuTi4O10
_symmetry_space_group_name_H-M   'P 1'
_cell_length_a   3.72052400
_cell_length_b   5.29425100
_cell_length_c   11.77840600
_cell_angle_alpha   90.00000000
_cell_angle_beta   90.00000000
_cell_angle_gamma   90.00000000
_symmetry_Int_Tables_number   1
_chemical_formula_structural   SrEuTi4O10
_chemical_formula_sum   'Sr1 Eu1 Ti4 O10'
_cell_volume   232.00383191
_cell_formula_units_Z   1
loop_
 _symmetry_equiv_pos_site_id
 _symmetry_equiv_pos_as_xyz
  1  'x, y, z'
loop_
 _atom_site_type_symbol
 _atom_site_label
 _atom_site_symmetry_multiplicity
 _atom_site_fract_x
 _atom_site_fract_y
 _atom_site_fract_z
 _atom_site_occupancy
  Sr  Sr0  1  0.500000  0.111932  0.000000  1
  Eu  Eu1  1  0.000000  0.882817  0.500000  1
  Ti  Ti2  1  0.000000  0.589170  0.848413  1
  Ti  Ti3  1  0.500000  0.410119  0.650542  1
  Ti  Ti4  1  0.500000  0.410119  0.349458  1
  Ti  Ti5  1  0.000000  0.589170  0.151587  1
  O  O6  1  0.500000  0.561623  0.500000  1
  O  O7  1  0.000000  0.447995  0.000000  1
  O  O8  1  0.500000  0.468822  0.823288  1
  O  O9  1  0.000000  0.532062  0.674038  1
  O  O10  1  0.500000  0.468822  0.176712  1
  O  O11  1  0.000000  0.532062  0.325962  1
  O  O12  1  0.000000  0.908715  0.124892  1
  O  O13  1  0.500000  0.088930  0.379901  1
  O  O14  1  0.500000  0.088930  0.620099  1
  O  O15  1  0.000000  0.908715  0.875108  1
