# generated using pymatgen
data_Nd16Ag4Ir3Rh
_symmetry_space_group_name_H-M   'P 1'
_cell_length_a   9.86491120
_cell_length_b   9.88860984
_cell_length_c   9.88861100
_cell_angle_alpha   59.99999947
_cell_angle_beta   59.92049961
_cell_angle_gamma   59.92049702
_symmetry_Int_Tables_number   1
_chemical_formula_structural   Nd16Ag4Ir3Rh
_chemical_formula_sum   'Nd16 Ag4 Ir3 Rh1'
_cell_volume   681.28023829
_cell_formula_units_Z   1
loop_
 _symmetry_equiv_pos_site_id
 _symmetry_equiv_pos_as_xyz
  1  'x, y, z'
loop_
 _atom_site_type_symbol
 _atom_site_label
 _atom_site_symmetry_multiplicity
 _atom_site_fract_x
 _atom_site_fract_y
 _atom_site_fract_z
 _atom_site_occupancy
  Nd  Nd0  1  0.601567  0.601982  0.601982  1
  Nd  Nd1  1  0.601567  0.601982  0.194469  1
  Nd  Nd2  1  0.601567  0.194469  0.601982  1
  Nd  Nd3  1  0.194989  0.601670  0.601670  1
  Nd  Nd4  1  0.061458  0.438717  0.438717  1
  Nd  Nd5  1  0.438832  0.061173  0.061173  1
  Nd  Nd6  1  0.438832  0.061173  0.438822  1
  Nd  Nd7  1  0.061458  0.438717  0.061108  1
  Nd  Nd8  1  0.438832  0.438822  0.061173  1
  Nd  Nd9  1  0.061458  0.061108  0.438717  1
  Nd  Nd10  1  0.187170  0.812945  0.812945  1
  Nd  Nd11  1  0.812882  0.186722  0.186722  1
  Nd  Nd12  1  0.812882  0.186722  0.813673  1
  Nd  Nd13  1  0.187170  0.812945  0.186940  1
  Nd  Nd14  1  0.812882  0.813673  0.186722  1
  Nd  Nd15  1  0.187170  0.186940  0.812945  1
  Ag  Ag16  1  0.831156  0.831219  0.831219  1
  Ag  Ag17  1  0.831156  0.831219  0.506406  1
  Ag  Ag18  1  0.831156  0.506406  0.831219  1
  Ag  Ag19  1  0.506271  0.831243  0.831243  1
  Ir  Ir20  1  0.392330  0.392779  0.392779  1
  Ir  Ir21  1  0.392330  0.392779  0.822109  1
  Ir  Ir22  1  0.392330  0.822109  0.392779  1
  Rh  Rh23  1  0.822554  0.392481  0.392481  1
