# generated using pymatgen
data_Ti10Si5AsN2
_symmetry_space_group_name_H-M   'P 1'
_cell_length_a   7.44730500
_cell_length_b   7.43302396
_cell_length_c   5.18058300
_cell_angle_alpha   90.00000000
_cell_angle_beta   90.00000000
_cell_angle_gamma   120.06357189
_symmetry_Int_Tables_number   1
_chemical_formula_structural   Ti10Si5AsN2
_chemical_formula_sum   'Ti10 Si5 As1 N2'
_cell_volume   248.19634322
_cell_formula_units_Z   1
loop_
 _symmetry_equiv_pos_site_id
 _symmetry_equiv_pos_as_xyz
  1  'x, y, z'
loop_
 _atom_site_type_symbol
 _atom_site_label
 _atom_site_symmetry_multiplicity
 _atom_site_fract_x
 _atom_site_fract_y
 _atom_site_fract_z
 _atom_site_occupancy
  Ti  Ti0  1  0.226625  0.000000  0.750000  1
  Ti  Ti1  1  0.772260  0.000000  0.250000  1
  Ti  Ti2  1  0.003302  0.232050  0.750000  1
  Ti  Ti3  1  0.000055  0.770270  0.250000  1
  Ti  Ti4  1  0.771252  0.767950  0.750000  1
  Ti  Ti5  1  0.229785  0.229730  0.250000  1
  Ti  Ti6  1  0.333114  0.665915  0.498801  1
  Ti  Ti7  1  0.667200  0.334085  0.498801  1
  Ti  Ti8  1  0.667200  0.334085  0.001199  1
  Ti  Ti9  1  0.333114  0.665915  0.001199  1
  Si  Si10  1  0.404646  0.000000  0.250000  1
  Si  Si11  1  0.000153  0.590071  0.750000  1
  Si  Si12  1  0.000298  0.409705  0.250000  1
  Si  Si13  1  0.410082  0.409929  0.750000  1
  Si  Si14  1  0.590593  0.590295  0.250000  1
  As  As15  1  0.592237  0.000000  0.750000  1
  N  N16  1  0.999043  0.000000  0.500251  1
  N  N17  1  0.999043  0.000000  0.999749  1
