# generated using pymatgen
data_Ti15As12Rh
_symmetry_space_group_name_H-M   'P 1'
_cell_length_a   7.31419526
_cell_length_b   7.31419482
_cell_length_c   18.84870934
_cell_angle_alpha   90.04334173
_cell_angle_beta   89.95665867
_cell_angle_gamma   152.16578788
_symmetry_Int_Tables_number   1
_chemical_formula_structural   Ti15As12Rh
_chemical_formula_sum   'Ti15 As12 Rh1'
_cell_volume   470.81702181
_cell_formula_units_Z   1
loop_
 _symmetry_equiv_pos_site_id
 _symmetry_equiv_pos_as_xyz
  1  'x, y, z'
loop_
 _atom_site_type_symbol
 _atom_site_label
 _atom_site_symmetry_multiplicity
 _atom_site_fract_x
 _atom_site_fract_y
 _atom_site_fract_z
 _atom_site_occupancy
  Ti  Ti0  1  0.732963  0.267037  0.162280  1
  Ti  Ti1  1  0.267037  0.732963  0.837720  1
  Ti  Ti2  1  0.267740  0.732260  0.659972  1
  Ti  Ti3  1  0.732260  0.267740  0.340028  1
  Ti  Ti4  1  0.535791  0.464209  0.120630  1
  Ti  Ti5  1  0.464209  0.535791  0.879370  1
  Ti  Ti6  1  0.464318  0.535682  0.617960  1
  Ti  Ti7  1  0.535682  0.464318  0.382040  1
  Ti  Ti8  1  0.664369  0.335631  0.973041  1
  Ti  Ti9  1  0.335631  0.664369  0.026959  1
  Ti  Ti10  1  0.335794  0.664206  0.471876  1
  Ti  Ti11  1  0.664206  0.335794  0.528124  1
  Ti  Ti12  1  0.000000  0.000000  0.000000  1
  Ti  Ti13  1  0.060833  0.939167  0.749594  1
  Ti  Ti14  1  0.939167  0.060833  0.250406  1
  As  As15  1  0.902186  0.097814  0.116883  1
  As  As16  1  0.097814  0.902186  0.883117  1
  As  As17  1  0.096440  0.903560  0.616552  1
  As  As18  1  0.903560  0.096440  0.383448  1
  As  As19  1  0.840325  0.159675  0.924559  1
  As  As20  1  0.159675  0.840325  0.075441  1
  As  As21  1  0.160468  0.839532  0.425727  1
  As  As22  1  0.839532  0.160468  0.574273  1
  As  As23  1  0.700168  0.299832  0.749313  1
  As  As24  1  0.299832  0.700168  0.250687  1
  As  As25  1  0.418880  0.581120  0.749083  1
  As  As26  1  0.581120  0.418880  0.250917  1
  Rh  Rh27  1  0.000000  0.000000  0.500000  1
