# generated using pymatgen
data_Lu6HgTe2
_symmetry_space_group_name_H-M   'P 1'
_cell_length_a   4.05792600
_cell_length_b   11.35344500
_cell_length_c   21.29684200
_cell_angle_alpha   90.00000000
_cell_angle_beta   90.00000000
_cell_angle_gamma   90.00000000
_symmetry_Int_Tables_number   1
_chemical_formula_structural   Lu6HgTe2
_chemical_formula_sum   'Lu24 Hg4 Te8'
_cell_volume   981.17617105
_cell_formula_units_Z   4
loop_
 _symmetry_equiv_pos_site_id
 _symmetry_equiv_pos_as_xyz
  1  'x, y, z'
loop_
 _atom_site_type_symbol
 _atom_site_label
 _atom_site_symmetry_multiplicity
 _atom_site_fract_x
 _atom_site_fract_y
 _atom_site_fract_z
 _atom_site_occupancy
  Lu  Lu0  1  0.750000  0.679345  0.890891  1
  Lu  Lu1  1  0.250000  0.376298  0.470383  1
  Lu  Lu2  1  0.750000  0.876298  0.029617  1
  Lu  Lu3  1  0.750000  0.972631  0.838836  1
  Lu  Lu4  1  0.250000  0.179345  0.609109  1
  Lu  Lu5  1  0.250000  0.741678  0.267955  1
  Lu  Lu6  1  0.750000  0.110282  0.491384  1
  Lu  Lu7  1  0.750000  0.561340  0.139709  1
  Lu  Lu8  1  0.250000  0.320655  0.109109  1
  Lu  Lu9  1  0.250000  0.027369  0.161164  1
  Lu  Lu10  1  0.250000  0.472631  0.661164  1
  Lu  Lu11  1  0.250000  0.758322  0.767955  1
  Lu  Lu12  1  0.750000  0.527369  0.338836  1
  Lu  Lu13  1  0.750000  0.938660  0.639709  1
  Lu  Lu14  1  0.250000  0.610282  0.008616  1
  Lu  Lu15  1  0.750000  0.258322  0.732045  1
  Lu  Lu16  1  0.750000  0.241678  0.232045  1
  Lu  Lu17  1  0.750000  0.623702  0.529617  1
  Lu  Lu18  1  0.750000  0.820655  0.390891  1
  Lu  Lu19  1  0.250000  0.123702  0.970383  1
  Lu  Lu20  1  0.250000  0.889718  0.508616  1
  Lu  Lu21  1  0.750000  0.389718  0.991384  1
  Lu  Lu22  1  0.250000  0.438660  0.860291  1
  Lu  Lu23  1  0.250000  0.061340  0.360291  1
  Hg  Hg24  1  0.750000  0.132415  0.075674  1
  Hg  Hg25  1  0.250000  0.632415  0.424326  1
  Hg  Hg26  1  0.250000  0.867585  0.924326  1
  Hg  Hg27  1  0.750000  0.367585  0.575674  1
  Te  Te28  1  0.250000  0.768948  0.126586  1
  Te  Te29  1  0.250000  0.731052  0.626586  1
  Te  Te30  1  0.250000  0.043029  0.736649  1
  Te  Te31  1  0.750000  0.268948  0.373414  1
  Te  Te32  1  0.750000  0.543029  0.763351  1
  Te  Te33  1  0.250000  0.456971  0.236649  1
  Te  Te34  1  0.750000  0.956971  0.263351  1
  Te  Te35  1  0.750000  0.231052  0.873414  1
