# generated using pymatgen
data_DyEr15In4(IrRu)2
_symmetry_space_group_name_H-M   'P 1'
_cell_length_a   9.58653891
_cell_length_b   9.60721428
_cell_length_c   9.60094207
_cell_angle_alpha   59.86396252
_cell_angle_beta   59.80089527
_cell_angle_gamma   59.82252090
_symmetry_Int_Tables_number   1
_chemical_formula_structural   DyEr15In4(IrRu)2
_chemical_formula_sum   'Dy1 Er15 In4 Ir2 Ru2'
_cell_volume   622.83112127
_cell_formula_units_Z   1
loop_
 _symmetry_equiv_pos_site_id
 _symmetry_equiv_pos_as_xyz
  1  'x, y, z'
loop_
 _atom_site_type_symbol
 _atom_site_label
 _atom_site_symmetry_multiplicity
 _atom_site_fract_x
 _atom_site_fract_y
 _atom_site_fract_z
 _atom_site_occupancy
  Dy  Dy0  1  0.058933  0.059550  0.441620  1
  Er  Er1  1  0.651049  0.044024  0.651749  1
  Er  Er2  1  0.193613  0.808682  0.190816  1
  Er  Er3  1  0.439590  0.060123  0.441652  1
  Er  Er4  1  0.193440  0.190791  0.809082  1
  Er  Er5  1  0.649957  0.651718  0.651487  1
  Er  Er6  1  0.046030  0.651301  0.651656  1
  Er  Er7  1  0.442171  0.058174  0.057581  1
  Er  Er8  1  0.651436  0.651760  0.044102  1
  Er  Er9  1  0.192138  0.808685  0.809311  1
  Er  Er10  1  0.807606  0.191332  0.808591  1
  Er  Er11  1  0.807744  0.192752  0.192622  1
  Er  Er12  1  0.807966  0.808446  0.191265  1
  Er  Er13  1  0.060326  0.440513  0.439843  1
  Er  Er14  1  0.439207  0.441862  0.059985  1
  Er  Er15  1  0.058599  0.442195  0.058841  1
  In  In16  1  0.747546  0.417695  0.417292  1
  In  In17  1  0.416437  0.416982  0.749684  1
  In  In18  1  0.417116  0.749216  0.416873  1
  In  In19  1  0.418023  0.416700  0.417250  1
  Ir  Ir20  1  0.859455  0.857944  0.421246  1
  Ir  Ir21  1  0.859583  0.421213  0.858307  1
  Ru  Ru22  1  0.861751  0.859811  0.860293  1
  Ru  Ru23  1  0.420288  0.858532  0.858854  1
