# generated using pymatgen
data_Tb4Al14Ga4Rh5Au
_symmetry_space_group_name_H-M   'P 1'
_cell_length_a   7.59653381
_cell_length_b   7.59315342
_cell_length_c   9.49870491
_cell_angle_alpha   89.98152236
_cell_angle_beta   89.87242382
_cell_angle_gamma   119.39680751
_symmetry_Int_Tables_number   1
_chemical_formula_structural   Tb4Al14Ga4Rh5Au
_chemical_formula_sum   'Tb4 Al14 Ga4 Rh5 Au1'
_cell_volume   477.35203926
_cell_formula_units_Z   1
loop_
 _symmetry_equiv_pos_site_id
 _symmetry_equiv_pos_as_xyz
  1  'x, y, z'
loop_
 _atom_site_type_symbol
 _atom_site_label
 _atom_site_symmetry_multiplicity
 _atom_site_fract_x
 _atom_site_fract_y
 _atom_site_fract_z
 _atom_site_occupancy
  Tb  Tb0  1  0.995343  0.676534  0.246103  1
  Tb  Tb1  1  0.004657  0.323466  0.753897  1
  Tb  Tb2  1  0.680694  0.998262  0.249134  1
  Tb  Tb3  1  0.319306  0.001738  0.750866  1
  Al  Al4  1  0.998730  0.663131  0.570525  1
  Al  Al5  1  0.337250  0.999326  0.426508  1
  Al  Al6  1  0.001270  0.336869  0.429475  1
  Al  Al7  1  0.662750  0.000674  0.573492  1
  Al  Al8  1  0.653056  0.996197  0.920137  1
  Al  Al9  1  0.346944  0.003803  0.079863  1
  Al  Al10  1  0.333753  0.333273  0.553865  1
  Al  Al11  1  0.666247  0.666727  0.446135  1
  Al  Al12  1  0.657542  0.657354  0.057578  1
  Al  Al13  1  0.342458  0.342646  0.942422  1
  Al  Al14  1  0.339511  0.554576  0.251624  1
  Al  Al15  1  0.660489  0.445424  0.748376  1
  Al  Al16  1  0.552443  0.339705  0.251536  1
  Al  Al17  1  0.447557  0.660295  0.748464  1
  Ga  Ga18  1  0.143466  0.140120  0.258017  1
  Ga  Ga19  1  0.856534  0.859880  0.741983  1
  Ga  Ga20  1  0.001105  0.346384  0.085653  1
  Ga  Ga21  1  0.998895  0.653616  0.914347  1
  Rh  Rh22  1  0.668421  0.326564  0.999591  1
  Rh  Rh23  1  0.331579  0.673436  0.000409  1
  Rh  Rh24  1  0.327745  0.671171  0.500363  1
  Rh  Rh25  1  0.672255  0.328829  0.499637  1
  Rh  Rh26  1  0.000000  0.000000  0.500000  1
  Au  Au27  1  0.000000  0.000000  0.000000  1
