# generated using pymatgen
data_SmTm2(Ni3As2)3
_symmetry_space_group_name_H-M   'P 1'
_cell_length_a   3.89690800
_cell_length_b   10.81985700
_cell_length_c   12.76314400
_cell_angle_alpha   90.00000000
_cell_angle_beta   90.00000000
_cell_angle_gamma   90.00000000
_symmetry_Int_Tables_number   1
_chemical_formula_structural   SmTm2(Ni3As2)3
_chemical_formula_sum   'Sm2 Tm4 Ni18 As12'
_cell_volume   538.14504155
_cell_formula_units_Z   2
loop_
 _symmetry_equiv_pos_site_id
 _symmetry_equiv_pos_as_xyz
  1  'x, y, z'
loop_
 _atom_site_type_symbol
 _atom_site_label
 _atom_site_symmetry_multiplicity
 _atom_site_fract_x
 _atom_site_fract_y
 _atom_site_fract_z
 _atom_site_occupancy
  Sm  Sm0  1  0.000000  0.500000  0.523322  1
  Sm  Sm1  1  0.500000  0.000000  0.476678  1
  Tm  Tm2  1  0.500000  0.817131  0.206073  1
  Tm  Tm3  1  0.500000  0.182869  0.206073  1
  Tm  Tm4  1  0.000000  0.682869  0.793927  1
  Tm  Tm5  1  0.000000  0.317131  0.793927  1
  Ni  Ni6  1  0.500000  0.500000  0.155475  1
  Ni  Ni7  1  0.000000  0.000000  0.844525  1
  Ni  Ni8  1  0.500000  0.500000  0.701704  1
  Ni  Ni9  1  0.000000  0.000000  0.298296  1
  Ni  Ni10  1  0.000000  0.500000  0.982851  1
  Ni  Ni11  1  0.500000  0.000000  0.017149  1
  Ni  Ni12  1  0.500000  0.332917  0.997945  1
  Ni  Ni13  1  0.500000  0.667083  0.997945  1
  Ni  Ni14  1  0.000000  0.167083  0.002055  1
  Ni  Ni15  1  0.000000  0.832917  0.002055  1
  Ni  Ni16  1  0.500000  0.302276  0.425714  1
  Ni  Ni17  1  0.500000  0.697724  0.425714  1
  Ni  Ni18  1  0.000000  0.197724  0.574286  1
  Ni  Ni19  1  0.000000  0.802276  0.574286  1
  Ni  Ni20  1  0.500000  0.878824  0.709602  1
  Ni  Ni21  1  0.500000  0.121176  0.709602  1
  Ni  Ni22  1  0.000000  0.621176  0.290398  1
  Ni  Ni23  1  0.000000  0.378824  0.290398  1
  As  As24  1  0.500000  0.500000  0.877116  1
  As  As25  1  0.000000  0.000000  0.122884  1
  As  As26  1  0.500000  0.500000  0.342825  1
  As  As27  1  0.000000  0.000000  0.657175  1
  As  As28  1  0.500000  0.313368  0.615108  1
  As  As29  1  0.500000  0.686632  0.615108  1
  As  As30  1  0.000000  0.186632  0.384892  1
  As  As31  1  0.000000  0.813368  0.384892  1
  As  As32  1  0.500000  0.846072  0.890482  1
  As  As33  1  0.500000  0.153928  0.890482  1
  As  As34  1  0.000000  0.653928  0.109518  1
  As  As35  1  0.000000  0.346072  0.109518  1
