# generated using pymatgen
data_Y2LuIn3HgPt2
_symmetry_space_group_name_H-M   'P 1'
_cell_length_a   7.89188352
_cell_length_b   7.88313296
_cell_length_c   3.77494200
_cell_angle_alpha   90.00000000
_cell_angle_beta   90.00000000
_cell_angle_gamma   119.82451768
_symmetry_Int_Tables_number   1
_chemical_formula_structural   Y2LuIn3HgPt2
_chemical_formula_sum   'Y2 Lu1 In3 Hg1 Pt2'
_cell_volume   203.74439653
_cell_formula_units_Z   1
loop_
 _symmetry_equiv_pos_site_id
 _symmetry_equiv_pos_as_xyz
  1  'x, y, z'
loop_
 _atom_site_type_symbol
 _atom_site_label
 _atom_site_symmetry_multiplicity
 _atom_site_fract_x
 _atom_site_fract_y
 _atom_site_fract_z
 _atom_site_occupancy
  Y  Y0  1  0.021277  0.612586  0.500000  1
  Y  Y1  1  0.591755  0.978874  0.500000  1
  Lu  Lu2  1  0.383734  0.409110  0.500000  1
  In  In3  1  0.999837  0.260721  0.000000  1
  In  In4  1  0.262128  0.002351  0.000000  1
  In  In5  1  0.739831  0.738102  0.000000  1
  Hg  Hg6  1  0.664124  0.334107  0.000000  1
  Pt  Pt7  1  0.002452  0.002636  0.500000  1
  Pt  Pt8  1  0.334864  0.661514  0.000000  1
