# generated using pymatgen
data_Sc2SnB2Ir3Ru2
_symmetry_space_group_name_H-M   'P 1'
_cell_length_a   9.63214127
_cell_length_b   9.58399626
_cell_length_c   3.08073500
_cell_angle_alpha   90.00000000
_cell_angle_beta   90.00000000
_cell_angle_gamma   89.97305792
_symmetry_Int_Tables_number   1
_chemical_formula_structural   Sc2SnB2Ir3Ru2
_chemical_formula_sum   'Sc4 Sn2 B4 Ir6 Ru4'
_cell_volume   284.39618988
_cell_formula_units_Z   2
loop_
 _symmetry_equiv_pos_site_id
 _symmetry_equiv_pos_as_xyz
  1  'x, y, z'
loop_
 _atom_site_type_symbol
 _atom_site_label
 _atom_site_symmetry_multiplicity
 _atom_site_fract_x
 _atom_site_fract_y
 _atom_site_fract_z
 _atom_site_occupancy
  Sc  Sc0  1  0.678971  0.176843  0.000000  1
  Sc  Sc1  1  0.317002  0.826884  0.000000  1
  Sc  Sc2  1  0.176045  0.318925  0.000000  1
  Sc  Sc3  1  0.825318  0.679763  0.000000  1
  Sn  Sn4  1  0.000710  0.995392  0.000000  1
  Sn  Sn5  1  0.504827  0.499339  0.000000  1
  B  B6  1  0.121714  0.623892  0.000000  1
  B  B7  1  0.875878  0.377185  0.000000  1
  B  B8  1  0.626079  0.881121  0.000000  1
  B  B9  1  0.372558  0.120178  0.000000  1
  Ir  Ir10  1  0.930053  0.222701  0.500000  1
  Ir  Ir11  1  0.278823  0.567610  0.500000  1
  Ir  Ir12  1  0.568552  0.725665  0.500000  1
  Ir  Ir13  1  0.429340  0.276615  0.500000  1
  Ir  Ir14  1  0.498772  0.001091  0.500000  1
  Ir  Ir15  1  0.001514  0.498503  0.500000  1
  Ru  Ru16  1  0.221186  0.071333  0.500000  1
  Ru  Ru17  1  0.776426  0.931938  0.500000  1
  Ru  Ru18  1  0.071608  0.774510  0.500000  1
  Ru  Ru19  1  0.724624  0.430513  0.500000  1
