# generated using pymatgen
data_Er6Al24Fe5Pd3
_symmetry_space_group_name_H-M   'P 1'
_cell_length_a   8.73223064
_cell_length_b   8.71472257
_cell_length_c   9.35171630
_cell_angle_alpha   90.04719558
_cell_angle_beta   90.00597156
_cell_angle_gamma   119.82631417
_symmetry_Int_Tables_number   1
_chemical_formula_structural   Er6Al24Fe5Pd3
_chemical_formula_sum   'Er6 Al24 Fe5 Pd3'
_cell_volume   617.38763744
_cell_formula_units_Z   1
loop_
 _symmetry_equiv_pos_site_id
 _symmetry_equiv_pos_as_xyz
  1  'x, y, z'
loop_
 _atom_site_type_symbol
 _atom_site_label
 _atom_site_symmetry_multiplicity
 _atom_site_fract_x
 _atom_site_fract_y
 _atom_site_fract_z
 _atom_site_occupancy
  Er  Er0  1  0.189122  0.387676  0.253669  1
  Er  Er1  1  0.810878  0.612324  0.746331  1
  Er  Er2  1  0.614639  0.809871  0.251557  1
  Er  Er3  1  0.385361  0.190129  0.748443  1
  Er  Er4  1  0.192144  0.804446  0.251453  1
  Er  Er5  1  0.807856  0.195554  0.748547  1
  Al  Al6  1  0.320947  0.660381  0.021252  1
  Al  Al7  1  0.679053  0.339619  0.978748  1
  Al  Al8  1  0.671766  0.327303  0.520294  1
  Al  Al9  1  0.328234  0.672697  0.479706  1
  Al  Al10  1  0.152783  0.321053  0.576520  1
  Al  Al11  1  0.847217  0.678947  0.423480  1
  Al  Al12  1  0.680264  0.847749  0.575967  1
  Al  Al13  1  0.847940  0.680300  0.077455  1
  Al  Al14  1  0.319736  0.152251  0.424033  1
  Al  Al15  1  0.152060  0.319700  0.922545  1
  Al  Al16  1  0.161500  0.837736  0.575694  1
  Al  Al17  1  0.315802  0.158283  0.079996  1
  Al  Al18  1  0.838500  0.162264  0.424306  1
  Al  Al19  1  0.684198  0.841717  0.920004  1
  Al  Al20  1  0.847128  0.168043  0.078693  1
  Al  Al21  1  0.152872  0.831957  0.921307  1
  Al  Al22  1  0.560832  0.121531  0.258300  1
  Al  Al23  1  0.439168  0.878469  0.741700  1
  Al  Al24  1  0.882871  0.441763  0.250103  1
  Al  Al25  1  0.117129  0.558237  0.749897  1
  Al  Al26  1  0.563797  0.436766  0.250009  1
  Al  Al27  1  0.436203  0.563234  0.749991  1
  Al  Al28  1  0.998337  0.000598  0.250492  1
  Al  Al29  1  0.001663  0.999402  0.749508  1
  Fe  Fe30  1  0.000000  0.500000  0.000000  1
  Fe  Fe31  1  0.500000  0.000000  0.500000  1
  Fe  Fe32  1  0.000000  0.500000  0.500000  1
  Fe  Fe33  1  0.000000  0.000000  0.000000  1
  Fe  Fe34  1  0.000000  0.000000  0.500000  1
  Pd  Pd35  1  0.500000  0.000000  0.000000  1
  Pd  Pd36  1  0.500000  0.500000  0.000000  1
  Pd  Pd37  1  0.500000  0.500000  0.500000  1
