# generated using pymatgen
data_TmPa5(Ni3Sb4)2
_symmetry_space_group_name_H-M   'P 1'
_cell_length_a   8.16216941
_cell_length_b   8.16216887
_cell_length_c   8.16216769
_cell_angle_alpha   109.53889452
_cell_angle_beta   109.53889939
_cell_angle_gamma   109.33595012
_symmetry_Int_Tables_number   1
_chemical_formula_structural   TmPa5(Ni3Sb4)2
_chemical_formula_sum   'Tm1 Pa5 Ni6 Sb8'
_cell_volume   418.59400163
_cell_formula_units_Z   1
loop_
 _symmetry_equiv_pos_site_id
 _symmetry_equiv_pos_as_xyz
  1  'x, y, z'
loop_
 _atom_site_type_symbol
 _atom_site_label
 _atom_site_symmetry_multiplicity
 _atom_site_fract_x
 _atom_site_fract_y
 _atom_site_fract_z
 _atom_site_occupancy
  Tm  Tm0  1  0.625000  0.375000  0.250000  1
  Pa  Pa1  1  0.376112  0.250960  0.625865  1
  Pa  Pa2  1  0.125095  0.750247  0.874135  1
  Pa  Pa3  1  0.749040  0.874905  0.125153  1
  Pa  Pa4  1  0.249753  0.623888  0.374847  1
  Pa  Pa5  1  0.875000  0.125000  0.750000  1
  Ni  Ni6  1  0.877260  0.249211  0.123436  1
  Ni  Ni7  1  0.375000  0.625000  0.750000  1
  Ni  Ni8  1  0.625775  0.753824  0.376564  1
  Ni  Ni9  1  0.750789  0.374225  0.628049  1
  Ni  Ni10  1  0.246176  0.122740  0.871951  1
  Ni  Ni11  1  0.125000  0.875000  0.250000  1
  Sb  Sb12  1  0.501909  0.002914  0.836557  1
  Sb  Sb13  1  0.166610  0.166801  0.166402  1
  Sb  Sb14  1  0.833199  0.499601  0.999810  1
  Sb  Sb15  1  0.999792  0.833390  0.500190  1
  Sb  Sb16  1  0.334649  0.498091  0.001006  1
  Sb  Sb17  1  0.997086  0.333643  0.498994  1
  Sb  Sb18  1  0.500399  0.000208  0.333598  1
  Sb  Sb19  1  0.666357  0.665351  0.663443  1
