# generated using pymatgen
data_La6Nd14Si15Ir
_symmetry_space_group_name_H-M   'P 1'
_cell_length_a   7.94764262
_cell_length_b   7.93090655
_cell_length_c   15.17043700
_cell_angle_alpha   89.95500664
_cell_angle_beta   89.66527708
_cell_angle_gamma   90.21905127
_symmetry_Int_Tables_number   1
_chemical_formula_structural   La6Nd14Si15Ir
_chemical_formula_sum   'La6 Nd14 Si15 Ir1'
_cell_volume   956.19953302
_cell_formula_units_Z   1
loop_
 _symmetry_equiv_pos_site_id
 _symmetry_equiv_pos_as_xyz
  1  'x, y, z'
loop_
 _atom_site_type_symbol
 _atom_site_label
 _atom_site_symmetry_multiplicity
 _atom_site_fract_x
 _atom_site_fract_y
 _atom_site_fract_z
 _atom_site_occupancy
  La  La0  1  0.629435  0.986400  0.952467  1
  La  La1  1  0.128382  0.513132  0.799333  1
  La  La2  1  0.875999  0.488811  0.304950  1
  La  La3  1  0.511692  0.127037  0.199240  1
  La  La4  1  0.491361  0.874510  0.698653  1
  La  La5  1  0.374287  0.013390  0.453077  1
  Nd  Nd6  1  0.366530  0.484522  0.376927  1
  Nd  Nd7  1  0.872987  0.015167  0.375391  1
  Nd  Nd8  1  0.982535  0.129328  0.123485  1
  Nd  Nd9  1  0.023079  0.870852  0.621068  1
  Nd  Nd10  1  0.629320  0.519831  0.874317  1
  Nd  Nd11  1  0.485874  0.372214  0.625408  1
  Nd  Nd12  1  0.514611  0.628832  0.125752  1
  Nd  Nd13  1  0.126847  0.982334  0.876148  1
  Nd  Nd14  1  0.991006  0.621024  0.053309  1
  Nd  Nd15  1  0.010864  0.377470  0.549039  1
  Nd  Nd16  1  0.700643  0.692169  0.496595  1
  Nd  Nd17  1  0.810310  0.189180  0.749138  1
  Nd  Nd18  1  0.184120  0.803721  0.257974  1
  Nd  Nd19  1  0.305427  0.307488  0.998924  1
  Si  Si20  1  0.922296  0.290168  0.938916  1
  Si  Si21  1  0.712637  0.079254  0.560646  1
  Si  Si22  1  0.215468  0.421708  0.189496  1
  Si  Si23  1  0.790115  0.576758  0.689033  1
  Si  Si24  1  0.424347  0.212831  0.809885  1
  Si  Si25  1  0.574665  0.789093  0.308864  1
  Si  Si26  1  0.285562  0.922990  0.061072  1
  Si  Si27  1  0.834459  0.804371  0.797859  1
  Si  Si28  1  0.167709  0.196945  0.298631  1
  Si  Si29  1  0.798395  0.835934  0.197142  1
  Si  Si30  1  0.301654  0.664156  0.549548  1
  Si  Si31  1  0.697737  0.336518  0.048430  1
  Si  Si32  1  0.664376  0.301500  0.451167  1
  Si  Si33  1  0.329190  0.695114  0.952619  1
  Si  Si34  1  0.199533  0.168274  0.698845  1
  Ir  Ir35  1  0.066547  0.706979  0.436658  1
