# generated using pymatgen
data_Lu2Co12Si5P2
_symmetry_space_group_name_H-M   'P 1'
_cell_length_a   9.07360491
_cell_length_b   9.05924952
_cell_length_c   3.58653100
_cell_angle_alpha   90.00000000
_cell_angle_beta   90.00000000
_cell_angle_gamma   119.93317628
_symmetry_Int_Tables_number   1
_chemical_formula_structural   Lu2Co12Si5P2
_chemical_formula_sum   'Lu2 Co12 Si5 P2'
_cell_volume   255.48731967
_cell_formula_units_Z   1
loop_
 _symmetry_equiv_pos_site_id
 _symmetry_equiv_pos_as_xyz
  1  'x, y, z'
loop_
 _atom_site_type_symbol
 _atom_site_label
 _atom_site_symmetry_multiplicity
 _atom_site_fract_x
 _atom_site_fract_y
 _atom_site_fract_z
 _atom_site_occupancy
  Lu  Lu0  1  0.334965  0.667700  0.000000  1
  Lu  Lu1  1  0.000444  0.997657  0.500000  1
  Co  Co2  1  0.720890  0.950522  0.000000  1
  Co  Co3  1  0.230360  0.278055  0.000000  1
  Co  Co4  1  0.048325  0.771843  0.000000  1
  Co  Co5  1  0.943572  0.458727  0.000000  1
  Co  Co6  1  0.518284  0.055415  0.000000  1
  Co  Co7  1  0.535279  0.485836  0.000000  1
  Co  Co8  1  0.104971  0.387112  0.500000  1
  Co  Co9  1  0.292113  0.900438  0.500000  1
  Co  Co10  1  0.607428  0.713571  0.500000  1
  Co  Co11  1  0.771607  0.200874  0.500000  1
  Co  Co12  1  0.433944  0.233162  0.500000  1
  Co  Co13  1  0.790735  0.564516  0.500000  1
  Si  Si14  1  0.953232  0.218079  0.000000  1
  Si  Si15  1  0.268371  0.047810  0.000000  1
  Si  Si16  1  0.779957  0.732187  0.000000  1
  Si  Si17  1  0.069593  0.626365  0.500000  1
  Si  Si18  1  0.666131  0.335439  0.000000  1
  P  P19  1  0.556788  0.930708  0.500000  1
  P  P20  1  0.373010  0.443986  0.500000  1
