# generated using pymatgen
data_Pr12Sc2Ta3Nb3(MoN4)12
_symmetry_space_group_name_H-M   'P 1'
_cell_length_a   11.36389202
_cell_length_b   11.36473042
_cell_length_c   11.38588654
_cell_angle_alpha   109.47895404
_cell_angle_beta   109.46653225
_cell_angle_gamma   109.41850987
_symmetry_Int_Tables_number   1
_chemical_formula_structural   Pr12Sc2Ta3Nb3(MoN4)12
_chemical_formula_sum   'Pr12 Sc2 Ta3 Nb3 Mo12 N48'
_cell_volume   1132.65333682
_cell_formula_units_Z   1
loop_
 _symmetry_equiv_pos_site_id
 _symmetry_equiv_pos_as_xyz
  1  'x, y, z'
loop_
 _atom_site_type_symbol
 _atom_site_label
 _atom_site_symmetry_multiplicity
 _atom_site_fract_x
 _atom_site_fract_y
 _atom_site_fract_z
 _atom_site_occupancy
  Pr  Pr0  1  0.373789  0.748302  0.123228  1
  Pr  Pr1  1  0.251379  0.375598  0.126904  1
  Pr  Pr2  1  0.376636  0.126523  0.249875  1
  Pr  Pr3  1  0.874804  0.624856  0.249875  1
  Pr  Pr4  1  0.748847  0.124829  0.373101  1
  Pr  Pr5  1  0.124920  0.250251  0.376769  1
  Pr  Pr6  1  0.875074  0.749746  0.623231  1
  Pr  Pr7  1  0.251144  0.875165  0.626896  1
  Pr  Pr8  1  0.125192  0.375144  0.750119  1
  Pr  Pr9  1  0.623365  0.873484  0.750133  1
  Pr  Pr10  1  0.626215  0.251703  0.876772  1
  Pr  Pr11  1  0.748628  0.624404  0.873100  1
  Sc  Sc12  1  0.500002  0.999991  0.000000  1
  Sc  Sc13  1  0.500005  0.500004  0.500009  1
  Ta  Ta14  1  0.499999  0.499999  0.999999  1
  Ta  Ta15  1  0.499999  0.000000  0.500001  1
  Ta  Ta16  1  0.000000  0.500000  0.499999  1
  Nb  Nb17  1  0.000001  0.000000  0.999999  1
  Nb  Nb18  1  0.000001  0.500001  0.000001  1
  Nb  Nb19  1  0.999998  0.999999  0.500000  1
  Mo  Mo20  1  0.876844  0.252768  0.126388  1
  Mo  Mo21  1  0.751836  0.875169  0.126446  1
  Mo  Mo22  1  0.624558  0.374633  0.250045  1
  Mo  Mo23  1  0.126071  0.875606  0.250486  1
  Mo  Mo24  1  0.249162  0.625880  0.373717  1
  Mo  Mo25  1  0.626141  0.750808  0.373945  1
  Mo  Mo26  1  0.373859  0.249192  0.626056  1
  Mo  Mo27  1  0.750836  0.374120  0.626283  1
  Mo  Mo28  1  0.873930  0.124394  0.749513  1
  Mo  Mo29  1  0.375441  0.625367  0.749955  1
  Mo  Mo30  1  0.248166  0.124834  0.873554  1
  Mo  Mo31  1  0.123156  0.747232  0.873612  1
  N  N32  1  0.198329  0.115781  0.014852  1
  N  N33  1  0.306031  0.893755  0.014398  1
  N  N34  1  0.884696  0.401447  0.083348  1
  N  N35  1  0.698186  0.683063  0.082459  1
  N  N36  1  0.987051  0.686055  0.102219  1
  N  N37  1  0.616698  0.418626  0.100238  1
  N  N38  1  0.014798  0.198404  0.116506  1
  N  N39  1  0.605127  0.911553  0.120217  1
  N  N40  1  0.198746  0.582654  0.182396  1
  N  N41  1  0.484899  0.600273  0.182927  1
  N  N42  1  0.587398  0.190114  0.208277  1
  N  N43  1  0.114803  0.013087  0.198408  1
  N  N44  1  0.316308  0.917374  0.303103  1
  N  N45  1  0.481723  0.378983  0.291720  1
  N  N46  1  0.917165  0.301845  0.317169  1
  N  N47  1  0.900411  0.016420  0.317690  1
  N  N48  1  0.580874  0.898396  0.384005  1
  N  N49  1  0.291800  0.485479  0.380017  1
  N  N50  1  0.818530  0.516760  0.399808  1
  N  N51  1  0.083778  0.884411  0.397921  1
  N  N52  1  0.100893  0.615497  0.417596  1
  N  N53  1  0.817826  0.801684  0.416688  1
  N  N54  1  0.600790  0.182190  0.485210  1
  N  N55  1  0.379206  0.291683  0.485569  1
  N  N56  1  0.620794  0.708318  0.514431  1
  N  N57  1  0.399209  0.817811  0.514789  1
  N  N58  1  0.182174  0.198315  0.583312  1
  N  N59  1  0.899106  0.384502  0.582404  1
  N  N60  1  0.916222  0.115590  0.602079  1
  N  N61  1  0.181471  0.483240  0.600192  1
  N  N62  1  0.419126  0.101605  0.615995  1
  N  N63  1  0.708199  0.514524  0.619985  1
  N  N64  1  0.082835  0.698154  0.682831  1
  N  N65  1  0.099588  0.983581  0.682309  1
  N  N66  1  0.683692  0.082627  0.696897  1
  N  N67  1  0.518282  0.621019  0.708281  1
  N  N68  1  0.885196  0.986913  0.801593  1
  N  N69  1  0.412602  0.809884  0.791724  1
  N  N70  1  0.515102  0.399727  0.817072  1
  N  N71  1  0.801254  0.417346  0.817603  1
  N  N72  1  0.394873  0.088445  0.879783  1
  N  N73  1  0.985202  0.801596  0.883494  1
  N  N74  1  0.012948  0.313945  0.897780  1
  N  N75  1  0.383303  0.581374  0.899760  1
  N  N76  1  0.301816  0.316938  0.917542  1
  N  N77  1  0.115306  0.598555  0.916651  1
  N  N78  1  0.693971  0.106246  0.985602  1
  N  N79  1  0.801669  0.884218  0.985147  1
