# generated using pymatgen
data_Ta6Nb8Si5As3
_symmetry_space_group_name_H-M   'P 1'
_cell_length_a   3.50594800
_cell_length_b   7.90551769
_cell_length_c   14.12484311
_cell_angle_alpha   103.89037366
_cell_angle_beta   90.00000000
_cell_angle_gamma   102.81128565
_symmetry_Int_Tables_number   1
_chemical_formula_structural   Ta6Nb8Si5As3
_chemical_formula_sum   'Ta6 Nb8 Si5 As3'
_cell_volume   369.99321546
_cell_formula_units_Z   1
loop_
 _symmetry_equiv_pos_site_id
 _symmetry_equiv_pos_as_xyz
  1  'x, y, z'
loop_
 _atom_site_type_symbol
 _atom_site_label
 _atom_site_symmetry_multiplicity
 _atom_site_fract_x
 _atom_site_fract_y
 _atom_site_fract_z
 _atom_site_occupancy
  Ta  Ta0  1  0.000291  0.000582  0.000675  1
  Ta  Ta1  1  0.498658  0.997315  0.498701  1
  Ta  Ta2  1  0.426659  0.853320  0.825724  1
  Ta  Ta3  1  0.573521  0.147040  0.173650  1
  Ta  Ta4  1  0.197624  0.395248  0.308696  1
  Ta  Ta5  1  0.804093  0.608186  0.691598  1
  Nb  Nb6  1  0.212336  0.424673  0.799019  1
  Nb  Nb7  1  0.788853  0.577708  0.203180  1
  Nb  Nb8  1  0.332902  0.665804  0.028830  1
  Nb  Nb9  1  0.668106  0.336213  0.971130  1
  Nb  Nb10  1  0.997740  0.995478  0.661375  1
  Nb  Nb11  1  0.999064  0.998126  0.339652  1
  Nb  Nb12  1  0.180401  0.360801  0.543954  1
  Nb  Nb13  1  0.820684  0.641367  0.453606  1
  Si  Si14  1  0.175641  0.351281  0.109751  1
  Si  Si15  1  0.826071  0.652143  0.891162  1
  Si  Si16  1  0.370486  0.740972  0.597370  1
  Si  Si17  1  0.627643  0.255286  0.399930  1
  Si  Si18  1  0.371481  0.742962  0.334982  1
  As  As19  1  0.627486  0.254975  0.665468  1
  As  As20  1  0.062899  0.125799  0.847923  1
  As  As21  1  0.937361  0.874722  0.153626  1
