# generated using pymatgen
data_HoEr3ScBi3
_symmetry_space_group_name_H-M   'P 1'
_cell_length_a   8.08965300
_cell_length_b   9.40738400
_cell_length_c   11.90041700
_cell_angle_alpha   90.00000000
_cell_angle_beta   90.00000000
_cell_angle_gamma   90.00000000
_symmetry_Int_Tables_number   1
_chemical_formula_structural   HoEr3ScBi3
_chemical_formula_sum   'Ho4 Er12 Sc4 Bi12'
_cell_volume   905.65115388
_cell_formula_units_Z   4
loop_
 _symmetry_equiv_pos_site_id
 _symmetry_equiv_pos_as_xyz
  1  'x, y, z'
loop_
 _atom_site_type_symbol
 _atom_site_label
 _atom_site_symmetry_multiplicity
 _atom_site_fract_x
 _atom_site_fract_y
 _atom_site_fract_z
 _atom_site_occupancy
  Ho  Ho0  1  0.316306  0.250000  0.218762  1
  Ho  Ho1  1  0.816306  0.250000  0.281238  1
  Ho  Ho2  1  0.683694  0.750000  0.781238  1
  Ho  Ho3  1  0.183694  0.750000  0.718762  1
  Er  Er4  1  0.352655  0.750000  0.217609  1
  Er  Er5  1  0.852655  0.750000  0.282391  1
  Er  Er6  1  0.647345  0.250000  0.782391  1
  Er  Er7  1  0.147345  0.250000  0.717609  1
  Er  Er8  1  0.694107  0.565135  0.059316  1
  Er  Er9  1  0.194107  0.934865  0.440684  1
  Er  Er10  1  0.305893  0.065135  0.940684  1
  Er  Er11  1  0.805893  0.434865  0.559316  1
  Er  Er12  1  0.305893  0.434865  0.940684  1
  Er  Er13  1  0.805893  0.065135  0.559316  1
  Er  Er14  1  0.694107  0.934865  0.059316  1
  Er  Er15  1  0.194107  0.565135  0.440684  1
  Sc  Sc16  1  0.478132  0.250000  0.487582  1
  Sc  Sc17  1  0.978132  0.250000  0.012418  1
  Sc  Sc18  1  0.521868  0.750000  0.512418  1
  Sc  Sc19  1  0.021868  0.750000  0.987582  1
  Bi  Bi20  1  0.400136  0.750000  0.958984  1
  Bi  Bi21  1  0.900136  0.750000  0.541016  1
  Bi  Bi22  1  0.599864  0.250000  0.041016  1
  Bi  Bi23  1  0.099864  0.250000  0.458984  1
  Bi  Bi24  1  0.565861  0.995830  0.330774  1
  Bi  Bi25  1  0.065861  0.504170  0.169226  1
  Bi  Bi26  1  0.434139  0.495830  0.669226  1
  Bi  Bi27  1  0.934139  0.004170  0.830774  1
  Bi  Bi28  1  0.434139  0.004170  0.669226  1
  Bi  Bi29  1  0.934139  0.495830  0.830774  1
  Bi  Bi30  1  0.565861  0.504170  0.330774  1
  Bi  Bi31  1  0.065861  0.995830  0.169226  1
