# generated using pymatgen
data_Nd5Sm2PI12
_symmetry_space_group_name_H-M   'P 1'
_cell_length_a   9.89553075
_cell_length_b   9.91962972
_cell_length_c   9.91480100
_cell_angle_alpha   107.63822617
_cell_angle_beta   107.44742326
_cell_angle_gamma   107.77447096
_symmetry_Int_Tables_number   1
_chemical_formula_structural   Nd5Sm2PI12
_chemical_formula_sum   'Nd5 Sm2 P1 I12'
_cell_volume   796.40919051
_cell_formula_units_Z   1
loop_
 _symmetry_equiv_pos_site_id
 _symmetry_equiv_pos_as_xyz
  1  'x, y, z'
loop_
 _atom_site_type_symbol
 _atom_site_label
 _atom_site_symmetry_multiplicity
 _atom_site_fract_x
 _atom_site_fract_y
 _atom_site_fract_z
 _atom_site_occupancy
  Nd  Nd0  1  0.533348  0.604049  0.806110  1
  Nd  Nd1  1  0.806536  0.533694  0.604175  1
  Nd  Nd2  1  0.603333  0.804017  0.533202  1
  Nd  Nd3  1  0.473908  0.402190  0.195318  1
  Nd  Nd4  1  0.194639  0.473396  0.402134  1
  Sm  Sm5  1  0.402345  0.195881  0.473645  1
  Sm  Sm6  1  0.977883  0.978430  0.977474  1
  P  P7  1  0.497580  0.495628  0.498378  1
  I  I8  1  0.272289  0.816408  0.421599  1
  I  I9  1  0.420971  0.270578  0.811453  1
  I  I10  1  0.815663  0.421887  0.271705  1
  I  I11  1  0.727201  0.185306  0.574339  1
  I  I12  1  0.575458  0.731204  0.186083  1
  I  I13  1  0.185426  0.575678  0.731182  1
  I  I14  1  0.035802  0.110026  0.335878  1
  I  I15  1  0.335607  0.033984  0.113949  1
  I  I16  1  0.110686  0.335392  0.032960  1
  I  I17  1  0.971122  0.887985  0.647972  1
  I  I18  1  0.647693  0.970853  0.887068  1
  I  I19  1  0.887881  0.648787  0.970745  1
