# generated using pymatgen
data_Dy12Co4HgRu
_symmetry_space_group_name_H-M   'P 1'
_cell_length_a   8.27818074
_cell_length_b   8.27818115
_cell_length_c   8.27818166
_cell_angle_alpha   111.03656110
_cell_angle_beta   110.53149267
_cell_angle_gamma   106.87676969
_symmetry_Int_Tables_number   1
_chemical_formula_structural   Dy12Co4HgRu
_chemical_formula_sum   'Dy12 Co4 Hg1 Ru1'
_cell_volume   436.02305926
_cell_formula_units_Z   1
loop_
 _symmetry_equiv_pos_site_id
 _symmetry_equiv_pos_as_xyz
  1  'x, y, z'
loop_
 _atom_site_type_symbol
 _atom_site_label
 _atom_site_symmetry_multiplicity
 _atom_site_fract_x
 _atom_site_fract_y
 _atom_site_fract_z
 _atom_site_occupancy
  Dy  Dy0  1  0.411337  0.218207  0.193131  1
  Dy  Dy1  1  0.588663  0.781793  0.806869  1
  Dy  Dy2  1  0.025076  0.218207  0.806869  1
  Dy  Dy3  1  0.974924  0.781793  0.193131  1
  Dy  Dy4  1  0.183291  0.284728  0.468019  1
  Dy  Dy5  1  0.816709  0.715272  0.531981  1
  Dy  Dy6  1  0.183291  0.715272  0.898564  1
  Dy  Dy7  1  0.816709  0.284728  0.101436  1
  Dy  Dy8  1  0.314866  0.620617  0.305751  1
  Dy  Dy9  1  0.685134  0.379383  0.694249  1
  Dy  Dy10  1  0.314866  0.009116  0.694249  1
  Dy  Dy11  1  0.685134  0.990884  0.305751  1
  Co  Co12  1  0.374707  0.000000  0.374707  1
  Co  Co13  1  0.625293  0.000000  0.625293  1
  Co  Co14  1  0.112385  0.612385  0.500000  1
  Co  Co15  1  0.887615  0.387615  0.500000  1
  Hg  Hg16  1  0.500000  0.500000  0.000000  1
  Ru  Ru17  1  0.000000  0.000000  0.000000  1
