# generated using pymatgen
data_YTh2(GaNi)3
_symmetry_space_group_name_H-M   'P 1'
_cell_length_a   7.07736185
_cell_length_b   6.99003758
_cell_length_c   3.96301000
_cell_angle_alpha   90.00000000
_cell_angle_beta   90.00000000
_cell_angle_gamma   119.59267447
_symmetry_Int_Tables_number   1
_chemical_formula_structural   YTh2(GaNi)3
_chemical_formula_sum   'Y1 Th2 Ga3 Ni3'
_cell_volume   170.48048493
_cell_formula_units_Z   1
loop_
 _symmetry_equiv_pos_site_id
 _symmetry_equiv_pos_as_xyz
  1  'x, y, z'
loop_
 _atom_site_type_symbol
 _atom_site_label
 _atom_site_symmetry_multiplicity
 _atom_site_fract_x
 _atom_site_fract_y
 _atom_site_fract_z
 _atom_site_occupancy
  Y  Y0  1  0.000000  0.413866  0.500000  1
  Th  Th1  1  0.582465  0.580929  0.500000  1
  Th  Th2  1  0.417535  0.998464  0.500000  1
  Ga  Ga3  1  0.000000  0.757310  0.000000  1
  Ga  Ga4  1  0.229070  0.238114  0.000000  1
  Ga  Ga5  1  0.770930  0.009044  0.000000  1
  Ni  Ni6  1  0.340861  0.673365  0.000000  1
  Ni  Ni7  1  0.659139  0.332503  0.000000  1
  Ni  Ni8  1  0.000000  0.996405  0.500000  1
