# generated using pymatgen
data_Sc4Al24Pt8Rh
_symmetry_space_group_name_H-M   'P 1'
_cell_length_a   7.45425600
_cell_length_b   7.47104114
_cell_length_c   13.04449930
_cell_angle_alpha   84.69616640
_cell_angle_beta   79.15716110
_cell_angle_gamma   59.93762995
_symmetry_Int_Tables_number   1
_chemical_formula_structural   Sc4Al24Pt8Rh
_chemical_formula_sum   'Sc4 Al24 Pt8 Rh1'
_cell_volume   617.51236035
_cell_formula_units_Z   1
loop_
 _symmetry_equiv_pos_site_id
 _symmetry_equiv_pos_as_xyz
  1  'x, y, z'
loop_
 _atom_site_type_symbol
 _atom_site_label
 _atom_site_symmetry_multiplicity
 _atom_site_fract_x
 _atom_site_fract_y
 _atom_site_fract_z
 _atom_site_occupancy
  Sc  Sc0  1  0.394025  0.168300  0.809408  1
  Sc  Sc1  1  0.605975  0.831700  0.190592  1
  Sc  Sc2  1  0.733161  0.498350  0.809556  1
  Sc  Sc3  1  0.266839  0.501650  0.190444  1
  Al  Al4  1  0.685202  0.830063  0.943233  1
  Al  Al5  1  0.314798  0.169937  0.056767  1
  Al  Al6  1  0.146085  0.832290  0.562786  1
  Al  Al7  1  0.853915  0.167710  0.437214  1
  Al  Al8  1  0.479874  0.166811  0.560296  1
  Al  Al9  1  0.520126  0.833189  0.439704  1
  Al  Al10  1  0.221614  0.165481  0.322559  1
  Al  Al11  1  0.778386  0.834519  0.677441  1
  Al  Al12  1  0.436888  0.504540  0.677318  1
  Al  Al13  1  0.563112  0.495460  0.322682  1
  Al  Al14  1  0.107634  0.163293  0.675447  1
  Al  Al15  1  0.892366  0.836707  0.324553  1
  Al  Al16  1  0.352687  0.496221  0.943345  1
  Al  Al17  1  0.647313  0.503779  0.056655  1
  Al  Al18  1  0.016597  0.174846  0.950601  1
  Al  Al19  1  0.983403  0.825154  0.049399  1
  Al  Al20  1  0.187183  0.499315  0.439689  1
  Al  Al21  1  0.812817  0.500685  0.560311  1
  Al  Al22  1  0.730841  0.163733  0.182618  1
  Al  Al23  1  0.269159  0.836267  0.817382  1
  Al  Al24  1  0.060742  0.623107  0.818371  1
  Al  Al25  1  0.939258  0.376893  0.181629  1
  Al  Al26  1  0.851716  0.045440  0.817051  1
  Al  Al27  1  0.148284  0.954560  0.182950  1
  Pt  Pt28  1  0.119961  0.492207  0.638881  1
  Pt  Pt29  1  0.880039  0.507793  0.361119  1
  Pt  Pt30  1  0.657244  0.171405  0.999871  1
  Pt  Pt31  1  0.342756  0.828595  0.000129  1
  Pt  Pt32  1  0.537433  0.166646  0.361045  1
  Pt  Pt33  1  0.462567  0.833354  0.638955  1
  Pt  Pt34  1  0.778441  0.175398  0.637782  1
  Pt  Pt35  1  0.221559  0.824602  0.362218  1
  Rh  Rh36  1  0.000000  0.500000  0.000000  1
