# generated using pymatgen
data_LaNd3(Al8Pd3)3
_symmetry_space_group_name_H-M   'P 1'
_cell_length_a   7.59407353
_cell_length_b   7.61453611
_cell_length_c   13.34524500
_cell_angle_alpha   84.77094837
_cell_angle_beta   100.70263421
_cell_angle_gamma   119.69308477
_symmetry_Int_Tables_number   1
_chemical_formula_structural   LaNd3(Al8Pd3)3
_chemical_formula_sum   'La1 Nd3 Al24 Pd9'
_cell_volume   658.70157134
_cell_formula_units_Z   1
loop_
 _symmetry_equiv_pos_site_id
 _symmetry_equiv_pos_as_xyz
  1  'x, y, z'
loop_
 _atom_site_type_symbol
 _atom_site_label
 _atom_site_symmetry_multiplicity
 _atom_site_fract_x
 _atom_site_fract_y
 _atom_site_fract_z
 _atom_site_occupancy
  La  La0  1  0.437432  0.830991  0.807901  1
  Nd  Nd1  1  0.562906  0.169024  0.191667  1
  Nd  Nd2  1  0.769396  0.502506  0.808956  1
  Nd  Nd3  1  0.231014  0.497791  0.191458  1
  Al  Al4  1  0.479229  0.167494  0.947159  1
  Al  Al5  1  0.520838  0.833519  0.054738  1
  Al  Al6  1  0.020939  0.166081  0.558795  1
  Al  Al7  1  0.978407  0.833700  0.439948  1
  Al  Al8  1  0.354108  0.833237  0.556747  1
  Al  Al9  1  0.646051  0.167486  0.441658  1
  Al  Al10  1  0.619772  0.834670  0.332694  1
  Al  Al11  1  0.379380  0.167436  0.665785  1
  Al  Al12  1  0.053690  0.489913  0.665581  1
  Al  Al13  1  0.943318  0.507520  0.333040  1
  Al  Al14  1  0.734353  0.841701  0.664083  1
  Al  Al15  1  0.267754  0.158831  0.334267  1
  Al  Al16  1  0.147156  0.495840  0.947640  1
  Al  Al17  1  0.852202  0.502508  0.053604  1
  Al  Al18  1  0.821241  0.834931  0.958768  1
  Al  Al19  1  0.180861  0.165495  0.044444  1
  Al  Al20  1  0.312521  0.499734  0.441053  1
  Al  Al21  1  0.687683  0.500154  0.558625  1
  Al  Al22  1  0.100982  0.835838  0.184036  1
  Al  Al23  1  0.900744  0.164912  0.816176  1
  Al  Al24  1  0.304136  0.365208  0.814661  1
  Al  Al25  1  0.695247  0.632765  0.185766  1
  Al  Al26  1  0.101550  0.961954  0.815967  1
  Al  Al27  1  0.897621  0.038824  0.184701  1
  Pd  Pd28  1  0.385474  0.505890  0.635642  1
  Pd  Pd29  1  0.614359  0.495147  0.364187  1
  Pd  Pd30  1  0.171713  0.829101  0.999881  1
  Pd  Pd31  1  0.828164  0.170590  0.000783  1
  Pd  Pd32  1  0.293233  0.833638  0.363298  1
  Pd  Pd33  1  0.705764  0.165499  0.636162  1
  Pd  Pd34  1  0.048901  0.827798  0.635605  1
  Pd  Pd35  1  0.951892  0.172237  0.364160  1
  Pd  Pd36  1  0.499972  0.500038  0.000363  1
