# generated using pymatgen
data_Y3Er3(ReB7)2
_symmetry_space_group_name_H-M   'P 1'
_cell_length_a   8.05403333
_cell_length_b   8.05403453
_cell_length_c   9.35448623
_cell_angle_alpha   89.92273304
_cell_angle_beta   90.07726653
_cell_angle_gamma   154.69895691
_symmetry_Int_Tables_number   1
_chemical_formula_structural   Y3Er3(ReB7)2
_chemical_formula_sum   'Y3 Er3 Re2 B14'
_cell_volume   259.33125403
_cell_formula_units_Z   1
loop_
 _symmetry_equiv_pos_site_id
 _symmetry_equiv_pos_as_xyz
  1  'x, y, z'
loop_
 _atom_site_type_symbol
 _atom_site_label
 _atom_site_symmetry_multiplicity
 _atom_site_fract_x
 _atom_site_fract_y
 _atom_site_fract_z
 _atom_site_occupancy
  Y  Y0  1  0.894491  0.105509  0.439471  1
  Y  Y1  1  0.243104  0.756896  0.249745  1
  Y  Y2  1  0.756465  0.243535  0.750079  1
  Er  Er3  1  0.104959  0.895041  0.559468  1
  Er  Er4  1  0.895056  0.104944  0.059065  1
  Er  Er5  1  0.105052  0.894948  0.940666  1
  Re  Re6  1  0.052403  0.947597  0.249603  1
  Re  Re7  1  0.947990  0.052010  0.750612  1
  B  B8  1  0.726469  0.273531  0.467086  1
  B  B9  1  0.272234  0.727766  0.533722  1
  B  B10  1  0.727183  0.272817  0.033172  1
  B  B11  1  0.272836  0.727164  0.966834  1
  B  B12  1  0.631715  0.368285  0.150203  1
  B  B13  1  0.368308  0.631692  0.849775  1
  B  B14  1  0.631688  0.368312  0.349701  1
  B  B15  1  0.368287  0.631713  0.651374  1
  B  B16  1  0.520506  0.479494  0.094502  1
  B  B17  1  0.479729  0.520271  0.905228  1
  B  B18  1  0.520824  0.479176  0.404760  1
  B  B19  1  0.479945  0.520055  0.595583  1
  B  B20  1  0.456428  0.543572  0.249048  1
  B  B21  1  0.544327  0.455673  0.750302  1
