# generated using pymatgen
data_Sr16(Tc5O16)3
_symmetry_space_group_name_H-M   'P 1'
_cell_length_a   7.89497274
_cell_length_b   7.89952003
_cell_length_c   16.14290400
_cell_angle_alpha   90.05159110
_cell_angle_beta   90.03804976
_cell_angle_gamma   90.02618559
_symmetry_Int_Tables_number   1
_chemical_formula_structural   Sr16(Tc5O16)3
_chemical_formula_sum   'Sr16 Tc15 O48'
_cell_volume   1006.77561088
_cell_formula_units_Z   1
loop_
 _symmetry_equiv_pos_site_id
 _symmetry_equiv_pos_as_xyz
  1  'x, y, z'
loop_
 _atom_site_type_symbol
 _atom_site_label
 _atom_site_symmetry_multiplicity
 _atom_site_fract_x
 _atom_site_fract_y
 _atom_site_fract_z
 _atom_site_occupancy
  Sr  Sr0  1  0.250631  0.746513  0.126719  1
  Sr  Sr1  1  0.269428  0.761116  0.617263  1
  Sr  Sr2  1  0.730572  0.238884  0.382737  1
  Sr  Sr3  1  0.749369  0.253487  0.873281  1
  Sr  Sr4  1  0.261877  0.231018  0.382375  1
  Sr  Sr5  1  0.248108  0.254171  0.873351  1
  Sr  Sr6  1  0.749424  0.751227  0.873663  1
  Sr  Sr7  1  0.737112  0.771396  0.382477  1
  Sr  Sr8  1  0.262888  0.228604  0.617523  1
  Sr  Sr9  1  0.738123  0.768982  0.617625  1
  Sr  Sr10  1  0.250576  0.248773  0.126337  1
  Sr  Sr11  1  0.751892  0.745829  0.126649  1
  Sr  Sr12  1  0.751339  0.247436  0.126176  1
  Sr  Sr13  1  0.728932  0.234524  0.617604  1
  Sr  Sr14  1  0.271068  0.765476  0.382396  1
  Sr  Sr15  1  0.248661  0.752564  0.873824  1
  Tc  Tc16  1  0.000000  0.000000  0.000000  1
  Tc  Tc17  1  0.000000  0.000000  0.500000  1
  Tc  Tc18  1  0.999940  0.999925  0.749073  1
  Tc  Tc19  1  0.000060  0.000075  0.250927  1
  Tc  Tc20  1  0.500000  0.000000  0.000000  1
  Tc  Tc21  1  0.499788  0.999209  0.750449  1
  Tc  Tc22  1  0.000429  0.499890  0.745494  1
  Tc  Tc23  1  0.000000  0.500000  0.500000  1
  Tc  Tc24  1  0.999571  0.500110  0.254506  1
  Tc  Tc25  1  0.500212  0.000791  0.249551  1
  Tc  Tc26  1  0.000000  0.500000  0.000000  1
  Tc  Tc27  1  0.499827  0.500468  0.251207  1
  Tc  Tc28  1  0.500000  0.500000  0.000000  1
  Tc  Tc29  1  0.500000  0.500000  0.500000  1
  Tc  Tc30  1  0.500173  0.499532  0.748793  1
  O  O31  1  0.970640  0.750463  0.499258  1
  O  O32  1  0.961048  0.749949  0.749539  1
  O  O33  1  0.960949  0.750462  0.252107  1
  O  O34  1  0.959471  0.749787  0.999167  1
  O  O35  1  0.996197  0.998550  0.125391  1
  O  O36  1  0.997637  0.998552  0.624068  1
  O  O37  1  0.003803  0.001450  0.874609  1
  O  O38  1  0.002363  0.001448  0.375932  1
  O  O39  1  0.250174  0.964587  0.248037  1
  O  O40  1  0.249519  0.958755  0.002053  1
  O  O41  1  0.249847  0.963099  0.749268  1
  O  O42  1  0.749963  0.460539  0.743444  1
  O  O43  1  0.238296  0.976836  0.500891  1
  O  O44  1  0.749574  0.470860  0.505841  1
  O  O45  1  0.749514  0.462739  0.245966  1
  O  O46  1  0.750235  0.460226  0.004357  1
  O  O47  1  0.039051  0.249538  0.747893  1
  O  O48  1  0.029360  0.249537  0.500742  1
  O  O49  1  0.038952  0.250051  0.250461  1
  O  O50  1  0.040529  0.250213  0.000833  1
  O  O51  1  0.496850  0.995916  0.876799  1
  O  O52  1  0.990475  0.497046  0.873867  1
  O  O53  1  0.498876  0.998836  0.367372  1
  O  O54  1  0.987137  0.496529  0.376900  1
  O  O55  1  0.503150  0.004084  0.123201  1
  O  O56  1  0.012863  0.503471  0.623100  1
  O  O57  1  0.501124  0.001164  0.632628  1
  O  O58  1  0.009525  0.502954  0.126133  1
  O  O59  1  0.463952  0.250642  0.250957  1
  O  O60  1  0.459521  0.250414  0.998278  1
  O  O61  1  0.476743  0.261984  0.498731  1
  O  O62  1  0.464564  0.249290  0.752041  1
  O  O63  1  0.750153  0.036901  0.250732  1
  O  O64  1  0.750481  0.041245  0.997947  1
  O  O65  1  0.749826  0.035413  0.751963  1
  O  O66  1  0.761704  0.023164  0.499109  1
  O  O67  1  0.250426  0.529140  0.494159  1
  O  O68  1  0.250486  0.537261  0.754034  1
  O  O69  1  0.249765  0.539774  0.995643  1
  O  O70  1  0.250037  0.539461  0.256556  1
  O  O71  1  0.488205  0.497136  0.623990  1
  O  O72  1  0.489454  0.497723  0.125519  1
  O  O73  1  0.510546  0.502277  0.874481  1
  O  O74  1  0.511795  0.502864  0.376010  1
  O  O75  1  0.535436  0.750710  0.247959  1
  O  O76  1  0.536048  0.749358  0.749043  1
  O  O77  1  0.540479  0.749586  0.001722  1
  O  O78  1  0.523257  0.738016  0.501269  1
