# generated using pymatgen
data_Dy9Tm10LuSn16
_symmetry_space_group_name_H-M   'P 1'
_cell_length_a   7.98740801
_cell_length_b   8.11672032
_cell_length_c   15.34848702
_cell_angle_alpha   90.02709815
_cell_angle_beta   90.00478145
_cell_angle_gamma   90.07586378
_symmetry_Int_Tables_number   1
_chemical_formula_structural   Dy9Tm10LuSn16
_chemical_formula_sum   'Dy9 Tm10 Lu1 Sn16'
_cell_volume   995.06532307
_cell_formula_units_Z   1
loop_
 _symmetry_equiv_pos_site_id
 _symmetry_equiv_pos_as_xyz
  1  'x, y, z'
loop_
 _atom_site_type_symbol
 _atom_site_label
 _atom_site_symmetry_multiplicity
 _atom_site_fract_x
 _atom_site_fract_y
 _atom_site_fract_z
 _atom_site_occupancy
  Dy  Dy0  1  0.866111  0.663444  0.877781  1
  Dy  Dy1  1  0.520304  0.321184  0.904120  1
  Dy  Dy2  1  0.020453  0.178696  0.595643  1
  Dy  Dy3  1  0.479337  0.678446  0.403856  1
  Dy  Dy4  1  0.978977  0.822458  0.097444  1
  Dy  Dy5  1  0.480752  0.677941  0.096265  1
  Dy  Dy6  1  0.979644  0.821772  0.403424  1
  Dy  Dy7  1  0.519585  0.321149  0.595452  1
  Dy  Dy8  1  0.020228  0.178395  0.903678  1
  Tm  Tm9  1  0.364544  0.837486  0.876283  1
  Tm  Tm10  1  0.865139  0.661922  0.622995  1
  Tm  Tm11  1  0.634865  0.161509  0.376738  1
  Tm  Tm12  1  0.135083  0.337880  0.123573  1
  Tm  Tm13  1  0.633760  0.161873  0.124529  1
  Tm  Tm14  1  0.134775  0.337416  0.376675  1
  Tm  Tm15  1  0.365900  0.838107  0.622666  1
  Tm  Tm16  1  0.196903  0.504503  0.749712  1
  Tm  Tm17  1  0.696296  0.995922  0.749307  1
  Tm  Tm18  1  0.803523  0.495290  0.250390  1
  Lu  Lu19  1  0.303015  0.004431  0.250029  1
  Sn  Sn20  1  0.296319  0.039073  0.041565  1
  Sn  Sn21  1  0.796636  0.460815  0.458343  1
  Sn  Sn22  1  0.704218  0.960500  0.541151  1
  Sn  Sn23  1  0.206571  0.538160  0.958907  1
  Sn  Sn24  1  0.701332  0.963579  0.958762  1
  Sn  Sn25  1  0.202876  0.539376  0.541284  1
  Sn  Sn26  1  0.296281  0.039144  0.458142  1
  Sn  Sn27  1  0.796517  0.459355  0.042754  1
  Sn  Sn28  1  0.562172  0.619481  0.749132  1
  Sn  Sn29  1  0.063067  0.881568  0.749118  1
  Sn  Sn30  1  0.437447  0.380270  0.250683  1
  Sn  Sn31  1  0.938085  0.119419  0.250103  1
  Sn  Sn32  1  0.330200  0.149478  0.749651  1
  Sn  Sn33  1  0.829897  0.350334  0.749480  1
  Sn  Sn34  1  0.669298  0.849915  0.250232  1
  Sn  Sn35  1  0.169888  0.649710  0.250133  1
