# generated using pymatgen
data_Eu10CdAgPt4
_symmetry_space_group_name_H-M   'P 1'
_cell_length_a   9.21121294
_cell_length_b   9.21121207
_cell_length_c   9.21121300
_cell_angle_alpha   128.16303843
_cell_angle_beta   128.16304207
_cell_angle_gamma   76.36105750
_symmetry_Int_Tables_number   1
_chemical_formula_structural   Eu10CdAgPt4
_chemical_formula_sum   'Eu10 Cd1 Ag1 Pt4'
_cell_volume   469.47828864
_cell_formula_units_Z   1
loop_
 _symmetry_equiv_pos_site_id
 _symmetry_equiv_pos_as_xyz
  1  'x, y, z'
loop_
 _atom_site_type_symbol
 _atom_site_label
 _atom_site_symmetry_multiplicity
 _atom_site_fract_x
 _atom_site_fract_y
 _atom_site_fract_z
 _atom_site_occupancy
  Eu  Eu0  1  0.499752  0.499752  0.000000  1
  Eu  Eu1  1  0.000248  0.000248  0.000000  1
  Eu  Eu2  1  0.527944  0.030925  0.828698  1
  Eu  Eu3  1  0.202228  0.699246  0.171302  1
  Eu  Eu4  1  0.030925  0.202228  0.502982  1
  Eu  Eu5  1  0.699246  0.527944  0.497018  1
  Eu  Eu6  1  0.469075  0.972056  0.171302  1
  Eu  Eu7  1  0.800754  0.297772  0.828698  1
  Eu  Eu8  1  0.972056  0.800754  0.502982  1
  Eu  Eu9  1  0.297772  0.469075  0.497018  1
  Cd  Cd10  1  0.750000  0.750000  0.000000  1
  Ag  Ag11  1  0.250000  0.250000  0.000000  1
  Pt  Pt12  1  0.133145  0.633145  0.766288  1
  Pt  Pt13  1  0.866855  0.366855  0.233712  1
  Pt  Pt14  1  0.633145  0.866855  0.500000  1
  Pt  Pt15  1  0.366855  0.133145  0.500000  1
