# generated using pymatgen
data_Sc4CuSb4Ir3
_symmetry_space_group_name_H-M   'P 1'
_cell_length_a   4.48990283
_cell_length_b   4.48990365
_cell_length_c   14.79966676
_cell_angle_alpha   89.99999941
_cell_angle_beta   81.27516257
_cell_angle_gamma   120.00000490
_symmetry_Int_Tables_number   1
_chemical_formula_structural   Sc4CuSb4Ir3
_chemical_formula_sum   'Sc4 Cu1 Sb4 Ir3'
_cell_volume   254.38423989
_cell_formula_units_Z   1
loop_
 _symmetry_equiv_pos_site_id
 _symmetry_equiv_pos_as_xyz
  1  'x, y, z'
loop_
 _atom_site_type_symbol
 _atom_site_label
 _atom_site_symmetry_multiplicity
 _atom_site_fract_x
 _atom_site_fract_y
 _atom_site_fract_z
 _atom_site_occupancy
  Sc  Sc0  1  0.251259  0.625629  0.123112  1
  Sc  Sc1  1  0.748188  0.874094  0.377718  1
  Sc  Sc2  1  0.249651  0.124825  0.625524  1
  Sc  Sc3  1  0.749237  0.374618  0.876145  1
  Cu  Cu4  1  0.876915  0.938457  0.184628  1
  Sb  Sb5  1  0.000016  0.500008  0.499976  1
  Sb  Sb6  1  0.498665  0.749333  0.752002  1
  Sb  Sb7  1  0.001237  0.000619  0.998144  1
  Sb  Sb8  1  0.501290  0.250645  0.248065  1
  Ir  Ir9  1  0.376599  0.188299  0.435102  1
  Ir  Ir10  1  0.875410  0.437705  0.686885  1
  Ir  Ir11  1  0.371534  0.685766  0.942700  1
