# generated using pymatgen
data_YbCeU(SnIr)3
_symmetry_space_group_name_H-M   'P 1'
_cell_length_a   7.41045689
_cell_length_b   7.46020186
_cell_length_c   3.99847500
_cell_angle_alpha   90.00000000
_cell_angle_beta   90.00000000
_cell_angle_gamma   118.86879160
_symmetry_Int_Tables_number   1
_chemical_formula_structural   YbCeU(SnIr)3
_chemical_formula_sum   'Yb1 Ce1 U1 Sn3 Ir3'
_cell_volume   193.57933962
_cell_formula_units_Z   1
loop_
 _symmetry_equiv_pos_site_id
 _symmetry_equiv_pos_as_xyz
  1  'x, y, z'
loop_
 _atom_site_type_symbol
 _atom_site_label
 _atom_site_symmetry_multiplicity
 _atom_site_fract_x
 _atom_site_fract_y
 _atom_site_fract_z
 _atom_site_occupancy
  Yb  Yb0  1  0.591622  0.999087  0.000000  1
  Ce  Ce1  1  0.999243  0.587828  0.000000  1
  U  U2  1  0.413912  0.415159  0.000000  1
  Sn  Sn3  1  0.982188  0.247068  0.500000  1
  Sn  Sn4  1  0.752860  0.762472  0.500000  1
  Sn  Sn5  1  0.264720  0.991998  0.500000  1
  Ir  Ir6  1  0.025522  0.017232  0.000000  1
  Ir  Ir7  1  0.643189  0.349937  0.500000  1
  Ir  Ir8  1  0.326746  0.629221  0.500000  1
