# generated using pymatgen
data_CaSmDyGa8Ag3
_symmetry_space_group_name_H-M   'P 1'
_cell_length_a   4.37610511
_cell_length_b   8.38741988
_cell_length_c   8.38741941
_cell_angle_alpha   70.70102904
_cell_angle_beta   74.87811531
_cell_angle_gamma   74.87812016
_symmetry_Int_Tables_number   1
_chemical_formula_structural   CaSmDyGa8Ag3
_chemical_formula_sum   'Ca1 Sm1 Dy1 Ga8 Ag3'
_cell_volume   275.29180533
_cell_formula_units_Z   1
loop_
 _symmetry_equiv_pos_site_id
 _symmetry_equiv_pos_as_xyz
  1  'x, y, z'
loop_
 _atom_site_type_symbol
 _atom_site_label
 _atom_site_symmetry_multiplicity
 _atom_site_fract_x
 _atom_site_fract_y
 _atom_site_fract_z
 _atom_site_occupancy
  Ca  Ca0  1  0.802245  0.197755  0.197755  1
  Sm  Sm1  1  0.499835  0.500165  0.500165  1
  Dy  Dy2  1  0.199825  0.800175  0.800175  1
  Ga  Ga3  1  0.641856  0.074907  0.641381  1
  Ga  Ga4  1  0.355875  0.924380  0.363870  1
  Ga  Ga5  1  0.641856  0.641381  0.074907  1
  Ga  Ga6  1  0.355875  0.363870  0.924380  1
  Ga  Ga7  1  0.840218  0.789043  0.530522  1
  Ga  Ga8  1  0.161227  0.206456  0.471088  1
  Ga  Ga9  1  0.840218  0.530522  0.789043  1
  Ga  Ga10  1  0.161227  0.471088  0.206456  1
  Ag  Ag11  1  0.500615  0.999385  0.999385  1
  Ag  Ag12  1  0.999563  0.803786  0.197088  1
  Ag  Ag13  1  0.999563  0.197088  0.803786  1
