# generated using pymatgen
data_La2Zn14Ni3
_symmetry_space_group_name_H-M   'P 1'
_cell_length_a   6.76895802
_cell_length_b   6.76895768
_cell_length_c   6.76895828
_cell_angle_alpha   82.98843528
_cell_angle_beta   97.01155010
_cell_angle_gamma   97.01156587
_symmetry_Int_Tables_number   1
_chemical_formula_structural   La2Zn14Ni3
_chemical_formula_sum   'La2 Zn14 Ni3'
_cell_volume   303.71065731
_cell_formula_units_Z   1
loop_
 _symmetry_equiv_pos_site_id
 _symmetry_equiv_pos_as_xyz
  1  'x, y, z'
loop_
 _atom_site_type_symbol
 _atom_site_label
 _atom_site_symmetry_multiplicity
 _atom_site_fract_x
 _atom_site_fract_y
 _atom_site_fract_z
 _atom_site_occupancy
  La  La0  1  0.659921  0.340078  0.340079  1
  La  La1  1  0.340078  0.659921  0.659921  1
  Zn  Zn2  1  0.290028  0.290028  0.000000  1
  Zn  Zn3  1  0.709972  0.709972  0.000000  1
  Zn  Zn4  1  0.896151  0.103847  0.103848  1
  Zn  Zn5  1  0.343928  0.656073  0.147210  1
  Zn  Zn6  1  0.000000  0.709972  0.290027  1
  Zn  Zn7  1  0.290028  0.000000  0.290028  1
  Zn  Zn8  1  0.656073  0.852790  0.343926  1
  Zn  Zn9  1  0.147210  0.343927  0.343928  1
  Zn  Zn10  1  0.852790  0.656073  0.656072  1
  Zn  Zn11  1  0.343927  0.147209  0.656073  1
  Zn  Zn12  1  0.000000  0.290028  0.709971  1
  Zn  Zn13  1  0.709972  0.000000  0.709972  1
  Zn  Zn14  1  0.656073  0.343927  0.852790  1
  Zn  Zn15  1  0.103847  0.896153  0.896152  1
  Ni  Ni16  1  0.500000  0.000000  0.000000  1
  Ni  Ni17  1  0.000000  0.499999  0.000000  1
  Ni  Ni18  1  0.000000  0.000000  0.500000  1
