# generated using pymatgen
data_Tb4DyTh3(CdRu)2
_symmetry_space_group_name_H-M   'P 1'
_cell_length_a   9.67570797
_cell_length_b   9.77410663
_cell_length_c   9.77671836
_cell_angle_alpha   59.32633796
_cell_angle_beta   60.32338193
_cell_angle_gamma   60.35025740
_symmetry_Int_Tables_number   1
_chemical_formula_structural   Tb4DyTh3(CdRu)2
_chemical_formula_sum   'Tb8 Dy2 Th6 Cd4 Ru4'
_cell_volume   653.65464270
_cell_formula_units_Z   2
loop_
 _symmetry_equiv_pos_site_id
 _symmetry_equiv_pos_as_xyz
  1  'x, y, z'
loop_
 _atom_site_type_symbol
 _atom_site_label
 _atom_site_symmetry_multiplicity
 _atom_site_fract_x
 _atom_site_fract_y
 _atom_site_fract_z
 _atom_site_occupancy
  Tb  Tb0  1  0.440274  0.440274  0.059726  1
  Tb  Tb1  1  0.059726  0.059726  0.440274  1
  Tb  Tb2  1  0.183841  0.816159  0.816159  1
  Tb  Tb3  1  0.816159  0.183841  0.183841  1
  Tb  Tb4  1  0.811468  0.188532  0.811468  1
  Tb  Tb5  1  0.188532  0.811468  0.188532  1
  Tb  Tb6  1  0.811776  0.811776  0.188224  1
  Tb  Tb7  1  0.188224  0.188224  0.811776  1
  Dy  Dy8  1  0.440946  0.059054  0.440946  1
  Dy  Dy9  1  0.059054  0.440946  0.059054  1
  Th  Th10  1  0.592420  0.601322  0.600638  1
  Th  Th11  1  0.601322  0.592420  0.205623  1
  Th  Th12  1  0.600638  0.205623  0.592420  1
  Th  Th13  1  0.205623  0.600638  0.601322  1
  Th  Th14  1  0.065129  0.434871  0.434871  1
  Th  Th15  1  0.434871  0.065129  0.065129  1
  Cd  Cd16  1  0.833783  0.830399  0.830677  1
  Cd  Cd17  1  0.830399  0.833783  0.505141  1
  Cd  Cd18  1  0.830677  0.505141  0.833783  1
  Cd  Cd19  1  0.505141  0.830677  0.830399  1
  Ru  Ru20  1  0.378077  0.398005  0.399824  1
  Ru  Ru21  1  0.398005  0.378077  0.824094  1
  Ru  Ru22  1  0.399824  0.824094  0.378077  1
  Ru  Ru23  1  0.824094  0.399824  0.398005  1
