# generated using pymatgen
data_KPaI6
_symmetry_space_group_name_H-M   'P 1'
_cell_length_a   8.52413718
_cell_length_b   8.56926653
_cell_length_c   8.71608276
_cell_angle_alpha   89.69146975
_cell_angle_beta   118.60740036
_cell_angle_gamma   119.86830620
_symmetry_Int_Tables_number   1
_chemical_formula_structural   KPaI6
_chemical_formula_sum   'K1 Pa1 I6'
_cell_volume   461.43203198
_cell_formula_units_Z   1
loop_
 _symmetry_equiv_pos_site_id
 _symmetry_equiv_pos_as_xyz
  1  'x, y, z'
loop_
 _atom_site_type_symbol
 _atom_site_label
 _atom_site_symmetry_multiplicity
 _atom_site_fract_x
 _atom_site_fract_y
 _atom_site_fract_z
 _atom_site_occupancy
  K  K0  1  0.240944  0.623815  0.858328  1
  Pa  Pa1  1  0.577130  0.288019  0.867558  1
  I  I2  1  0.466073  0.085706  0.113409  1
  I  I3  1  0.133566  0.196485  0.634519  1
  I  I4  1  0.695580  0.500244  0.629492  1
  I  I5  1  0.443478  0.939902  0.635298  1
  I  I6  1  0.723583  0.638971  0.104907  1
  I  I7  1  0.018645  0.376358  0.104988  1
