# generated using pymatgen
data_Tm10Ir3Os
_symmetry_space_group_name_H-M   'P 1'
_cell_length_a   6.41287909
_cell_length_b   7.19100429
_cell_length_c   8.31109574
_cell_angle_alpha   96.47416640
_cell_angle_beta   112.45265858
_cell_angle_gamma   89.97243224
_symmetry_Int_Tables_number   1
_chemical_formula_structural   Tm10Ir3Os
_chemical_formula_sum   'Tm10 Ir3 Os1'
_cell_volume   351.57567437
_cell_formula_units_Z   1
loop_
 _symmetry_equiv_pos_site_id
 _symmetry_equiv_pos_as_xyz
  1  'x, y, z'
loop_
 _atom_site_type_symbol
 _atom_site_label
 _atom_site_symmetry_multiplicity
 _atom_site_fract_x
 _atom_site_fract_y
 _atom_site_fract_z
 _atom_site_occupancy
  Tm  Tm0  1  0.969936  0.917300  0.182253  1
  Tm  Tm1  1  0.788974  0.581261  0.821380  1
  Tm  Tm2  1  0.029910  0.081320  0.818843  1
  Tm  Tm3  1  0.211226  0.419296  0.182752  1
  Tm  Tm4  1  0.656096  0.816815  0.440284  1
  Tm  Tm5  1  0.210190  0.681548  0.556503  1
  Tm  Tm6  1  0.345937  0.182005  0.558479  1
  Tm  Tm7  1  0.787188  0.319315  0.440456  1
  Tm  Tm8  1  0.427683  0.749456  0.000510  1
  Tm  Tm9  1  0.575059  0.251742  0.001116  1
  Ir  Ir10  1  0.608022  0.927544  0.780976  1
  Ir  Ir11  1  0.173327  0.425624  0.781866  1
  Ir  Ir12  1  0.390351  0.073348  0.218278  1
  Os  Os13  1  0.826101  0.573427  0.216304  1
