# generated using pymatgen
data_Nd16InCo4Hg3
_symmetry_space_group_name_H-M   'P 1'
_cell_length_a   9.80897434
_cell_length_b   9.83763216
_cell_length_c   9.83763000
_cell_angle_alpha   60.00000055
_cell_angle_beta   59.90330789
_cell_angle_gamma   59.90330694
_symmetry_Int_Tables_number   1
_chemical_formula_structural   Nd16InCo4Hg3
_chemical_formula_sum   'Nd16 In1 Co4 Hg3'
_cell_volume   670.27557389
_cell_formula_units_Z   1
loop_
 _symmetry_equiv_pos_site_id
 _symmetry_equiv_pos_as_xyz
  1  'x, y, z'
loop_
 _atom_site_type_symbol
 _atom_site_label
 _atom_site_symmetry_multiplicity
 _atom_site_fract_x
 _atom_site_fract_y
 _atom_site_fract_z
 _atom_site_occupancy
  Nd  Nd0  1  0.940222  0.939118  0.560330  1
  Nd  Nd1  1  0.563308  0.938807  0.559079  1
  Nd  Nd2  1  0.563308  0.938807  0.938807  1
  Nd  Nd3  1  0.688729  0.688495  0.311388  1
  Nd  Nd4  1  0.154182  0.153378  0.539060  1
  Nd  Nd5  1  0.310834  0.689573  0.689573  1
  Nd  Nd6  1  0.154182  0.153378  0.153378  1
  Nd  Nd7  1  0.540823  0.153058  0.153058  1
  Nd  Nd8  1  0.310834  0.689573  0.310021  1
  Nd  Nd9  1  0.310834  0.310021  0.689573  1
  Nd  Nd10  1  0.688729  0.311388  0.688495  1
  Nd  Nd11  1  0.940222  0.560330  0.560330  1
  Nd  Nd12  1  0.563308  0.559079  0.938807  1
  Nd  Nd13  1  0.154182  0.539060  0.153378  1
  Nd  Nd14  1  0.688729  0.311388  0.311388  1
  Nd  Nd15  1  0.940222  0.560330  0.939118  1
  In  In16  1  0.233779  0.922073  0.922073  1
  Co  Co17  1  0.922193  0.359269  0.359269  1
  Co  Co18  1  0.359488  0.359107  0.922297  1
  Co  Co19  1  0.359488  0.922297  0.359107  1
  Co  Co20  1  0.359488  0.359107  0.359107  1
  Hg  Hg21  1  0.917638  0.917151  0.917151  1
  Hg  Hg22  1  0.917638  0.917151  0.248059  1
  Hg  Hg23  1  0.917638  0.248059  0.917151  1
