# generated using pymatgen
data_Li6Nb5AlIr12
_symmetry_space_group_name_H-M   'P 1'
_cell_length_a   4.34076400
_cell_length_b   6.14773600
_cell_length_c   12.98686800
_cell_angle_alpha   89.99970529
_cell_angle_beta   89.99844034
_cell_angle_gamma   89.99994564
_symmetry_Int_Tables_number   1
_chemical_formula_structural   Li6Nb5AlIr12
_chemical_formula_sum   'Li6 Nb5 Al1 Ir12'
_cell_volume   346.56588551
_cell_formula_units_Z   1
loop_
 _symmetry_equiv_pos_site_id
 _symmetry_equiv_pos_as_xyz
  1  'x, y, z'
loop_
 _atom_site_type_symbol
 _atom_site_label
 _atom_site_symmetry_multiplicity
 _atom_site_fract_x
 _atom_site_fract_y
 _atom_site_fract_z
 _atom_site_occupancy
  Li  Li0  1  0.999999  0.000000  0.000001  1
  Li  Li1  1  0.499721  0.500000  0.166280  1
  Li  Li2  1  0.999732  0.999998  0.329975  1
  Li  Li3  1  0.499998  0.499999  0.500001  1
  Li  Li4  1  0.000270  0.000004  0.670019  1
  Li  Li5  1  0.500276  0.500001  0.833721  1
  Nb  Nb6  1  0.499773  0.000000  0.160739  1
  Nb  Nb7  1  0.999760  0.500006  0.330768  1
  Nb  Nb8  1  0.500002  0.000001  0.500005  1
  Nb  Nb9  1  0.000242  0.499989  0.669236  1
  Nb  Nb10  1  0.500223  0.000012  0.839262  1
  Al  Al11  1  0.999999  0.499999  0.000000  1
  Ir  Ir12  1  0.499994  0.260650  0.999996  1
  Ir  Ir13  1  0.500005  0.739338  0.000000  1
  Ir  Ir14  1  0.999785  0.254541  0.162941  1
  Ir  Ir15  1  0.999789  0.745461  0.162946  1
  Ir  Ir16  1  0.499772  0.249555  0.332039  1
  Ir  Ir17  1  0.499765  0.750449  0.332036  1
  Ir  Ir18  1  0.000001  0.249700  0.500004  1
  Ir  Ir19  1  0.999991  0.750298  0.499997  1
  Ir  Ir20  1  0.500242  0.249549  0.667963  1
  Ir  Ir21  1  0.500233  0.750457  0.667960  1
  Ir  Ir22  1  0.000205  0.254538  0.837051  1
  Ir  Ir23  1  0.000219  0.745456  0.837058  1
