# generated using pymatgen
data_Lu16Al4Pt3Rh
_symmetry_space_group_name_H-M   'P 1'
_cell_length_a   9.38793284
_cell_length_b   9.38793356
_cell_length_c   9.38793349
_cell_angle_alpha   59.80449384
_cell_angle_beta   59.80449188
_cell_angle_gamma   59.80449014
_symmetry_Int_Tables_number   1
_chemical_formula_structural   Lu16Al4Pt3Rh
_chemical_formula_sum   'Lu16 Al4 Pt3 Rh1'
_cell_volume   582.45619099
_cell_formula_units_Z   1
loop_
 _symmetry_equiv_pos_site_id
 _symmetry_equiv_pos_as_xyz
  1  'x, y, z'
loop_
 _atom_site_type_symbol
 _atom_site_label
 _atom_site_symmetry_multiplicity
 _atom_site_fract_x
 _atom_site_fract_y
 _atom_site_fract_z
 _atom_site_occupancy
  Lu  Lu0  1  0.606666  0.606666  0.606666  1
  Lu  Lu1  1  0.602764  0.602764  0.188110  1
  Lu  Lu2  1  0.602764  0.188110  0.602764  1
  Lu  Lu3  1  0.188110  0.602764  0.602764  1
  Lu  Lu4  1  0.061204  0.441462  0.441462  1
  Lu  Lu5  1  0.441357  0.056910  0.056910  1
  Lu  Lu6  1  0.441462  0.061204  0.441462  1
  Lu  Lu7  1  0.056910  0.441357  0.056910  1
  Lu  Lu8  1  0.441462  0.441462  0.061204  1
  Lu  Lu9  1  0.056910  0.056910  0.441357  1
  Lu  Lu10  1  0.186297  0.813360  0.813360  1
  Lu  Lu11  1  0.813246  0.185403  0.185403  1
  Lu  Lu12  1  0.813360  0.186297  0.813360  1
  Lu  Lu13  1  0.185403  0.813246  0.185403  1
  Lu  Lu14  1  0.813360  0.813360  0.186297  1
  Lu  Lu15  1  0.185403  0.185403  0.813246  1
  Al  Al16  1  0.828979  0.828979  0.828979  1
  Al  Al17  1  0.829379  0.829379  0.513594  1
  Al  Al18  1  0.829379  0.513594  0.829379  1
  Al  Al19  1  0.513594  0.829379  0.829379  1
  Pt  Pt20  1  0.394869  0.394869  0.818954  1
  Pt  Pt21  1  0.394869  0.818954  0.394869  1
  Pt  Pt22  1  0.818954  0.394869  0.394869  1
  Rh  Rh23  1  0.393301  0.393301  0.393301  1
