# generated using pymatgen
data_TbYNiB8Rh
_symmetry_space_group_name_H-M   'P 1'
_cell_length_a   6.91968517
_cell_length_b   6.91968637
_cell_length_c   6.91968551
_cell_angle_alpha   113.40530746
_cell_angle_beta   111.17176766
_cell_angle_gamma   103.98110583
_symmetry_Int_Tables_number   1
_chemical_formula_structural   TbYNiB8Rh
_chemical_formula_sum   'Tb2 Y2 Ni2 B16 Rh2'
_cell_volume   253.21637780
_cell_formula_units_Z   2
loop_
 _symmetry_equiv_pos_site_id
 _symmetry_equiv_pos_as_xyz
  1  'x, y, z'
loop_
 _atom_site_type_symbol
 _atom_site_label
 _atom_site_symmetry_multiplicity
 _atom_site_fract_x
 _atom_site_fract_y
 _atom_site_fract_z
 _atom_site_occupancy
  Tb  Tb0  1  0.748268  0.248268  0.500000  1
  Tb  Tb1  1  0.251732  0.751732  0.500000  1
  Y  Y2  1  0.208350  0.208350  0.000000  1
  Y  Y3  1  0.791650  0.791650  0.000000  1
  Ni  Ni4  1  0.745425  0.500000  0.245425  1
  Ni  Ni5  1  0.254575  0.500000  0.754575  1
  B  B6  1  0.108823  0.272673  0.381496  1
  B  B7  1  0.891177  0.727327  0.618504  1
  B  B8  1  0.891177  0.272673  0.163851  1
  B  B9  1  0.108823  0.727327  0.836149  1
  B  B10  1  0.729666  0.888905  0.618571  1
  B  B11  1  0.270334  0.111095  0.381429  1
  B  B12  1  0.729666  0.111095  0.840759  1
  B  B13  1  0.270334  0.888905  0.159241  1
  B  B14  1  0.412842  0.418541  0.527480  1
  B  B15  1  0.891062  0.885364  0.472520  1
  B  B16  1  0.587158  0.114636  0.005699  1
  B  B17  1  0.108938  0.581459  0.994301  1
  B  B18  1  0.587158  0.581459  0.472520  1
  B  B19  1  0.108938  0.114636  0.527480  1
  B  B20  1  0.891062  0.418541  0.005699  1
  B  B21  1  0.412842  0.885364  0.994301  1
  Rh  Rh22  1  0.500000  0.277322  0.777322  1
  Rh  Rh23  1  0.500000  0.722678  0.222678  1
