# generated using pymatgen
data_Pr5Nd7(Si7Br3)2
_symmetry_space_group_name_H-M   'P 1'
_cell_length_a   4.09118600
_cell_length_b   11.79153900
_cell_length_c   16.57368700
_cell_angle_alpha   90.00000000
_cell_angle_beta   90.00000000
_cell_angle_gamma   90.00000000
_symmetry_Int_Tables_number   1
_chemical_formula_structural   Pr5Nd7(Si7Br3)2
_chemical_formula_sum   'Pr5 Nd7 Si14 Br6'
_cell_volume   799.53752056
_cell_formula_units_Z   1
loop_
 _symmetry_equiv_pos_site_id
 _symmetry_equiv_pos_as_xyz
  1  'x, y, z'
loop_
 _atom_site_type_symbol
 _atom_site_label
 _atom_site_symmetry_multiplicity
 _atom_site_fract_x
 _atom_site_fract_y
 _atom_site_fract_z
 _atom_site_occupancy
  Pr  Pr0  1  0.000000  0.660633  0.000000  1
  Pr  Pr1  1  0.500000  0.067090  0.879436  1
  Pr  Pr2  1  0.000000  0.933229  0.620250  1
  Pr  Pr3  1  0.500000  0.067090  0.120564  1
  Pr  Pr4  1  0.000000  0.933229  0.379750  1
  Nd  Nd5  1  0.500000  0.340295  0.500000  1
  Nd  Nd6  1  0.500000  0.360177  0.757155  1
  Nd  Nd7  1  0.000000  0.639186  0.742071  1
  Nd  Nd8  1  0.500000  0.360177  0.242845  1
  Nd  Nd9  1  0.000000  0.639186  0.257929  1
  Nd  Nd10  1  0.500000  0.358129  0.000000  1
  Nd  Nd11  1  0.000000  0.641958  0.500000  1
  Si  Si12  1  0.000000  0.154163  0.000000  1
  Si  Si13  1  0.500000  0.846071  0.500000  1
  Si  Si14  1  0.500000  0.569164  0.875745  1
  Si  Si15  1  0.000000  0.430295  0.623348  1
  Si  Si16  1  0.500000  0.569164  0.124255  1
  Si  Si17  1  0.000000  0.430295  0.376652  1
  Si  Si18  1  0.000000  0.255936  0.873954  1
  Si  Si19  1  0.500000  0.743929  0.625815  1
  Si  Si20  1  0.000000  0.255936  0.126046  1
  Si  Si21  1  0.500000  0.743929  0.374185  1
  Si  Si22  1  0.000000  0.459834  0.876983  1
  Si  Si23  1  0.500000  0.539731  0.622334  1
  Si  Si24  1  0.500000  0.539731  0.377666  1
  Si  Si25  1  0.000000  0.459834  0.123017  1
  Br  Br26  1  0.500000  0.111925  0.692130  1
  Br  Br27  1  0.000000  0.887391  0.807464  1
  Br  Br28  1  0.000000  0.138827  0.500000  1
  Br  Br29  1  0.500000  0.864144  0.000000  1
  Br  Br30  1  0.500000  0.111925  0.307870  1
  Br  Br31  1  0.000000  0.887391  0.192536  1
