# generated using pymatgen
data_Li8Nd8BiSb7
_symmetry_space_group_name_H-M   'P 1'
_cell_length_a   9.56354400
_cell_length_b   9.56378601
_cell_length_c   7.46245121
_cell_angle_alpha   90.14265288
_cell_angle_beta   90.00090871
_cell_angle_gamma   119.99577743
_symmetry_Int_Tables_number   1
_chemical_formula_structural   Li8Nd8BiSb7
_chemical_formula_sum   'Li8 Nd8 Bi1 Sb7'
_cell_volume   591.12253810
_cell_formula_units_Z   1
loop_
 _symmetry_equiv_pos_site_id
 _symmetry_equiv_pos_as_xyz
  1  'x, y, z'
loop_
 _atom_site_type_symbol
 _atom_site_label
 _atom_site_symmetry_multiplicity
 _atom_site_fract_x
 _atom_site_fract_y
 _atom_site_fract_z
 _atom_site_occupancy
  Li  Li0  1  0.166859  0.333711  0.279516  1
  Li  Li1  1  0.168603  0.833721  0.278642  1
  Li  Li2  1  0.665114  0.833715  0.278643  1
  Li  Li3  1  0.833122  0.666252  0.773566  1
  Li  Li4  1  0.830509  0.165631  0.783324  1
  Li  Li5  1  0.335132  0.165633  0.783331  1
  Li  Li6  1  0.334740  0.669469  0.674258  1
  Li  Li7  1  0.665852  0.331719  0.179806  1
  Nd  Nd8  1  0.511871  0.023702  0.494634  1
  Nd  Nd9  1  0.517298  0.490795  0.492529  1
  Nd  Nd10  1  0.973481  0.490775  0.492525  1
  Nd  Nd11  1  0.488255  0.976468  0.993254  1
  Nd  Nd12  1  0.495579  0.515071  0.995638  1
  Nd  Nd13  1  0.019472  0.515061  0.995654  1
  Nd  Nd14  1  0.997163  0.994351  0.500054  1
  Nd  Nd15  1  0.997002  0.994010  0.003266  1
  Bi  Bi16  1  0.167126  0.334282  0.735251  1
  Sb  Sb17  1  0.166062  0.832645  0.736026  1
  Sb  Sb18  1  0.666562  0.832652  0.736007  1
  Sb  Sb19  1  0.833151  0.666266  0.236637  1
  Sb  Sb20  1  0.832616  0.166567  0.235180  1
  Sb  Sb21  1  0.333974  0.166560  0.235159  1
  Sb  Sb22  1  0.333326  0.666634  0.264227  1
  Sb  Sb23  1  0.667130  0.334308  0.764844  1
