# generated using pymatgen
data_Tb8MgSc10Si16Tc
_symmetry_space_group_name_H-M   'P 1'
_cell_length_a   7.01311001
_cell_length_b   7.36376709
_cell_length_c   13.95324300
_cell_angle_alpha   90.00000000
_cell_angle_beta   90.00000000
_cell_angle_gamma   90.09110664
_symmetry_Int_Tables_number   1
_chemical_formula_structural   Tb8MgSc10Si16Tc
_chemical_formula_sum   'Tb8 Mg1 Sc10 Si16 Tc1'
_cell_volume   720.58514334
_cell_formula_units_Z   1
loop_
 _symmetry_equiv_pos_site_id
 _symmetry_equiv_pos_as_xyz
  1  'x, y, z'
loop_
 _atom_site_type_symbol
 _atom_site_label
 _atom_site_symmetry_multiplicity
 _atom_site_fract_x
 _atom_site_fract_y
 _atom_site_fract_z
 _atom_site_occupancy
  Tb  Tb0  1  0.011008  0.180043  0.094601  1
  Tb  Tb1  1  0.992612  0.819335  0.900477  1
  Tb  Tb2  1  0.487303  0.671873  0.901461  1
  Tb  Tb3  1  0.992612  0.819335  0.599523  1
  Tb  Tb4  1  0.514112  0.325750  0.095932  1
  Tb  Tb5  1  0.011008  0.180043  0.405399  1
  Tb  Tb6  1  0.514112  0.325750  0.404068  1
  Tb  Tb7  1  0.487303  0.671873  0.598539  1
  Mg  Mg8  1  0.842509  0.494942  0.250000  1
  Sc  Sc9  1  0.343513  0.002013  0.250000  1
  Sc  Sc10  1  0.657894  0.997002  0.750000  1
  Sc  Sc11  1  0.325850  0.178910  0.627211  1
  Sc  Sc12  1  0.674532  0.821278  0.375473  1
  Sc  Sc13  1  0.169159  0.672997  0.376997  1
  Sc  Sc14  1  0.674532  0.821278  0.124527  1
  Sc  Sc15  1  0.827142  0.329909  0.628156  1
  Sc  Sc16  1  0.325850  0.178910  0.872789  1
  Sc  Sc17  1  0.827142  0.329909  0.871844  1
  Sc  Sc18  1  0.169159  0.672997  0.123003  1
  Si  Si19  1  0.029901  0.122359  0.750000  1
  Si  Si20  1  0.973112  0.893639  0.250000  1
  Si  Si21  1  0.462599  0.618814  0.250000  1
  Si  Si22  1  0.519670  0.392329  0.750000  1
  Si  Si23  1  0.285307  0.865602  0.750000  1
  Si  Si24  1  0.713842  0.117460  0.250000  1
  Si  Si25  1  0.222769  0.373367  0.250000  1
  Si  Si26  1  0.794684  0.626225  0.750000  1
  Si  Si27  1  0.155026  0.464569  0.546827  1
  Si  Si28  1  0.842163  0.538553  0.466948  1
  Si  Si29  1  0.345615  0.965588  0.462483  1
  Si  Si30  1  0.842163  0.538553  0.033052  1
  Si  Si31  1  0.656877  0.033930  0.539729  1
  Si  Si32  1  0.155026  0.464569  0.953173  1
  Si  Si33  1  0.656877  0.033930  0.960271  1
  Si  Si34  1  0.345615  0.965588  0.037517  1
  Tc  Tc35  1  0.151403  0.490777  0.750000  1
