# generated using pymatgen
data_Dy3Y9In2(CoRu)2
_symmetry_space_group_name_H-M   'P 1'
_cell_length_a   8.44472935
_cell_length_b   8.45057132
_cell_length_c   8.44472845
_cell_angle_alpha   112.65927017
_cell_angle_beta   110.10945631
_cell_angle_gamma   105.69291236
_symmetry_Int_Tables_number   1
_chemical_formula_structural   Dy3Y9In2(CoRu)2
_chemical_formula_sum   'Dy3 Y9 In2 Co2 Ru2'
_cell_volume   462.33107930
_cell_formula_units_Z   1
loop_
 _symmetry_equiv_pos_site_id
 _symmetry_equiv_pos_as_xyz
  1  'x, y, z'
loop_
 _atom_site_type_symbol
 _atom_site_label
 _atom_site_symmetry_multiplicity
 _atom_site_fract_x
 _atom_site_fract_y
 _atom_site_fract_z
 _atom_site_occupancy
  Dy  Dy0  1  0.677094  0.360948  0.683854  1
  Dy  Dy1  1  0.323010  0.006369  0.683359  1
  Dy  Dy2  1  0.677086  0.993388  0.316301  1
  Y  Y3  1  0.442316  0.241634  0.200091  1
  Y  Y4  1  0.558112  0.758419  0.799929  1
  Y  Y5  1  0.041545  0.241634  0.799317  1
  Y  Y6  1  0.958491  0.758419  0.200308  1
  Y  Y7  1  0.183723  0.285019  0.468956  1
  Y  Y8  1  0.816306  0.715043  0.531252  1
  Y  Y9  1  0.183792  0.715043  0.898737  1
  Y  Y10  1  0.816063  0.285019  0.101296  1
  Y  Y11  1  0.322403  0.637064  0.314661  1
  In  In12  1  0.499901  0.500036  0.000135  1
  In  In13  1  0.000146  0.000228  0.000083  1
  Co  Co14  1  0.111145  0.611806  0.500661  1
  Co  Co15  1  0.888092  0.387892  0.499800  1
  Ru  Ru16  1  0.333283  0.001018  0.333526  1
  Ru  Ru17  1  0.667491  0.001018  0.667735  1
