# generated using pymatgen
data_Pr3In3Ni2Au
_symmetry_space_group_name_H-M   'P 1'
_cell_length_a   7.73292900
_cell_length_b   7.73293065
_cell_length_c   4.03303400
_cell_angle_alpha   90.00000000
_cell_angle_beta   90.00000000
_cell_angle_gamma   120.00000577
_symmetry_Int_Tables_number   1
_chemical_formula_structural   Pr3In3Ni2Au
_chemical_formula_sum   'Pr3 In3 Ni2 Au1'
_cell_volume   208.85776577
_cell_formula_units_Z   1
loop_
 _symmetry_equiv_pos_site_id
 _symmetry_equiv_pos_as_xyz
  1  'x, y, z'
loop_
 _atom_site_type_symbol
 _atom_site_label
 _atom_site_symmetry_multiplicity
 _atom_site_fract_x
 _atom_site_fract_y
 _atom_site_fract_z
 _atom_site_occupancy
  Pr  Pr0  1  0.417268  0.014321  0.500000  1
  Pr  Pr1  1  0.985679  0.402947  0.500000  1
  Pr  Pr2  1  0.597053  0.582732  0.500000  1
  In  In3  1  0.760074  0.005396  0.000000  1
  In  In4  1  0.994604  0.754678  0.000000  1
  In  In5  1  0.245322  0.239926  0.000000  1
  Ni  Ni6  1  0.000000  0.000000  0.500000  1
  Ni  Ni7  1  0.666667  0.333333  0.000000  1
  Au  Au8  1  0.333333  0.666667  0.000000  1
