# generated using pymatgen
data_YLu3(ScPt)4
_symmetry_space_group_name_H-M   'P 1'
_cell_length_a   4.60335900
_cell_length_b   6.94874043
_cell_length_c   8.34248957
_cell_angle_alpha   89.73888979
_cell_angle_beta   90.00000000
_cell_angle_gamma   90.00000000
_symmetry_Int_Tables_number   1
_chemical_formula_structural   YLu3(ScPt)4
_chemical_formula_sum   'Y1 Lu3 Sc4 Pt4'
_cell_volume   266.85300438
_cell_formula_units_Z   1
loop_
 _symmetry_equiv_pos_site_id
 _symmetry_equiv_pos_as_xyz
  1  'x, y, z'
loop_
 _atom_site_type_symbol
 _atom_site_label
 _atom_site_symmetry_multiplicity
 _atom_site_fract_x
 _atom_site_fract_y
 _atom_site_fract_z
 _atom_site_occupancy
  Y  Y0  1  0.250000  0.521610  0.174530  1
  Lu  Lu1  1  0.750000  0.476173  0.825156  1
  Lu  Lu2  1  0.750000  0.976234  0.674704  1
  Lu  Lu3  1  0.250000  0.023570  0.327842  1
  Sc  Sc4  1  0.250000  0.642720  0.570134  1
  Sc  Sc5  1  0.750000  0.357330  0.432238  1
  Sc  Sc6  1  0.750000  0.857948  0.069762  1
  Sc  Sc7  1  0.250000  0.140860  0.929505  1
  Pt  Pt8  1  0.250000  0.755192  0.888670  1
  Pt  Pt9  1  0.750000  0.243795  0.105103  1
  Pt  Pt10  1  0.750000  0.750289  0.395155  1
  Pt  Pt11  1  0.250000  0.254278  0.607203  1
