# generated using pymatgen
data_Yb7Ho(Si4Mo3)4
_symmetry_space_group_name_H-M   'P 1'
_cell_length_a   6.72503802
_cell_length_b   6.92226480
_cell_length_c   13.03797326
_cell_angle_alpha   89.94604758
_cell_angle_beta   90.01210275
_cell_angle_gamma   89.92040272
_symmetry_Int_Tables_number   1
_chemical_formula_structural   Yb7Ho(Si4Mo3)4
_chemical_formula_sum   'Yb7 Ho1 Si16 Mo12'
_cell_volume   606.94930231
_cell_formula_units_Z   1
loop_
 _symmetry_equiv_pos_site_id
 _symmetry_equiv_pos_as_xyz
  1  'x, y, z'
loop_
 _atom_site_type_symbol
 _atom_site_label
 _atom_site_symmetry_multiplicity
 _atom_site_fract_x
 _atom_site_fract_y
 _atom_site_fract_z
 _atom_site_occupancy
  Yb  Yb0  1  0.498276  0.334292  0.090190  1
  Yb  Yb1  1  0.998248  0.166036  0.409303  1
  Yb  Yb2  1  0.501532  0.665999  0.590840  1
  Yb  Yb3  1  0.001342  0.831520  0.907574  1
  Yb  Yb4  1  0.501331  0.666732  0.908754  1
  Yb  Yb5  1  0.001548  0.833000  0.590846  1
  Yb  Yb6  1  0.498378  0.334648  0.409945  1
  Ho  Ho7  1  0.999810  0.169867  0.093567  1
  Si  Si8  1  0.657946  0.042950  0.545630  1
  Si  Si9  1  0.158373  0.457624  0.954348  1
  Si  Si10  1  0.341417  0.957027  0.045265  1
  Si  Si11  1  0.842316  0.543191  0.454424  1
  Si  Si12  1  0.342363  0.956897  0.454584  1
  Si  Si13  1  0.841196  0.544188  0.044975  1
  Si  Si14  1  0.659611  0.042141  0.954473  1
  Si  Si15  1  0.157958  0.456583  0.545718  1
  Si  Si16  1  0.535190  0.373050  0.750299  1
  Si  Si17  1  0.035083  0.125368  0.749746  1
  Si  Si18  1  0.464916  0.628655  0.249287  1
  Si  Si19  1  0.964436  0.872152  0.250335  1
  Si  Si20  1  0.800511  0.630832  0.749724  1
  Si  Si21  1  0.301375  0.867700  0.749814  1
  Si  Si22  1  0.200050  0.369429  0.251188  1
  Si  Si23  1  0.696228  0.132578  0.250925  1
  Mo  Mo24  1  0.834979  0.330633  0.628032  1
  Mo  Mo25  1  0.333925  0.168082  0.872745  1
  Mo  Mo26  1  0.164916  0.668379  0.126921  1
  Mo  Mo27  1  0.665479  0.831022  0.371918  1
  Mo  Mo28  1  0.165481  0.669045  0.371735  1
  Mo  Mo29  1  0.667418  0.833562  0.126984  1
  Mo  Mo30  1  0.835789  0.329901  0.873041  1
  Mo  Mo31  1  0.335049  0.168341  0.628027  1
  Mo  Mo32  1  0.661227  0.008363  0.750221  1
  Mo  Mo33  1  0.161250  0.490499  0.750196  1
  Mo  Mo34  1  0.337149  0.992874  0.249456  1
  Mo  Mo35  1  0.837899  0.506838  0.248967  1
