# generated using pymatgen
data_EuCu2SnSb
_symmetry_space_group_name_H-M   'P 1'
_cell_length_a   4.45165700
_cell_length_b   4.45165700
_cell_length_c   11.07584500
_cell_angle_alpha   90.00000000
_cell_angle_beta   90.00000000
_cell_angle_gamma   90.00000000
_symmetry_Int_Tables_number   1
_chemical_formula_structural   EuCu2SnSb
_chemical_formula_sum   'Eu2 Cu4 Sn2 Sb2'
_cell_volume   219.49278983
_cell_formula_units_Z   2
loop_
 _symmetry_equiv_pos_site_id
 _symmetry_equiv_pos_as_xyz
  1  'x, y, z'
loop_
 _atom_site_type_symbol
 _atom_site_label
 _atom_site_symmetry_multiplicity
 _atom_site_fract_x
 _atom_site_fract_y
 _atom_site_fract_z
 _atom_site_occupancy
  Eu  Eu0  1  0.000000  0.500000  0.762196  1
  Eu  Eu1  1  0.500000  0.000000  0.237804  1
  Cu  Cu2  1  0.000000  0.000000  0.000000  1
  Cu  Cu3  1  0.500000  0.500000  0.000000  1
  Cu  Cu4  1  0.000000  0.500000  0.360415  1
  Cu  Cu5  1  0.500000  0.000000  0.639585  1
  Sn  Sn6  1  0.000000  0.000000  0.500000  1
  Sn  Sn7  1  0.500000  0.500000  0.500000  1
  Sb  Sb8  1  0.000000  0.500000  0.130747  1
  Sb  Sb9  1  0.500000  0.000000  0.869253  1
