# generated using pymatgen
data_Th(TiAu2)2
_symmetry_space_group_name_H-M   'P 1'
_cell_length_a   5.73211607
_cell_length_b   5.73211496
_cell_length_c   5.73211479
_cell_angle_alpha   102.13408611
_cell_angle_beta   102.13409489
_cell_angle_gamma   125.42238613
_symmetry_Int_Tables_number   1
_chemical_formula_structural   Th(TiAu2)2
_chemical_formula_sum   'Th1 Ti2 Au4'
_cell_volume   136.39808284
_cell_formula_units_Z   1
loop_
 _symmetry_equiv_pos_site_id
 _symmetry_equiv_pos_as_xyz
  1  'x, y, z'
loop_
 _atom_site_type_symbol
 _atom_site_label
 _atom_site_symmetry_multiplicity
 _atom_site_fract_x
 _atom_site_fract_y
 _atom_site_fract_z
 _atom_site_occupancy
  Th  Th0  1  0.000000  0.000000  0.000000  1
  Ti  Ti1  1  0.250000  0.750000  0.500000  1
  Ti  Ti2  1  0.750000  0.250000  0.500000  1
  Au  Au3  1  0.303184  0.303184  0.606367  1
  Au  Au4  1  0.696816  0.696816  0.393633  1
  Au  Au5  1  0.696816  0.303184  0.000000  1
  Au  Au6  1  0.303184  0.696816  0.000000  1
