# generated using pymatgen
data_Tm7Co6Sn23
_symmetry_space_group_name_H-M   'P 1'
_cell_length_a   9.67386800
_cell_length_b   9.67386762
_cell_length_c   9.95580100
_cell_angle_alpha   90.00000000
_cell_angle_beta   90.00000000
_cell_angle_gamma   120.00000131
_symmetry_Int_Tables_number   1
_chemical_formula_structural   Tm7Co6Sn23
_chemical_formula_sum   'Tm7 Co6 Sn23'
_cell_volume   806.87661769
_cell_formula_units_Z   1
loop_
 _symmetry_equiv_pos_site_id
 _symmetry_equiv_pos_as_xyz
  1  'x, y, z'
loop_
 _atom_site_type_symbol
 _atom_site_label
 _atom_site_symmetry_multiplicity
 _atom_site_fract_x
 _atom_site_fract_y
 _atom_site_fract_z
 _atom_site_occupancy
  Tm  Tm0  1  0.479378  0.520622  0.306015  1
  Tm  Tm1  1  0.520622  0.479378  0.693985  1
  Tm  Tm2  1  0.479378  0.958757  0.306015  1
  Tm  Tm3  1  0.520622  0.041243  0.693985  1
  Tm  Tm4  1  0.041243  0.520622  0.306015  1
  Tm  Tm5  1  0.958757  0.479378  0.693985  1
  Tm  Tm6  1  0.000000  0.000000  0.000000  1
  Co  Co7  1  0.832255  0.167745  0.197003  1
  Co  Co8  1  0.167745  0.832255  0.802997  1
  Co  Co9  1  0.832255  0.664511  0.197003  1
  Co  Co10  1  0.167745  0.335489  0.802997  1
  Co  Co11  1  0.335489  0.167745  0.197003  1
  Co  Co12  1  0.664511  0.832255  0.802997  1
  Sn  Sn13  1  0.118618  0.881382  0.274448  1
  Sn  Sn14  1  0.881382  0.118618  0.725552  1
  Sn  Sn15  1  0.118618  0.237237  0.274448  1
  Sn  Sn16  1  0.881382  0.762763  0.725552  1
  Sn  Sn17  1  0.762763  0.881382  0.274448  1
  Sn  Sn18  1  0.237237  0.118618  0.725552  1
  Sn  Sn19  1  0.780876  0.219124  0.451810  1
  Sn  Sn20  1  0.219124  0.780876  0.548190  1
  Sn  Sn21  1  0.780876  0.561752  0.451810  1
  Sn  Sn22  1  0.219124  0.438248  0.548190  1
  Sn  Sn23  1  0.438248  0.219124  0.451810  1
  Sn  Sn24  1  0.561752  0.780876  0.548190  1
  Sn  Sn25  1  0.346150  0.000000  0.000000  1
  Sn  Sn26  1  0.653850  0.000000  0.000000  1
  Sn  Sn27  1  0.000000  0.346150  0.000000  1
  Sn  Sn28  1  0.000000  0.653850  0.000000  1
  Sn  Sn29  1  0.653850  0.653850  0.000000  1
  Sn  Sn30  1  0.346150  0.346150  0.000000  1
  Sn  Sn31  1  0.333333  0.666667  0.121137  1
  Sn  Sn32  1  0.666667  0.333333  0.878863  1
  Sn  Sn33  1  0.333333  0.666667  0.817355  1
  Sn  Sn34  1  0.666667  0.333333  0.182645  1
  Sn  Sn35  1  0.000000  0.000000  0.500000  1
