# generated using pymatgen
data_YbSmEr2(B6Os)2
_symmetry_space_group_name_H-M   'P 1'
_cell_length_a   3.65003300
_cell_length_b   9.15553163
_cell_length_c   11.56552508
_cell_angle_alpha   89.84923986
_cell_angle_beta   90.00000000
_cell_angle_gamma   90.00000000
_symmetry_Int_Tables_number   1
_chemical_formula_structural   YbSmEr2(B6Os)2
_chemical_formula_sum   'Yb2 Sm2 Er4 B24 Os4'
_cell_volume   386.49529362
_cell_formula_units_Z   2
loop_
 _symmetry_equiv_pos_site_id
 _symmetry_equiv_pos_as_xyz
  1  'x, y, z'
loop_
 _atom_site_type_symbol
 _atom_site_label
 _atom_site_symmetry_multiplicity
 _atom_site_fract_x
 _atom_site_fract_y
 _atom_site_fract_z
 _atom_site_occupancy
  Yb  Yb0  1  0.000000  0.324500  0.415027  1
  Yb  Yb1  1  0.000000  0.675500  0.584973  1
  Sm  Sm2  1  0.000000  0.821850  0.086607  1
  Sm  Sm3  1  0.000000  0.178150  0.913393  1
  Er  Er4  1  0.000000  0.942145  0.371253  1
  Er  Er5  1  0.000000  0.057855  0.628747  1
  Er  Er6  1  0.000000  0.442947  0.131147  1
  Er  Er7  1  0.000000  0.557053  0.868853  1
  B  B8  1  0.500000  0.553746  0.432780  1
  B  B9  1  0.500000  0.446254  0.567220  1
  B  B10  1  0.500000  0.054845  0.068650  1
  B  B11  1  0.500000  0.945155  0.931350  1
  B  B12  1  0.500000  0.747899  0.418554  1
  B  B13  1  0.500000  0.252101  0.581446  1
  B  B14  1  0.500000  0.249478  0.083334  1
  B  B15  1  0.500000  0.750522  0.916666  1
  B  B16  1  0.500000  0.790317  0.266588  1
  B  B17  1  0.500000  0.209683  0.733412  1
  B  B18  1  0.500000  0.290716  0.235625  1
  B  B19  1  0.500000  0.709284  0.764375  1
  B  B20  1  0.500000  0.630030  0.186634  1
  B  B21  1  0.500000  0.369970  0.813366  1
  B  B22  1  0.500000  0.131215  0.315138  1
  B  B23  1  0.500000  0.868785  0.684862  1
  B  B24  1  0.500000  0.984311  0.213565  1
  B  B25  1  0.500000  0.015689  0.786435  1
  B  B26  1  0.500000  0.483238  0.288901  1
  B  B27  1  0.500000  0.516762  0.711099  1
  B  B28  1  0.500000  0.599916  0.027524  1
  B  B29  1  0.500000  0.400084  0.972476  1
  B  B30  1  0.500000  0.099906  0.472505  1
  B  B31  1  0.500000  0.900094  0.527495  1
  Os  Os32  1  0.000000  0.638982  0.319979  1
  Os  Os33  1  0.000000  0.361018  0.680021  1
  Os  Os34  1  0.000000  0.138341  0.180096  1
  Os  Os35  1  0.000000  0.861659  0.819904  1
