# generated using pymatgen
data_TmLu(SiTc2)4
_symmetry_space_group_name_H-M   'P 1'
_cell_length_a   7.31876031
_cell_length_b   7.31876031
_cell_length_c   4.14389100
_cell_angle_alpha   90.00000000
_cell_angle_beta   90.00000000
_cell_angle_gamma   90.55652299
_symmetry_Int_Tables_number   1
_chemical_formula_structural   TmLu(SiTc2)4
_chemical_formula_sum   'Tm1 Lu1 Si4 Tc8'
_cell_volume   221.95395325
_cell_formula_units_Z   1
loop_
 _symmetry_equiv_pos_site_id
 _symmetry_equiv_pos_as_xyz
  1  'x, y, z'
loop_
 _atom_site_type_symbol
 _atom_site_label
 _atom_site_symmetry_multiplicity
 _atom_site_fract_x
 _atom_site_fract_y
 _atom_site_fract_z
 _atom_site_occupancy
  Tm  Tm0  1  0.000000  0.000000  0.000000  1
  Lu  Lu1  1  0.500000  0.500000  0.500000  1
  Si  Si2  1  0.791286  0.208714  0.500000  1
  Si  Si3  1  0.208714  0.791286  0.500000  1
  Si  Si4  1  0.293642  0.293642  0.000000  1
  Si  Si5  1  0.706358  0.706358  0.000000  1
  Tc  Tc6  1  0.653793  0.902530  0.500000  1
  Tc  Tc7  1  0.346207  0.097470  0.500000  1
  Tc  Tc8  1  0.157775  0.593509  0.000000  1
  Tc  Tc9  1  0.842225  0.406491  0.000000  1
  Tc  Tc10  1  0.902530  0.653793  0.500000  1
  Tc  Tc11  1  0.097470  0.346207  0.500000  1
  Tc  Tc12  1  0.593509  0.157775  0.000000  1
  Tc  Tc13  1  0.406491  0.842225  0.000000  1
