# generated using pymatgen
data_Tb2NdDy(WO6)2
_symmetry_space_group_name_H-M   'P 1'
_cell_length_a   5.46359200
_cell_length_b   7.79086102
_cell_length_c   11.57850748
_cell_angle_alpha   75.64504847
_cell_angle_beta   90.00000000
_cell_angle_gamma   90.00000000
_symmetry_Int_Tables_number   1
_chemical_formula_structural   Tb2NdDy(WO6)2
_chemical_formula_sum   'Tb4 Nd2 Dy2 W4 O24'
_cell_volume   477.46412080
_cell_formula_units_Z   2
loop_
 _symmetry_equiv_pos_site_id
 _symmetry_equiv_pos_as_xyz
  1  'x, y, z'
loop_
 _atom_site_type_symbol
 _atom_site_label
 _atom_site_symmetry_multiplicity
 _atom_site_fract_x
 _atom_site_fract_y
 _atom_site_fract_z
 _atom_site_occupancy
  Tb  Tb0  1  0.740546  0.000351  0.750035  1
  Tb  Tb1  1  0.259454  0.000351  0.250035  1
  Tb  Tb2  1  0.187290  0.797347  0.576585  1
  Tb  Tb3  1  0.812710  0.797347  0.076585  1
  Nd  Nd4  1  0.684801  0.499637  0.750215  1
  Nd  Nd5  1  0.315199  0.499637  0.250215  1
  Dy  Dy6  1  0.187200  0.203212  0.922980  1
  Dy  Dy7  1  0.812800  0.203212  0.422980  1
  W  W8  1  0.253115  0.726549  0.884612  1
  W  W9  1  0.746885  0.726549  0.384612  1
  W  W10  1  0.253084  0.273064  0.615319  1
  W  W11  1  0.746916  0.273064  0.115319  1
  O  O12  1  0.043174  0.940746  0.895962  1
  O  O13  1  0.529145  0.847425  0.930488  1
  O  O14  1  0.956826  0.940746  0.395962  1
  O  O15  1  0.455905  0.792106  0.728460  1
  O  O16  1  0.470855  0.847425  0.430488  1
  O  O17  1  0.985769  0.717135  0.770854  1
  O  O18  1  0.544095  0.792106  0.228460  1
  O  O19  1  0.852773  0.640127  0.545615  1
  O  O20  1  0.351052  0.493034  0.887426  1
  O  O21  1  0.014231  0.717135  0.270854  1
  O  O22  1  0.351707  0.506070  0.612460  1
  O  O23  1  0.854239  0.359238  0.954380  1
  O  O24  1  0.147227  0.640127  0.045615  1
  O  O25  1  0.648948  0.493034  0.387426  1
  O  O26  1  0.986519  0.282937  0.729775  1
  O  O27  1  0.648293  0.506070  0.112460  1
  O  O28  1  0.145761  0.359238  0.454380  1
  O  O29  1  0.454882  0.207342  0.772073  1
  O  O30  1  0.013481  0.282937  0.229775  1
  O  O31  1  0.529963  0.153081  0.569017  1
  O  O32  1  0.545118  0.207342  0.272073  1
  O  O33  1  0.041582  0.060600  0.603745  1
  O  O34  1  0.470037  0.153081  0.069017  1
  O  O35  1  0.958418  0.060600  0.103745  1
