# generated using pymatgen
data_Y11LuTc4
_symmetry_space_group_name_H-M   'P 1'
_cell_length_a   6.27264600
_cell_length_b   7.46614504
_cell_length_c   9.25439200
_cell_angle_alpha   90.00000000
_cell_angle_beta   90.00000000
_cell_angle_gamma   89.84296515
_symmetry_Int_Tables_number   1
_chemical_formula_structural   Y11LuTc4
_chemical_formula_sum   'Y11 Lu1 Tc4'
_cell_volume   433.40454515
_cell_formula_units_Z   1
loop_
 _symmetry_equiv_pos_site_id
 _symmetry_equiv_pos_as_xyz
  1  'x, y, z'
loop_
 _atom_site_type_symbol
 _atom_site_label
 _atom_site_symmetry_multiplicity
 _atom_site_fract_x
 _atom_site_fract_y
 _atom_site_fract_z
 _atom_site_occupancy
  Y  Y0  1  0.338665  0.676541  0.062280  1
  Y  Y1  1  0.162458  0.173492  0.437942  1
  Y  Y2  1  0.660686  0.324623  0.564390  1
  Y  Y3  1  0.836612  0.825867  0.935697  1
  Y  Y4  1  0.660686  0.324623  0.935610  1
  Y  Y5  1  0.836612  0.825867  0.564303  1
  Y  Y6  1  0.338665  0.676541  0.437720  1
  Y  Y7  1  0.162458  0.173492  0.062058  1
  Y  Y8  1  0.871312  0.541546  0.250000  1
  Y  Y9  1  0.630016  0.042680  0.250000  1
  Y  Y10  1  0.128785  0.457835  0.750000  1
  Lu  Lu11  1  0.368375  0.955852  0.750000  1
  Tc  Tc12  1  0.041063  0.884971  0.250000  1
  Tc  Tc13  1  0.458854  0.384965  0.250000  1
  Tc  Tc14  1  0.965461  0.113986  0.750000  1
  Tc  Tc15  1  0.539289  0.617121  0.750000  1
