# generated using pymatgen
data_Dy4YAl2SnC4
_symmetry_space_group_name_H-M   'P 1'
_cell_length_a   10.95916520
_cell_length_b   10.96482320
_cell_length_c   3.55286700
_cell_angle_alpha   90.00000000
_cell_angle_beta   90.00000000
_cell_angle_gamma   90.02188447
_symmetry_Int_Tables_number   1
_chemical_formula_structural   Dy4YAl2SnC4
_chemical_formula_sum   'Dy8 Y2 Al4 Sn2 C8'
_cell_volume   426.93132916
_cell_formula_units_Z   2
loop_
 _symmetry_equiv_pos_site_id
 _symmetry_equiv_pos_as_xyz
  1  'x, y, z'
loop_
 _atom_site_type_symbol
 _atom_site_label
 _atom_site_symmetry_multiplicity
 _atom_site_fract_x
 _atom_site_fract_y
 _atom_site_fract_z
 _atom_site_occupancy
  Dy  Dy0  1  0.551004  0.732745  0.500000  1
  Dy  Dy1  1  0.448996  0.267255  0.500000  1
  Dy  Dy2  1  0.051008  0.767165  0.500000  1
  Dy  Dy3  1  0.948992  0.232835  0.500000  1
  Dy  Dy4  1  0.267315  0.550991  0.500000  1
  Dy  Dy5  1  0.732685  0.449009  0.500000  1
  Dy  Dy6  1  0.500000  0.000000  0.000000  1
  Dy  Dy7  1  0.000000  0.500000  0.000000  1
  Y  Y8  1  0.232283  0.050962  0.500000  1
  Y  Y9  1  0.767717  0.949038  0.500000  1
  Al  Al10  1  0.703663  0.203745  0.000000  1
  Al  Al11  1  0.296337  0.796255  0.000000  1
  Al  Al12  1  0.203743  0.296388  0.000000  1
  Al  Al13  1  0.796257  0.703612  0.000000  1
  Sn  Sn14  1  0.500000  0.500000  0.000000  1
  Sn  Sn15  1  0.000000  0.000000  0.000000  1
  C  C16  1  0.633118  0.133666  0.500000  1
  C  C17  1  0.366882  0.866334  0.500000  1
  C  C18  1  0.133312  0.366655  0.500000  1
  C  C19  1  0.866688  0.633345  0.500000  1
  C  C20  1  0.162868  0.662917  0.000000  1
  C  C21  1  0.837132  0.337083  0.000000  1
  C  C22  1  0.662625  0.836854  0.000000  1
  C  C23  1  0.337375  0.163146  0.000000  1
