# generated using pymatgen
data_YTmZr2(Co5As3)4
_symmetry_space_group_name_H-M   'P 1'
_cell_length_a   3.75026500
_cell_length_b   12.12317622
_cell_length_c   10.62656667
_cell_angle_alpha   89.94972373
_cell_angle_beta   90.00000000
_cell_angle_gamma   90.00000000
_symmetry_Int_Tables_number   1
_chemical_formula_structural   YTmZr2(Co5As3)4
_chemical_formula_sum   'Y1 Tm1 Zr2 Co20 As12'
_cell_volume   483.13797957
_cell_formula_units_Z   1
loop_
 _symmetry_equiv_pos_site_id
 _symmetry_equiv_pos_as_xyz
  1  'x, y, z'
loop_
 _atom_site_type_symbol
 _atom_site_label
 _atom_site_symmetry_multiplicity
 _atom_site_fract_x
 _atom_site_fract_y
 _atom_site_fract_z
 _atom_site_occupancy
  Y  Y0  1  0.750000  0.202244  0.417920  1
  Tm  Tm1  1  0.250000  0.798059  0.581663  1
  Zr  Zr2  1  0.750000  0.700830  0.078966  1
  Zr  Zr3  1  0.250000  0.299186  0.921013  1
  Co  Co4  1  0.750000  0.697045  0.382448  1
  Co  Co5  1  0.250000  0.303459  0.618328  1
  Co  Co6  1  0.250000  0.801486  0.887906  1
  Co  Co7  1  0.750000  0.198515  0.111773  1
  Co  Co8  1  0.750000  0.993288  0.213683  1
  Co  Co9  1  0.250000  0.006392  0.786339  1
  Co  Co10  1  0.250000  0.508141  0.716079  1
  Co  Co11  1  0.750000  0.491842  0.283983  1
  Co  Co12  1  0.750000  0.678326  0.785135  1
  Co  Co13  1  0.250000  0.321919  0.214416  1
  Co  Co14  1  0.250000  0.820261  0.281635  1
  Co  Co15  1  0.750000  0.179620  0.718592  1
  Co  Co16  1  0.750000  0.930323  0.971168  1
  Co  Co17  1  0.250000  0.069505  0.028363  1
  Co  Co18  1  0.250000  0.568952  0.467982  1
  Co  Co19  1  0.750000  0.431996  0.532376  1
  Co  Co20  1  0.750000  0.987366  0.593106  1
  Co  Co21  1  0.250000  0.011235  0.407133  1
  Co  Co22  1  0.250000  0.513238  0.090279  1
  Co  Co23  1  0.750000  0.486731  0.909744  1
  As  As24  1  0.750000  0.614599  0.585012  1
  As  As25  1  0.250000  0.386562  0.415048  1
  As  As26  1  0.250000  0.884685  0.085581  1
  As  As27  1  0.750000  0.115235  0.914380  1
  As  As28  1  0.750000  0.889609  0.399555  1
  As  As29  1  0.250000  0.109936  0.601318  1
  As  As30  1  0.250000  0.610801  0.901032  1
  As  As31  1  0.750000  0.389160  0.099004  1
  As  As32  1  0.750000  0.870502  0.769211  1
  As  As33  1  0.250000  0.128970  0.229887  1
  As  As34  1  0.250000  0.629361  0.265177  1
  As  As35  1  0.750000  0.370621  0.734765  1
