# generated using pymatgen
data_CsSr2(H6Pt)2
_symmetry_space_group_name_H-M   'P 1'
_cell_length_a   5.43093700
_cell_length_b   5.43093690
_cell_length_c   9.66030100
_cell_angle_alpha   90.00000000
_cell_angle_beta   90.00000000
_cell_angle_gamma   120.00000672
_symmetry_Int_Tables_number   1
_chemical_formula_structural   CsSr2(H6Pt)2
_chemical_formula_sum   'Cs1 Sr2 H12 Pt2'
_cell_volume   246.75773909
_cell_formula_units_Z   1
loop_
 _symmetry_equiv_pos_site_id
 _symmetry_equiv_pos_as_xyz
  1  'x, y, z'
loop_
 _atom_site_type_symbol
 _atom_site_label
 _atom_site_symmetry_multiplicity
 _atom_site_fract_x
 _atom_site_fract_y
 _atom_site_fract_z
 _atom_site_occupancy
  Cs  Cs0  1  0.000000  0.000000  0.000000  1
  Sr  Sr1  1  0.666667  0.333333  0.370197  1
  Sr  Sr2  1  0.333333  0.666667  0.629803  1
  H  H3  1  0.185743  0.814257  0.381813  1
  H  H4  1  0.628513  0.814257  0.381813  1
  H  H5  1  0.185743  0.371487  0.381813  1
  H  H6  1  0.814257  0.185743  0.618187  1
  H  H7  1  0.371487  0.185743  0.618187  1
  H  H8  1  0.814257  0.628513  0.618187  1
  H  H9  1  0.525259  0.050516  0.821180  1
  H  H10  1  0.525259  0.474741  0.821180  1
  H  H11  1  0.949484  0.474741  0.821180  1
  H  H12  1  0.474741  0.949484  0.178820  1
  H  H13  1  0.474741  0.525259  0.178820  1
  H  H14  1  0.050516  0.525259  0.178820  1
  Pt  Pt15  1  0.666667  0.333333  0.717671  1
  Pt  Pt16  1  0.333333  0.666667  0.282329  1
