# generated using pymatgen
data_Sn(SCl6)2
_symmetry_space_group_name_H-M   'P 1'
_cell_length_a   8.53092976
_cell_length_b   8.53092986
_cell_length_c   8.53092986
_cell_angle_alpha   78.80316246
_cell_angle_beta   78.80316493
_cell_angle_gamma   78.80315744
_symmetry_Int_Tables_number   1
_chemical_formula_structural   Sn(SCl6)2
_chemical_formula_sum   'Sn1 S2 Cl12'
_cell_volume   589.49231433
_cell_formula_units_Z   1
loop_
 _symmetry_equiv_pos_site_id
 _symmetry_equiv_pos_as_xyz
  1  'x, y, z'
loop_
 _atom_site_type_symbol
 _atom_site_label
 _atom_site_symmetry_multiplicity
 _atom_site_fract_x
 _atom_site_fract_y
 _atom_site_fract_z
 _atom_site_occupancy
  Sn  Sn0  1  0.000000  0.000000  0.000000  1
  S  S1  1  0.208471  0.208471  0.208471  1
  S  S2  1  0.791529  0.791529  0.791529  1
  Cl  Cl3  1  0.833851  0.833851  0.544857  1
  Cl  Cl4  1  0.868498  0.190507  0.190507  1
  Cl  Cl5  1  0.190507  0.190507  0.868498  1
  Cl  Cl6  1  0.190507  0.868498  0.190507  1
  Cl  Cl7  1  0.809493  0.131502  0.809493  1
  Cl  Cl8  1  0.131502  0.809493  0.809493  1
  Cl  Cl9  1  0.809493  0.809493  0.131502  1
  Cl  Cl10  1  0.455143  0.166149  0.166149  1
  Cl  Cl11  1  0.166149  0.166149  0.455143  1
  Cl  Cl12  1  0.166149  0.455143  0.166149  1
  Cl  Cl13  1  0.833851  0.544857  0.833851  1
  Cl  Cl14  1  0.544857  0.833851  0.833851  1
