# generated using pymatgen
data_NdScP7Ru12
_symmetry_space_group_name_H-M   'P 1'
_cell_length_a   9.42139200
_cell_length_b   9.42139116
_cell_length_c   3.94106200
_cell_angle_alpha   90.00000000
_cell_angle_beta   90.00000000
_cell_angle_gamma   119.99999497
_symmetry_Int_Tables_number   1
_chemical_formula_structural   NdScP7Ru12
_chemical_formula_sum   'Nd1 Sc1 P7 Ru12'
_cell_volume   302.95214403
_cell_formula_units_Z   1
loop_
 _symmetry_equiv_pos_site_id
 _symmetry_equiv_pos_as_xyz
  1  'x, y, z'
loop_
 _atom_site_type_symbol
 _atom_site_label
 _atom_site_symmetry_multiplicity
 _atom_site_fract_x
 _atom_site_fract_y
 _atom_site_fract_z
 _atom_site_occupancy
  Nd  Nd0  1  0.333333  0.666667  0.000000  1
  Sc  Sc1  1  0.666667  0.333333  0.500000  1
  P  P2  1  0.603694  0.718414  0.500000  1
  P  P3  1  0.000000  0.000000  0.000000  1
  P  P4  1  0.281586  0.885280  0.500000  1
  P  P5  1  0.114720  0.396306  0.500000  1
  P  P6  1  0.883803  0.570684  0.000000  1
  P  P7  1  0.429316  0.313119  0.000000  1
  P  P8  1  0.686881  0.116197  0.000000  1
  Ru  Ru9  1  0.560367  0.956933  0.500000  1
  Ru  Ru10  1  0.396568  0.439633  0.500000  1
  Ru  Ru11  1  0.914346  0.120106  0.500000  1
  Ru  Ru12  1  0.205760  0.085654  0.500000  1
  Ru  Ru13  1  0.879894  0.794240  0.500000  1
  Ru  Ru14  1  0.727767  0.891900  0.000000  1
  Ru  Ru15  1  0.108100  0.835866  0.000000  1
  Ru  Ru16  1  0.164134  0.272233  0.000000  1
  Ru  Ru17  1  0.425006  0.071097  0.000000  1
  Ru  Ru18  1  0.928903  0.353911  0.000000  1
  Ru  Ru19  1  0.646089  0.574994  0.000000  1
  Ru  Ru20  1  0.043067  0.603432  0.500000  1
