# generated using pymatgen
data_Lu10Tl6Cl
_symmetry_space_group_name_H-M   'P 1'
_cell_length_a   6.55809903
_cell_length_b   8.87136146
_cell_length_c   8.87147602
_cell_angle_alpha   119.99589074
_cell_angle_beta   89.99311944
_cell_angle_gamma   89.99594468
_symmetry_Int_Tables_number   1
_chemical_formula_structural   Lu10Tl6Cl
_chemical_formula_sum   'Lu10 Tl6 Cl1'
_cell_volume   447.00536321
_cell_formula_units_Z   1
loop_
 _symmetry_equiv_pos_site_id
 _symmetry_equiv_pos_as_xyz
  1  'x, y, z'
loop_
 _atom_site_type_symbol
 _atom_site_label
 _atom_site_symmetry_multiplicity
 _atom_site_fract_x
 _atom_site_fract_y
 _atom_site_fract_z
 _atom_site_occupancy
  Lu  Lu0  1  0.500022  0.333299  0.666582  1
  Lu  Lu1  1  0.500049  0.666645  0.333366  1
  Lu  Lu2  1  0.000021  0.666622  0.333288  1
  Lu  Lu3  1  0.999998  0.333319  0.666669  1
  Lu  Lu4  1  0.760462  0.250751  0.999981  1
  Lu  Lu5  1  0.760135  0.749233  0.749228  1
  Lu  Lu6  1  0.760403  0.999968  0.250767  1
  Lu  Lu7  1  0.239530  0.749225  0.000028  1
  Lu  Lu8  1  0.239873  0.250743  0.250744  1
  Lu  Lu9  1  0.239583  0.000015  0.749231  1
  Tl  Tl10  1  0.748852  0.605698  0.999744  1
  Tl  Tl11  1  0.748849  0.394082  0.394076  1
  Tl  Tl12  1  0.748983  0.999767  0.605682  1
  Tl  Tl13  1  0.251112  0.394281  0.000222  1
  Tl  Tl14  1  0.251156  0.605868  0.605929  1
  Tl  Tl15  1  0.250987  0.000254  0.394357  1
  Cl  Cl16  1  0.499986  0.000231  0.000105  1
