# generated using pymatgen
data_LaCuNi3Au
_symmetry_space_group_name_H-M   'P 1'
_cell_length_a   5.25943844
_cell_length_b   4.99746809
_cell_length_c   4.09313800
_cell_angle_alpha   90.00000000
_cell_angle_beta   90.00000000
_cell_angle_gamma   118.36555649
_symmetry_Int_Tables_number   1
_chemical_formula_structural   LaCuNi3Au
_chemical_formula_sum   'La1 Cu1 Ni3 Au1'
_cell_volume   94.66644281
_cell_formula_units_Z   1
loop_
 _symmetry_equiv_pos_site_id
 _symmetry_equiv_pos_as_xyz
  1  'x, y, z'
loop_
 _atom_site_type_symbol
 _atom_site_label
 _atom_site_symmetry_multiplicity
 _atom_site_fract_x
 _atom_site_fract_y
 _atom_site_fract_z
 _atom_site_occupancy
  La  La0  1  0.337228  0.668614  0.000000  1
  Cu  Cu1  1  0.710648  0.355323  0.000000  1
  Ni  Ni2  1  0.952741  0.976370  0.000000  1
  Ni  Ni3  1  0.834000  0.165446  0.500000  1
  Ni  Ni4  1  0.834000  0.668554  0.500000  1
  Au  Au5  1  0.331383  0.165692  0.500000  1
