# generated using pymatgen
data_Ba4SrSbO8
_symmetry_space_group_name_H-M   'P 1'
_cell_length_a   7.44458243
_cell_length_b   7.44458171
_cell_length_c   6.20230700
_cell_angle_alpha   90.00000000
_cell_angle_beta   90.00000000
_cell_angle_gamma   130.97281378
_symmetry_Int_Tables_number   1
_chemical_formula_structural   Ba4SrSbO8
_chemical_formula_sum   'Ba4 Sr1 Sb1 O8'
_cell_volume   259.53313482
_cell_formula_units_Z   1
loop_
 _symmetry_equiv_pos_site_id
 _symmetry_equiv_pos_as_xyz
  1  'x, y, z'
loop_
 _atom_site_type_symbol
 _atom_site_label
 _atom_site_symmetry_multiplicity
 _atom_site_fract_x
 _atom_site_fract_y
 _atom_site_fract_z
 _atom_site_occupancy
  Ba  Ba0  1  0.359448  0.640552  0.000000  1
  Ba  Ba1  1  0.854186  0.145814  0.500000  1
  Ba  Ba2  1  0.145814  0.854186  0.500000  1
  Ba  Ba3  1  0.640552  0.359448  0.000000  1
  Sr  Sr4  1  0.000000  0.000000  0.000000  1
  Sb  Sb5  1  0.500000  0.500000  0.500000  1
  O  O6  1  0.269994  0.269994  0.726804  1
  O  O7  1  0.730006  0.730006  0.273196  1
  O  O8  1  0.730006  0.730006  0.726804  1
  O  O9  1  0.269994  0.269994  0.273196  1
  O  O10  1  0.175399  0.824601  0.000000  1
  O  O11  1  0.653871  0.346129  0.500000  1
  O  O12  1  0.346129  0.653871  0.500000  1
  O  O13  1  0.824601  0.175399  0.000000  1
