# generated using pymatgen
data_Fe3Co(NO3)8
_symmetry_space_group_name_H-M   'P 1'
_cell_length_a   7.62586311
_cell_length_b   7.62250451
_cell_length_c   7.62245367
_cell_angle_alpha   90.26072980
_cell_angle_beta   90.25271507
_cell_angle_gamma   90.25320449
_symmetry_Int_Tables_number   1
_chemical_formula_structural   Fe3Co(NO3)8
_chemical_formula_sum   'Fe3 Co1 N8 O24'
_cell_volume   443.06606469
_cell_formula_units_Z   1
loop_
 _symmetry_equiv_pos_site_id
 _symmetry_equiv_pos_as_xyz
  1  'x, y, z'
loop_
 _atom_site_type_symbol
 _atom_site_label
 _atom_site_symmetry_multiplicity
 _atom_site_fract_x
 _atom_site_fract_y
 _atom_site_fract_z
 _atom_site_occupancy
  Fe  Fe0  1  0.000000  0.500000  0.500000  1
  Fe  Fe1  1  0.500000  0.500000  0.000000  1
  Fe  Fe2  1  0.500000  0.000000  0.500000  1
  Co  Co3  1  0.000000  0.000000  0.000000  1
  N  N4  1  0.336593  0.336526  0.336673  1
  N  N5  1  0.844648  0.159172  0.653744  1
  N  N6  1  0.159185  0.653700  0.844713  1
  N  N7  1  0.653825  0.844708  0.159153  1
  N  N8  1  0.155352  0.840828  0.346256  1
  N  N9  1  0.663407  0.663474  0.663327  1
  N  N10  1  0.346175  0.155292  0.840847  1
  N  N11  1  0.840815  0.346300  0.155287  1
  O  O12  1  0.983944  0.247986  0.633632  1
  O  O13  1  0.016056  0.752014  0.366368  1
  O  O14  1  0.633786  0.984240  0.247752  1
  O  O15  1  0.247916  0.633632  0.984060  1
  O  O16  1  0.329046  0.223758  0.457563  1
  O  O17  1  0.457353  0.328996  0.223859  1
  O  O18  1  0.223719  0.457253  0.329066  1
  O  O19  1  0.670954  0.776242  0.542437  1
  O  O20  1  0.542647  0.671004  0.776141  1
  O  O21  1  0.776281  0.542747  0.670934  1
  O  O22  1  0.721547  0.172080  0.543130  1
  O  O23  1  0.543277  0.721541  0.172369  1
  O  O24  1  0.172258  0.543199  0.721459  1
  O  O25  1  0.278453  0.827920  0.456870  1
  O  O26  1  0.456723  0.278459  0.827631  1
  O  O27  1  0.827742  0.456801  0.278541  1
  O  O28  1  0.171624  0.941746  0.215855  1
  O  O29  1  0.215929  0.171705  0.941910  1
  O  O30  1  0.941899  0.215958  0.171487  1
  O  O31  1  0.828376  0.058254  0.784145  1
  O  O32  1  0.784071  0.828295  0.058090  1
  O  O33  1  0.058101  0.784042  0.828513  1
  O  O34  1  0.366214  0.015760  0.752248  1
  O  O35  1  0.752084  0.366368  0.015940  1
