# generated using pymatgen
data_Er11(Lu3Sb4)3
_symmetry_space_group_name_H-M   'P 1'
_cell_length_a   8.04695365
_cell_length_b   9.14458133
_cell_length_c   11.70565220
_cell_angle_alpha   89.98576792
_cell_angle_beta   89.96646038
_cell_angle_gamma   90.00803538
_symmetry_Int_Tables_number   1
_chemical_formula_structural   Er11(Lu3Sb4)3
_chemical_formula_sum   'Er11 Lu9 Sb12'
_cell_volume   861.37219873
_cell_formula_units_Z   1
loop_
 _symmetry_equiv_pos_site_id
 _symmetry_equiv_pos_as_xyz
  1  'x, y, z'
loop_
 _atom_site_type_symbol
 _atom_site_label
 _atom_site_symmetry_multiplicity
 _atom_site_fract_x
 _atom_site_fract_y
 _atom_site_fract_z
 _atom_site_occupancy
  Er  Er0  1  0.691488  0.940247  0.565989  1
  Er  Er1  1  0.808693  0.559783  0.065883  1
  Er  Er2  1  0.308434  0.440222  0.434118  1
  Er  Er3  1  0.175433  0.750135  0.229009  1
  Er  Er4  1  0.675471  0.249839  0.271077  1
  Er  Er5  1  0.824431  0.250016  0.771132  1
  Er  Er6  1  0.324448  0.749993  0.728969  1
  Er  Er7  1  0.657752  0.749970  0.291022  1
  Er  Er8  1  0.157735  0.249752  0.208851  1
  Er  Er9  1  0.342192  0.249651  0.709298  1
  Er  Er10  1  0.842231  0.749854  0.790954  1
  Lu  Lu11  1  0.808930  0.939308  0.066090  1
  Lu  Lu12  1  0.308920  0.060712  0.433894  1
  Lu  Lu13  1  0.191017  0.439249  0.933889  1
  Lu  Lu14  1  0.691110  0.560598  0.566120  1
  Lu  Lu15  1  0.191343  0.060619  0.933903  1
  Lu  Lu16  1  0.524670  0.249879  0.995131  1
  Lu  Lu17  1  0.025148  0.749769  0.504825  1
  Lu  Lu18  1  0.474863  0.750247  0.004816  1
  Lu  Lu19  1  0.974858  0.249794  0.495263  1
  Sb  Sb20  1  0.936515  0.990670  0.326155  1
  Sb  Sb21  1  0.436498  0.009213  0.173698  1
  Sb  Sb22  1  0.063596  0.490572  0.673857  1
  Sb  Sb23  1  0.563446  0.509179  0.826241  1
  Sb  Sb24  1  0.063485  0.009001  0.673989  1
  Sb  Sb25  1  0.563026  0.990912  0.826419  1
  Sb  Sb26  1  0.936730  0.509005  0.326246  1
  Sb  Sb27  1  0.436669  0.490814  0.173617  1
  Sb  Sb28  1  0.903288  0.248609  0.023988  1
  Sb  Sb29  1  0.402888  0.750983  0.475814  1
  Sb  Sb30  1  0.097638  0.750423  0.975527  1
  Sb  Sb31  1  0.597053  0.250978  0.524218  1
