# generated using pymatgen
data_CaYGa3SiIr4
_symmetry_space_group_name_H-M   'P 1'
_cell_length_a   4.22253600
_cell_length_b   4.22253600
_cell_length_c   10.14712800
_cell_angle_alpha   90.00000000
_cell_angle_beta   90.00000000
_cell_angle_gamma   90.00000000
_symmetry_Int_Tables_number   1
_chemical_formula_structural   CaYGa3SiIr4
_chemical_formula_sum   'Ca1 Y1 Ga3 Si1 Ir4'
_cell_volume   180.92136704
_cell_formula_units_Z   1
loop_
 _symmetry_equiv_pos_site_id
 _symmetry_equiv_pos_as_xyz
  1  'x, y, z'
loop_
 _atom_site_type_symbol
 _atom_site_label
 _atom_site_symmetry_multiplicity
 _atom_site_fract_x
 _atom_site_fract_y
 _atom_site_fract_z
 _atom_site_occupancy
  Ca  Ca0  1  0.500000  0.000000  0.243604  1
  Y  Y1  1  0.000000  0.500000  0.756626  1
  Ga  Ga2  1  0.500000  0.500000  0.504696  1
  Ga  Ga3  1  0.000000  0.000000  0.504696  1
  Ga  Ga4  1  0.000000  0.500000  0.126157  1
  Si  Si5  1  0.500000  0.000000  0.875803  1
  Ir  Ir6  1  0.000000  0.500000  0.369891  1
  Ir  Ir7  1  0.500000  0.000000  0.644933  1
  Ir  Ir8  1  0.500000  0.500000  0.986797  1
  Ir  Ir9  1  0.000000  0.000000  0.986797  1
