# generated using pymatgen
data_SrCuIrO4
_symmetry_space_group_name_H-M   'P 1'
_cell_length_a   6.48998716
_cell_length_b   6.48998822
_cell_length_c   6.77890469
_cell_angle_alpha   122.83066501
_cell_angle_beta   129.90363654
_cell_angle_gamma   76.32882252
_symmetry_Int_Tables_number   1
_chemical_formula_structural   SrCuIrO4
_chemical_formula_sum   'Sr2 Cu2 Ir2 O8'
_cell_volume   181.27822777
_cell_formula_units_Z   2
loop_
 _symmetry_equiv_pos_site_id
 _symmetry_equiv_pos_as_xyz
  1  'x, y, z'
loop_
 _atom_site_type_symbol
 _atom_site_label
 _atom_site_symmetry_multiplicity
 _atom_site_fract_x
 _atom_site_fract_y
 _atom_site_fract_z
 _atom_site_occupancy
  Sr  Sr0  1  0.754704  0.254704  0.500000  1
  Sr  Sr1  1  0.995296  0.995296  0.000000  1
  Cu  Cu2  1  0.375000  0.125000  0.750000  1
  Cu  Cu3  1  0.375000  0.625000  0.250000  1
  Ir  Ir4  1  0.375000  0.625000  0.750000  1
  Ir  Ir5  1  0.875000  0.625000  0.250000  1
  O  O6  1  0.046456  0.436159  0.065982  1
  O  O7  1  0.717538  0.312299  0.125547  1
  O  O8  1  0.186753  0.591990  0.874453  1
  O  O9  1  0.370175  0.980474  0.934018  1
  O  O10  1  0.703544  0.813841  0.434018  1
  O  O11  1  0.032462  0.937701  0.374453  1
  O  O12  1  0.379825  0.269526  0.565982  1
  O  O13  1  0.563247  0.658010  0.625547  1
