# generated using pymatgen
data_CdHg3PdRu3O14
_symmetry_space_group_name_H-M   'P 1'
_cell_length_a   7.27981276
_cell_length_b   7.26094232
_cell_length_c   7.32384036
_cell_angle_alpha   60.16696488
_cell_angle_beta   60.19867108
_cell_angle_gamma   59.91398920
_symmetry_Int_Tables_number   1
_chemical_formula_structural   CdHg3PdRu3O14
_chemical_formula_sum   'Cd1 Hg3 Pd1 Ru3 O14'
_cell_volume   274.31334012
_cell_formula_units_Z   1
loop_
 _symmetry_equiv_pos_site_id
 _symmetry_equiv_pos_as_xyz
  1  'x, y, z'
loop_
 _atom_site_type_symbol
 _atom_site_label
 _atom_site_symmetry_multiplicity
 _atom_site_fract_x
 _atom_site_fract_y
 _atom_site_fract_z
 _atom_site_occupancy
  Cd  Cd0  1  0.125000  0.125000  0.625000  1
  Hg  Hg1  1  0.125000  0.625000  0.125000  1
  Hg  Hg2  1  0.625000  0.125000  0.125000  1
  Hg  Hg3  1  0.125000  0.125000  0.125000  1
  Pd  Pd4  1  0.625000  0.125000  0.625000  1
  Ru  Ru5  1  0.625000  0.625000  0.125000  1
  Ru  Ru6  1  0.125000  0.625000  0.625000  1
  Ru  Ru7  1  0.625000  0.625000  0.625000  1
  O  O8  1  0.696201  0.673333  0.315740  1
  O  O9  1  0.931066  0.589137  0.548733  1
  O  O10  1  0.545905  0.947198  0.960993  1
  O  O11  1  0.965009  0.950618  0.552630  1
  O  O12  1  0.935275  0.576667  0.934260  1
  O  O13  1  0.531744  0.950618  0.552630  1
  O  O14  1  0.314725  0.673333  0.315740  1
  O  O15  1  0.318934  0.660863  0.701267  1
  O  O16  1  0.704095  0.302802  0.289007  1
  O  O17  1  0.718256  0.299382  0.697370  1
  O  O18  1  0.553799  0.576667  0.934260  1
  O  O19  1  0.284991  0.299382  0.697370  1
  O  O20  1  0.249360  0.261527  0.239752  1
  O  O21  1  0.000640  0.988473  0.010248  1
