# generated using pymatgen
data_Sc6Ti4Al12OsRuRh5
_symmetry_space_group_name_H-M   'P 1'
_cell_length_a   8.82704088
_cell_length_b   8.82704998
_cell_length_c   8.80140600
_cell_angle_alpha   60.09704384
_cell_angle_beta   60.09706977
_cell_angle_gamma   59.90279820
_symmetry_Int_Tables_number   1
_chemical_formula_structural   Sc6Ti4Al12OsRuRh5
_chemical_formula_sum   'Sc6 Ti4 Al12 Os1 Ru1 Rh5'
_cell_volume   485.26879069
_cell_formula_units_Z   1
loop_
 _symmetry_equiv_pos_site_id
 _symmetry_equiv_pos_as_xyz
  1  'x, y, z'
loop_
 _atom_site_type_symbol
 _atom_site_label
 _atom_site_symmetry_multiplicity
 _atom_site_fract_x
 _atom_site_fract_y
 _atom_site_fract_z
 _atom_site_occupancy
  Sc  Sc0  1  0.702673  0.297309  0.289864  1
  Sc  Sc1  1  0.702659  0.297325  0.710160  1
  Sc  Sc2  1  0.709803  0.709803  0.290202  1
  Sc  Sc3  1  0.297325  0.702659  0.710159  1
  Sc  Sc4  1  0.297309  0.702673  0.289863  1
  Sc  Sc5  1  0.291538  0.291538  0.708459  1
  Ti  Ti6  1  0.642264  0.122194  0.117773  1
  Ti  Ti7  1  0.122194  0.642264  0.117773  1
  Ti  Ti8  1  0.118014  0.118015  0.643819  1
  Ti  Ti9  1  0.118012  0.118012  0.120131  1
  Al  Al10  1  0.357588  0.879832  0.881275  1
  Al  Al11  1  0.879832  0.357588  0.881275  1
  Al  Al12  1  0.881339  0.881338  0.357329  1
  Al  Al13  1  0.881359  0.881359  0.879982  1
  Al  Al14  1  0.997258  0.333779  0.334496  1
  Al  Al15  1  0.333779  0.997258  0.334495  1
  Al  Al16  1  0.331627  0.331627  0.001758  1
  Al  Al17  1  0.331622  0.331623  0.335010  1
  Al  Al18  1  0.004411  0.666004  0.664795  1
  Al  Al19  1  0.666004  0.004411  0.664796  1
  Al  Al20  1  0.667707  0.667707  0.999356  1
  Al  Al21  1  0.667709  0.667708  0.665232  1
  Os  Os22  1  0.498408  0.498408  0.001593  1
  Ru  Ru23  1  0.999911  0.999911  0.000066  1
  Rh  Rh24  1  0.498125  0.001187  0.000773  1
  Rh  Rh25  1  0.498116  0.001171  0.499923  1
  Rh  Rh26  1  0.001171  0.498116  0.499923  1
  Rh  Rh27  1  0.001187  0.498125  0.000773  1
  Rh  Rh28  1  0.001058  0.001058  0.498947  1
