# generated using pymatgen
data_Pr5YCo16(TcP6)2
_symmetry_space_group_name_H-M   'P 1'
_cell_length_a   3.79900100
_cell_length_b   10.71124531
_cell_length_c   12.47218232
_cell_angle_alpha   90.12430054
_cell_angle_beta   90.00000000
_cell_angle_gamma   90.00000000
_symmetry_Int_Tables_number   1
_chemical_formula_structural   Pr5YCo16(TcP6)2
_chemical_formula_sum   'Pr5 Y1 Co16 Tc2 P12'
_cell_volume   507.51724363
_cell_formula_units_Z   1
loop_
 _symmetry_equiv_pos_site_id
 _symmetry_equiv_pos_as_xyz
  1  'x, y, z'
loop_
 _atom_site_type_symbol
 _atom_site_label
 _atom_site_symmetry_multiplicity
 _atom_site_fract_x
 _atom_site_fract_y
 _atom_site_fract_z
 _atom_site_occupancy
  Pr  Pr0  1  0.000000  0.499546  0.523189  1
  Pr  Pr1  1  0.500000  0.000167  0.477888  1
  Pr  Pr2  1  0.500000  0.817490  0.205297  1
  Pr  Pr3  1  0.500000  0.183121  0.206556  1
  Pr  Pr4  1  0.000000  0.681616  0.793584  1
  Y  Y5  1  0.000000  0.316250  0.795083  1
  Co  Co6  1  0.500000  0.496148  0.706206  1
  Co  Co7  1  0.000000  0.000624  0.294600  1
  Co  Co8  1  0.000000  0.497672  0.986726  1
  Co  Co9  1  0.500000  0.001928  0.010141  1
  Co  Co10  1  0.500000  0.331508  0.989084  1
  Co  Co11  1  0.500000  0.666264  0.990927  1
  Co  Co12  1  0.000000  0.169652  0.006826  1
  Co  Co13  1  0.000000  0.832521  0.007012  1
  Co  Co14  1  0.500000  0.296417  0.432698  1
  Co  Co15  1  0.500000  0.703038  0.430398  1
  Co  Co16  1  0.000000  0.203976  0.573036  1
  Co  Co17  1  0.000000  0.796386  0.569701  1
  Co  Co18  1  0.500000  0.882782  0.710184  1
  Co  Co19  1  0.500000  0.120752  0.711944  1
  Co  Co20  1  0.000000  0.618218  0.289311  1
  Co  Co21  1  0.000000  0.382242  0.290924  1
  Tc  Tc22  1  0.500000  0.498966  0.153685  1
  Tc  Tc23  1  0.000000  0.001248  0.845602  1
  P  P24  1  0.500000  0.496847  0.883974  1
  P  P25  1  0.000000  0.001078  0.112397  1
  P  P26  1  0.500000  0.500319  0.342643  1
  P  P27  1  0.000000  0.999847  0.657635  1
  P  P28  1  0.500000  0.307044  0.618831  1
  P  P29  1  0.500000  0.693594  0.613907  1
  P  P30  1  0.000000  0.195005  0.387876  1
  P  P31  1  0.000000  0.806050  0.385999  1
  P  P32  1  0.500000  0.847982  0.895830  1
  P  P33  1  0.500000  0.154053  0.893399  1
  P  P34  1  0.000000  0.651013  0.102437  1
  P  P35  1  0.000000  0.348637  0.104469  1
