# generated using pymatgen
data_Sc10Cd3Fe
_symmetry_space_group_name_H-M   'P 1'
_cell_length_a   8.93986400
_cell_length_b   8.93986545
_cell_length_c   9.10040000
_cell_angle_alpha   90.00000000
_cell_angle_beta   90.00000000
_cell_angle_gamma   119.99999465
_symmetry_Int_Tables_number   1
_chemical_formula_structural   Sc10Cd3Fe
_chemical_formula_sum   'Sc20 Cd6 Fe2'
_cell_volume   629.87305628
_cell_formula_units_Z   2
loop_
 _symmetry_equiv_pos_site_id
 _symmetry_equiv_pos_as_xyz
  1  'x, y, z'
loop_
 _atom_site_type_symbol
 _atom_site_label
 _atom_site_symmetry_multiplicity
 _atom_site_fract_x
 _atom_site_fract_y
 _atom_site_fract_z
 _atom_site_occupancy
  Sc  Sc0  1  0.000000  0.000000  0.500000  1
  Sc  Sc1  1  0.000000  0.000000  0.000000  1
  Sc  Sc2  1  0.541163  0.458837  0.250000  1
  Sc  Sc3  1  0.541163  0.082325  0.250000  1
  Sc  Sc4  1  0.917675  0.458837  0.250000  1
  Sc  Sc5  1  0.458837  0.541163  0.750000  1
  Sc  Sc6  1  0.458837  0.917675  0.750000  1
  Sc  Sc7  1  0.082325  0.541163  0.750000  1
  Sc  Sc8  1  0.212539  0.787461  0.436364  1
  Sc  Sc9  1  0.212539  0.425080  0.436364  1
  Sc  Sc10  1  0.574920  0.787461  0.436364  1
  Sc  Sc11  1  0.787461  0.212539  0.563636  1
  Sc  Sc12  1  0.787461  0.574920  0.563636  1
  Sc  Sc13  1  0.425080  0.212539  0.563636  1
  Sc  Sc14  1  0.787461  0.212539  0.936364  1
  Sc  Sc15  1  0.787461  0.574920  0.936364  1
  Sc  Sc16  1  0.425080  0.212539  0.936364  1
  Sc  Sc17  1  0.212539  0.787461  0.063636  1
  Sc  Sc18  1  0.212539  0.425080  0.063636  1
  Sc  Sc19  1  0.574920  0.787461  0.063636  1
  Cd  Cd20  1  0.884857  0.115143  0.250000  1
  Cd  Cd21  1  0.884857  0.769713  0.250000  1
  Cd  Cd22  1  0.230287  0.115143  0.250000  1
  Cd  Cd23  1  0.115143  0.884857  0.750000  1
  Cd  Cd24  1  0.115143  0.230287  0.750000  1
  Cd  Cd25  1  0.769713  0.884857  0.750000  1
  Fe  Fe26  1  0.333333  0.666667  0.250000  1
  Fe  Fe27  1  0.666667  0.333333  0.750000  1
