# generated using pymatgen
data_Cs16Hf3SnSe16
_symmetry_space_group_name_H-M   'P 1'
_cell_length_a   9.26096446
_cell_length_b   11.00937600
_cell_length_c   16.23949484
_cell_angle_alpha   90.00000000
_cell_angle_beta   90.11255925
_cell_angle_gamma   90.00000000
_symmetry_Int_Tables_number   1
_chemical_formula_structural   Cs16Hf3SnSe16
_chemical_formula_sum   'Cs16 Hf3 Sn1 Se16'
_cell_volume   1655.73412429
_cell_formula_units_Z   1
loop_
 _symmetry_equiv_pos_site_id
 _symmetry_equiv_pos_as_xyz
  1  'x, y, z'
loop_
 _atom_site_type_symbol
 _atom_site_label
 _atom_site_symmetry_multiplicity
 _atom_site_fract_x
 _atom_site_fract_y
 _atom_site_fract_z
 _atom_site_occupancy
  Cs  Cs0  1  0.998709  0.001983  0.999394  1
  Cs  Cs1  1  0.499994  0.998379  0.499879  1
  Cs  Cs2  1  0.998709  0.498017  0.999394  1
  Cs  Cs3  1  0.499994  0.501621  0.499879  1
  Cs  Cs4  1  0.988523  0.750000  0.424853  1
  Cs  Cs5  1  0.487899  0.250000  0.075844  1
  Cs  Cs6  1  0.009778  0.250000  0.574779  1
  Cs  Cs7  1  0.514407  0.750000  0.922564  1
  Cs  Cs8  1  0.836501  0.056255  0.278765  1
  Cs  Cs9  1  0.336170  0.943696  0.221122  1
  Cs  Cs10  1  0.163685  0.551689  0.722788  1
  Cs  Cs11  1  0.661996  0.443344  0.777628  1
  Cs  Cs12  1  0.163685  0.948311  0.722788  1
  Cs  Cs13  1  0.661996  0.056656  0.777628  1
  Cs  Cs14  1  0.836501  0.443745  0.278765  1
  Cs  Cs15  1  0.336170  0.556304  0.221122  1
  Hf  Hf16  1  0.759911  0.750000  0.665233  1
  Hf  Hf17  1  0.240570  0.250000  0.334765  1
  Hf  Hf18  1  0.739711  0.750000  0.164817  1
  Sn  Sn19  1  0.262266  0.250000  0.836041  1
  Se  Se20  1  0.982603  0.250000  0.826627  1
  Se  Se21  1  0.514340  0.250000  0.326484  1
  Se  Se22  1  0.485997  0.750000  0.673903  1
  Se  Se23  1  0.013336  0.750000  0.173548  1
  Se  Se24  1  0.654153  0.562157  0.090812  1
  Se  Se25  1  0.155677  0.437900  0.408624  1
  Se  Se26  1  0.348823  0.058484  0.911391  1
  Se  Se27  1  0.844818  0.937958  0.591404  1
  Se  Se28  1  0.348823  0.441516  0.911391  1
  Se  Se29  1  0.844818  0.562042  0.591404  1
  Se  Se30  1  0.654153  0.937843  0.090812  1
  Se  Se31  1  0.155677  0.062100  0.408624  1
  Se  Se32  1  0.634015  0.750000  0.309516  1
  Se  Se33  1  0.133696  0.250000  0.190173  1
  Se  Se34  1  0.365665  0.250000  0.687410  1
  Se  Se35  1  0.866227  0.750000  0.809831  1
