# generated using pymatgen
data_Dy10Bi4IrRh
_symmetry_space_group_name_H-M   'P 1'
_cell_length_a   8.04006838
_cell_length_b   9.01270500
_cell_length_c   12.48813445
_cell_angle_alpha   90.00000000
_cell_angle_beta   89.86705406
_cell_angle_gamma   90.00000000
_symmetry_Int_Tables_number   1
_chemical_formula_structural   Dy10Bi4IrRh
_chemical_formula_sum   'Dy20 Bi8 Ir2 Rh2'
_cell_volume   904.92230970
_cell_formula_units_Z   2
loop_
 _symmetry_equiv_pos_site_id
 _symmetry_equiv_pos_as_xyz
  1  'x, y, z'
loop_
 _atom_site_type_symbol
 _atom_site_label
 _atom_site_symmetry_multiplicity
 _atom_site_fract_x
 _atom_site_fract_y
 _atom_site_fract_z
 _atom_site_occupancy
  Dy  Dy0  1  0.840775  0.750000  0.793474  1
  Dy  Dy1  1  0.159225  0.250000  0.206526  1
  Dy  Dy2  1  0.340199  0.250000  0.707142  1
  Dy  Dy3  1  0.659801  0.750000  0.292858  1
  Dy  Dy4  1  0.376793  0.750000  0.692894  1
  Dy  Dy5  1  0.623207  0.250000  0.307106  1
  Dy  Dy6  1  0.877470  0.250000  0.806476  1
  Dy  Dy7  1  0.122530  0.750000  0.193524  1
  Dy  Dy8  1  0.950629  0.750000  0.501205  1
  Dy  Dy9  1  0.049371  0.250000  0.498795  1
  Dy  Dy10  1  0.446161  0.250000  0.998555  1
  Dy  Dy11  1  0.553839  0.750000  0.001445  1
  Dy  Dy12  1  0.677645  0.042331  0.566278  1
  Dy  Dy13  1  0.322355  0.957669  0.433722  1
  Dy  Dy14  1  0.176530  0.957986  0.933878  1
  Dy  Dy15  1  0.322355  0.542331  0.433722  1
  Dy  Dy16  1  0.823470  0.042014  0.066122  1
  Dy  Dy17  1  0.677645  0.457669  0.566278  1
  Dy  Dy18  1  0.823470  0.457986  0.066122  1
  Dy  Dy19  1  0.176530  0.542014  0.933878  1
  Bi  Bi20  1  0.569061  0.490684  0.826966  1
  Bi  Bi21  1  0.430939  0.509316  0.173034  1
  Bi  Bi22  1  0.069434  0.509047  0.672718  1
  Bi  Bi23  1  0.430939  0.990684  0.173034  1
  Bi  Bi24  1  0.930566  0.490953  0.327282  1
  Bi  Bi25  1  0.569061  0.009316  0.826966  1
  Bi  Bi26  1  0.930566  0.009047  0.327282  1
  Bi  Bi27  1  0.069434  0.990953  0.672718  1
  Ir  Ir28  1  0.070978  0.250000  0.991016  1
  Ir  Ir29  1  0.929022  0.750000  0.008984  1
  Rh  Rh30  1  0.570634  0.750000  0.509759  1
  Rh  Rh31  1  0.429366  0.250000  0.490241  1
