# generated using pymatgen
data_PrSn2PdRh
_symmetry_space_group_name_H-M   'P 1'
_cell_length_a   4.65888900
_cell_length_b   4.65888900
_cell_length_c   10.39571600
_cell_angle_alpha   90.00000000
_cell_angle_beta   90.00000000
_cell_angle_gamma   90.00000000
_symmetry_Int_Tables_number   1
_chemical_formula_structural   PrSn2PdRh
_chemical_formula_sum   'Pr2 Sn4 Pd2 Rh2'
_cell_volume   225.64158055
_cell_formula_units_Z   2
loop_
 _symmetry_equiv_pos_site_id
 _symmetry_equiv_pos_as_xyz
  1  'x, y, z'
loop_
 _atom_site_type_symbol
 _atom_site_label
 _atom_site_symmetry_multiplicity
 _atom_site_fract_x
 _atom_site_fract_y
 _atom_site_fract_z
 _atom_site_occupancy
  Pr  Pr0  1  0.000000  0.500000  0.247491  1
  Pr  Pr1  1  0.500000  0.000000  0.752509  1
  Sn  Sn2  1  0.000000  0.000000  0.500000  1
  Sn  Sn3  1  0.500000  0.500000  0.500000  1
  Sn  Sn4  1  0.000000  0.500000  0.871362  1
  Sn  Sn5  1  0.500000  0.000000  0.128638  1
  Pd  Pd6  1  0.000000  0.000000  0.000000  1
  Pd  Pd7  1  0.500000  0.500000  0.000000  1
  Rh  Rh8  1  0.000000  0.500000  0.624820  1
  Rh  Rh9  1  0.500000  0.000000  0.375180  1
