# generated using pymatgen
data_Ho16Sc4Si15Ir
_symmetry_space_group_name_H-M   'P 1'
_cell_length_a   7.26510811
_cell_length_b   7.58132748
_cell_length_c   14.39609489
_cell_angle_alpha   89.77295679
_cell_angle_beta   89.75279749
_cell_angle_gamma   90.18615682
_symmetry_Int_Tables_number   1
_chemical_formula_structural   Ho16Sc4Si15Ir
_chemical_formula_sum   'Ho16 Sc4 Si15 Ir1'
_cell_volume   792.90703255
_cell_formula_units_Z   1
loop_
 _symmetry_equiv_pos_site_id
 _symmetry_equiv_pos_as_xyz
  1  'x, y, z'
loop_
 _atom_site_type_symbol
 _atom_site_label
 _atom_site_symmetry_multiplicity
 _atom_site_fract_x
 _atom_site_fract_y
 _atom_site_fract_z
 _atom_site_occupancy
  Ho  Ho0  1  0.976441  0.812734  0.097910  1
  Ho  Ho1  1  0.476223  0.682754  0.402110  1
  Ho  Ho2  1  0.527694  0.324134  0.900745  1
  Ho  Ho3  1  0.024585  0.184182  0.598408  1
  Ho  Ho4  1  0.025435  0.187625  0.902018  1
  Ho  Ho5  1  0.525119  0.317549  0.598144  1
  Ho  Ho6  1  0.478510  0.682089  0.099511  1
  Ho  Ho7  1  0.974262  0.817535  0.401252  1
  Ho  Ho8  1  0.684856  0.811158  0.880403  1
  Ho  Ho9  1  0.177243  0.679591  0.623843  1
  Ho  Ho10  1  0.818008  0.335963  0.120829  1
  Ho  Ho11  1  0.315793  0.175351  0.373893  1
  Ho  Ho12  1  0.319952  0.177336  0.125632  1
  Ho  Ho13  1  0.819332  0.321912  0.374723  1
  Ho  Ho14  1  0.175896  0.673492  0.876647  1
  Ho  Ho15  1  0.682253  0.821809  0.624464  1
  Sc  Sc16  1  0.649270  0.991276  0.248639  1
  Sc  Sc17  1  0.150674  0.512602  0.248298  1
  Sc  Sc18  1  0.845918  0.484212  0.758859  1
  Sc  Sc19  1  0.351247  0.012117  0.751898  1
  Si  Si20  1  0.771817  0.637589  0.252046  1
  Si  Si21  1  0.272669  0.864044  0.250561  1
  Si  Si22  1  0.726473  0.128971  0.748968  1
  Si  Si23  1  0.230935  0.365716  0.746666  1
  Si  Si24  1  0.012002  0.098495  0.248145  1
  Si  Si25  1  0.516314  0.403110  0.251611  1
  Si  Si26  1  0.476931  0.599797  0.746104  1
  Si  Si27  1  0.984061  0.906903  0.749213  1
  Si  Si28  1  0.350512  0.971982  0.540069  1
  Si  Si29  1  0.648646  0.028039  0.042787  1
  Si  Si30  1  0.149558  0.470149  0.459412  1
  Si  Si31  1  0.157295  0.473664  0.043132  1
  Si  Si32  1  0.646543  0.029197  0.458897  1
  Si  Si33  1  0.352768  0.970132  0.960600  1
  Si  Si34  1  0.849784  0.528839  0.539657  1
  Ir  Ir35  1  0.854983  0.517952  0.953907  1
