# generated using pymatgen
data_Dy8Ta11Si16Rh
_symmetry_space_group_name_H-M   'P 1'
_cell_length_a   7.03042195
_cell_length_b   7.03042185
_cell_length_c   12.96727468
_cell_angle_alpha   89.79581970
_cell_angle_beta   90.20418082
_cell_angle_gamma   89.60825332
_symmetry_Int_Tables_number   1
_chemical_formula_structural   Dy8Ta11Si16Rh
_chemical_formula_sum   'Dy8 Ta11 Si16 Rh1'
_cell_volume   640.90813206
_cell_formula_units_Z   1
loop_
 _symmetry_equiv_pos_site_id
 _symmetry_equiv_pos_as_xyz
  1  'x, y, z'
loop_
 _atom_site_type_symbol
 _atom_site_label
 _atom_site_symmetry_multiplicity
 _atom_site_fract_x
 _atom_site_fract_y
 _atom_site_fract_z
 _atom_site_occupancy
  Dy  Dy0  1  0.996175  0.659222  0.031916  1
  Dy  Dy1  1  0.002501  0.342842  0.531636  1
  Dy  Dy2  1  0.659222  0.996175  0.968084  1
  Dy  Dy3  1  0.158534  0.504895  0.780732  1
  Dy  Dy4  1  0.841002  0.498037  0.283121  1
  Dy  Dy5  1  0.504895  0.158534  0.219268  1
  Dy  Dy6  1  0.498037  0.841002  0.716879  1
  Dy  Dy7  1  0.342842  0.002501  0.468364  1
  Ta  Ta8  1  0.341882  0.504449  0.375528  1
  Ta  Ta9  1  0.850855  0.996019  0.375301  1
  Ta  Ta10  1  0.006167  0.151938  0.125926  1
  Ta  Ta11  1  0.996019  0.850855  0.624699  1
  Ta  Ta12  1  0.504449  0.341882  0.624472  1
  Ta  Ta13  1  0.151938  0.006167  0.874074  1
  Ta  Ta14  1  0.826084  0.171631  0.747688  1
  Ta  Ta15  1  0.171631  0.826084  0.252312  1
  Ta  Ta16  1  0.329135  0.329135  0.000000  1
  Ta  Ta17  1  0.495072  0.652677  0.125537  1
  Ta  Ta18  1  0.652677  0.495072  0.874463  1
  Si  Si19  1  0.046758  0.709276  0.438200  1
  Si  Si20  1  0.954559  0.294592  0.935299  1
  Si  Si21  1  0.709276  0.046758  0.561800  1
  Si  Si22  1  0.205453  0.454639  0.186136  1
  Si  Si23  1  0.791386  0.550512  0.682911  1
  Si  Si24  1  0.454639  0.205453  0.813864  1
  Si  Si25  1  0.550512  0.791386  0.317089  1
  Si  Si26  1  0.294592  0.954559  0.064701  1
  Si  Si27  1  0.797498  0.864423  0.183442  1
  Si  Si28  1  0.296818  0.631334  0.567036  1
  Si  Si29  1  0.703697  0.365008  0.067726  1
  Si  Si30  1  0.631334  0.296818  0.432964  1
  Si  Si31  1  0.365008  0.703697  0.932274  1
  Si  Si32  1  0.134253  0.203676  0.317330  1
  Si  Si33  1  0.203676  0.134253  0.682670  1
  Si  Si34  1  0.864423  0.797498  0.816558  1
  Rh  Rh35  1  0.667001  0.667001  0.500000  1
