# generated using pymatgen
data_La5FeGe2
_symmetry_space_group_name_H-M   'P 1'
_cell_length_a   8.13267800
_cell_length_b   8.90306100
_cell_length_c   12.40090400
_cell_angle_alpha   90.00000000
_cell_angle_beta   90.00000000
_cell_angle_gamma   90.00000000
_symmetry_Int_Tables_number   1
_chemical_formula_structural   La5FeGe2
_chemical_formula_sum   'La20 Fe4 Ge8'
_cell_volume   897.89648604
_cell_formula_units_Z   4
loop_
 _symmetry_equiv_pos_site_id
 _symmetry_equiv_pos_as_xyz
  1  'x, y, z'
loop_
 _atom_site_type_symbol
 _atom_site_label
 _atom_site_symmetry_multiplicity
 _atom_site_fract_x
 _atom_site_fract_y
 _atom_site_fract_z
 _atom_site_occupancy
  La  La0  1  0.676834  0.476568  0.068930  1
  La  La1  1  0.176834  0.523432  0.431070  1
  La  La2  1  0.323166  0.976568  0.931070  1
  La  La3  1  0.823166  0.023432  0.568930  1
  La  La4  1  0.323166  0.523432  0.931070  1
  La  La5  1  0.823166  0.476568  0.568930  1
  La  La6  1  0.676834  0.023432  0.068930  1
  La  La7  1  0.176834  0.976568  0.431070  1
  La  La8  1  0.959211  0.750000  0.000711  1
  La  La9  1  0.459211  0.250000  0.499289  1
  La  La10  1  0.040789  0.250000  0.999289  1
  La  La11  1  0.540789  0.750000  0.500711  1
  La  La12  1  0.357062  0.750000  0.202974  1
  La  La13  1  0.857062  0.250000  0.297026  1
  La  La14  1  0.642938  0.250000  0.797026  1
  La  La15  1  0.142938  0.750000  0.702974  1
  La  La16  1  0.832604  0.750000  0.291543  1
  La  La17  1  0.332604  0.250000  0.208457  1
  La  La18  1  0.167396  0.250000  0.708457  1
  La  La19  1  0.667396  0.750000  0.791543  1
  Fe  Fe20  1  0.585034  0.750000  0.022457  1
  Fe  Fe21  1  0.085034  0.250000  0.477543  1
  Fe  Fe22  1  0.414966  0.250000  0.977543  1
  Fe  Fe23  1  0.914966  0.750000  0.522457  1
  Ge  Ge24  1  0.561300  0.493915  0.327274  1
  Ge  Ge25  1  0.061300  0.506085  0.172726  1
  Ge  Ge26  1  0.438700  0.993915  0.672726  1
  Ge  Ge27  1  0.938700  0.006085  0.827274  1
  Ge  Ge28  1  0.438700  0.506085  0.672726  1
  Ge  Ge29  1  0.938700  0.493915  0.827274  1
  Ge  Ge30  1  0.561300  0.006085  0.327274  1
  Ge  Ge31  1  0.061300  0.993915  0.172726  1
