# generated using pymatgen
data_LiTmCdPt3
_symmetry_space_group_name_H-M   'P 1'
_cell_length_a   5.11384209
_cell_length_b   5.11384147
_cell_length_c   5.11384132
_cell_angle_alpha   64.52976708
_cell_angle_beta   64.52977418
_cell_angle_gamma   64.52976336
_symmetry_Int_Tables_number   1
_chemical_formula_structural   LiTmCdPt3
_chemical_formula_sum   'Li1 Tm1 Cd1 Pt3'
_cell_volume   103.95632145
_cell_formula_units_Z   1
loop_
 _symmetry_equiv_pos_site_id
 _symmetry_equiv_pos_as_xyz
  1  'x, y, z'
loop_
 _atom_site_type_symbol
 _atom_site_label
 _atom_site_symmetry_multiplicity
 _atom_site_fract_x
 _atom_site_fract_y
 _atom_site_fract_z
 _atom_site_occupancy
  Li  Li0  1  0.626188  0.626188  0.626188  1
  Tm  Tm1  1  0.247819  0.247819  0.247819  1
  Cd  Cd2  1  0.998777  0.998777  0.998777  1
  Pt  Pt3  1  0.626153  0.626153  0.124911  1
  Pt  Pt4  1  0.626153  0.124911  0.626153  1
  Pt  Pt5  1  0.124911  0.626153  0.626153  1
