# generated using pymatgen
data_La2B8Os5Rh3
_symmetry_space_group_name_H-M   'P 1'
_cell_length_a   4.01387455
_cell_length_b   7.65306955
_cell_length_c   7.64770283
_cell_angle_alpha   89.83777683
_cell_angle_beta   90.02302867
_cell_angle_gamma   90.05536850
_symmetry_Int_Tables_number   1
_chemical_formula_structural   La2B8Os5Rh3
_chemical_formula_sum   'La2 B8 Os5 Rh3'
_cell_volume   234.92459170
_cell_formula_units_Z   1
loop_
 _symmetry_equiv_pos_site_id
 _symmetry_equiv_pos_as_xyz
  1  'x, y, z'
loop_
 _atom_site_type_symbol
 _atom_site_label
 _atom_site_symmetry_multiplicity
 _atom_site_fract_x
 _atom_site_fract_y
 _atom_site_fract_z
 _atom_site_occupancy
  La  La0  1  0.253317  0.250963  0.249912  1
  La  La1  1  0.760428  0.751171  0.750550  1
  B  B2  1  0.361591  0.914226  0.036423  1
  B  B3  1  0.358430  0.586171  0.460800  1
  B  B4  1  0.855251  0.530333  0.086132  1
  B  B5  1  0.859642  0.962006  0.413041  1
  B  B6  1  0.644680  0.095711  0.974029  1
  B  B7  1  0.641106  0.417485  0.537072  1
  B  B8  1  0.138907  0.462205  0.919284  1
  B  B9  1  0.142854  0.031416  0.585034  1
  Os  Os10  1  0.637876  0.359929  0.892501  1
  Os  Os11  1  0.855762  0.604117  0.357901  1
  Os  Os12  1  0.857723  0.897409  0.141933  1
  Os  Os13  1  0.357694  0.858259  0.396448  1
  Os  Os14  1  0.355640  0.642964  0.104092  1
  Rh  Rh15  1  0.140719  0.398259  0.636212  1
  Rh  Rh16  1  0.139330  0.098240  0.857972  1
  Rh  Rh17  1  0.639050  0.139136  0.600663  1
