# generated using pymatgen
data_MgScIn4Rh
_symmetry_space_group_name_H-M   'P 1'
_cell_length_a   4.60247500
_cell_length_b   4.55695400
_cell_length_c   7.36381500
_cell_angle_alpha   90.00000000
_cell_angle_beta   90.00000000
_cell_angle_gamma   90.00000000
_symmetry_Int_Tables_number   1
_chemical_formula_structural   MgScIn4Rh
_chemical_formula_sum   'Mg1 Sc1 In4 Rh1'
_cell_volume   154.44325711
_cell_formula_units_Z   1
loop_
 _symmetry_equiv_pos_site_id
 _symmetry_equiv_pos_as_xyz
  1  'x, y, z'
loop_
 _atom_site_type_symbol
 _atom_site_label
 _atom_site_symmetry_multiplicity
 _atom_site_fract_x
 _atom_site_fract_y
 _atom_site_fract_z
 _atom_site_occupancy
  Mg  Mg0  1  0.500000  0.000000  0.695535  1
  Sc  Sc1  1  0.000000  0.000000  0.007492  1
  In  In2  1  0.500000  0.500000  0.992598  1
  In  In3  1  0.000000  0.500000  0.296292  1
  In  In4  1  0.500000  0.000000  0.297981  1
  In  In5  1  0.000000  0.500000  0.708890  1
  Rh  Rh6  1  0.000000  0.000000  0.501213  1
