# generated using pymatgen
data_Y2Cr3Ni9As7
_symmetry_space_group_name_H-M   'P 1'
_cell_length_a   3.80057400
_cell_length_b   9.50314923
_cell_length_c   9.50315000
_cell_angle_alpha   119.99999573
_cell_angle_beta   90.00000000
_cell_angle_gamma   90.00000000
_symmetry_Int_Tables_number   1
_chemical_formula_structural   Y2Cr3Ni9As7
_chemical_formula_sum   'Y2 Cr3 Ni9 As7'
_cell_volume   297.24528653
_cell_formula_units_Z   1
loop_
 _symmetry_equiv_pos_site_id
 _symmetry_equiv_pos_as_xyz
  1  'x, y, z'
loop_
 _atom_site_type_symbol
 _atom_site_label
 _atom_site_symmetry_multiplicity
 _atom_site_fract_x
 _atom_site_fract_y
 _atom_site_fract_z
 _atom_site_occupancy
  Y  Y0  1  0.000000  0.666667  0.333333  1
  Y  Y1  1  0.500000  0.333333  0.666667  1
  Cr  Cr2  1  0.500000  0.778814  0.896572  1
  Cr  Cr3  1  0.500000  0.117758  0.221186  1
  Cr  Cr4  1  0.500000  0.103428  0.882242  1
  Ni  Ni5  1  0.000000  0.569334  0.939001  1
  Ni  Ni6  1  0.000000  0.369666  0.430666  1
  Ni  Ni7  1  0.000000  0.060999  0.630334  1
  Ni  Ni8  1  0.000000  0.874019  0.154970  1
  Ni  Ni9  1  0.000000  0.280951  0.125981  1
  Ni  Ni10  1  0.000000  0.845030  0.719049  1
  Ni  Ni11  1  0.500000  0.947307  0.381427  1
  Ni  Ni12  1  0.500000  0.434119  0.052693  1
  Ni  Ni13  1  0.500000  0.618573  0.565881  1
  As  As14  1  0.000000  0.000000  0.000000  1
  As  As15  1  0.500000  0.706664  0.115331  1
  As  As16  1  0.500000  0.408666  0.293336  1
  As  As17  1  0.500000  0.884669  0.591334  1
  As  As18  1  0.000000  0.588760  0.702059  1
  As  As19  1  0.000000  0.113299  0.411240  1
  As  As20  1  0.000000  0.297941  0.886701  1
