# generated using pymatgen
data_Tb3Nd2Dy3(WO6)4
_symmetry_space_group_name_H-M   'P 1'
_cell_length_a   5.46053707
_cell_length_b   7.78415779
_cell_length_c   11.56831005
_cell_angle_alpha   75.65339087
_cell_angle_beta   90.00279078
_cell_angle_gamma   90.01779328
_symmetry_Int_Tables_number   1
_chemical_formula_structural   Tb3Nd2Dy3(WO6)4
_chemical_formula_sum   'Tb3 Nd2 Dy3 W4 O24'
_cell_volume   476.38437733
_cell_formula_units_Z   1
loop_
 _symmetry_equiv_pos_site_id
 _symmetry_equiv_pos_as_xyz
  1  'x, y, z'
loop_
 _atom_site_type_symbol
 _atom_site_label
 _atom_site_symmetry_multiplicity
 _atom_site_fract_x
 _atom_site_fract_y
 _atom_site_fract_z
 _atom_site_occupancy
  Tb  Tb0  1  0.740659  0.000177  0.750262  1
  Tb  Tb1  1  0.259387  0.000152  0.249772  1
  Tb  Tb2  1  0.187322  0.797391  0.576651  1
  Nd  Nd3  1  0.684972  0.499737  0.750209  1
  Nd  Nd4  1  0.315141  0.499936  0.249977  1
  Dy  Dy5  1  0.812826  0.797184  0.076844  1
  Dy  Dy6  1  0.187122  0.202847  0.923087  1
  Dy  Dy7  1  0.812719  0.203069  0.423008  1
  W  W8  1  0.253229  0.726757  0.884877  1
  W  W9  1  0.747014  0.726691  0.384448  1
  W  W10  1  0.253099  0.273039  0.615320  1
  W  W11  1  0.746919  0.273164  0.115297  1
  O  O12  1  0.042660  0.940494  0.896300  1
  O  O13  1  0.530192  0.846944  0.931258  1
  O  O14  1  0.957152  0.940684  0.395953  1
  O  O15  1  0.456031  0.792329  0.728584  1
  O  O16  1  0.470839  0.847440  0.430252  1
  O  O17  1  0.986070  0.717190  0.770816  1
  O  O18  1  0.544936  0.792427  0.227741  1
  O  O19  1  0.852952  0.640117  0.545583  1
  O  O20  1  0.350898  0.493165  0.887674  1
  O  O21  1  0.013919  0.717342  0.270253  1
  O  O22  1  0.351766  0.506262  0.612405  1
  O  O23  1  0.854439  0.359252  0.954344  1
  O  O24  1  0.145561  0.640649  0.045806  1
  O  O25  1  0.648789  0.492992  0.387493  1
  O  O26  1  0.986457  0.282862  0.729839  1
  O  O27  1  0.649051  0.506755  0.112332  1
  O  O28  1  0.145673  0.359378  0.454269  1
  O  O29  1  0.455026  0.207286  0.772129  1
  O  O30  1  0.013624  0.282662  0.229669  1
  O  O31  1  0.529935  0.152881  0.569014  1
  O  O32  1  0.544884  0.207466  0.272047  1
  O  O33  1  0.041483  0.060505  0.603779  1
  O  O34  1  0.469820  0.153200  0.069013  1
  O  O35  1  0.957433  0.059575  0.103699  1
