# generated using pymatgen
data_Tm8Tc3OsC8
_symmetry_space_group_name_H-M   'P 1'
_cell_length_a   5.02119100
_cell_length_b   6.48097484
_cell_length_c   9.72440730
_cell_angle_alpha   89.81187879
_cell_angle_beta   90.00000000
_cell_angle_gamma   90.00000000
_symmetry_Int_Tables_number   1
_chemical_formula_structural   Tm8Tc3OsC8
_chemical_formula_sum   'Tm8 Tc3 Os1 C8'
_cell_volume   316.45202349
_cell_formula_units_Z   1
loop_
 _symmetry_equiv_pos_site_id
 _symmetry_equiv_pos_as_xyz
  1  'x, y, z'
loop_
 _atom_site_type_symbol
 _atom_site_label
 _atom_site_symmetry_multiplicity
 _atom_site_fract_x
 _atom_site_fract_y
 _atom_site_fract_z
 _atom_site_occupancy
  Tm  Tm0  1  0.250000  0.676613  0.557954  1
  Tm  Tm1  1  0.750000  0.322970  0.441422  1
  Tm  Tm2  1  0.750000  0.823917  0.058362  1
  Tm  Tm3  1  0.250000  0.175886  0.942296  1
  Tm  Tm4  1  0.250000  0.532174  0.217475  1
  Tm  Tm5  1  0.750000  0.465914  0.782336  1
  Tm  Tm6  1  0.750000  0.967486  0.715568  1
  Tm  Tm7  1  0.250000  0.031642  0.282570  1
  Tc  Tc8  1  0.250000  0.717485  0.867786  1
  Tc  Tc9  1  0.750000  0.282870  0.131328  1
  Tc  Tc10  1  0.750000  0.782058  0.368488  1
  Os  Os11  1  0.250000  0.217787  0.632430  1
  C  C12  1  0.250000  0.450712  0.758715  1
  C  C13  1  0.750000  0.549805  0.241238  1
  C  C14  1  0.750000  0.049628  0.259530  1
  C  C15  1  0.250000  0.951934  0.741402  1
  C  C16  1  0.250000  0.824879  0.052447  1
  C  C17  1  0.750000  0.175657  0.946459  1
  C  C18  1  0.750000  0.675109  0.554277  1
  C  C19  1  0.250000  0.325473  0.447916  1
