# generated using pymatgen
data_Dy3Ho9Co4NiSn
_symmetry_space_group_name_H-M   'P 1'
_cell_length_a   8.24534790
_cell_length_b   8.24534794
_cell_length_c   8.24446974
_cell_angle_alpha   106.99224040
_cell_angle_beta   110.54963764
_cell_angle_gamma   110.90427166
_symmetry_Int_Tables_number   1
_chemical_formula_structural   Dy3Ho9Co4NiSn
_chemical_formula_sum   'Dy3 Ho9 Co4 Ni1 Sn1'
_cell_volume   430.84846481
_cell_formula_units_Z   1
loop_
 _symmetry_equiv_pos_site_id
 _symmetry_equiv_pos_as_xyz
  1  'x, y, z'
loop_
 _atom_site_type_symbol
 _atom_site_label
 _atom_site_symmetry_multiplicity
 _atom_site_fract_x
 _atom_site_fract_y
 _atom_site_fract_z
 _atom_site_occupancy
  Dy  Dy0  1  0.803615  0.789039  0.592655  1
  Dy  Dy1  1  0.196373  0.789114  0.985486  1
  Dy  Dy2  1  0.803754  0.210941  0.014695  1
  Ho  Ho3  1  0.477505  0.292230  0.185369  1
  Ho  Ho4  1  0.106953  0.292251  0.814546  1
  Ho  Ho5  1  0.893139  0.707863  0.185369  1
  Ho  Ho6  1  0.522296  0.707594  0.814546  1
  Ho  Ho7  1  0.305322  0.619993  0.314797  1
  Ho  Ho8  1  0.305312  0.990678  0.685130  1
  Ho  Ho9  1  0.694453  0.379818  0.685130  1
  Ho  Ho10  1  0.694804  0.009474  0.314797  1
  Ho  Ho11  1  0.196446  0.210939  0.407385  1
  Co  Co12  1  0.500011  0.612799  0.112810  1
  Co  Co13  1  0.499921  0.387131  0.887053  1
  Co  Co14  1  0.376592  0.000096  0.376687  1
  Co  Co15  1  0.623319  0.999984  0.623302  1
  Ni  Ni16  1  0.000142  0.000141  0.000283  1
  Sn  Sn17  1  0.000044  0.499915  0.499959  1
