# generated using pymatgen
data_Tb12ZnNi4Pb
_symmetry_space_group_name_H-M   'P 1'
_cell_length_a   8.37963079
_cell_length_b   8.37963093
_cell_length_c   8.37963100
_cell_angle_alpha   110.01940298
_cell_angle_beta   111.32869612
_cell_angle_gamma   107.09421380
_symmetry_Int_Tables_number   1
_chemical_formula_structural   Tb12ZnNi4Pb
_chemical_formula_sum   'Tb12 Zn1 Ni4 Pb1'
_cell_volume   452.30922473
_cell_formula_units_Z   1
loop_
 _symmetry_equiv_pos_site_id
 _symmetry_equiv_pos_as_xyz
  1  'x, y, z'
loop_
 _atom_site_type_symbol
 _atom_site_label
 _atom_site_symmetry_multiplicity
 _atom_site_fract_x
 _atom_site_fract_y
 _atom_site_fract_z
 _atom_site_occupancy
  Tb  Tb0  1  0.288791  0.179921  0.468712  1
  Tb  Tb1  1  0.711209  0.820079  0.531288  1
  Tb  Tb2  1  0.288791  0.820079  0.108872  1
  Tb  Tb3  1  0.711209  0.179921  0.891128  1
  Tb  Tb4  1  0.627450  0.321162  0.306288  1
  Tb  Tb5  1  0.372550  0.678838  0.693712  1
  Tb  Tb6  1  0.014875  0.321162  0.693712  1
  Tb  Tb7  1  0.985125  0.678838  0.306288  1
  Tb  Tb8  1  0.225210  0.425353  0.200143  1
  Tb  Tb9  1  0.774790  0.574647  0.799857  1
  Tb  Tb10  1  0.225210  0.025066  0.799857  1
  Tb  Tb11  1  0.774790  0.974934  0.200143  1
  Zn  Zn12  1  0.000000  0.000000  0.000000  1
  Ni  Ni13  1  0.000000  0.358606  0.358606  1
  Ni  Ni14  1  0.000000  0.641394  0.641394  1
  Ni  Ni15  1  0.376198  0.876198  0.500000  1
  Ni  Ni16  1  0.623802  0.123802  0.500000  1
  Pb  Pb17  1  0.500000  0.500000  0.000000  1
