# generated using pymatgen
data_ZrZnTeO6
_symmetry_space_group_name_H-M   'P 1'
_cell_length_a   4.98253300
_cell_length_b   4.96073000
_cell_length_c   9.03152500
_cell_angle_alpha   90.00000000
_cell_angle_beta   90.00000000
_cell_angle_gamma   90.00000000
_symmetry_Int_Tables_number   1
_chemical_formula_structural   ZrZnTeO6
_chemical_formula_sum   'Zr2 Zn2 Te2 O12'
_cell_volume   223.23221182
_cell_formula_units_Z   2
loop_
 _symmetry_equiv_pos_site_id
 _symmetry_equiv_pos_as_xyz
  1  'x, y, z'
loop_
 _atom_site_type_symbol
 _atom_site_label
 _atom_site_symmetry_multiplicity
 _atom_site_fract_x
 _atom_site_fract_y
 _atom_site_fract_z
 _atom_site_occupancy
  Zr  Zr0  1  0.500000  0.000000  0.114537  1
  Zr  Zr1  1  0.000000  0.499999  0.885462  1
  Zn  Zn2  1  0.500000  0.499999  0.497100  1
  Zn  Zn3  1  0.000000  0.000000  0.502899  1
  Te  Te4  1  0.000000  0.499999  0.251000  1
  Te  Te5  1  0.500000  0.000000  0.749001  1
  O  O6  1  0.816882  0.311090  0.084865  1
  O  O7  1  0.183118  0.688908  0.084865  1
  O  O8  1  0.276451  0.230062  0.249420  1
  O  O9  1  0.723550  0.769938  0.249420  1
  O  O10  1  0.802445  0.298825  0.397046  1
  O  O11  1  0.197556  0.701175  0.397046  1
  O  O12  1  0.302444  0.201176  0.602954  1
  O  O13  1  0.697555  0.798825  0.602954  1
  O  O14  1  0.776451  0.269939  0.750580  1
  O  O15  1  0.223550  0.730061  0.750580  1
  O  O16  1  0.316882  0.188909  0.915135  1
  O  O17  1  0.683119  0.811091  0.915135  1
