# generated using pymatgen
data_K3Nd(GeO3)3
_symmetry_space_group_name_H-M   'P 1'
_cell_length_a   7.05368441
_cell_length_b   7.10078523
_cell_length_c   7.11921200
_cell_angle_alpha   109.04077521
_cell_angle_beta   106.78593177
_cell_angle_gamma   107.51913567
_symmetry_Int_Tables_number   1
_chemical_formula_structural   K3Nd(GeO3)3
_chemical_formula_sum   'K3 Nd1 Ge3 O9'
_cell_volume   290.30433445
_cell_formula_units_Z   1
loop_
 _symmetry_equiv_pos_site_id
 _symmetry_equiv_pos_as_xyz
  1  'x, y, z'
loop_
 _atom_site_type_symbol
 _atom_site_label
 _atom_site_symmetry_multiplicity
 _atom_site_fract_x
 _atom_site_fract_y
 _atom_site_fract_z
 _atom_site_occupancy
  K  K0  1  0.732044  0.890333  0.217702  1
  K  K1  1  0.591836  0.799399  0.647403  1
  K  K2  1  0.330012  0.179063  0.659411  1
  Nd  Nd3  1  0.060857  0.377018  0.097449  1
  Ge  Ge4  1  0.178472  0.900522  0.085862  1
  Ge  Ge5  1  0.593856  0.344520  0.232352  1
  Ge  Ge6  1  0.042209  0.488956  0.632968  1
  O  O7  1  0.684529  0.235662  0.035711  1
  O  O8  1  0.440637  0.485697  0.165822  1
  O  O9  1  0.105080  0.749063  0.224932  1
  O  O10  1  0.449332  0.122368  0.285888  1
  O  O11  1  0.180384  0.429398  0.469578  1
  O  O12  1  0.814710  0.542047  0.502793  1
  O  O13  1  0.961127  0.282318  0.715872  1
  O  O14  1  0.240712  0.754376  0.866953  1
  O  O15  1  0.987810  0.997808  0.995804  1
