# generated using pymatgen
data_HfZr3(MnB4)4
_symmetry_space_group_name_H-M   'P 1'
_cell_length_a   5.78642916
_cell_length_b   11.18615031
_cell_length_c   3.29255700
_cell_angle_alpha   90.00000000
_cell_angle_beta   90.00000000
_cell_angle_gamma   89.97291688
_symmetry_Int_Tables_number   1
_chemical_formula_structural   HfZr3(MnB4)4
_chemical_formula_sum   'Hf1 Zr3 Mn4 B16'
_cell_volume   213.12016572
_cell_formula_units_Z   1
loop_
 _symmetry_equiv_pos_site_id
 _symmetry_equiv_pos_as_xyz
  1  'x, y, z'
loop_
 _atom_site_type_symbol
 _atom_site_label
 _atom_site_symmetry_multiplicity
 _atom_site_fract_x
 _atom_site_fract_y
 _atom_site_fract_z
 _atom_site_occupancy
  Hf  Hf0  1  0.371722  0.850474  0.000000  1
  Zr  Zr1  1  0.628482  0.149529  0.000000  1
  Zr  Zr2  1  0.128026  0.350332  0.000000  1
  Zr  Zr3  1  0.872100  0.649733  0.000000  1
  Mn  Mn4  1  0.131781  0.088243  0.000000  1
  Mn  Mn5  1  0.631124  0.411463  0.000000  1
  Mn  Mn6  1  0.368895  0.589574  0.000000  1
  Mn  Mn7  1  0.868232  0.910838  0.000000  1
  B  B8  1  0.365301  0.031017  0.499999  1
  B  B9  1  0.886543  0.046487  0.499999  1
  B  B10  1  0.287534  0.185531  0.499999  1
  B  B11  1  0.976164  0.192812  0.499999  1
  B  B12  1  0.476081  0.306795  0.499999  1
  B  B13  1  0.787620  0.314038  0.499999  1
  B  B14  1  0.386223  0.453142  0.499999  1
  B  B15  1  0.865014  0.468312  0.499999  1
  B  B16  1  0.134975  0.532178  0.499999  1
  B  B17  1  0.613470  0.547523  0.499999  1
  B  B18  1  0.212696  0.686590  0.499999  1
  B  B19  1  0.522916  0.694076  0.499999  1
  B  B20  1  0.024568  0.806924  0.499999  1
  B  B21  1  0.711138  0.814406  0.499999  1
  B  B22  1  0.114863  0.952290  0.499999  1
  B  B23  1  0.634531  0.967692  0.499999  1
