# generated using pymatgen
data_Zr6Ga6PdRu2Pt3
_symmetry_space_group_name_H-M   'P 1'
_cell_length_a   7.35480900
_cell_length_b   7.35480924
_cell_length_c   6.77325400
_cell_angle_alpha   90.00000000
_cell_angle_beta   90.00000000
_cell_angle_gamma   119.99999442
_symmetry_Int_Tables_number   1
_chemical_formula_structural   Zr6Ga6PdRu2Pt3
_chemical_formula_sum   'Zr6 Ga6 Pd1 Ru2 Pt3'
_cell_volume   317.30055382
_cell_formula_units_Z   1
loop_
 _symmetry_equiv_pos_site_id
 _symmetry_equiv_pos_as_xyz
  1  'x, y, z'
loop_
 _atom_site_type_symbol
 _atom_site_label
 _atom_site_symmetry_multiplicity
 _atom_site_fract_x
 _atom_site_fract_y
 _atom_site_fract_z
 _atom_site_occupancy
  Zr  Zr0  1  0.403507  0.393607  0.750000  1
  Zr  Zr1  1  0.990100  0.596493  0.750000  1
  Zr  Zr2  1  0.606393  0.009900  0.750000  1
  Zr  Zr3  1  0.613585  0.011700  0.250000  1
  Zr  Zr4  1  0.988300  0.601884  0.250000  1
  Zr  Zr5  1  0.398116  0.386415  0.250000  1
  Ga  Ga6  1  0.273159  0.000322  0.998841  1
  Ga  Ga7  1  0.727163  0.726841  0.998841  1
  Ga  Ga8  1  0.999678  0.272837  0.998841  1
  Ga  Ga9  1  0.727163  0.726841  0.501159  1
  Ga  Ga10  1  0.273159  0.000322  0.501159  1
  Ga  Ga11  1  0.999678  0.272837  0.501159  1
  Pd  Pd12  1  0.000000  0.000000  0.750000  1
  Ru  Ru13  1  0.666667  0.333333  0.999825  1
  Ru  Ru14  1  0.666667  0.333333  0.500175  1
  Pt  Pt15  1  0.333333  0.666667  0.496757  1
  Pt  Pt16  1  0.333333  0.666667  0.003243  1
  Pt  Pt17  1  0.000000  0.000000  0.250000  1
