# generated using pymatgen
data_Tb4ErRu3
_symmetry_space_group_name_H-M   'P 1'
_cell_length_a   10.84909200
_cell_length_b   10.84909200
_cell_length_c   6.39459200
_cell_angle_alpha   90.00000000
_cell_angle_beta   90.00000000
_cell_angle_gamma   90.00000000
_symmetry_Int_Tables_number   1
_chemical_formula_structural   Tb4ErRu3
_chemical_formula_sum   'Tb16 Er4 Ru12'
_cell_volume   752.66136551
_cell_formula_units_Z   4
loop_
 _symmetry_equiv_pos_site_id
 _symmetry_equiv_pos_as_xyz
  1  'x, y, z'
loop_
 _atom_site_type_symbol
 _atom_site_label
 _atom_site_symmetry_multiplicity
 _atom_site_fract_x
 _atom_site_fract_y
 _atom_site_fract_z
 _atom_site_occupancy
  Tb  Tb0  1  0.291431  0.086770  0.377174  1
  Tb  Tb1  1  0.291431  0.913230  0.877174  1
  Tb  Tb2  1  0.708569  0.086770  0.877174  1
  Tb  Tb3  1  0.708569  0.913230  0.377174  1
  Tb  Tb4  1  0.586770  0.791431  0.877174  1
  Tb  Tb5  1  0.586770  0.208569  0.377174  1
  Tb  Tb6  1  0.413230  0.791431  0.377174  1
  Tb  Tb7  1  0.413230  0.208569  0.877174  1
  Tb  Tb8  1  0.208569  0.413230  0.622826  1
  Tb  Tb9  1  0.208569  0.586770  0.122826  1
  Tb  Tb10  1  0.791431  0.413230  0.122826  1
  Tb  Tb11  1  0.791431  0.586770  0.622826  1
  Tb  Tb12  1  0.913230  0.708569  0.122826  1
  Tb  Tb13  1  0.913230  0.291431  0.622826  1
  Tb  Tb14  1  0.086770  0.708569  0.622826  1
  Tb  Tb15  1  0.086770  0.291431  0.122826  1
  Er  Er16  1  0.000000  0.000000  0.500000  1
  Er  Er17  1  0.000000  0.000000  0.000000  1
  Er  Er18  1  0.500000  0.500000  0.000000  1
  Er  Er19  1  0.500000  0.500000  0.500000  1
  Ru  Ru20  1  0.847840  0.152160  0.250000  1
  Ru  Ru21  1  0.847840  0.847840  0.750000  1
  Ru  Ru22  1  0.152160  0.152160  0.750000  1
  Ru  Ru23  1  0.152160  0.847840  0.250000  1
  Ru  Ru24  1  0.652160  0.347840  0.750000  1
  Ru  Ru25  1  0.652160  0.652160  0.250000  1
  Ru  Ru26  1  0.347840  0.347840  0.250000  1
  Ru  Ru27  1  0.347840  0.652160  0.750000  1
  Ru  Ru28  1  0.500000  0.000000  0.121651  1
  Ru  Ru29  1  0.500000  0.000000  0.621651  1
  Ru  Ru30  1  0.000000  0.500000  0.878349  1
  Ru  Ru31  1  0.000000  0.500000  0.378349  1
