# generated using pymatgen
data_Li13In4Au
_symmetry_space_group_name_H-M   'P 1'
_cell_length_a   4.68139600
_cell_length_b   4.68139849
_cell_length_c   17.04276300
_cell_angle_alpha   90.00000000
_cell_angle_beta   90.00000000
_cell_angle_gamma   120.00002483
_symmetry_Int_Tables_number   1
_chemical_formula_structural   Li13In4Au
_chemical_formula_sum   'Li13 In4 Au1'
_cell_volume   323.46069681
_cell_formula_units_Z   1
loop_
 _symmetry_equiv_pos_site_id
 _symmetry_equiv_pos_as_xyz
  1  'x, y, z'
loop_
 _atom_site_type_symbol
 _atom_site_label
 _atom_site_symmetry_multiplicity
 _atom_site_fract_x
 _atom_site_fract_y
 _atom_site_fract_z
 _atom_site_occupancy
  Li  Li0  1  0.000000  0.000000  0.500000  1
  Li  Li1  1  0.000000  0.000000  0.674867  1
  Li  Li2  1  0.000000  0.000000  0.325133  1
  Li  Li3  1  0.000000  0.000000  0.842291  1
  Li  Li4  1  0.000000  0.000000  0.157709  1
  Li  Li5  1  0.333333  0.666667  0.951416  1
  Li  Li6  1  0.666667  0.333333  0.048584  1
  Li  Li7  1  0.333333  0.666667  0.447203  1
  Li  Li8  1  0.666667  0.333333  0.552797  1
  Li  Li9  1  0.333333  0.666667  0.284210  1
  Li  Li10  1  0.666667  0.333333  0.715790  1
  Li  Li11  1  0.333333  0.666667  0.115376  1
  Li  Li12  1  0.666667  0.333333  0.884624  1
  In  In13  1  0.333333  0.666667  0.782465  1
  In  In14  1  0.666667  0.333333  0.217535  1
  In  In15  1  0.333333  0.666667  0.611579  1
  In  In16  1  0.666667  0.333333  0.388421  1
  Au  Au17  1  0.000000  0.000000  0.000000  1
