# generated using pymatgen
data_Ti6AsSe
_symmetry_space_group_name_H-M   'P 1'
_cell_length_a   10.13998700
_cell_length_b   10.13998700
_cell_length_c   5.11724900
_cell_angle_alpha   90.00000000
_cell_angle_beta   90.00000000
_cell_angle_gamma   90.00000000
_symmetry_Int_Tables_number   1
_chemical_formula_structural   Ti6AsSe
_chemical_formula_sum   'Ti24 As4 Se4'
_cell_volume   526.15214617
_cell_formula_units_Z   4
loop_
 _symmetry_equiv_pos_site_id
 _symmetry_equiv_pos_as_xyz
  1  'x, y, z'
loop_
 _atom_site_type_symbol
 _atom_site_label
 _atom_site_symmetry_multiplicity
 _atom_site_fract_x
 _atom_site_fract_y
 _atom_site_fract_z
 _atom_site_occupancy
  Ti  Ti0  1  0.215502  0.681841  0.991504  1
  Ti  Ti1  1  0.784498  0.318159  0.991504  1
  Ti  Ti2  1  0.181841  0.284498  0.491504  1
  Ti  Ti3  1  0.818159  0.715502  0.491504  1
  Ti  Ti4  1  0.284888  0.817206  0.507158  1
  Ti  Ti5  1  0.715112  0.182794  0.507158  1
  Ti  Ti6  1  0.317206  0.215112  0.007158  1
  Ti  Ti7  1  0.682794  0.784888  0.007158  1
  Ti  Ti8  1  0.642937  0.528082  0.713661  1
  Ti  Ti9  1  0.357063  0.471918  0.713661  1
  Ti  Ti10  1  0.028082  0.857063  0.213661  1
  Ti  Ti11  1  0.971918  0.142937  0.213661  1
  Ti  Ti12  1  0.857238  0.972406  0.786814  1
  Ti  Ti13  1  0.142762  0.027594  0.786814  1
  Ti  Ti14  1  0.472406  0.642762  0.286814  1
  Ti  Ti15  1  0.527594  0.357238  0.286814  1
  Ti  Ti16  1  0.103096  0.582106  0.462693  1
  Ti  Ti17  1  0.896904  0.417894  0.462693  1
  Ti  Ti18  1  0.082106  0.396904  0.962693  1
  Ti  Ti19  1  0.917894  0.603096  0.962693  1
  Ti  Ti20  1  0.395718  0.917379  0.037668  1
  Ti  Ti21  1  0.604282  0.082621  0.037668  1
  Ti  Ti22  1  0.417379  0.104282  0.537668  1
  Ti  Ti23  1  0.582621  0.895718  0.537668  1
  As  As24  1  0.794574  0.960119  0.288248  1
  As  As25  1  0.205426  0.039881  0.288248  1
  As  As26  1  0.460119  0.705426  0.788248  1
  As  As27  1  0.539881  0.294574  0.788248  1
  Se  Se28  1  0.706841  0.540085  0.212253  1
  Se  Se29  1  0.293159  0.459915  0.212253  1
  Se  Se30  1  0.040085  0.793159  0.712253  1
  Se  Se31  1  0.959915  0.206841  0.712253  1
