# generated using pymatgen
data_Dy12Co2Ni3Sn
_symmetry_space_group_name_H-M   'P 1'
_cell_length_a   8.31681695
_cell_length_b   8.31697642
_cell_length_c   8.31681570
_cell_angle_alpha   108.05302051
_cell_angle_beta   109.24668345
_cell_angle_gamma   111.12808924
_symmetry_Int_Tables_number   1
_chemical_formula_structural   Dy12Co2Ni3Sn
_chemical_formula_sum   'Dy12 Co2 Ni3 Sn1'
_cell_volume   442.53013309
_cell_formula_units_Z   1
loop_
 _symmetry_equiv_pos_site_id
 _symmetry_equiv_pos_as_xyz
  1  'x, y, z'
loop_
 _atom_site_type_symbol
 _atom_site_label
 _atom_site_symmetry_multiplicity
 _atom_site_fract_x
 _atom_site_fract_y
 _atom_site_fract_z
 _atom_site_occupancy
  Dy  Dy0  1  0.476351  0.293569  0.182770  1
  Dy  Dy1  1  0.110799  0.293569  0.817218  1
  Dy  Dy2  1  0.889201  0.706431  0.182782  1
  Dy  Dy3  1  0.523649  0.706431  0.817230  1
  Dy  Dy4  1  0.307728  0.625916  0.318189  1
  Dy  Dy5  1  0.307725  0.989542  0.681816  1
  Dy  Dy6  1  0.692272  0.374084  0.681811  1
  Dy  Dy7  1  0.692275  0.010458  0.318184  1
  Dy  Dy8  1  0.192126  0.211060  0.403163  1
  Dy  Dy9  1  0.807874  0.788940  0.596837  1
  Dy  Dy10  1  0.192103  0.788940  0.981064  1
  Dy  Dy11  1  0.807897  0.211060  0.018936  1
  Co  Co12  1  0.500008  0.614539  0.114531  1
  Co  Co13  1  0.499992  0.385461  0.885469  1
  Ni  Ni14  1  0.365873  0.000000  0.365873  1
  Ni  Ni15  1  0.634127  0.000000  0.634127  1
  Ni  Ni16  1  0.000000  0.000000  0.000000  1
  Sn  Sn17  1  0.000000  0.500000  0.500000  1
