# generated using pymatgen
data_Sm4PdPb3O14
_symmetry_space_group_name_H-M   'P 1'
_cell_length_a   7.57565549
_cell_length_b   7.57292486
_cell_length_c   7.57292500
_cell_angle_alpha   60.00001247
_cell_angle_beta   60.01193527
_cell_angle_gamma   60.01194568
_symmetry_Int_Tables_number   1
_chemical_formula_structural   Sm4PdPb3O14
_chemical_formula_sum   'Sm4 Pd1 Pb3 O14'
_cell_volume   307.26346271
_cell_formula_units_Z   1
loop_
 _symmetry_equiv_pos_site_id
 _symmetry_equiv_pos_as_xyz
  1  'x, y, z'
loop_
 _atom_site_type_symbol
 _atom_site_label
 _atom_site_symmetry_multiplicity
 _atom_site_fract_x
 _atom_site_fract_y
 _atom_site_fract_z
 _atom_site_occupancy
  Sm  Sm0  1  0.625000  0.625000  0.125000  1
  Sm  Sm1  1  0.625000  0.625000  0.625000  1
  Sm  Sm2  1  0.625000  0.125000  0.625000  1
  Sm  Sm3  1  0.125000  0.625000  0.625000  1
  Pd  Pd4  1  0.625000  0.125000  0.125000  1
  Pb  Pb5  1  0.125000  0.125000  0.125000  1
  Pb  Pb6  1  0.125000  0.625000  0.125000  1
  Pb  Pb7  1  0.125000  0.125000  0.625000  1
  O  O8  1  0.018771  0.474706  0.474706  1
  O  O9  1  0.776866  0.797566  0.212783  1
  O  O10  1  0.776866  0.212783  0.212783  1
  O  O11  1  0.473134  0.037217  0.452434  1
  O  O12  1  0.747096  0.750968  0.750968  1
  O  O13  1  0.018771  0.031817  0.474706  1
  O  O14  1  0.018771  0.474706  0.031817  1
  O  O15  1  0.231229  0.775294  0.218183  1
  O  O16  1  0.231229  0.218183  0.775294  1
  O  O17  1  0.776866  0.212783  0.797566  1
  O  O18  1  0.502904  0.499032  0.499032  1
  O  O19  1  0.473134  0.037217  0.037217  1
  O  O20  1  0.473134  0.452434  0.037217  1
  O  O21  1  0.231229  0.775294  0.775294  1
