# generated using pymatgen
data_La9Nd(Cd2Ru3)2
_symmetry_space_group_name_H-M   'P 1'
_cell_length_a   8.71623067
_cell_length_b   8.80246990
_cell_length_c   8.80228615
_cell_angle_alpha   110.01878977
_cell_angle_beta   109.42862421
_cell_angle_gamma   109.35465357
_symmetry_Int_Tables_number   1
_chemical_formula_structural   La9Nd(Cd2Ru3)2
_chemical_formula_sum   'La9 Nd1 Cd4 Ru6'
_cell_volume   517.36178319
_cell_formula_units_Z   1
loop_
 _symmetry_equiv_pos_site_id
 _symmetry_equiv_pos_as_xyz
  1  'x, y, z'
loop_
 _atom_site_type_symbol
 _atom_site_label
 _atom_site_symmetry_multiplicity
 _atom_site_fract_x
 _atom_site_fract_y
 _atom_site_fract_z
 _atom_site_occupancy
  La  La0  1  0.750008  0.814675  0.064655  1
  La  La1  1  0.435334  0.249830  0.684704  1
  La  La2  1  0.685657  0.434281  0.249658  1
  La  La3  1  0.064710  0.749406  0.814457  1
  La  La4  1  0.814273  0.063945  0.748647  1
  La  La5  1  0.210591  0.211424  0.210869  1
  La  La6  1  0.498910  0.000761  0.288739  1
  La  La7  1  0.289343  0.500223  0.000771  1
  La  La8  1  0.000992  0.289851  0.501891  1
  Nd  Nd9  1  0.250061  0.679780  0.429762  1
  Cd  Cd10  1  0.498888  0.998092  0.907219  1
  Cd  Cd11  1  0.587591  0.589719  0.589107  1
  Cd  Cd12  1  0.912488  0.501515  0.002141  1
  Cd  Cd13  1  0.001120  0.908372  0.499195  1
  Ru  Ru14  1  0.249988  0.139980  0.889953  1
  Ru  Ru15  1  0.749981  0.361342  0.611344  1
  Ru  Ru16  1  0.891621  0.253710  0.140875  1
  Ru  Ru17  1  0.137522  0.893752  0.247526  1
  Ru  Ru18  1  0.608399  0.749297  0.362143  1
  Ru  Ru19  1  0.362523  0.610046  0.756346  1
