# generated using pymatgen
data_Ba3ErNpSe6
_symmetry_space_group_name_H-M   'P 1'
_cell_length_a   8.77055182
_cell_length_b   8.77055151
_cell_length_c   8.77055300
_cell_angle_alpha   92.46047852
_cell_angle_beta   92.46047843
_cell_angle_gamma   92.46047494
_symmetry_Int_Tables_number   1
_chemical_formula_structural   Ba3ErNpSe6
_chemical_formula_sum   'Ba6 Er2 Np2 Se12'
_cell_volume   672.73233526
_cell_formula_units_Z   2
loop_
 _symmetry_equiv_pos_site_id
 _symmetry_equiv_pos_as_xyz
  1  'x, y, z'
loop_
 _atom_site_type_symbol
 _atom_site_label
 _atom_site_symmetry_multiplicity
 _atom_site_fract_x
 _atom_site_fract_y
 _atom_site_fract_z
 _atom_site_occupancy
  Ba  Ba0  1  0.369719  0.750000  0.130281  1
  Ba  Ba1  1  0.130281  0.369719  0.750000  1
  Ba  Ba2  1  0.750000  0.130281  0.369719  1
  Ba  Ba3  1  0.630281  0.250000  0.869719  1
  Ba  Ba4  1  0.869719  0.630281  0.250000  1
  Ba  Ba5  1  0.250000  0.869719  0.630281  1
  Er  Er6  1  0.500000  0.500000  0.500000  1
  Er  Er7  1  0.000000  0.000000  0.000000  1
  Np  Np8  1  0.250000  0.250000  0.250000  1
  Np  Np9  1  0.750000  0.750000  0.750000  1
  Se  Se10  1  0.543161  0.410896  0.194842  1
  Se  Se11  1  0.194842  0.543161  0.410896  1
  Se  Se12  1  0.410896  0.194842  0.543161  1
  Se  Se13  1  0.956839  0.305158  0.089104  1
  Se  Se14  1  0.089104  0.956839  0.305158  1
  Se  Se15  1  0.305158  0.089104  0.956839  1
  Se  Se16  1  0.456839  0.589104  0.805158  1
  Se  Se17  1  0.805158  0.456839  0.589104  1
  Se  Se18  1  0.589104  0.805158  0.456839  1
  Se  Se19  1  0.043161  0.694842  0.910896  1
  Se  Se20  1  0.694842  0.910896  0.043161  1
  Se  Se21  1  0.910896  0.043161  0.694842  1
