# generated using pymatgen
data_Hf8AlTe6
_symmetry_space_group_name_H-M   'P 1'
_cell_length_a   3.89416700
_cell_length_b   7.67887200
_cell_length_c   25.62491400
_cell_angle_alpha   90.00000000
_cell_angle_beta   90.00000000
_cell_angle_gamma   90.00000000
_symmetry_Int_Tables_number   1
_chemical_formula_structural   Hf8AlTe6
_chemical_formula_sum   'Hf16 Al2 Te12'
_cell_volume   766.25693306
_cell_formula_units_Z   2
loop_
 _symmetry_equiv_pos_site_id
 _symmetry_equiv_pos_as_xyz
  1  'x, y, z'
loop_
 _atom_site_type_symbol
 _atom_site_label
 _atom_site_symmetry_multiplicity
 _atom_site_fract_x
 _atom_site_fract_y
 _atom_site_fract_z
 _atom_site_occupancy
  Hf  Hf0  1  0.000000  0.418812  0.000000  1
  Hf  Hf1  1  0.500000  0.444892  0.302856  1
  Hf  Hf2  1  0.000000  0.552714  0.596404  1
  Hf  Hf3  1  0.500000  0.447286  0.903596  1
  Hf  Hf4  1  0.500000  0.230643  0.570140  1
  Hf  Hf5  1  0.500000  0.581188  0.500000  1
  Hf  Hf6  1  0.000000  0.943914  0.500000  1
  Hf  Hf7  1  0.000000  0.769357  0.929860  1
  Hf  Hf8  1  0.500000  0.056086  0.000000  1
  Hf  Hf9  1  0.500000  0.230643  0.429860  1
  Hf  Hf10  1  0.000000  0.555108  0.802856  1
  Hf  Hf11  1  0.500000  0.447286  0.096404  1
  Hf  Hf12  1  0.000000  0.769357  0.070140  1
  Hf  Hf13  1  0.000000  0.555108  0.197144  1
  Hf  Hf14  1  0.000000  0.552714  0.403596  1
  Hf  Hf15  1  0.500000  0.444892  0.697144  1
  Al  Al16  1  0.500000  0.676501  0.000000  1
  Al  Al17  1  0.000000  0.323499  0.500000  1
  Te  Te18  1  0.000000  0.203620  0.343379  1
  Te  Te19  1  0.500000  0.280897  0.797744  1
  Te  Te20  1  0.500000  0.796380  0.843379  1
  Te  Te21  1  0.000000  0.719103  0.297744  1
  Te  Te22  1  0.500000  0.852088  0.582019  1
  Te  Te23  1  0.500000  0.280897  0.202256  1
  Te  Te24  1  0.500000  0.852088  0.417981  1
  Te  Te25  1  0.000000  0.719103  0.702256  1
  Te  Te26  1  0.000000  0.203620  0.656621  1
  Te  Te27  1  0.500000  0.796380  0.156621  1
  Te  Te28  1  0.000000  0.147912  0.917981  1
  Te  Te29  1  0.000000  0.147912  0.082019  1
