# generated using pymatgen
data_Ho6Tm10Cd4Ni3Ru
_symmetry_space_group_name_H-M   'P 1'
_cell_length_a   9.49674617
_cell_length_b   9.49554870
_cell_length_c   9.49967644
_cell_angle_alpha   59.45178051
_cell_angle_beta   59.47291497
_cell_angle_gamma   59.42168862
_symmetry_Int_Tables_number   1
_chemical_formula_structural   Ho6Tm10Cd4Ni3Ru
_chemical_formula_sum   'Ho6 Tm10 Cd4 Ni3 Ru1'
_cell_volume   598.14729767
_cell_formula_units_Z   1
loop_
 _symmetry_equiv_pos_site_id
 _symmetry_equiv_pos_as_xyz
  1  'x, y, z'
loop_
 _atom_site_type_symbol
 _atom_site_label
 _atom_site_symmetry_multiplicity
 _atom_site_fract_x
 _atom_site_fract_y
 _atom_site_fract_z
 _atom_site_occupancy
  Ho  Ho0  1  0.935933  0.565450  0.565465  1
  Ho  Ho1  1  0.559240  0.938637  0.938684  1
  Ho  Ho2  1  0.565443  0.935971  0.565437  1
  Ho  Ho3  1  0.938648  0.559279  0.938680  1
  Ho  Ho4  1  0.565452  0.565437  0.935947  1
  Ho  Ho5  1  0.938660  0.938638  0.559232  1
  Tm  Tm6  1  0.346867  0.346888  0.346919  1
  Tm  Tm7  1  0.351184  0.351161  0.954391  1
  Tm  Tm8  1  0.351210  0.954339  0.351199  1
  Tm  Tm9  1  0.954339  0.351180  0.351199  1
  Tm  Tm10  1  0.810480  0.187550  0.187474  1
  Tm  Tm11  1  0.185781  0.812133  0.812109  1
  Tm  Tm12  1  0.187524  0.810469  0.187477  1
  Tm  Tm13  1  0.812109  0.185802  0.812132  1
  Tm  Tm14  1  0.187523  0.187544  0.810471  1
  Tm  Tm15  1  0.812117  0.812155  0.185734  1
  Cd  Cd16  1  0.579985  0.580085  0.579921  1
  Cd  Cd17  1  0.579925  0.579947  0.256054  1
  Cd  Cd18  1  0.579947  0.256024  0.579914  1
  Cd  Cd19  1  0.256030  0.579956  0.579906  1
  Ni  Ni20  1  0.141805  0.141861  0.574500  1
  Ni  Ni21  1  0.141841  0.574156  0.141765  1
  Ni  Ni22  1  0.574425  0.141916  0.141796  1
  Ru  Ru23  1  0.143531  0.143419  0.143595  1
