# generated using pymatgen
data_Y8Sc12HgPb15
_symmetry_space_group_name_H-M   'P 1'
_cell_length_a   7.85364300
_cell_length_b   8.03643635
_cell_length_c   15.03466900
_cell_angle_alpha   90.00000000
_cell_angle_beta   90.00000000
_cell_angle_gamma   89.69036427
_symmetry_Int_Tables_number   1
_chemical_formula_structural   Y8Sc12HgPb15
_chemical_formula_sum   'Y8 Sc12 Hg1 Pb15'
_cell_volume   948.90381936
_cell_formula_units_Z   1
loop_
 _symmetry_equiv_pos_site_id
 _symmetry_equiv_pos_as_xyz
  1  'x, y, z'
loop_
 _atom_site_type_symbol
 _atom_site_label
 _atom_site_symmetry_multiplicity
 _atom_site_fract_x
 _atom_site_fract_y
 _atom_site_fract_z
 _atom_site_occupancy
  Y  Y0  1  0.018066  0.821294  0.094236  1
  Y  Y1  1  0.518301  0.675777  0.405869  1
  Y  Y2  1  0.481887  0.321979  0.904654  1
  Y  Y3  1  0.985314  0.178028  0.592242  1
  Y  Y4  1  0.985314  0.178028  0.907758  1
  Y  Y5  1  0.481887  0.321979  0.595346  1
  Y  Y6  1  0.518301  0.675777  0.094131  1
  Y  Y7  1  0.018066  0.821294  0.405764  1
  Sc  Sc8  1  0.813961  0.507699  0.750000  1
  Sc  Sc9  1  0.312874  0.992575  0.750000  1
  Sc  Sc10  1  0.680640  0.005582  0.250000  1
  Sc  Sc11  1  0.180535  0.495803  0.250000  1
  Sc  Sc12  1  0.348481  0.156798  0.125943  1
  Sc  Sc13  1  0.850429  0.344801  0.373970  1
  Sc  Sc14  1  0.140836  0.660637  0.871423  1
  Sc  Sc15  1  0.659544  0.842481  0.626142  1
  Sc  Sc16  1  0.659544  0.842481  0.873858  1
  Sc  Sc17  1  0.140836  0.660637  0.628577  1
  Sc  Sc18  1  0.850429  0.344801  0.126030  1
  Sc  Sc19  1  0.348481  0.156798  0.374057  1
  Hg  Hg20  1  0.958817  0.877916  0.750000  1
  Pb  Pb21  1  0.327267  0.843491  0.250000  1
  Pb  Pb22  1  0.826480  0.655410  0.250000  1
  Pb  Pb23  1  0.172291  0.346644  0.750000  1
  Pb  Pb24  1  0.683442  0.146707  0.750000  1
  Pb  Pb25  1  0.039794  0.129617  0.250000  1
  Pb  Pb26  1  0.540432  0.369597  0.250000  1
  Pb  Pb27  1  0.454929  0.632214  0.750000  1
  Pb  Pb28  1  0.195500  0.456710  0.042030  1
  Pb  Pb29  1  0.692713  0.044458  0.456782  1
  Pb  Pb30  1  0.309210  0.954022  0.955386  1
  Pb  Pb31  1  0.803986  0.541387  0.543980  1
  Pb  Pb32  1  0.803986  0.541387  0.956020  1
  Pb  Pb33  1  0.309210  0.954022  0.544614  1
  Pb  Pb34  1  0.692713  0.044458  0.043218  1
  Pb  Pb35  1  0.195500  0.456710  0.457970  1
