# generated using pymatgen
data_YbDyAlRh2
_symmetry_space_group_name_H-M   'P 1'
_cell_length_a   5.58876702
_cell_length_b   5.58876608
_cell_length_c   5.58876600
_cell_angle_alpha   137.95341986
_cell_angle_beta   117.33725334
_cell_angle_gamma   78.35614031
_symmetry_Int_Tables_number   1
_chemical_formula_structural   YbDyAlRh2
_chemical_formula_sum   'Yb1 Dy1 Al1 Rh2'
_cell_volume   100.97064938
_cell_formula_units_Z   1
loop_
 _symmetry_equiv_pos_site_id
 _symmetry_equiv_pos_as_xyz
  1  'x, y, z'
loop_
 _atom_site_type_symbol
 _atom_site_label
 _atom_site_symmetry_multiplicity
 _atom_site_fract_x
 _atom_site_fract_y
 _atom_site_fract_z
 _atom_site_occupancy
  Yb  Yb0  1  0.298364  0.798365  0.500001  1
  Dy  Dy1  1  0.699547  0.199548  0.499999  1
  Al  Al2  1  0.999499  0.999499  0.000000  1
  Rh  Rh3  1  0.742320  0.501294  0.241025  1
  Rh  Rh4  1  0.260268  0.501295  0.758975  1
