# generated using pymatgen
data_Th2Zr2In3Co2
_symmetry_space_group_name_H-M   'P 1'
_cell_length_a   3.58577600
_cell_length_b   7.45856130
_cell_length_c   8.17080500
_cell_angle_alpha   71.15884022
_cell_angle_beta   90.00000000
_cell_angle_gamma   90.00000000
_symmetry_Int_Tables_number   1
_chemical_formula_structural   Th2Zr2In3Co2
_chemical_formula_sum   'Th2 Zr2 In3 Co2'
_cell_volume   206.81680821
_cell_formula_units_Z   1
loop_
 _symmetry_equiv_pos_site_id
 _symmetry_equiv_pos_as_xyz
  1  'x, y, z'
loop_
 _atom_site_type_symbol
 _atom_site_label
 _atom_site_symmetry_multiplicity
 _atom_site_fract_x
 _atom_site_fract_y
 _atom_site_fract_z
 _atom_site_occupancy
  Th  Th0  1  0.500000  0.401962  0.320076  1
  Th  Th1  1  0.500000  0.598038  0.679924  1
  Zr  Zr2  1  0.500000  0.918421  0.218813  1
  Zr  Zr3  1  0.500000  0.081579  0.781187  1
  In  In4  1  0.000000  0.728149  0.003688  1
  In  In5  1  0.000000  0.271851  0.996312  1
  In  In6  1  0.000000  0.000000  0.500000  1
  Co  Co7  1  0.000000  0.674071  0.377371  1
  Co  Co8  1  0.000000  0.325929  0.622629  1
