# generated using pymatgen
data_Er20CdIn5Co2
_symmetry_space_group_name_H-M   'P 1'
_cell_length_a   9.62312586
_cell_length_b   9.66098524
_cell_length_c   9.56015800
_cell_angle_alpha   90.00000000
_cell_angle_beta   90.00000000
_cell_angle_gamma   120.13022105
_symmetry_Int_Tables_number   1
_chemical_formula_structural   Er20CdIn5Co2
_chemical_formula_sum   'Er20 Cd1 In5 Co2'
_cell_volume   768.70890217
_cell_formula_units_Z   1
loop_
 _symmetry_equiv_pos_site_id
 _symmetry_equiv_pos_as_xyz
  1  'x, y, z'
loop_
 _atom_site_type_symbol
 _atom_site_label
 _atom_site_symmetry_multiplicity
 _atom_site_fract_x
 _atom_site_fract_y
 _atom_site_fract_z
 _atom_site_occupancy
  Er  Er0  1  0.997569  0.998785  0.501756  1
  Er  Er1  1  0.997569  0.998785  0.998244  1
  Er  Er2  1  0.542959  0.458457  0.250000  1
  Er  Er3  1  0.542959  0.084503  0.250000  1
  Er  Er4  1  0.916753  0.458377  0.250000  1
  Er  Er5  1  0.460229  0.544424  0.750000  1
  Er  Er6  1  0.460229  0.915804  0.750000  1
  Er  Er7  1  0.084499  0.542249  0.750000  1
  Er  Er8  1  0.212539  0.787230  0.436489  1
  Er  Er9  1  0.212539  0.425309  0.436489  1
  Er  Er10  1  0.575538  0.787769  0.435561  1
  Er  Er11  1  0.787666  0.212837  0.563765  1
  Er  Er12  1  0.787666  0.574828  0.563765  1
  Er  Er13  1  0.424043  0.212022  0.564448  1
  Er  Er14  1  0.787666  0.212837  0.936235  1
  Er  Er15  1  0.787666  0.574828  0.936235  1
  Er  Er16  1  0.424043  0.212022  0.935552  1
  Er  Er17  1  0.212539  0.787230  0.063511  1
  Er  Er18  1  0.212539  0.425309  0.063511  1
  Er  Er19  1  0.575538  0.787769  0.064439  1
  Cd  Cd20  1  0.767265  0.883632  0.750000  1
  In  In21  1  0.883693  0.116960  0.250000  1
  In  In22  1  0.883693  0.766734  0.250000  1
  In  In23  1  0.232897  0.116449  0.250000  1
  In  In24  1  0.115351  0.882405  0.750000  1
  In  In25  1  0.115351  0.232945  0.750000  1
  Co  Co26  1  0.332238  0.666120  0.250000  1
  Co  Co27  1  0.666766  0.333382  0.750000  1
