# generated using pymatgen
data_Lu2BPdPt5
_symmetry_space_group_name_H-M   'P 1'
_cell_length_a   5.96036160
_cell_length_b   6.03042995
_cell_length_c   6.03043000
_cell_angle_alpha   56.57588724
_cell_angle_beta   57.53415217
_cell_angle_gamma   57.53415142
_symmetry_Int_Tables_number   1
_chemical_formula_structural   Lu2BPdPt5
_chemical_formula_sum   'Lu2 B1 Pd1 Pt5'
_cell_volume   143.40729847
_cell_formula_units_Z   1
loop_
 _symmetry_equiv_pos_site_id
 _symmetry_equiv_pos_as_xyz
  1  'x, y, z'
loop_
 _atom_site_type_symbol
 _atom_site_label
 _atom_site_symmetry_multiplicity
 _atom_site_fract_x
 _atom_site_fract_y
 _atom_site_fract_z
 _atom_site_occupancy
  Lu  Lu0  1  0.245978  0.244052  0.244052  1
  Lu  Lu1  1  0.760566  0.751497  0.751497  1
  B  B2  1  0.487775  0.507749  0.507749  1
  Pd  Pd3  1  0.749677  0.243526  0.243527  1
  Pt  Pt4  1  0.246138  0.747795  0.240164  1
  Pt  Pt5  1  0.756542  0.755378  0.249259  1
  Pt  Pt6  1  0.246138  0.240163  0.747796  1
  Pt  Pt7  1  0.756542  0.249260  0.755377  1
  Pt  Pt8  1  0.250644  0.760580  0.760579  1
