# generated using pymatgen
data_NaHoLu2(ReN3)4
_symmetry_space_group_name_H-M   'P 1'
_cell_length_a   7.35337829
_cell_length_b   7.35337833
_cell_length_c   6.19894384
_cell_angle_alpha   73.33233374
_cell_angle_beta   73.33233311
_cell_angle_gamma   82.64858172
_symmetry_Int_Tables_number   1
_chemical_formula_structural   NaHoLu2(ReN3)4
_chemical_formula_sum   'Na1 Ho1 Lu2 Re4 N12'
_cell_volume   307.23424666
_cell_formula_units_Z   1
loop_
 _symmetry_equiv_pos_site_id
 _symmetry_equiv_pos_as_xyz
  1  'x, y, z'
loop_
 _atom_site_type_symbol
 _atom_site_label
 _atom_site_symmetry_multiplicity
 _atom_site_fract_x
 _atom_site_fract_y
 _atom_site_fract_z
 _atom_site_occupancy
  Na  Na0  1  0.288357  0.711643  0.750000  1
  Ho  Ho1  1  0.712310  0.287690  0.250000  1
  Lu  Lu2  1  0.912236  0.087764  0.750000  1
  Lu  Lu3  1  0.092169  0.907831  0.250000  1
  Re  Re4  1  0.622137  0.799435  0.275670  1
  Re  Re5  1  0.200565  0.377863  0.224330  1
  Re  Re6  1  0.377744  0.205750  0.723622  1
  Re  Re7  1  0.794250  0.622256  0.776378  1
  N  N8  1  0.670562  0.627012  0.085263  1
  N  N9  1  0.384225  0.885126  0.303198  1
  N  N10  1  0.372988  0.329438  0.414737  1
  N  N11  1  0.114874  0.615775  0.196802  1
  N  N12  1  0.005851  0.211607  0.344138  1
  N  N13  1  0.788393  0.994149  0.155862  1
  N  N14  1  0.208339  0.021023  0.850910  1
  N  N15  1  0.627181  0.128984  0.671363  1
  N  N16  1  0.337809  0.359981  0.926709  1
  N  N17  1  0.871016  0.372819  0.828637  1
  N  N18  1  0.640019  0.662191  0.573291  1
  N  N19  1  0.978977  0.791661  0.649090  1
