# generated using pymatgen
data_Sc4V4Co16Si11P
_symmetry_space_group_name_H-M   'P 1'
_cell_length_a   3.63555500
_cell_length_b   10.41841272
_cell_length_c   11.98245699
_cell_angle_alpha   89.93409665
_cell_angle_beta   90.00000000
_cell_angle_gamma   90.00000000
_symmetry_Int_Tables_number   1
_chemical_formula_structural   Sc4V4Co16Si11P
_chemical_formula_sum   'Sc4 V4 Co16 Si11 P1'
_cell_volume   453.85577751
_cell_formula_units_Z   1
loop_
 _symmetry_equiv_pos_site_id
 _symmetry_equiv_pos_as_xyz
  1  'x, y, z'
loop_
 _atom_site_type_symbol
 _atom_site_label
 _atom_site_symmetry_multiplicity
 _atom_site_fract_x
 _atom_site_fract_y
 _atom_site_fract_z
 _atom_site_occupancy
  Sc  Sc0  1  0.250000  0.576108  0.705311  1
  Sc  Sc1  1  0.250000  0.926784  0.201839  1
  Sc  Sc2  1  0.750000  0.423639  0.295786  1
  Sc  Sc3  1  0.750000  0.076637  0.793852  1
  V  V4  1  0.250000  0.695994  0.992405  1
  V  V5  1  0.250000  0.803710  0.493241  1
  V  V6  1  0.750000  0.301233  0.009059  1
  V  V7  1  0.750000  0.196645  0.506700  1
  Co  Co8  1  0.250000  0.403957  0.486644  1
  Co  Co9  1  0.250000  0.094293  0.989065  1
  Co  Co10  1  0.750000  0.595312  0.513657  1
  Co  Co11  1  0.750000  0.910626  0.015382  1
  Co  Co12  1  0.250000  0.213506  0.169355  1
  Co  Co13  1  0.250000  0.283566  0.670353  1
  Co  Co14  1  0.750000  0.785138  0.831954  1
  Co  Co15  1  0.750000  0.715602  0.329846  1
  Co  Co16  1  0.250000  0.878908  0.699721  1
  Co  Co17  1  0.250000  0.621591  0.199476  1
  Co  Co18  1  0.750000  0.120624  0.296208  1
  Co  Co19  1  0.750000  0.377460  0.801396  1
  Co  Co20  1  0.250000  0.462265  0.934211  1
  Co  Co21  1  0.250000  0.036417  0.431082  1
  Co  Co22  1  0.750000  0.536418  0.067152  1
  Co  Co23  1  0.750000  0.963178  0.565537  1
  Si  Si24  1  0.250000  0.421056  0.119996  1
  Si  Si25  1  0.250000  0.078072  0.618025  1
  Si  Si26  1  0.750000  0.577710  0.881098  1
  Si  Si27  1  0.750000  0.921357  0.379489  1
  Si  Si28  1  0.250000  0.261131  0.860630  1
  Si  Si29  1  0.250000  0.237577  0.358983  1
  Si  Si30  1  0.750000  0.738512  0.140003  1
  Si  Si31  1  0.750000  0.762491  0.641584  1
  Si  Si32  1  0.250000  0.595492  0.390776  1
  Si  Si33  1  0.250000  0.905366  0.890916  1
  Si  Si34  1  0.750000  0.404104  0.610090  1
  P  P35  1  0.750000  0.097521  0.109180  1
