# generated using pymatgen
data_Cs5K(MoH9)3
_symmetry_space_group_name_H-M   'P 1'
_cell_length_a   10.80025490
_cell_length_b   10.80025452
_cell_length_c   6.19927800
_cell_angle_alpha   90.00000000
_cell_angle_beta   90.00000000
_cell_angle_gamma   126.33409907
_symmetry_Int_Tables_number   1
_chemical_formula_structural   Cs5K(MoH9)3
_chemical_formula_sum   'Cs5 K1 Mo3 H27'
_cell_volume   582.52628142
_cell_formula_units_Z   1
loop_
 _symmetry_equiv_pos_site_id
 _symmetry_equiv_pos_as_xyz
  1  'x, y, z'
loop_
 _atom_site_type_symbol
 _atom_site_label
 _atom_site_symmetry_multiplicity
 _atom_site_fract_x
 _atom_site_fract_y
 _atom_site_fract_z
 _atom_site_occupancy
  Cs  Cs0  1  0.239161  0.017956  0.500000  1
  Cs  Cs1  1  0.017956  0.239161  0.500000  1
  Cs  Cs2  1  0.598491  0.956005  0.000000  1
  Cs  Cs3  1  0.956005  0.598491  0.000000  1
  Cs  Cs4  1  0.408025  0.408025  0.000000  1
  K  K5  1  0.742518  0.742518  0.500000  1
  Mo  Mo6  1  0.978044  0.978044  0.000000  1
  Mo  Mo7  1  0.331655  0.658931  0.500000  1
  Mo  Mo8  1  0.658931  0.331655  0.500000  1
  H  H9  1  0.859471  0.970565  0.206931  1
  H  H10  1  0.970565  0.859471  0.206931  1
  H  H11  1  0.859471  0.970565  0.793069  1
  H  H12  1  0.970565  0.859471  0.793069  1
  H  H13  1  0.111375  0.111375  0.194932  1
  H  H14  1  0.111375  0.111375  0.805068  1
  H  H15  1  0.143957  0.984762  0.000000  1
  H  H16  1  0.984762  0.143957  0.000000  1
  H  H17  1  0.797007  0.797007  0.000000  1
  H  H18  1  0.278649  0.567767  0.251355  1
  H  H19  1  0.490134  0.721869  0.345901  1
  H  H20  1  0.278649  0.567767  0.748645  1
  H  H21  1  0.567767  0.278649  0.748645  1
  H  H22  1  0.251916  0.736019  0.332274  1
  H  H23  1  0.490134  0.721869  0.654099  1
  H  H24  1  0.721869  0.490134  0.654099  1
  H  H25  1  0.567767  0.278649  0.251355  1
  H  H26  1  0.251916  0.736019  0.667726  1
  H  H27  1  0.721869  0.490134  0.345901  1
  H  H28  1  0.736019  0.251916  0.667726  1
  H  H29  1  0.736019  0.251916  0.332274  1
  H  H30  1  0.362160  0.517583  0.500000  1
  H  H31  1  0.468584  0.854791  0.500000  1
  H  H32  1  0.517583  0.362160  0.500000  1
  H  H33  1  0.225243  0.739599  0.500000  1
  H  H34  1  0.854791  0.468584  0.500000  1
  H  H35  1  0.739599  0.225243  0.500000  1
