# generated using pymatgen
data_LaNd3Al13Au9
_symmetry_space_group_name_H-M   'P 1'
_cell_length_a   11.76752200
_cell_length_b   11.76752151
_cell_length_c   4.27265400
_cell_angle_alpha   90.00000000
_cell_angle_beta   90.00000000
_cell_angle_gamma   119.99999576
_symmetry_Int_Tables_number   1
_chemical_formula_structural   LaNd3Al13Au9
_chemical_formula_sum   'La1 Nd3 Al13 Au9'
_cell_volume   512.38734495
_cell_formula_units_Z   1
loop_
 _symmetry_equiv_pos_site_id
 _symmetry_equiv_pos_as_xyz
  1  'x, y, z'
loop_
 _atom_site_type_symbol
 _atom_site_label
 _atom_site_symmetry_multiplicity
 _atom_site_fract_x
 _atom_site_fract_y
 _atom_site_fract_z
 _atom_site_occupancy
  La  La0  1  0.666667  0.333333  0.000000  1
  Nd  Nd1  1  0.204670  0.795330  0.500000  1
  Nd  Nd2  1  0.590660  0.795330  0.500000  1
  Nd  Nd3  1  0.204670  0.409340  0.500000  1
  Al  Al4  1  0.948069  0.291443  0.000000  1
  Al  Al5  1  0.708557  0.656626  0.000000  1
  Al  Al6  1  0.948069  0.656626  0.000000  1
  Al  Al7  1  0.343374  0.051931  0.000000  1
  Al  Al8  1  0.165349  0.082674  0.500000  1
  Al  Al9  1  0.917326  0.834651  0.500000  1
  Al  Al10  1  0.708557  0.051931  0.000000  1
  Al  Al11  1  0.531534  0.063065  0.500000  1
  Al  Al12  1  0.917326  0.082674  0.500000  1
  Al  Al13  1  0.343374  0.291443  0.000000  1
  Al  Al14  1  0.531534  0.468466  0.500000  1
  Al  Al15  1  0.936935  0.468466  0.500000  1
  Al  Al16  1  0.333333  0.666667  0.000000  1
  Au  Au17  1  0.457826  0.542174  0.000000  1
  Au  Au18  1  0.827889  0.913945  0.000000  1
  Au  Au19  1  0.457826  0.915650  0.000000  1
  Au  Au20  1  0.086055  0.172111  0.000000  1
  Au  Au21  1  0.086055  0.913945  0.000000  1
  Au  Au22  1  0.790213  0.580425  0.500000  1
  Au  Au23  1  0.084350  0.542174  0.000000  1
  Au  Au24  1  0.790213  0.209787  0.500000  1
  Au  Au25  1  0.419575  0.209787  0.500000  1
