# generated using pymatgen
data_Sr5NdCd2(RhO6)2
_symmetry_space_group_name_H-M   'P 1'
_cell_length_a   6.79722680
_cell_length_b   6.79722822
_cell_length_c   6.83571857
_cell_angle_alpha   90.11872823
_cell_angle_beta   90.11872912
_cell_angle_gamma   90.55382799
_symmetry_Int_Tables_number   1
_chemical_formula_structural   Sr5NdCd2(RhO6)2
_chemical_formula_sum   'Sr5 Nd1 Cd2 Rh2 O12'
_cell_volume   315.80980892
_cell_formula_units_Z   1
loop_
 _symmetry_equiv_pos_site_id
 _symmetry_equiv_pos_as_xyz
  1  'x, y, z'
loop_
 _atom_site_type_symbol
 _atom_site_label
 _atom_site_symmetry_multiplicity
 _atom_site_fract_x
 _atom_site_fract_y
 _atom_site_fract_z
 _atom_site_occupancy
  Sr  Sr0  1  0.115635  0.384365  0.750000  1
  Sr  Sr1  1  0.250041  0.885365  0.615793  1
  Sr  Sr2  1  0.614635  0.249959  0.884207  1
  Sr  Sr3  1  0.384858  0.750229  0.112765  1
  Sr  Sr4  1  0.749771  0.115142  0.387235  1
  Nd  Nd5  1  0.886089  0.613911  0.250000  1
  Cd  Cd6  1  0.749649  0.750351  0.750000  1
  Cd  Cd7  1  0.252342  0.247658  0.250000  1
  Rh  Rh8  1  0.998318  0.000627  0.003735  1
  Rh  Rh9  1  0.499373  0.501682  0.496265  1
  O  O10  1  0.447533  0.582553  0.783361  1
  O  O11  1  0.592587  0.783628  0.441426  1
  O  O12  1  0.948291  0.297257  0.089322  1
  O  O13  1  0.563152  0.425860  0.210942  1
  O  O14  1  0.202743  0.551709  0.410678  1
  O  O15  1  0.045675  0.710169  0.930607  1
  O  O16  1  0.789831  0.454325  0.569393  1
  O  O17  1  0.716372  0.907413  0.058574  1
  O  O18  1  0.074140  0.936848  0.289058  1
  O  O19  1  0.917447  0.052467  0.716639  1
  O  O20  1  0.414399  0.212881  0.548416  1
  O  O21  1  0.287119  0.085601  0.951584  1
