# generated using pymatgen
data_ErLu19Sn16
_symmetry_space_group_name_H-M   'P 1'
_cell_length_a   7.91840842
_cell_length_b   8.01000248
_cell_length_c   15.17274087
_cell_angle_alpha   89.99852447
_cell_angle_beta   89.63959865
_cell_angle_gamma   89.92490161
_symmetry_Int_Tables_number   1
_chemical_formula_structural   ErLu19Sn16
_chemical_formula_sum   'Er1 Lu19 Sn16'
_cell_volume   962.33354505
_cell_formula_units_Z   1
loop_
 _symmetry_equiv_pos_site_id
 _symmetry_equiv_pos_as_xyz
  1  'x, y, z'
loop_
 _atom_site_type_symbol
 _atom_site_label
 _atom_site_symmetry_multiplicity
 _atom_site_fract_x
 _atom_site_fract_y
 _atom_site_fract_z
 _atom_site_occupancy
  Er  Er0  1  0.019316  0.178748  0.905310  1
  Lu  Lu1  1  0.366981  0.838368  0.876107  1
  Lu  Lu2  1  0.870430  0.661644  0.622135  1
  Lu  Lu3  1  0.629048  0.160858  0.376781  1
  Lu  Lu4  1  0.132270  0.339055  0.124056  1
  Lu  Lu5  1  0.632897  0.162279  0.124045  1
  Lu  Lu6  1  0.129385  0.338613  0.376982  1
  Lu  Lu7  1  0.371596  0.838535  0.622703  1
  Lu  Lu8  1  0.869189  0.661516  0.876333  1
  Lu  Lu9  1  0.523751  0.322461  0.904327  1
  Lu  Lu10  1  0.027208  0.178382  0.597300  1
  Lu  Lu11  1  0.474494  0.678046  0.402864  1
  Lu  Lu12  1  0.977581  0.820373  0.095981  1
  Lu  Lu13  1  0.475975  0.678533  0.096407  1
  Lu  Lu14  1  0.973495  0.822021  0.402965  1
  Lu  Lu15  1  0.525306  0.321684  0.595698  1
  Lu  Lu16  1  0.199721  0.504691  0.749165  1
  Lu  Lu17  1  0.699531  0.994757  0.749172  1
  Lu  Lu18  1  0.800300  0.495366  0.250471  1
  Lu  Lu19  1  0.300703  0.004773  0.250673  1
  Sn  Sn20  1  0.296076  0.036643  0.042699  1
  Sn  Sn21  1  0.790231  0.462903  0.458452  1
  Sn  Sn22  1  0.710725  0.964252  0.541336  1
  Sn  Sn23  1  0.208331  0.539521  0.959176  1
  Sn  Sn24  1  0.701993  0.957827  0.959863  1
  Sn  Sn25  1  0.210383  0.537279  0.541014  1
  Sn  Sn26  1  0.289737  0.036044  0.458529  1
  Sn  Sn27  1  0.793019  0.462856  0.041386  1
  Sn  Sn28  1  0.565355  0.619090  0.749820  1
  Sn  Sn29  1  0.065826  0.880264  0.749280  1
  Sn  Sn30  1  0.434946  0.381857  0.250276  1
  Sn  Sn31  1  0.934883  0.118526  0.250215  1
  Sn  Sn32  1  0.336861  0.152237  0.749966  1
  Sn  Sn33  1  0.833701  0.349432  0.748872  1
  Sn  Sn34  1  0.664749  0.848263  0.249587  1
  Sn  Sn35  1  0.164008  0.652304  0.250050  1
