# generated using pymatgen
data_Ho3Ir2Rh7
_symmetry_space_group_name_H-M   'P 1'
_cell_length_a   5.24646300
_cell_length_b   5.24932937
_cell_length_c   17.54358100
_cell_angle_alpha   90.00542469
_cell_angle_beta   90.00000000
_cell_angle_gamma   119.98193230
_symmetry_Int_Tables_number   1
_chemical_formula_structural   Ho3Ir2Rh7
_chemical_formula_sum   'Ho6 Ir4 Rh14'
_cell_volume   418.50278589
_cell_formula_units_Z   2
loop_
 _symmetry_equiv_pos_site_id
 _symmetry_equiv_pos_as_xyz
  1  'x, y, z'
loop_
 _atom_site_type_symbol
 _atom_site_label
 _atom_site_symmetry_multiplicity
 _atom_site_fract_x
 _atom_site_fract_y
 _atom_site_fract_z
 _atom_site_occupancy
  Ho  Ho0  1  0.333964  0.667928  0.041306  1
  Ho  Ho1  1  0.333398  0.666798  0.249060  1
  Ho  Ho2  1  0.333343  0.666686  0.458479  1
  Ho  Ho3  1  0.666591  0.333182  0.541362  1
  Ho  Ho4  1  0.666558  0.333116  0.750119  1
  Ho  Ho5  1  0.666652  0.333305  0.958967  1
  Ir  Ir6  1  0.001520  0.003041  0.999801  1
  Ir  Ir7  1  0.334259  0.165495  0.125791  1
  Ir  Ir8  1  0.831235  0.165495  0.125791  1
  Ir  Ir9  1  0.999803  0.999607  0.500044  1
  Rh  Rh10  1  0.831798  0.663598  0.125063  1
  Rh  Rh11  1  0.000514  0.001029  0.249808  1
  Rh  Rh12  1  0.666940  0.333880  0.250124  1
  Rh  Rh13  1  0.334557  0.167177  0.375142  1
  Rh  Rh14  1  0.832618  0.167177  0.375142  1
  Rh  Rh15  1  0.833054  0.666108  0.374834  1
  Rh  Rh16  1  0.167183  0.334365  0.625218  1
  Rh  Rh17  1  0.167302  0.832944  0.625250  1
  Rh  Rh18  1  0.665643  0.832944  0.625250  1
  Rh  Rh19  1  0.000379  0.000759  0.750048  1
  Rh  Rh20  1  0.333198  0.666396  0.749778  1
  Rh  Rh21  1  0.167107  0.334215  0.874713  1
  Rh  Rh22  1  0.166833  0.832380  0.874458  1
  Rh  Rh23  1  0.665548  0.832380  0.874458  1
