# generated using pymatgen
data_SrTb4Pr2RuI12
_symmetry_space_group_name_H-M   'P 1'
_cell_length_a   9.97427285
_cell_length_b   9.93791815
_cell_length_c   9.96670283
_cell_angle_alpha   106.31773799
_cell_angle_beta   106.11996700
_cell_angle_gamma   106.70574278
_symmetry_Int_Tables_number   1
_chemical_formula_structural   SrTb4Pr2RuI12
_chemical_formula_sum   'Sr1 Tb4 Pr2 Ru1 I12'
_cell_volume   836.24453832
_cell_formula_units_Z   1
loop_
 _symmetry_equiv_pos_site_id
 _symmetry_equiv_pos_as_xyz
  1  'x, y, z'
loop_
 _atom_site_type_symbol
 _atom_site_label
 _atom_site_symmetry_multiplicity
 _atom_site_fract_x
 _atom_site_fract_y
 _atom_site_fract_z
 _atom_site_occupancy
  Sr  Sr0  1  0.498555  0.500298  0.499371  1
  Tb  Tb1  1  0.698728  0.978228  0.905468  1
  Tb  Tb2  1  0.092856  0.288374  0.020593  1
  Tb  Tb3  1  0.019924  0.093507  0.286639  1
  Tb  Tb4  1  0.302808  0.021266  0.098647  1
  Pr  Pr5  1  0.905057  0.700716  0.978156  1
  Pr  Pr6  1  0.981083  0.907428  0.703068  1
  Ru  Ru7  1  0.000638  0.998406  0.999198  1
  I  I8  1  0.626147  0.863550  0.554245  1
  I  I9  1  0.544570  0.631876  0.858362  1
  I  I10  1  0.854829  0.543104  0.623613  1
  I  I11  1  0.363822  0.137276  0.446598  1
  I  I12  1  0.446310  0.367638  0.138037  1
  I  I13  1  0.137582  0.446481  0.364868  1
  I  I14  1  0.681708  0.074627  0.224139  1
  I  I15  1  0.231716  0.683050  0.077145  1
  I  I16  1  0.078410  0.235404  0.687002  1
  I  I17  1  0.329935  0.930224  0.784667  1
  I  I18  1  0.778571  0.315449  0.926801  1
  I  I19  1  0.926751  0.783099  0.323382  1
