# generated using pymatgen
data_Pr3BRuO9
_symmetry_space_group_name_H-M   'P 1'
_cell_length_a   8.78849800
_cell_length_b   8.78850064
_cell_length_c   5.64079000
_cell_angle_alpha   90.00000000
_cell_angle_beta   90.00000000
_cell_angle_gamma   119.99999759
_symmetry_Int_Tables_number   1
_chemical_formula_structural   Pr3BRuO9
_chemical_formula_sum   'Pr6 B2 Ru2 O18'
_cell_volume   377.31148152
_cell_formula_units_Z   2
loop_
 _symmetry_equiv_pos_site_id
 _symmetry_equiv_pos_as_xyz
  1  'x, y, z'
loop_
 _atom_site_type_symbol
 _atom_site_label
 _atom_site_symmetry_multiplicity
 _atom_site_fract_x
 _atom_site_fract_y
 _atom_site_fract_z
 _atom_site_occupancy
  Pr  Pr0  1  0.359157  0.082080  0.198874  1
  Pr  Pr1  1  0.917921  0.277077  0.198874  1
  Pr  Pr2  1  0.722924  0.640844  0.198874  1
  Pr  Pr3  1  0.277077  0.359157  0.698873  1
  Pr  Pr4  1  0.082080  0.722924  0.698873  1
  Pr  Pr5  1  0.640844  0.917921  0.698873  1
  B  B6  1  0.000000  0.000000  0.363338  1
  B  B7  1  0.000000  0.000000  0.863337  1
  Ru  Ru8  1  0.333335  0.666667  0.246681  1
  Ru  Ru9  1  0.666665  0.333332  0.746682  1
  O  O10  1  0.207525  0.469364  0.044130  1
  O  O11  1  0.261837  0.792473  0.044130  1
  O  O12  1  0.530635  0.738163  0.044132  1
  O  O13  1  0.129372  0.175201  0.355294  1
  O  O14  1  0.045829  0.870629  0.355294  1
  O  O15  1  0.824799  0.954171  0.355294  1
  O  O16  1  0.134717  0.518386  0.468096  1
  O  O17  1  0.481613  0.616330  0.468096  1
  O  O18  1  0.383669  0.865283  0.468096  1
  O  O19  1  0.792473  0.530636  0.544129  1
  O  O20  1  0.738162  0.207528  0.544131  1
  O  O21  1  0.469364  0.261838  0.544131  1
  O  O22  1  0.175202  0.045830  0.855295  1
  O  O23  1  0.954170  0.129372  0.855295  1
  O  O24  1  0.870629  0.824798  0.855295  1
  O  O25  1  0.616331  0.134718  0.968095  1
  O  O26  1  0.518387  0.383669  0.968095  1
  O  O27  1  0.865283  0.481614  0.968096  1
