# generated using pymatgen
data_NaGaPIr2
_symmetry_space_group_name_H-M   'P 1'
_cell_length_a   5.84112955
_cell_length_b   5.84112822
_cell_length_c   5.84112994
_cell_angle_alpha   138.82069727
_cell_angle_beta   138.82070444
_cell_angle_gamma   59.64836046
_symmetry_Int_Tables_number   1
_chemical_formula_structural   NaGaPIr2
_chemical_formula_sum   'Na1 Ga1 P1 Ir2'
_cell_volume   85.53122705
_cell_formula_units_Z   1
loop_
 _symmetry_equiv_pos_site_id
 _symmetry_equiv_pos_as_xyz
  1  'x, y, z'
loop_
 _atom_site_type_symbol
 _atom_site_label
 _atom_site_symmetry_multiplicity
 _atom_site_fract_x
 _atom_site_fract_y
 _atom_site_fract_z
 _atom_site_occupancy
  Na  Na0  1  0.000193  0.000193  0.000000  1
  Ga  Ga1  1  0.385041  0.385041  0.000000  1
  P  P2  1  0.633332  0.633332  0.000000  1
  Ir  Ir3  1  0.740717  0.240717  0.500000  1
  Ir  Ir4  1  0.240717  0.740717  0.500000  1
