# generated using pymatgen
data_NaAc2NdB24
_symmetry_space_group_name_H-M   'P 1'
_cell_length_a   7.22127514
_cell_length_b   7.22127367
_cell_length_c   5.93055600
_cell_angle_alpha   90.00000000
_cell_angle_beta   90.00000000
_cell_angle_gamma   109.25228593
_symmetry_Int_Tables_number   1
_chemical_formula_structural   NaAc2NdB24
_chemical_formula_sum   'Na1 Ac2 Nd1 B24'
_cell_volume   291.96446954
_cell_formula_units_Z   1
loop_
 _symmetry_equiv_pos_site_id
 _symmetry_equiv_pos_as_xyz
  1  'x, y, z'
loop_
 _atom_site_type_symbol
 _atom_site_label
 _atom_site_symmetry_multiplicity
 _atom_site_fract_x
 _atom_site_fract_y
 _atom_site_fract_z
 _atom_site_occupancy
  Na  Na0  1  0.000000  0.000000  0.000000  1
  Ac  Ac1  1  0.751389  0.248611  0.500000  1
  Ac  Ac2  1  0.248611  0.751389  0.500000  1
  Nd  Nd3  1  0.500000  0.500000  0.000000  1
  B  B4  1  0.175881  0.324582  0.650139  1
  B  B5  1  0.924640  0.575530  0.147852  1
  B  B6  1  0.675418  0.824119  0.650139  1
  B  B7  1  0.424470  0.075360  0.147852  1
  B  B8  1  0.175881  0.324582  0.349861  1
  B  B9  1  0.924640  0.575530  0.852148  1
  B  B10  1  0.675418  0.824119  0.349861  1
  B  B11  1  0.424470  0.075360  0.852148  1
  B  B12  1  0.399649  0.399649  0.500000  1
  B  B13  1  0.148389  0.650391  0.000000  1
  B  B14  1  0.898969  0.898969  0.500000  1
  B  B15  1  0.650391  0.148389  0.000000  1
  B  B16  1  0.324582  0.175881  0.650139  1
  B  B17  1  0.075360  0.424470  0.147852  1
  B  B18  1  0.824119  0.675418  0.650139  1
  B  B19  1  0.575530  0.924640  0.147852  1
  B  B20  1  0.101031  0.101031  0.500000  1
  B  B21  1  0.851611  0.349609  0.000000  1
  B  B22  1  0.600351  0.600351  0.500000  1
  B  B23  1  0.349609  0.851611  0.000000  1
  B  B24  1  0.324582  0.175881  0.349861  1
  B  B25  1  0.075360  0.424470  0.852148  1
  B  B26  1  0.824119  0.675418  0.349861  1
  B  B27  1  0.575530  0.924640  0.852148  1
