# generated using pymatgen
data_Ca6ZnGe3Pd4
_symmetry_space_group_name_H-M   'P 1'
_cell_length_a   5.72519000
_cell_length_b   8.09493100
_cell_length_c   13.67619100
_cell_angle_alpha   90.00000000
_cell_angle_beta   90.00000000
_cell_angle_gamma   90.00000000
_symmetry_Int_Tables_number   1
_chemical_formula_structural   Ca6ZnGe3Pd4
_chemical_formula_sum   'Ca12 Zn2 Ge6 Pd8'
_cell_volume   633.82331823
_cell_formula_units_Z   2
loop_
 _symmetry_equiv_pos_site_id
 _symmetry_equiv_pos_as_xyz
  1  'x, y, z'
loop_
 _atom_site_type_symbol
 _atom_site_label
 _atom_site_symmetry_multiplicity
 _atom_site_fract_x
 _atom_site_fract_y
 _atom_site_fract_z
 _atom_site_occupancy
  Ca  Ca0  1  0.140839  0.603622  0.104148  1
  Ca  Ca1  1  0.140839  0.896378  0.895852  1
  Ca  Ca2  1  0.859161  0.103622  0.395852  1
  Ca  Ca3  1  0.859161  0.396378  0.604148  1
  Ca  Ca4  1  0.863202  0.388532  0.897161  1
  Ca  Ca5  1  0.863202  0.111468  0.102839  1
  Ca  Ca6  1  0.136798  0.888532  0.602839  1
  Ca  Ca7  1  0.136798  0.611468  0.397161  1
  Ca  Ca8  1  0.356038  0.248910  0.249403  1
  Ca  Ca9  1  0.356038  0.251090  0.750597  1
  Ca  Ca10  1  0.643962  0.748910  0.250597  1
  Ca  Ca11  1  0.643962  0.751090  0.749403  1
  Zn  Zn12  1  0.633928  0.750000  0.000000  1
  Zn  Zn13  1  0.366072  0.250000  0.500000  1
  Ge  Ge14  1  0.356316  0.250000  0.000000  1
  Ge  Ge15  1  0.643684  0.750000  0.500000  1
  Ge  Ge16  1  0.852768  0.397733  0.251404  1
  Ge  Ge17  1  0.852768  0.102267  0.748596  1
  Ge  Ge18  1  0.147232  0.897733  0.248596  1
  Ge  Ge19  1  0.147232  0.602267  0.751404  1
  Pd  Pd20  1  0.624489  0.461956  0.090989  1
  Pd  Pd21  1  0.624489  0.038044  0.909011  1
  Pd  Pd22  1  0.375511  0.961956  0.409011  1
  Pd  Pd23  1  0.375511  0.538044  0.590989  1
  Pd  Pd24  1  0.370277  0.531352  0.908813  1
  Pd  Pd25  1  0.370277  0.968648  0.091187  1
  Pd  Pd26  1  0.629723  0.031352  0.591187  1
  Pd  Pd27  1  0.629723  0.468648  0.408813  1
