# generated using pymatgen
data_HfUReB6
_symmetry_space_group_name_H-M   'P 1'
_cell_length_a   3.59511200
_cell_length_b   9.00662000
_cell_length_c   11.37373500
_cell_angle_alpha   90.00000000
_cell_angle_beta   90.00000000
_cell_angle_gamma   90.00000000
_symmetry_Int_Tables_number   1
_chemical_formula_structural   HfUReB6
_chemical_formula_sum   'Hf4 U4 Re4 B24'
_cell_volume   368.27935146
_cell_formula_units_Z   4
loop_
 _symmetry_equiv_pos_site_id
 _symmetry_equiv_pos_as_xyz
  1  'x, y, z'
loop_
 _atom_site_type_symbol
 _atom_site_label
 _atom_site_symmetry_multiplicity
 _atom_site_fract_x
 _atom_site_fract_y
 _atom_site_fract_z
 _atom_site_occupancy
  Hf  Hf0  1  0.000000  0.945492  0.374352  1
  Hf  Hf1  1  0.000000  0.054508  0.625648  1
  Hf  Hf2  1  0.000000  0.445492  0.125648  1
  Hf  Hf3  1  0.000000  0.554508  0.874352  1
  U  U4  1  0.000000  0.323984  0.413892  1
  U  U5  1  0.000000  0.676016  0.586108  1
  U  U6  1  0.000000  0.823984  0.086108  1
  U  U7  1  0.000000  0.176016  0.913892  1
  Re  Re8  1  0.000000  0.639840  0.321220  1
  Re  Re9  1  0.000000  0.360160  0.678780  1
  Re  Re10  1  0.000000  0.139840  0.178780  1
  Re  Re11  1  0.000000  0.860160  0.821220  1
  B  B12  1  0.500000  0.552527  0.434655  1
  B  B13  1  0.500000  0.447473  0.565345  1
  B  B14  1  0.500000  0.052527  0.065345  1
  B  B15  1  0.500000  0.947473  0.934655  1
  B  B16  1  0.500000  0.752874  0.420484  1
  B  B17  1  0.500000  0.247126  0.579516  1
  B  B18  1  0.500000  0.252874  0.079516  1
  B  B19  1  0.500000  0.747126  0.920484  1
  B  B20  1  0.500000  0.796058  0.264280  1
  B  B21  1  0.500000  0.203942  0.735720  1
  B  B22  1  0.500000  0.296058  0.235720  1
  B  B23  1  0.500000  0.703942  0.764280  1
  B  B24  1  0.500000  0.631692  0.182066  1
  B  B25  1  0.500000  0.368308  0.817934  1
  B  B26  1  0.500000  0.131692  0.317934  1
  B  B27  1  0.500000  0.868308  0.682066  1
  B  B28  1  0.500000  0.979930  0.213596  1
  B  B29  1  0.500000  0.020070  0.786404  1
  B  B30  1  0.500000  0.479930  0.286404  1
  B  B31  1  0.500000  0.520070  0.713596  1
  B  B32  1  0.500000  0.602024  0.027706  1
  B  B33  1  0.500000  0.397976  0.972294  1
  B  B34  1  0.500000  0.102024  0.472294  1
  B  B35  1  0.500000  0.897976  0.527706  1
