# generated using pymatgen
data_Tl4(BS)9
_symmetry_space_group_name_H-M   'P 1'
_cell_length_a   10.36565094
_cell_length_b   10.46227678
_cell_length_c   10.88315700
_cell_angle_alpha   93.10213066
_cell_angle_beta   103.04741201
_cell_angle_gamma   110.23040458
_symmetry_Int_Tables_number   1
_chemical_formula_structural   Tl4(BS)9
_chemical_formula_sum   'Tl8 B18 S18'
_cell_volume   1067.51947355
_cell_formula_units_Z   2
loop_
 _symmetry_equiv_pos_site_id
 _symmetry_equiv_pos_as_xyz
  1  'x, y, z'
loop_
 _atom_site_type_symbol
 _atom_site_label
 _atom_site_symmetry_multiplicity
 _atom_site_fract_x
 _atom_site_fract_y
 _atom_site_fract_z
 _atom_site_occupancy
  Tl  Tl0  1  0.614869  0.988815  0.361999  1
  Tl  Tl1  1  0.385131  0.011185  0.638001  1
  Tl  Tl2  1  0.604599  0.383201  0.124213  1
  Tl  Tl3  1  0.395401  0.616799  0.875787  1
  Tl  Tl4  1  0.701014  0.617816  0.463433  1
  Tl  Tl5  1  0.298986  0.382184  0.536567  1
  Tl  Tl6  1  0.889119  0.435786  0.749318  1
  Tl  Tl7  1  0.110881  0.564214  0.250682  1
  B  B8  1  0.129237  0.143637  0.088047  1
  B  B9  1  0.870763  0.856363  0.911953  1
  B  B10  1  0.123051  0.978221  0.123047  1
  B  B11  1  0.876949  0.021779  0.876953  1
  B  B12  1  0.165117  0.036517  0.979742  1
  B  B13  1  0.834883  0.963483  0.020258  1
  B  B14  1  0.060842  0.134252  0.919340  1
  B  B15  1  0.939158  0.865748  0.080660  1
  B  B16  1  0.951457  0.137307  0.024360  1
  B  B17  1  0.048543  0.862693  0.975640  1
  B  B18  1  0.988726  0.041137  0.148582  1
  B  B19  1  0.011274  0.958863  0.851418  1
  B  B20  1  0.349988  0.176185  0.307094  1
  B  B21  1  0.650012  0.823815  0.692906  1
  B  B22  1  0.320752  0.241641  0.856139  1
  B  B23  1  0.679248  0.758359  0.143861  1
  B  B24  1  0.919868  0.254168  0.249955  1
  B  B25  1  0.080132  0.745832  0.750045  1
  S  S26  1  0.281508  0.284222  0.202298  1
  S  S27  1  0.718492  0.715778  0.797702  1
  S  S28  1  0.268713  0.987949  0.265092  1
  S  S29  1  0.731287  0.012051  0.734908  1
  S  S30  1  0.341935  0.099726  0.941699  1
  S  S31  1  0.658065  0.900274  0.058301  1
  S  S32  1  0.153534  0.272842  0.833902  1
  S  S33  1  0.846466  0.727158  0.166098  1
  S  S34  1  0.901703  0.280903  0.080736  1
  S  S35  1  0.098297  0.719097  0.919264  1
  S  S36  1  0.968398  0.108928  0.302966  1
  S  S37  1  0.031602  0.891072  0.697034  1
  S  S38  1  0.493610  0.250494  0.448303  1
  S  S39  1  0.506390  0.749506  0.551697  1
  S  S40  1  0.464567  0.349411  0.799488  1
  S  S41  1  0.535433  0.650589  0.200512  1
  S  S42  1  0.899425  0.376930  0.356182  1
  S  S43  1  0.100575  0.623070  0.643818  1
