# generated using pymatgen
data_TiSi4Tc
_symmetry_space_group_name_H-M   'P 1'
_cell_length_a   13.03925000
_cell_length_b   4.62092446
_cell_length_c   4.64290705
_cell_angle_alpha   60.38465961
_cell_angle_beta   90.00000000
_cell_angle_gamma   90.00000000
_symmetry_Int_Tables_number   1
_chemical_formula_structural   TiSi4Tc
_chemical_formula_sum   'Ti3 Si12 Tc3'
_cell_volume   243.20497162
_cell_formula_units_Z   3
loop_
 _symmetry_equiv_pos_site_id
 _symmetry_equiv_pos_as_xyz
  1  'x, y, z'
loop_
 _atom_site_type_symbol
 _atom_site_label
 _atom_site_symmetry_multiplicity
 _atom_site_fract_x
 _atom_site_fract_y
 _atom_site_fract_z
 _atom_site_occupancy
  Ti  Ti0  1  0.248964  0.000000  0.500000  1
  Ti  Ti1  1  0.584342  0.500000  0.500000  1
  Ti  Ti2  1  0.083117  0.500000  0.500000  1
  Si  Si3  1  0.918216  0.838306  0.328945  1
  Si  Si4  1  0.416391  0.829863  0.329695  1
  Si  Si5  1  0.749011  0.327675  0.835300  1
  Si  Si6  1  0.250272  0.317911  0.839888  1
  Si  Si7  1  0.582688  0.836969  0.833420  1
  Si  Si8  1  0.083062  0.837534  0.841512  1
  Si  Si9  1  0.918216  0.161694  0.671055  1
  Si  Si10  1  0.416391  0.170137  0.670305  1
  Si  Si11  1  0.749011  0.672325  0.164700  1
  Si  Si12  1  0.250272  0.682089  0.160112  1
  Si  Si13  1  0.582688  0.163031  0.166580  1
  Si  Si14  1  0.083062  0.162466  0.158488  1
  Tc  Tc15  1  0.915016  0.500000  0.000000  1
  Tc  Tc16  1  0.413899  0.500000  0.000000  1
  Tc  Tc17  1  0.755379  0.000000  0.500000  1
