# generated using pymatgen
data_Dy12Er8CoBi8Os3
_symmetry_space_group_name_H-M   'P 1'
_cell_length_a   7.93469672
_cell_length_b   8.98210700
_cell_length_c   12.42777434
_cell_angle_alpha   90.00000000
_cell_angle_beta   90.23521400
_cell_angle_gamma   90.00000000
_symmetry_Int_Tables_number   1
_chemical_formula_structural   Dy12Er8CoBi8Os3
_chemical_formula_sum   'Dy12 Er8 Co1 Bi8 Os3'
_cell_volume   885.72367936
_cell_formula_units_Z   1
loop_
 _symmetry_equiv_pos_site_id
 _symmetry_equiv_pos_as_xyz
  1  'x, y, z'
loop_
 _atom_site_type_symbol
 _atom_site_label
 _atom_site_symmetry_multiplicity
 _atom_site_fract_x
 _atom_site_fract_y
 _atom_site_fract_z
 _atom_site_occupancy
  Dy  Dy0  1  0.844291  0.750000  0.799043  1
  Dy  Dy1  1  0.158262  0.250000  0.207112  1
  Dy  Dy2  1  0.341964  0.250000  0.708533  1
  Dy  Dy3  1  0.656639  0.750000  0.293656  1
  Dy  Dy4  1  0.376214  0.750000  0.693998  1
  Dy  Dy5  1  0.622638  0.250000  0.306592  1
  Dy  Dy6  1  0.875593  0.250000  0.807481  1
  Dy  Dy7  1  0.120456  0.750000  0.187303  1
  Dy  Dy8  1  0.942252  0.750000  0.504951  1
  Dy  Dy9  1  0.057840  0.250000  0.495729  1
  Dy  Dy10  1  0.445583  0.250000  0.996453  1
  Dy  Dy11  1  0.553641  0.750000  0.003743  1
  Er  Er12  1  0.673455  0.042141  0.564019  1
  Er  Er13  1  0.325454  0.956900  0.435665  1
  Er  Er14  1  0.174788  0.958533  0.935868  1
  Er  Er15  1  0.325454  0.543100  0.435665  1
  Er  Er16  1  0.826541  0.038822  0.062959  1
  Er  Er17  1  0.673455  0.457859  0.564019  1
  Er  Er18  1  0.826541  0.461178  0.062959  1
  Er  Er19  1  0.174788  0.541467  0.935868  1
  Co  Co20  1  0.931542  0.750000  0.009029  1
  Bi  Bi21  1  0.569946  0.492957  0.827923  1
  Bi  Bi22  1  0.431174  0.507828  0.171855  1
  Bi  Bi23  1  0.068096  0.507615  0.673092  1
  Bi  Bi24  1  0.431174  0.992172  0.171855  1
  Bi  Bi25  1  0.931491  0.493360  0.326511  1
  Bi  Bi26  1  0.569946  0.007043  0.827923  1
  Bi  Bi27  1  0.931491  0.006640  0.326511  1
  Bi  Bi28  1  0.068096  0.992385  0.673092  1
  Os  Os29  1  0.574169  0.750000  0.511246  1
  Os  Os30  1  0.424659  0.250000  0.489538  1
  Os  Os31  1  0.072364  0.250000  0.989809  1
