# generated using pymatgen
data_Dy2Ga2PdRh
_symmetry_space_group_name_H-M   'P 1'
_cell_length_a   4.43790200
_cell_length_b   6.88422800
_cell_length_c   7.63945300
_cell_angle_alpha   90.00000000
_cell_angle_beta   90.00000000
_cell_angle_gamma   90.00000000
_symmetry_Int_Tables_number   1
_chemical_formula_structural   Dy2Ga2PdRh
_chemical_formula_sum   'Dy4 Ga4 Pd2 Rh2'
_cell_volume   233.39697148
_cell_formula_units_Z   2
loop_
 _symmetry_equiv_pos_site_id
 _symmetry_equiv_pos_as_xyz
  1  'x, y, z'
loop_
 _atom_site_type_symbol
 _atom_site_label
 _atom_site_symmetry_multiplicity
 _atom_site_fract_x
 _atom_site_fract_y
 _atom_site_fract_z
 _atom_site_occupancy
  Dy  Dy0  1  0.750000  0.015489  0.694368  1
  Dy  Dy1  1  0.750000  0.524130  0.806412  1
  Dy  Dy2  1  0.250000  0.975870  0.306412  1
  Dy  Dy3  1  0.250000  0.484511  0.194368  1
  Ga  Ga4  1  0.250000  0.827071  0.924449  1
  Ga  Ga5  1  0.250000  0.336016  0.574457  1
  Ga  Ga6  1  0.750000  0.163984  0.074457  1
  Ga  Ga7  1  0.750000  0.672929  0.424449  1
  Pd  Pd8  1  0.250000  0.218514  0.900594  1
  Pd  Pd9  1  0.750000  0.281486  0.400594  1
  Rh  Rh10  1  0.750000  0.775218  0.099720  1
  Rh  Rh11  1  0.250000  0.724782  0.599720  1
