# generated using pymatgen
data_GdErLu2(WO6)2
_symmetry_space_group_name_H-M   'P 1'
_cell_length_a   5.37243600
_cell_length_b   7.65751230
_cell_length_c   11.37210174
_cell_angle_alpha   75.54114704
_cell_angle_beta   90.00000000
_cell_angle_gamma   90.00000000
_symmetry_Int_Tables_number   1
_chemical_formula_structural   GdErLu2(WO6)2
_chemical_formula_sum   'Gd2 Er2 Lu4 W4 O24'
_cell_volume   453.02463802
_cell_formula_units_Z   2
loop_
 _symmetry_equiv_pos_site_id
 _symmetry_equiv_pos_as_xyz
  1  'x, y, z'
loop_
 _atom_site_type_symbol
 _atom_site_label
 _atom_site_symmetry_multiplicity
 _atom_site_fract_x
 _atom_site_fract_y
 _atom_site_fract_z
 _atom_site_occupancy
  Gd  Gd0  1  0.314674  0.500000  0.750000  1
  Gd  Gd1  1  0.685326  0.500000  0.250000  1
  Er  Er2  1  0.256534  0.000000  0.750000  1
  Er  Er3  1  0.743466  0.000000  0.250000  1
  Lu  Lu4  1  0.183669  0.795250  0.078378  1
  Lu  Lu5  1  0.183669  0.204750  0.421622  1
  Lu  Lu6  1  0.816331  0.204750  0.921622  1
  Lu  Lu7  1  0.816331  0.795250  0.578378  1
  W  W8  1  0.744367  0.726305  0.885073  1
  W  W9  1  0.255633  0.726305  0.385073  1
  W  W10  1  0.744367  0.273695  0.614927  1
  W  W11  1  0.255633  0.273695  0.114927  1
  O  O12  1  0.540941  0.156143  0.068019  1
  O  O13  1  0.045525  0.056964  0.102967  1
  O  O14  1  0.017539  0.717084  0.768814  1
  O  O15  1  0.459059  0.156143  0.568019  1
  O  O16  1  0.352570  0.489105  0.386561  1
  O  O17  1  0.954475  0.056964  0.602967  1
  O  O18  1  0.545024  0.795364  0.724659  1
  O  O19  1  0.454976  0.795364  0.224659  1
  O  O20  1  0.144392  0.638511  0.548383  1
  O  O21  1  0.045525  0.943036  0.397033  1
  O  O22  1  0.459059  0.843857  0.931981  1
  O  O23  1  0.454976  0.204636  0.275341  1
  O  O24  1  0.855608  0.361489  0.451617  1
  O  O25  1  0.647430  0.489105  0.886561  1
  O  O26  1  0.352570  0.510895  0.113439  1
  O  O27  1  0.954475  0.943036  0.897033  1
  O  O28  1  0.540941  0.843857  0.431981  1
  O  O29  1  0.982461  0.282916  0.231186  1
  O  O30  1  0.545024  0.204636  0.775341  1
  O  O31  1  0.855608  0.638511  0.048383  1
  O  O32  1  0.017539  0.282916  0.731186  1
  O  O33  1  0.144392  0.361489  0.951617  1
  O  O34  1  0.982461  0.717084  0.268814  1
  O  O35  1  0.647430  0.510895  0.613439  1
