# generated using pymatgen
data_Ho3Er17Ir11Ru
_symmetry_space_group_name_H-M   'P 1'
_cell_length_a   10.78237500
_cell_length_b   10.78064901
_cell_length_c   6.35746600
_cell_angle_alpha   89.99669786
_cell_angle_beta   90.00110242
_cell_angle_gamma   90.00172184
_symmetry_Int_Tables_number   1
_chemical_formula_structural   Ho3Er17Ir11Ru
_chemical_formula_sum   'Ho3 Er17 Ir11 Ru1'
_cell_volume   738.99820612
_cell_formula_units_Z   1
loop_
 _symmetry_equiv_pos_site_id
 _symmetry_equiv_pos_as_xyz
  1  'x, y, z'
loop_
 _atom_site_type_symbol
 _atom_site_label
 _atom_site_symmetry_multiplicity
 _atom_site_fract_x
 _atom_site_fract_y
 _atom_site_fract_z
 _atom_site_occupancy
  Ho  Ho0  1  0.292089  0.087020  0.375999  1
  Ho  Ho1  1  0.292400  0.912833  0.879047  1
  Ho  Ho2  1  0.707586  0.087061  0.879081  1
  Er  Er3  1  0.707627  0.913052  0.376144  1
  Er  Er4  1  0.587100  0.792531  0.879246  1
  Er  Er5  1  0.586932  0.207766  0.376130  1
  Er  Er6  1  0.413296  0.792144  0.376154  1
  Er  Er7  1  0.413002  0.207534  0.879221  1
  Er  Er8  1  0.209061  0.411997  0.622553  1
  Er  Er9  1  0.209045  0.587807  0.122160  1
  Er  Er10  1  0.790971  0.412190  0.122155  1
  Er  Er11  1  0.790934  0.588036  0.622530  1
  Er  Er12  1  0.912143  0.709015  0.122119  1
  Er  Er13  1  0.912043  0.291007  0.622390  1
  Er  Er14  1  0.087948  0.708995  0.622447  1
  Er  Er15  1  0.087748  0.291054  0.121978  1
  Er  Er16  1  0.999839  0.999942  0.499259  1
  Er  Er17  1  0.999989  0.999994  0.999325  1
  Er  Er18  1  0.499987  0.500004  0.999268  1
  Er  Er19  1  0.500015  0.499999  0.499201  1
  Ir  Ir20  1  0.847269  0.153811  0.250455  1
  Ir  Ir21  1  0.847175  0.846486  0.749569  1
  Ir  Ir22  1  0.152664  0.153612  0.750080  1
  Ir  Ir23  1  0.152639  0.845979  0.250337  1
  Ir  Ir24  1  0.653221  0.347364  0.749557  1
  Ir  Ir25  1  0.653702  0.652899  0.249919  1
  Ir  Ir26  1  0.346358  0.347404  0.249801  1
  Ir  Ir27  1  0.346793  0.652637  0.749563  1
  Ir  Ir28  1  0.500273  0.999904  0.623097  1
  Ir  Ir29  1  0.999985  0.499989  0.878292  1
  Ir  Ir30  1  0.999995  0.500011  0.378383  1
  Ru  Ru31  1  0.500174  0.999921  0.124540  1
