# generated using pymatgen
data_NdDyNb2(SbRh)4
_symmetry_space_group_name_H-M   'P 1'
_cell_length_a   6.42824794
_cell_length_b   4.51695900
_cell_length_c   9.08404886
_cell_angle_alpha   90.00000000
_cell_angle_beta   89.79490809
_cell_angle_gamma   90.00000000
_symmetry_Int_Tables_number   1
_chemical_formula_structural   NdDyNb2(SbRh)4
_chemical_formula_sum   'Nd1 Dy1 Nb2 Sb4 Rh4'
_cell_volume   263.76395554
_cell_formula_units_Z   1
loop_
 _symmetry_equiv_pos_site_id
 _symmetry_equiv_pos_as_xyz
  1  'x, y, z'
loop_
 _atom_site_type_symbol
 _atom_site_label
 _atom_site_symmetry_multiplicity
 _atom_site_fract_x
 _atom_site_fract_y
 _atom_site_fract_z
 _atom_site_occupancy
  Nd  Nd0  1  0.506341  0.000000  0.623007  1
  Dy  Dy1  1  0.004224  0.499999  0.376561  1
  Nb  Nb2  1  0.493642  0.000000  0.119908  1
  Nb  Nb3  1  0.995916  0.499999  0.880043  1
  Sb  Sb4  1  0.982708  0.000000  0.124208  1
  Sb  Sb5  1  0.507642  0.499999  0.363758  1
  Sb  Sb6  1  0.011432  0.000000  0.630904  1
  Sb  Sb7  1  0.484733  0.499999  0.880029  1
  Rh  Rh8  1  0.735194  0.499999  0.109828  1
  Rh  Rh9  1  0.267526  0.000000  0.347520  1
  Rh  Rh10  1  0.777620  0.499999  0.652159  1
  Rh  Rh11  1  0.233030  0.000000  0.892083  1
