# generated using pymatgen
data_Mg2AlP6IN12
_symmetry_space_group_name_H-M   'P 1'
_cell_length_a   7.25708209
_cell_length_b   7.25942974
_cell_length_c   7.25708203
_cell_angle_alpha   109.53166935
_cell_angle_beta   109.60448882
_cell_angle_gamma   109.53165006
_symmetry_Int_Tables_number   1
_chemical_formula_structural   Mg2AlP6IN12
_chemical_formula_sum   'Mg2 Al1 P6 I1 N12'
_cell_volume   293.38291982
_cell_formula_units_Z   1
loop_
 _symmetry_equiv_pos_site_id
 _symmetry_equiv_pos_as_xyz
  1  'x, y, z'
loop_
 _atom_site_type_symbol
 _atom_site_label
 _atom_site_symmetry_multiplicity
 _atom_site_fract_x
 _atom_site_fract_y
 _atom_site_fract_z
 _atom_site_occupancy
  Mg  Mg0  1  0.004188  0.998029  0.370449  1
  Mg  Mg1  1  0.370449  0.998029  0.004188  1
  Al  Al2  1  0.003728  0.403951  0.003728  1
  P  P3  1  0.501474  0.254248  0.753013  1
  P  P4  1  0.260410  0.747321  0.501620  1
  P  P5  1  0.746432  0.495452  0.251850  1
  P  P6  1  0.753013  0.254248  0.501474  1
  P  P7  1  0.501620  0.747321  0.260410  1
  P  P8  1  0.251850  0.495452  0.746432  1
  I  I9  1  0.968956  0.006665  0.968956  1
  N  N10  1  0.432011  0.698664  0.432011  1
  N  N11  1  0.719670  0.433301  0.434954  1
  N  N12  1  0.434954  0.433301  0.719670  1
  N  N13  1  0.737321  0.296289  0.737321  1
  N  N14  1  0.000650  0.563326  0.266734  1
  N  N15  1  0.266734  0.563326  0.000650  1
  N  N16  1  0.285867  0.997760  0.560875  1
  N  N17  1  0.999605  0.271110  0.566151  1
  N  N18  1  0.718936  0.716666  0.275102  1
  N  N19  1  0.560875  0.997760  0.285867  1
  N  N20  1  0.275102  0.716666  0.718936  1
  N  N21  1  0.566151  0.271110  0.999605  1
