# generated using pymatgen
data_Pr4Zn10SiSn
_symmetry_space_group_name_H-M   'P 1'
_cell_length_a   8.50332637
_cell_length_b   8.50332577
_cell_length_c   8.99355800
_cell_angle_alpha   90.00000000
_cell_angle_beta   90.00000000
_cell_angle_gamma   149.38967634
_symmetry_Int_Tables_number   1
_chemical_formula_structural   Pr4Zn10SiSn
_chemical_formula_sum   'Pr4 Zn10 Si1 Sn1'
_cell_volume   331.12701447
_cell_formula_units_Z   1
loop_
 _symmetry_equiv_pos_site_id
 _symmetry_equiv_pos_as_xyz
  1  'x, y, z'
loop_
 _atom_site_type_symbol
 _atom_site_label
 _atom_site_symmetry_multiplicity
 _atom_site_fract_x
 _atom_site_fract_y
 _atom_site_fract_z
 _atom_site_occupancy
  Pr  Pr0  1  0.203156  0.796844  0.250000  1
  Pr  Pr1  1  0.794522  0.205478  0.750000  1
  Pr  Pr2  1  0.000408  0.999592  0.486371  1
  Pr  Pr3  1  0.000408  0.999592  0.013629  1
  Zn  Zn4  1  0.813426  0.186574  0.391267  1
  Zn  Zn5  1  0.185412  0.814588  0.606674  1
  Zn  Zn6  1  0.813426  0.186574  0.108733  1
  Zn  Zn7  1  0.185412  0.814588  0.893326  1
  Zn  Zn8  1  0.649786  0.350214  0.475110  1
  Zn  Zn9  1  0.344801  0.655199  0.514345  1
  Zn  Zn10  1  0.649786  0.350214  0.024890  1
  Zn  Zn11  1  0.344801  0.655199  0.985655  1
  Zn  Zn12  1  0.405753  0.594247  0.250000  1
  Zn  Zn13  1  0.605308  0.394692  0.750000  1
  Si  Si14  1  0.558148  0.441852  0.250000  1
  Sn  Sn15  1  0.445445  0.554555  0.750000  1
