# generated using pymatgen
data_Ca8AcDyIr4
_symmetry_space_group_name_H-M   'P 1'
_cell_length_a   6.70175574
_cell_length_b   7.52530903
_cell_length_c   8.71949414
_cell_angle_alpha   97.23052777
_cell_angle_beta   112.60011956
_cell_angle_gamma   89.99999150
_symmetry_Int_Tables_number   1
_chemical_formula_structural   Ca8AcDyIr4
_chemical_formula_sum   'Ca8 Ac1 Dy1 Ir4'
_cell_volume   402.18934584
_cell_formula_units_Z   1
loop_
 _symmetry_equiv_pos_site_id
 _symmetry_equiv_pos_as_xyz
  1  'x, y, z'
loop_
 _atom_site_type_symbol
 _atom_site_label
 _atom_site_symmetry_multiplicity
 _atom_site_fract_x
 _atom_site_fract_y
 _atom_site_fract_z
 _atom_site_occupancy
  Ca  Ca0  1  0.805490  0.078829  0.823020  1
  Ca  Ca1  1  0.982471  0.421171  0.176980  1
  Ca  Ca2  1  0.192421  0.912696  0.176310  1
  Ca  Ca3  1  0.016110  0.587304  0.823690  1
  Ca  Ca4  1  0.200504  0.177644  0.557181  1
  Ca  Ca5  1  0.643321  0.322356  0.442819  1
  Ca  Ca6  1  0.795048  0.818284  0.434618  1
  Ca  Ca7  1  0.360431  0.681716  0.565382  1
  Ac  Ac8  1  0.429794  0.250000  0.000000  1
  Dy  Dy9  1  0.562220  0.750000  0.000000  1
  Ir  Ir10  1  0.604660  0.430063  0.787842  1
  Ir  Ir11  1  0.816817  0.069937  0.212158  1
  Ir  Ir12  1  0.402967  0.582938  0.215222  1
  Ir  Ir13  1  0.187746  0.917062  0.784778  1
