# generated using pymatgen
data_Lu3In3IrPtAu
_symmetry_space_group_name_H-M   'P 1'
_cell_length_a   7.72393400
_cell_length_b   7.72393345
_cell_length_c   3.75245900
_cell_angle_alpha   90.00000000
_cell_angle_beta   90.00000000
_cell_angle_gamma   119.99999380
_symmetry_Int_Tables_number   1
_chemical_formula_structural   Lu3In3IrPtAu
_chemical_formula_sum   'Lu3 In3 Ir1 Pt1 Au1'
_cell_volume   193.87583968
_cell_formula_units_Z   1
loop_
 _symmetry_equiv_pos_site_id
 _symmetry_equiv_pos_as_xyz
  1  'x, y, z'
loop_
 _atom_site_type_symbol
 _atom_site_label
 _atom_site_symmetry_multiplicity
 _atom_site_fract_x
 _atom_site_fract_y
 _atom_site_fract_z
 _atom_site_occupancy
  Lu  Lu0  1  0.388857  0.974695  0.500000  1
  Lu  Lu1  1  0.025305  0.414162  0.500000  1
  Lu  Lu2  1  0.585838  0.611143  0.500000  1
  In  In3  1  0.736922  0.002048  0.000000  1
  In  In4  1  0.997952  0.734875  0.000000  1
  In  In5  1  0.265125  0.263078  0.000000  1
  Ir  Ir6  1  0.333333  0.666667  0.000000  1
  Pt  Pt7  1  0.000000  0.000000  0.500000  1
  Au  Au8  1  0.666667  0.333333  0.000000  1
