# generated using pymatgen
data_Tm2BIrPt5
_symmetry_space_group_name_H-M   'P 1'
_cell_length_a   5.91611845
_cell_length_b   5.89292074
_cell_length_c   5.89292084
_cell_angle_alpha   60.26060336
_cell_angle_beta   59.86969400
_cell_angle_gamma   59.86969333
_symmetry_Int_Tables_number   1
_chemical_formula_structural   Tm2BIrPt5
_chemical_formula_sum   'Tm2 B1 Ir1 Pt5'
_cell_volume   145.26785595
_cell_formula_units_Z   1
loop_
 _symmetry_equiv_pos_site_id
 _symmetry_equiv_pos_as_xyz
  1  'x, y, z'
loop_
 _atom_site_type_symbol
 _atom_site_label
 _atom_site_symmetry_multiplicity
 _atom_site_fract_x
 _atom_site_fract_y
 _atom_site_fract_z
 _atom_site_occupancy
  Tm  Tm0  1  0.250495  0.249505  0.249505  1
  Tm  Tm1  1  0.750495  0.749505  0.749505  1
  B  B2  1  0.495256  0.504742  0.504742  1
  Ir  Ir3  1  0.244901  0.755098  0.755098  1
  Pt  Pt4  1  0.755359  0.244640  0.244640  1
  Pt  Pt5  1  0.243288  0.756711  0.241541  1
  Pt  Pt6  1  0.758458  0.756711  0.241541  1
  Pt  Pt7  1  0.243288  0.241541  0.756711  1
  Pt  Pt8  1  0.758458  0.241541  0.756711  1
