# generated using pymatgen
data_Y3ErOsI4
_symmetry_space_group_name_H-M   'P 1'
_cell_length_a   11.41755888
_cell_length_b   11.41755963
_cell_length_c   6.18362806
_cell_angle_alpha   90.02831966
_cell_angle_beta   90.02833069
_cell_angle_gamma   88.31277295
_symmetry_Int_Tables_number   1
_chemical_formula_structural   Y3ErOsI4
_chemical_formula_sum   'Y6 Er2 Os2 I8'
_cell_volume   805.75215302
_cell_formula_units_Z   2
loop_
 _symmetry_equiv_pos_site_id
 _symmetry_equiv_pos_as_xyz
  1  'x, y, z'
loop_
 _atom_site_type_symbol
 _atom_site_label
 _atom_site_symmetry_multiplicity
 _atom_site_fract_x
 _atom_site_fract_y
 _atom_site_fract_z
 _atom_site_occupancy
  Y  Y0  1  0.078508  0.195464  0.000301  1
  Y  Y1  1  0.195464  0.078508  0.500301  1
  Y  Y2  1  0.921684  0.803845  0.999634  1
  Y  Y3  1  0.915223  0.198123  0.500830  1
  Y  Y4  1  0.198123  0.915223  0.000830  1
  Y  Y5  1  0.803845  0.921684  0.499634  1
  Er  Er6  1  0.805520  0.082371  0.999011  1
  Er  Er7  1  0.082371  0.805520  0.499011  1
  Os  Os8  1  0.999668  0.999846  0.249977  1
  Os  Os9  1  0.999846  0.999668  0.749977  1
  I  I10  1  0.644501  0.152476  0.509901  1
  I  I11  1  0.859009  0.648819  0.505441  1
  I  I12  1  0.351341  0.141786  0.994491  1
  I  I13  1  0.141786  0.351341  0.494491  1
  I  I14  1  0.648819  0.859009  0.005441  1
  I  I15  1  0.354523  0.847292  0.490413  1
  I  I16  1  0.152476  0.644501  0.009901  1
  I  I17  1  0.847292  0.354523  0.990413  1
