# generated using pymatgen
data_Tm2Lu2Si4OsRh3
_symmetry_space_group_name_H-M   'P 1'
_cell_length_a   4.24050400
_cell_length_b   6.80291608
_cell_length_c   7.28626107
_cell_angle_alpha   89.83952808
_cell_angle_beta   90.00000000
_cell_angle_gamma   90.00000000
_symmetry_Int_Tables_number   1
_chemical_formula_structural   Tm2Lu2Si4OsRh3
_chemical_formula_sum   'Tm2 Lu2 Si4 Os1 Rh3'
_cell_volume   210.19172567
_cell_formula_units_Z   1
loop_
 _symmetry_equiv_pos_site_id
 _symmetry_equiv_pos_as_xyz
  1  'x, y, z'
loop_
 _atom_site_type_symbol
 _atom_site_label
 _atom_site_symmetry_multiplicity
 _atom_site_fract_x
 _atom_site_fract_y
 _atom_site_fract_z
 _atom_site_occupancy
  Tm  Tm0  1  0.750000  0.999646  0.186645  1
  Tm  Tm1  1  0.750000  0.504544  0.310838  1
  Lu  Lu2  1  0.250000  0.998601  0.811032  1
  Lu  Lu3  1  0.250000  0.498476  0.691565  1
  Si  Si4  1  0.250000  0.294994  0.107598  1
  Si  Si5  1  0.750000  0.705940  0.884581  1
  Si  Si6  1  0.250000  0.795942  0.400118  1
  Si  Si7  1  0.750000  0.201693  0.607934  1
  Os  Os8  1  0.750000  0.842999  0.566678  1
  Rh  Rh9  1  0.250000  0.157744  0.434323  1
  Rh  Rh10  1  0.750000  0.342859  0.932655  1
  Rh  Rh11  1  0.250000  0.656563  0.066033  1
