# generated using pymatgen
data_Tb7Y5(OsPd)2
_symmetry_space_group_name_H-M   'P 1'
_cell_length_a   6.45573168
_cell_length_b   7.32577748
_cell_length_c   9.32020628
_cell_angle_alpha   89.87561926
_cell_angle_beta   89.95336442
_cell_angle_gamma   90.34670855
_symmetry_Int_Tables_number   1
_chemical_formula_structural   Tb7Y5(OsPd)2
_chemical_formula_sum   'Tb7 Y5 Os2 Pd2'
_cell_volume   440.77362124
_cell_formula_units_Z   1
loop_
 _symmetry_equiv_pos_site_id
 _symmetry_equiv_pos_as_xyz
  1  'x, y, z'
loop_
 _atom_site_type_symbol
 _atom_site_label
 _atom_site_symmetry_multiplicity
 _atom_site_fract_x
 _atom_site_fract_y
 _atom_site_fract_z
 _atom_site_occupancy
  Tb  Tb0  1  0.624482  0.044072  0.250366  1
  Tb  Tb1  1  0.375519  0.956320  0.750350  1
  Tb  Tb2  1  0.178362  0.184585  0.062851  1
  Tb  Tb3  1  0.821804  0.815569  0.937791  1
  Tb  Tb4  1  0.663266  0.325266  0.940017  1
  Tb  Tb5  1  0.821900  0.816137  0.561625  1
  Tb  Tb6  1  0.336641  0.674433  0.059726  1
  Y  Y7  1  0.124926  0.476613  0.750058  1
  Y  Y8  1  0.875068  0.523321  0.250154  1
  Y  Y9  1  0.177623  0.184049  0.438506  1
  Y  Y10  1  0.337259  0.674900  0.441464  1
  Y  Y11  1  0.663490  0.325061  0.558377  1
  Os  Os12  1  0.456612  0.385041  0.248989  1
  Os  Os13  1  0.543907  0.615287  0.750294  1
  Pd  Pd14  1  0.951166  0.112467  0.749991  1
  Pd  Pd15  1  0.047975  0.886877  0.249440  1
