# generated using pymatgen
data_Tb13Tm7Si15P
_symmetry_space_group_name_H-M   'P 1'
_cell_length_a   7.37939751
_cell_length_b   7.74269614
_cell_length_c   14.55796600
_cell_angle_alpha   90.03024371
_cell_angle_beta   90.04723018
_cell_angle_gamma   90.17961716
_symmetry_Int_Tables_number   1
_chemical_formula_structural   Tb13Tm7Si15P
_chemical_formula_sum   'Tb13 Tm7 Si15 P1'
_cell_volume   831.78575570
_cell_formula_units_Z   1
loop_
 _symmetry_equiv_pos_site_id
 _symmetry_equiv_pos_as_xyz
  1  'x, y, z'
loop_
 _atom_site_type_symbol
 _atom_site_label
 _atom_site_symmetry_multiplicity
 _atom_site_fract_x
 _atom_site_fract_y
 _atom_site_fract_z
 _atom_site_occupancy
  Tb  Tb0  1  0.818142  0.678915  0.377221  1
  Tb  Tb1  1  0.318611  0.820522  0.377998  1
  Tb  Tb2  1  0.817592  0.678158  0.121320  1
  Tb  Tb3  1  0.683347  0.177296  0.877494  1
  Tb  Tb4  1  0.188104  0.327491  0.625789  1
  Tb  Tb5  1  0.523834  0.681313  0.602484  1
  Tb  Tb6  1  0.024559  0.818885  0.901583  1
  Tb  Tb7  1  0.473606  0.316408  0.097763  1
  Tb  Tb8  1  0.973880  0.182544  0.402496  1
  Tb  Tb9  1  0.475428  0.317217  0.402798  1
  Tb  Tb10  1  0.975175  0.182022  0.096250  1
  Tb  Tb11  1  0.522880  0.681326  0.898426  1
  Tb  Tb12  1  0.024193  0.818764  0.598431  1
  Tm  Tm13  1  0.683551  0.176783  0.624681  1
  Tm  Tm14  1  0.188563  0.328413  0.873335  1
  Tm  Tm15  1  0.318468  0.820773  0.122746  1
  Tm  Tm16  1  0.848539  0.509794  0.749756  1
  Tm  Tm17  1  0.351145  0.990659  0.750636  1
  Tm  Tm18  1  0.147687  0.487122  0.249241  1
  Tm  Tm19  1  0.649001  0.012303  0.250175  1
  Si  Si20  1  0.649083  0.971920  0.461541  1
  Si  Si21  1  0.151555  0.527975  0.039010  1
  Si  Si22  1  0.348091  0.031525  0.960025  1
  Si  Si23  1  0.849901  0.467956  0.541200  1
  Si  Si24  1  0.356729  0.030755  0.542404  1
  Si  Si25  1  0.858064  0.470203  0.957399  1
  Si  Si26  1  0.642353  0.970639  0.041173  1
  Si  Si27  1  0.145876  0.526337  0.459283  1
  Si  Si28  1  0.981590  0.109371  0.750027  1
  Si  Si29  1  0.519791  0.602569  0.249284  1
  Si  Si30  1  0.022473  0.897058  0.248431  1
  Si  Si31  1  0.728903  0.869347  0.749939  1
  Si  Si32  1  0.216716  0.642959  0.750655  1
  Si  Si33  1  0.267215  0.126657  0.249119  1
  Si  Si34  1  0.766688  0.371395  0.249553  1
  P  P35  1  0.488663  0.376627  0.750333  1
