# generated using pymatgen
data_Th14Re3Pd2Pt
_symmetry_space_group_name_H-M   'P 1'
_cell_length_a   10.09469876
_cell_length_b   10.09469862
_cell_length_c   6.34304858
_cell_angle_alpha   90.08959451
_cell_angle_beta   89.91040486
_cell_angle_gamma   119.95831650
_symmetry_Int_Tables_number   1
_chemical_formula_structural   Th14Re3Pd2Pt
_chemical_formula_sum   'Th14 Re3 Pd2 Pt1'
_cell_volume   560.01150074
_cell_formula_units_Z   1
loop_
 _symmetry_equiv_pos_site_id
 _symmetry_equiv_pos_as_xyz
  1  'x, y, z'
loop_
 _atom_site_type_symbol
 _atom_site_label
 _atom_site_symmetry_multiplicity
 _atom_site_fract_x
 _atom_site_fract_y
 _atom_site_fract_z
 _atom_site_occupancy
  Th  Th0  1  0.667655  0.332345  0.601014  1
  Th  Th1  1  0.333260  0.666740  0.028882  1
  Th  Th2  1  0.876425  0.752875  0.756617  1
  Th  Th3  1  0.247125  0.123575  0.756617  1
  Th  Th4  1  0.875705  0.124295  0.754544  1
  Th  Th5  1  0.126768  0.256089  0.248678  1
  Th  Th6  1  0.743911  0.873232  0.248678  1
  Th  Th7  1  0.128359  0.871641  0.247736  1
  Th  Th8  1  0.457765  0.914490  0.542846  1
  Th  Th9  1  0.085510  0.542235  0.542846  1
  Th  Th10  1  0.456911  0.543089  0.542166  1
  Th  Th11  1  0.537087  0.072008  0.031457  1
  Th  Th12  1  0.927992  0.462913  0.031457  1
  Th  Th13  1  0.535348  0.464652  0.029305  1
  Re  Re14  1  0.184257  0.367232  0.802133  1
  Re  Re15  1  0.632768  0.815743  0.802133  1
  Re  Re16  1  0.183204  0.816796  0.802109  1
  Pd  Pd17  1  0.808494  0.617418  0.306307  1
  Pd  Pd18  1  0.382582  0.191506  0.306307  1
  Pt  Pt19  1  0.808872  0.191128  0.306264  1
