# generated using pymatgen
data_TaTiNb6(GaC3)2
_symmetry_space_group_name_H-M   'P 1'
_cell_length_a   3.14659000
_cell_length_b   3.14659011
_cell_length_c   24.07286000
_cell_angle_alpha   90.00000000
_cell_angle_beta   90.00000000
_cell_angle_gamma   119.99999886
_symmetry_Int_Tables_number   1
_chemical_formula_structural   TaTiNb6(GaC3)2
_chemical_formula_sum   'Ta1 Ti1 Nb6 Ga2 C6'
_cell_volume   206.41376617
_cell_formula_units_Z   1
loop_
 _symmetry_equiv_pos_site_id
 _symmetry_equiv_pos_as_xyz
  1  'x, y, z'
loop_
 _atom_site_type_symbol
 _atom_site_label
 _atom_site_symmetry_multiplicity
 _atom_site_fract_x
 _atom_site_fract_y
 _atom_site_fract_z
 _atom_site_occupancy
  Ta  Ta0  1  0.666667  0.333333  0.947597  1
  Ti  Ti1  1  0.333333  0.666667  0.054689  1
  Nb  Nb2  1  0.000000  0.000000  0.340472  1
  Nb  Nb3  1  0.000000  0.000000  0.658893  1
  Nb  Nb4  1  0.000000  0.000000  0.842363  1
  Nb  Nb5  1  0.000000  0.000000  0.157179  1
  Nb  Nb6  1  0.333333  0.666667  0.443392  1
  Nb  Nb7  1  0.666667  0.333333  0.555987  1
  Ga  Ga8  1  0.333333  0.666667  0.248080  1
  Ga  Ga9  1  0.666667  0.333333  0.751048  1
  C  C10  1  0.000000  0.000000  0.499720  1
  C  C11  1  0.000000  0.000000  0.001190  1
  C  C12  1  0.666667  0.333333  0.389532  1
  C  C13  1  0.333333  0.666667  0.609786  1
  C  C14  1  0.333333  0.666667  0.893914  1
  C  C15  1  0.666667  0.333333  0.106158  1
