# generated using pymatgen
data_Y3U(NiP)4
_symmetry_space_group_name_H-M   'P 1'
_cell_length_a   3.90476200
_cell_length_b   3.90476242
_cell_length_c   15.31957600
_cell_angle_alpha   90.00000000
_cell_angle_beta   90.00000000
_cell_angle_gamma   120.00001335
_symmetry_Int_Tables_number   1
_chemical_formula_structural   Y3U(NiP)4
_chemical_formula_sum   'Y3 U1 Ni4 P4'
_cell_volume   202.28631471
_cell_formula_units_Z   1
loop_
 _symmetry_equiv_pos_site_id
 _symmetry_equiv_pos_as_xyz
  1  'x, y, z'
loop_
 _atom_site_type_symbol
 _atom_site_label
 _atom_site_symmetry_multiplicity
 _atom_site_fract_x
 _atom_site_fract_y
 _atom_site_fract_z
 _atom_site_occupancy
  Y  Y0  1  0.000000  0.000000  0.000000  1
  Y  Y1  1  0.000000  0.000000  0.248231  1
  Y  Y2  1  0.000000  0.000000  0.751769  1
  U  U3  1  0.000000  0.000000  0.500000  1
  Ni  Ni4  1  0.333333  0.666667  0.378698  1
  Ni  Ni5  1  0.666667  0.333333  0.621302  1
  Ni  Ni6  1  0.666667  0.333333  0.870288  1
  Ni  Ni7  1  0.333333  0.666667  0.129712  1
  P  P8  1  0.333333  0.666667  0.877025  1
  P  P9  1  0.666667  0.333333  0.122975  1
  P  P10  1  0.666667  0.333333  0.378203  1
  P  P11  1  0.333333  0.666667  0.621797  1
