# generated using pymatgen
data_Lu8Nb11Si16Tc
_symmetry_space_group_name_H-M   'P 1'
_cell_length_a   6.79710332
_cell_length_b   7.01202307
_cell_length_c   13.24454011
_cell_angle_alpha   90.07989440
_cell_angle_beta   89.87235745
_cell_angle_gamma   89.93227032
_symmetry_Int_Tables_number   1
_chemical_formula_structural   Lu8Nb11Si16Tc
_chemical_formula_sum   'Lu8 Nb11 Si16 Tc1'
_cell_volume   631.25130040
_cell_formula_units_Z   1
loop_
 _symmetry_equiv_pos_site_id
 _symmetry_equiv_pos_as_xyz
  1  'x, y, z'
loop_
 _atom_site_type_symbol
 _atom_site_label
 _atom_site_symmetry_multiplicity
 _atom_site_fract_x
 _atom_site_fract_y
 _atom_site_fract_z
 _atom_site_occupancy
  Lu  Lu0  1  0.503016  0.327673  0.095670  1
  Lu  Lu1  1  0.000902  0.173499  0.403982  1
  Lu  Lu2  1  0.497169  0.672804  0.595219  1
  Lu  Lu3  1  0.998836  0.828173  0.904081  1
  Lu  Lu4  1  0.497211  0.672421  0.903467  1
  Lu  Lu5  1  0.998035  0.827802  0.595660  1
  Lu  Lu6  1  0.502465  0.327789  0.405632  1
  Lu  Lu7  1  0.003431  0.173239  0.095941  1
  Nb  Nb8  1  0.838970  0.326009  0.624370  1
  Nb  Nb9  1  0.336910  0.173661  0.873119  1
  Nb  Nb10  1  0.163725  0.674546  0.125557  1
  Nb  Nb11  1  0.660325  0.827791  0.375795  1
  Nb  Nb12  1  0.165965  0.674469  0.377289  1
  Nb  Nb13  1  0.663098  0.825536  0.125629  1
  Nb  Nb14  1  0.836957  0.324651  0.873276  1
  Nb  Nb15  1  0.663696  0.007538  0.748621  1
  Nb  Nb16  1  0.161530  0.493113  0.749128  1
  Nb  Nb17  1  0.337373  0.995698  0.251033  1
  Nb  Nb18  1  0.837833  0.506180  0.250474  1
  Si  Si19  1  0.659219  0.037207  0.542904  1
  Si  Si20  1  0.164694  0.464231  0.958669  1
  Si  Si21  1  0.335008  0.964669  0.040699  1
  Si  Si22  1  0.835426  0.536237  0.458777  1
  Si  Si23  1  0.332715  0.967094  0.462181  1
  Si  Si24  1  0.835768  0.534943  0.040444  1
  Si  Si25  1  0.664090  0.034685  0.959055  1
  Si  Si26  1  0.167236  0.457505  0.542879  1
  Si  Si27  1  0.536412  0.377579  0.747021  1
  Si  Si28  1  0.043832  0.120260  0.747918  1
  Si  Si29  1  0.460631  0.619287  0.250575  1
  Si  Si30  1  0.960097  0.880348  0.250814  1
  Si  Si31  1  0.794532  0.630623  0.749532  1
  Si  Si32  1  0.297193  0.870618  0.749470  1
  Si  Si33  1  0.205461  0.369475  0.250418  1
  Si  Si34  1  0.704338  0.132202  0.249849  1
  Tc  Tc35  1  0.335897  0.170445  0.624857  1
