# generated using pymatgen
data_Li2TaNb(SO4)6
_symmetry_space_group_name_H-M   'P 1'
_cell_length_a   8.55885536
_cell_length_b   9.29376124
_cell_length_c   8.65785588
_cell_angle_alpha   109.70849528
_cell_angle_beta   105.11130899
_cell_angle_gamma   110.75486606
_symmetry_Int_Tables_number   1
_chemical_formula_structural   Li2TaNb(SO4)6
_chemical_formula_sum   'Li2 Ta1 Nb1 S6 O24'
_cell_volume   546.80639739
_cell_formula_units_Z   1
loop_
 _symmetry_equiv_pos_site_id
 _symmetry_equiv_pos_as_xyz
  1  'x, y, z'
loop_
 _atom_site_type_symbol
 _atom_site_label
 _atom_site_symmetry_multiplicity
 _atom_site_fract_x
 _atom_site_fract_y
 _atom_site_fract_z
 _atom_site_occupancy
  Li  Li0  1  0.852069  0.469535  0.218362  1
  Li  Li1  1  0.732051  0.062250  0.519693  1
  Ta  Ta2  1  0.476483  0.507803  0.516436  1
  Nb  Nb3  1  0.026759  0.982686  0.000167  1
  S  S4  1  0.586023  0.925413  0.773176  1
  S  S5  1  0.181821  0.410928  0.099402  1
  S  S6  1  0.090685  0.194551  0.453207  1
  S  S7  1  0.886681  0.775008  0.544994  1
  S  S8  1  0.771223  0.548505  0.888768  1
  S  S9  1  0.492288  0.152581  0.260675  1
  O  O10  1  0.019105  0.875856  0.747967  1
  O  O11  1  0.290880  0.041391  0.108168  1
  O  O12  1  0.974274  0.707134  0.440969  1
  O  O13  1  0.534760  0.036508  0.316487  1
  O  O14  1  0.051481  0.438293  0.167332  1
  O  O15  1  0.478722  0.934283  0.873314  1
  O  O16  1  0.485023  0.735091  0.611251  1
  O  O17  1  0.236966  0.491640  0.995265  1
  O  O18  1  0.229787  0.384555  0.507193  1
  O  O19  1  0.108291  0.211969  0.993846  1
  O  O20  1  0.359296  0.468417  0.267692  1
  O  O21  1  0.810785  0.877926  0.496695  1
  O  O22  1  0.180999  0.125103  0.545819  1
  O  O23  1  0.597820  0.543617  0.767758  1
  O  O24  1  0.921543  0.745645  0.979832  1
  O  O25  1  0.727509  0.614974  0.528520  1
  O  O26  1  0.733912  0.516164  0.030339  1
  O  O27  1  0.472175  0.278264  0.415246  1
  O  O28  1  0.613517  0.253403  0.204567  1
  O  O29  1  0.827893  0.443143  0.779056  1
  O  O30  1  0.632222  0.045680  0.700994  1
  O  O31  1  0.928570  0.198714  0.468094  1
  O  O32  1  0.767098  0.935232  0.885648  1
  O  O33  1  0.040581  0.096227  0.245284  1
