# generated using pymatgen
data_Ce5Sm3(AlRu)8
_symmetry_space_group_name_H-M   'P 1'
_cell_length_a   4.08148000
_cell_length_b   7.18851377
_cell_length_c   16.03666901
_cell_angle_alpha   89.81655415
_cell_angle_beta   90.00000000
_cell_angle_gamma   90.00000000
_symmetry_Int_Tables_number   1
_chemical_formula_structural   Ce5Sm3(AlRu)8
_chemical_formula_sum   'Ce5 Sm3 Al8 Ru8'
_cell_volume   470.50985192
_cell_formula_units_Z   1
loop_
 _symmetry_equiv_pos_site_id
 _symmetry_equiv_pos_as_xyz
  1  'x, y, z'
loop_
 _atom_site_type_symbol
 _atom_site_label
 _atom_site_symmetry_multiplicity
 _atom_site_fract_x
 _atom_site_fract_y
 _atom_site_fract_z
 _atom_site_occupancy
  Ce  Ce0  1  0.750000  0.464956  0.281161  1
  Ce  Ce1  1  0.750000  0.341615  0.061456  1
  Ce  Ce2  1  0.250000  0.682548  0.936483  1
  Ce  Ce3  1  0.250000  0.048999  0.780215  1
  Ce  Ce4  1  0.250000  0.535375  0.718347  1
  Sm  Sm5  1  0.750000  0.962644  0.216764  1
  Sm  Sm6  1  0.250000  0.150036  0.559758  1
  Sm  Sm7  1  0.750000  0.824890  0.438557  1
  Al  Al8  1  0.750000  0.477704  0.563712  1
  Al  Al9  1  0.750000  0.377947  0.850934  1
  Al  Al10  1  0.750000  0.020928  0.936077  1
  Al  Al11  1  0.750000  0.858363  0.652348  1
  Al  Al12  1  0.250000  0.488288  0.438045  1
  Al  Al13  1  0.250000  0.010091  0.063217  1
  Al  Al14  1  0.250000  0.645436  0.146212  1
  Al  Al15  1  0.250000  0.126627  0.345942  1
  Ru  Ru16  1  0.750000  0.764830  0.818804  1
  Ru  Ru17  1  0.250000  0.253056  0.937210  1
  Ru  Ru18  1  0.750000  0.254687  0.428936  1
  Ru  Ru19  1  0.250000  0.727222  0.312055  1
  Ru  Ru20  1  0.750000  0.771976  0.057700  1
  Ru  Ru21  1  0.750000  0.228495  0.694992  1
  Ru  Ru22  1  0.250000  0.280919  0.181664  1
  Ru  Ru23  1  0.250000  0.702367  0.579407  1
