# generated using pymatgen
data_Nd3Ho5(P7Ir8)2
_symmetry_space_group_name_H-M   'P 1'
_cell_length_a   3.95430600
_cell_length_b   12.76664974
_cell_length_c   13.14029166
_cell_angle_alpha   80.89981559
_cell_angle_beta   90.00000000
_cell_angle_gamma   90.00000000
_symmetry_Int_Tables_number   1
_chemical_formula_structural   Nd3Ho5(P7Ir8)2
_chemical_formula_sum   'Nd3 Ho5 P14 Ir16'
_cell_volume   655.01492165
_cell_formula_units_Z   1
loop_
 _symmetry_equiv_pos_site_id
 _symmetry_equiv_pos_as_xyz
  1  'x, y, z'
loop_
 _atom_site_type_symbol
 _atom_site_label
 _atom_site_symmetry_multiplicity
 _atom_site_fract_x
 _atom_site_fract_y
 _atom_site_fract_z
 _atom_site_occupancy
  Nd  Nd0  1  0.250000  0.104416  0.788405  1
  Nd  Nd1  1  0.750000  0.895383  0.211840  1
  Nd  Nd2  1  0.250000  0.279929  0.102078  1
  Ho  Ho3  1  0.750000  0.791541  0.560150  1
  Ho  Ho4  1  0.250000  0.208468  0.440130  1
  Ho  Ho5  1  0.750000  0.480425  0.705819  1
  Ho  Ho6  1  0.250000  0.520049  0.294419  1
  Ho  Ho7  1  0.750000  0.719544  0.897845  1
  P  P8  1  0.250000  0.907045  0.412026  1
  P  P9  1  0.750000  0.472901  0.129590  1
  P  P10  1  0.250000  0.528113  0.870378  1
  P  P11  1  0.750000  0.092719  0.588197  1
  P  P12  1  0.250000  0.741042  0.079446  1
  P  P13  1  0.750000  0.257958  0.917841  1
  P  P14  1  0.750000  0.158548  0.284007  1
  P  P15  1  0.250000  0.841750  0.717195  1
  P  P16  1  0.250000  0.051423  0.100020  1
  P  P17  1  0.750000  0.945132  0.900200  1
  P  P18  1  0.250000  0.315955  0.687904  1
  P  P19  1  0.750000  0.684048  0.311702  1
  P  P20  1  0.250000  0.608225  0.566596  1
  P  P21  1  0.750000  0.392381  0.434488  1
  Ir  Ir22  1  0.250000  0.989807  0.576289  1
  Ir  Ir23  1  0.750000  0.009930  0.424381  1
  Ir  Ir24  1  0.250000  0.662082  0.730752  1
  Ir  Ir25  1  0.750000  0.339548  0.271949  1
  Ir  Ir26  1  0.250000  0.553818  0.046169  1
  Ir  Ir27  1  0.750000  0.449584  0.951462  1
  Ir  Ir28  1  0.250000  0.063728  0.273616  1
  Ir  Ir29  1  0.750000  0.935019  0.727085  1
  Ir  Ir30  1  0.250000  0.422773  0.523745  1
  Ir  Ir31  1  0.750000  0.577770  0.476607  1
  Ir  Ir32  1  0.250000  0.913754  0.997321  1
  Ir  Ir33  1  0.750000  0.084672  0.001530  1
  Ir  Ir34  1  0.250000  0.728480  0.396018  1
  Ir  Ir35  1  0.750000  0.271399  0.603977  1
  Ir  Ir36  1  0.250000  0.343949  0.856706  1
  Ir  Ir37  1  0.750000  0.656694  0.142117  1
