# generated using pymatgen
data_Y3V(P3Rh4)2
_symmetry_space_group_name_H-M   'P 1'
_cell_length_a   3.92312000
_cell_length_b   11.18074000
_cell_length_c   12.80900200
_cell_angle_alpha   90.00000000
_cell_angle_beta   90.00000000
_cell_angle_gamma   90.00000000
_symmetry_Int_Tables_number   1
_chemical_formula_structural   Y3V(P3Rh4)2
_chemical_formula_sum   'Y6 V2 P12 Rh16'
_cell_volume   561.84618246
_cell_formula_units_Z   2
loop_
 _symmetry_equiv_pos_site_id
 _symmetry_equiv_pos_as_xyz
  1  'x, y, z'
loop_
 _atom_site_type_symbol
 _atom_site_label
 _atom_site_symmetry_multiplicity
 _atom_site_fract_x
 _atom_site_fract_y
 _atom_site_fract_z
 _atom_site_occupancy
  Y  Y0  1  0.000000  0.500000  0.519490  1
  Y  Y1  1  0.500000  0.000000  0.480510  1
  Y  Y2  1  0.500000  0.816691  0.202007  1
  Y  Y3  1  0.500000  0.183309  0.202007  1
  Y  Y4  1  0.000000  0.683309  0.797993  1
  Y  Y5  1  0.000000  0.316691  0.797993  1
  V  V6  1  0.500000  0.500000  0.157087  1
  V  V7  1  0.000000  0.000000  0.842913  1
  P  P8  1  0.500000  0.500000  0.877058  1
  P  P9  1  0.000000  0.000000  0.122942  1
  P  P10  1  0.500000  0.500000  0.343535  1
  P  P11  1  0.000000  0.000000  0.656465  1
  P  P12  1  0.500000  0.313853  0.617342  1
  P  P13  1  0.500000  0.686147  0.617342  1
  P  P14  1  0.000000  0.186147  0.382658  1
  P  P15  1  0.000000  0.813853  0.382658  1
  P  P16  1  0.500000  0.847673  0.888944  1
  P  P17  1  0.500000  0.152327  0.888944  1
  P  P18  1  0.000000  0.652327  0.111056  1
  P  P19  1  0.000000  0.347673  0.111056  1
  Rh  Rh20  1  0.500000  0.500000  0.698526  1
  Rh  Rh21  1  0.000000  0.000000  0.301474  1
  Rh  Rh22  1  0.000000  0.500000  0.987391  1
  Rh  Rh23  1  0.500000  0.000000  0.012609  1
  Rh  Rh24  1  0.500000  0.332319  0.988512  1
  Rh  Rh25  1  0.500000  0.667681  0.988512  1
  Rh  Rh26  1  0.000000  0.167681  0.011488  1
  Rh  Rh27  1  0.000000  0.832319  0.011488  1
  Rh  Rh28  1  0.500000  0.292814  0.430718  1
  Rh  Rh29  1  0.500000  0.707186  0.430718  1
  Rh  Rh30  1  0.000000  0.207186  0.569282  1
  Rh  Rh31  1  0.000000  0.792814  0.569282  1
  Rh  Rh32  1  0.500000  0.875290  0.709620  1
  Rh  Rh33  1  0.500000  0.124710  0.709620  1
  Rh  Rh34  1  0.000000  0.624710  0.290380  1
  Rh  Rh35  1  0.000000  0.375290  0.290380  1
