# generated using pymatgen
data_TbGd7Er2(SiB4)4
_symmetry_space_group_name_H-M   'P 1'
_cell_length_a   7.25694385
_cell_length_b   7.25694385
_cell_length_c   8.16895501
_cell_angle_alpha   89.99619651
_cell_angle_beta   90.00380349
_cell_angle_gamma   89.94466977
_symmetry_Int_Tables_number   1
_chemical_formula_structural   TbGd7Er2(SiB4)4
_chemical_formula_sum   'Tb1 Gd7 Er2 Si4 B16'
_cell_volume   430.20338702
_cell_formula_units_Z   1
loop_
 _symmetry_equiv_pos_site_id
 _symmetry_equiv_pos_as_xyz
  1  'x, y, z'
loop_
 _atom_site_type_symbol
 _atom_site_label
 _atom_site_symmetry_multiplicity
 _atom_site_fract_x
 _atom_site_fract_y
 _atom_site_fract_z
 _atom_site_occupancy
  Tb  Tb0  1  0.180387  0.319613  0.223719  1
  Gd  Gd1  1  0.680735  0.180445  0.226011  1
  Gd  Gd2  1  0.319439  0.819695  0.774206  1
  Gd  Gd3  1  0.319555  0.819265  0.226011  1
  Gd  Gd4  1  0.819433  0.680567  0.225646  1
  Gd  Gd5  1  0.819578  0.680422  0.774870  1
  Gd  Gd6  1  0.680305  0.180561  0.774206  1
  Gd  Gd7  1  0.180374  0.319626  0.774341  1
  Er  Er8  1  0.000088  0.000026  0.499840  1
  Er  Er9  1  0.499974  0.499912  0.499840  1
  Si  Si10  1  0.115414  0.614759  0.499463  1
  Si  Si11  1  0.885241  0.384586  0.499463  1
  Si  Si12  1  0.384527  0.115473  0.499949  1
  Si  Si13  1  0.614878  0.885122  0.499605  1
  B  B14  1  0.172429  0.039433  0.000119  1
  B  B15  1  0.827652  0.960728  0.000247  1
  B  B16  1  0.960857  0.172527  0.000060  1
  B  B17  1  0.327473  0.539143  0.000060  1
  B  B18  1  0.039230  0.827560  0.000230  1
  B  B19  1  0.672440  0.460770  0.000230  1
  B  B20  1  0.539272  0.672348  0.000247  1
  B  B21  1  0.460567  0.327571  0.000119  1
  B  B22  1  0.089982  0.589863  0.000234  1
  B  B23  1  0.910137  0.410018  0.000234  1
  B  B24  1  0.409826  0.090174  0.000154  1
  B  B25  1  0.590123  0.909877  0.000078  1
  B  B26  1  0.000100  0.000155  0.160468  1
  B  B27  1  0.999977  0.999840  0.839941  1
  B  B28  1  0.500160  0.500023  0.839941  1
  B  B29  1  0.499845  0.499900  0.160468  1
