# generated using pymatgen
data_K2Tl3Re3AgH27
_symmetry_space_group_name_H-M   'P 1'
_cell_length_a   9.74185965
_cell_length_b   9.10455078
_cell_length_c   5.80341300
_cell_angle_alpha   90.00000000
_cell_angle_beta   90.00000000
_cell_angle_gamma   117.85854686
_symmetry_Int_Tables_number   1
_chemical_formula_structural   K2Tl3Re3AgH27
_chemical_formula_sum   'K2 Tl3 Re3 Ag1 H27'
_cell_volume   455.07942060
_cell_formula_units_Z   1
loop_
 _symmetry_equiv_pos_site_id
 _symmetry_equiv_pos_as_xyz
  1  'x, y, z'
loop_
 _atom_site_type_symbol
 _atom_site_label
 _atom_site_symmetry_multiplicity
 _atom_site_fract_x
 _atom_site_fract_y
 _atom_site_fract_z
 _atom_site_occupancy
  K  K0  1  0.744797  0.758596  0.500000  1
  K  K1  1  0.255203  0.013801  0.500000  1
  Tl  Tl2  1  0.000000  0.604037  0.000000  1
  Tl  Tl3  1  0.367693  0.403998  0.000000  1
  Tl  Tl4  1  0.632307  0.036306  0.000000  1
  Re  Re5  1  0.680305  0.323226  0.500000  1
  Re  Re6  1  0.319695  0.642923  0.500000  1
  Re  Re7  1  0.000000  0.005162  0.000000  1
  Ag  Ag8  1  0.000000  0.405171  0.500000  1
  H  H9  1  0.803710  0.292829  0.694067  1
  H  H10  1  0.693421  0.426970  0.746203  1
  H  H11  1  0.532122  0.212023  0.683625  1
  H  H12  1  0.196290  0.489120  0.305933  1
  H  H13  1  0.532122  0.212023  0.316375  1
  H  H14  1  0.803710  0.292829  0.305933  1
  H  H15  1  0.693421  0.426970  0.253797  1
  H  H16  1  0.306579  0.733550  0.746203  1
  H  H17  1  0.467878  0.679903  0.683625  1
  H  H18  1  0.174336  0.005802  0.000000  1
  H  H19  1  0.825664  0.831466  0.000000  1
  H  H20  1  0.000000  0.188728  0.000000  1
  H  H21  1  0.885299  0.020589  0.210035  1
  H  H22  1  0.114701  0.135291  0.789965  1
  H  H23  1  0.000000  0.871512  0.788248  1
  H  H24  1  0.000000  0.871512  0.211752  1
  H  H25  1  0.114701  0.135291  0.210035  1
  H  H26  1  0.885299  0.020589  0.789965  1
  H  H27  1  0.161093  0.679131  0.500000  1
  H  H28  1  0.441117  0.848824  0.500000  1
  H  H29  1  0.359361  0.481436  0.500000  1
  H  H30  1  0.558883  0.407707  0.500000  1
  H  H31  1  0.838907  0.518040  0.500000  1
  H  H32  1  0.640639  0.122075  0.500000  1
  H  H33  1  0.196290  0.489120  0.694067  1
  H  H34  1  0.306579  0.733550  0.253797  1
  H  H35  1  0.467878  0.679903  0.316375  1
