# generated using pymatgen
data_Hf18Ta5Re3As2
_symmetry_space_group_name_H-M   'P 1'
_cell_length_a   8.72857240
_cell_length_b   8.78184423
_cell_length_c   8.76017500
_cell_angle_alpha   90.00000000
_cell_angle_beta   90.00000000
_cell_angle_gamma   120.22624111
_symmetry_Int_Tables_number   1
_chemical_formula_structural   Hf18Ta5Re3As2
_chemical_formula_sum   'Hf18 Ta5 Re3 As2'
_cell_volume   580.20004079
_cell_formula_units_Z   1
loop_
 _symmetry_equiv_pos_site_id
 _symmetry_equiv_pos_as_xyz
  1  'x, y, z'
loop_
 _atom_site_type_symbol
 _atom_site_label
 _atom_site_symmetry_multiplicity
 _atom_site_fract_x
 _atom_site_fract_y
 _atom_site_fract_z
 _atom_site_occupancy
  Hf  Hf0  1  0.803983  0.608637  0.546361  1
  Hf  Hf1  1  0.803579  0.195736  0.545995  1
  Hf  Hf2  1  0.388836  0.194391  0.543368  1
  Hf  Hf3  1  0.195402  0.390652  0.450556  1
  Hf  Hf4  1  0.195737  0.804315  0.450957  1
  Hf  Hf5  1  0.608794  0.804398  0.452184  1
  Hf  Hf6  1  0.195402  0.390652  0.049444  1
  Hf  Hf7  1  0.195737  0.804315  0.049043  1
  Hf  Hf8  1  0.608794  0.804398  0.047816  1
  Hf  Hf9  1  0.803983  0.608637  0.953639  1
  Hf  Hf10  1  0.803579  0.195736  0.954005  1
  Hf  Hf11  1  0.388836  0.194391  0.956632  1
  Hf  Hf12  1  0.460348  0.921396  0.750000  1
  Hf  Hf13  1  0.460338  0.538976  0.750000  1
  Hf  Hf14  1  0.078986  0.539433  0.750000  1
  Hf  Hf15  1  0.537320  0.080072  0.250000  1
  Hf  Hf16  1  0.537384  0.457253  0.250000  1
  Hf  Hf17  1  0.921034  0.460522  0.250000  1
  Ta  Ta18  1  0.110819  0.221199  0.750000  1
  Ta  Ta19  1  0.111083  0.889673  0.750000  1
  Ta  Ta20  1  0.778642  0.889447  0.750000  1
  Ta  Ta21  1  0.894610  0.782368  0.250000  1
  Ta  Ta22  1  0.894055  0.112110  0.250000  1
  Re  Re23  1  0.222480  0.111203  0.250000  1
  Re  Re24  1  0.000798  0.000394  0.500884  1
  Re  Re25  1  0.000798  0.000394  0.999116  1
  As  As26  1  0.665598  0.332991  0.750000  1
  As  As27  1  0.333045  0.666311  0.250000  1
