# generated using pymatgen
data_Lu6Al15Si9Ru8
_symmetry_space_group_name_H-M   'P 1'
_cell_length_a   8.62785419
_cell_length_b   8.62785356
_cell_length_c   9.30642700
_cell_angle_alpha   90.00000000
_cell_angle_beta   90.00000000
_cell_angle_gamma   120.02410208
_symmetry_Int_Tables_number   1
_chemical_formula_structural   Lu6Al15Si9Ru8
_chemical_formula_sum   'Lu6 Al15 Si9 Ru8'
_cell_volume   599.80991625
_cell_formula_units_Z   1
loop_
 _symmetry_equiv_pos_site_id
 _symmetry_equiv_pos_as_xyz
  1  'x, y, z'
loop_
 _atom_site_type_symbol
 _atom_site_label
 _atom_site_symmetry_multiplicity
 _atom_site_fract_x
 _atom_site_fract_y
 _atom_site_fract_z
 _atom_site_occupancy
  Lu  Lu0  1  0.194373  0.389441  0.250000  1
  Lu  Lu1  1  0.808319  0.611925  0.750000  1
  Lu  Lu2  1  0.610559  0.805627  0.250000  1
  Lu  Lu3  1  0.388075  0.191681  0.750000  1
  Lu  Lu4  1  0.195360  0.804640  0.250000  1
  Lu  Lu5  1  0.805201  0.194799  0.750000  1
  Al  Al6  1  0.165160  0.328644  0.578816  1
  Al  Al7  1  0.835990  0.671353  0.418857  1
  Al  Al8  1  0.671356  0.834840  0.578816  1
  Al  Al9  1  0.835990  0.671353  0.081143  1
  Al  Al10  1  0.328647  0.164010  0.418857  1
  Al  Al11  1  0.165160  0.328644  0.921184  1
  Al  Al12  1  0.164256  0.835744  0.578903  1
  Al  Al13  1  0.328647  0.164010  0.081143  1
  Al  Al14  1  0.835250  0.164750  0.419852  1
  Al  Al15  1  0.671356  0.834840  0.921184  1
  Al  Al16  1  0.835250  0.164750  0.080148  1
  Al  Al17  1  0.164256  0.835744  0.921097  1
  Al  Al18  1  0.436427  0.563573  0.750000  1
  Al  Al19  1  0.000437  0.999563  0.250000  1
  Al  Al20  1  0.999778  0.000222  0.750000  1
  Si  Si21  1  0.334353  0.665647  0.042242  1
  Si  Si22  1  0.665803  0.334197  0.956551  1
  Si  Si23  1  0.665803  0.334197  0.543449  1
  Si  Si24  1  0.334353  0.665647  0.457758  1
  Si  Si25  1  0.561279  0.123344  0.250000  1
  Si  Si26  1  0.436446  0.876488  0.750000  1
  Si  Si27  1  0.876656  0.438721  0.250000  1
  Si  Si28  1  0.123512  0.563554  0.750000  1
  Si  Si29  1  0.562430  0.437570  0.250000  1
  Ru  Ru30  1  0.500226  0.001134  0.000882  1
  Ru  Ru31  1  0.998866  0.499774  0.000882  1
  Ru  Ru32  1  0.500226  0.001134  0.499118  1
  Ru  Ru33  1  0.500834  0.499166  0.006651  1
  Ru  Ru34  1  0.998866  0.499774  0.499118  1
  Ru  Ru35  1  0.500834  0.499166  0.493349  1
  Ru  Ru36  1  0.999830  0.000170  0.999838  1
  Ru  Ru37  1  0.999830  0.000170  0.500162  1
