# generated using pymatgen
data_Y2Er6Si8Pd3Pt5
_symmetry_space_group_name_H-M   'P 1'
_cell_length_a   4.25875700
_cell_length_b   7.49818997
_cell_length_c   13.97025401
_cell_angle_alpha   89.97261931
_cell_angle_beta   90.00000000
_cell_angle_gamma   90.00000000
_symmetry_Int_Tables_number   1
_chemical_formula_structural   Y2Er6Si8Pd3Pt5
_chemical_formula_sum   'Y2 Er6 Si8 Pd3 Pt5'
_cell_volume   446.11163723
_cell_formula_units_Z   1
loop_
 _symmetry_equiv_pos_site_id
 _symmetry_equiv_pos_as_xyz
  1  'x, y, z'
loop_
 _atom_site_type_symbol
 _atom_site_label
 _atom_site_symmetry_multiplicity
 _atom_site_fract_x
 _atom_site_fract_y
 _atom_site_fract_z
 _atom_site_occupancy
  Y  Y0  1  0.000000  0.300648  0.000083  1
  Y  Y1  1  0.500000  0.699351  0.500207  1
  Er  Er2  1  0.000000  0.292021  0.499565  1
  Er  Er3  1  0.500000  0.707374  0.000009  1
  Er  Er4  1  0.000000  0.203304  0.250132  1
  Er  Er5  1  0.500000  0.795745  0.249572  1
  Er  Er6  1  0.000000  0.203627  0.749522  1
  Er  Er7  1  0.500000  0.796411  0.750832  1
  Si  Si8  1  0.000000  0.907642  0.592676  1
  Si  Si9  1  0.500000  0.092430  0.907511  1
  Si  Si10  1  0.000000  0.907856  0.407602  1
  Si  Si11  1  0.500000  0.094041  0.093454  1
  Si  Si12  1  0.000000  0.594146  0.144402  1
  Si  Si13  1  0.500000  0.403255  0.353562  1
  Si  Si14  1  0.000000  0.596495  0.857239  1
  Si  Si15  1  0.500000  0.403345  0.643304  1
  Pd  Pd16  1  0.000000  0.580144  0.343399  1
  Pd  Pd17  1  0.500000  0.421799  0.839869  1
  Pd  Pd18  1  0.000000  0.578558  0.658814  1
  Pt  Pt19  1  0.500000  0.075049  0.609296  1
  Pt  Pt20  1  0.000000  0.925038  0.890914  1
  Pt  Pt21  1  0.500000  0.075022  0.391208  1
  Pt  Pt22  1  0.000000  0.923704  0.109268  1
  Pt  Pt23  1  0.500000  0.422995  0.157558  1
