# generated using pymatgen
data_Tm3LuMnAl3B16
_symmetry_space_group_name_H-M   'P 1'
_cell_length_a   3.47022300
_cell_length_b   5.91461414
_cell_length_c   11.43534127
_cell_angle_alpha   90.19873290
_cell_angle_beta   90.00000000
_cell_angle_gamma   90.00000000
_symmetry_Int_Tables_number   1
_chemical_formula_structural   Tm3LuMnAl3B16
_chemical_formula_sum   'Tm3 Lu1 Mn1 Al3 B16'
_cell_volume   234.70931088
_cell_formula_units_Z   1
loop_
 _symmetry_equiv_pos_site_id
 _symmetry_equiv_pos_as_xyz
  1  'x, y, z'
loop_
 _atom_site_type_symbol
 _atom_site_label
 _atom_site_symmetry_multiplicity
 _atom_site_fract_x
 _atom_site_fract_y
 _atom_site_fract_z
 _atom_site_occupancy
  Tm  Tm0  1  0.000000  0.370444  0.657359  1
  Tm  Tm1  1  0.000000  0.628270  0.347413  1
  Tm  Tm2  1  0.000000  0.875385  0.851677  1
  Lu  Lu3  1  0.000000  0.129606  0.144488  1
  Mn  Mn4  1  0.000000  0.372599  0.917575  1
  Al  Al5  1  0.000000  0.632778  0.082961  1
  Al  Al6  1  0.000000  0.860823  0.593033  1
  Al  Al7  1  0.000000  0.137834  0.409736  1
  B  B8  1  0.500000  0.026596  0.693672  1
  B  B9  1  0.500000  0.973517  0.305581  1
  B  B10  1  0.500000  0.518503  0.809108  1
  B  B11  1  0.500000  0.474940  0.192687  1
  B  B12  1  0.500000  0.114240  0.547777  1
  B  B13  1  0.500000  0.885751  0.452361  1
  B  B14  1  0.500000  0.609693  0.950119  1
  B  B15  1  0.500000  0.382214  0.044097  1
  B  B16  1  0.500000  0.291283  0.312060  1
  B  B17  1  0.500000  0.707939  0.687599  1
  B  B18  1  0.500000  0.790158  0.186016  1
  B  B19  1  0.500000  0.214912  0.816657  1
  B  B20  1  0.500000  0.366713  0.469102  1
  B  B21  1  0.500000  0.632405  0.530918  1
  B  B22  1  0.500000  0.866584  0.031465  1
  B  B23  1  0.500000  0.136812  0.966539  1
