# generated using pymatgen
data_SmEr4(In2Pt)2
_symmetry_space_group_name_H-M   'P 1'
_cell_length_a   3.60642100
_cell_length_b   8.16741900
_cell_length_c   18.28194600
_cell_angle_alpha   90.00000000
_cell_angle_beta   90.00000000
_cell_angle_gamma   90.00000000
_symmetry_Int_Tables_number   1
_chemical_formula_structural   SmEr4(In2Pt)2
_chemical_formula_sum   'Sm2 Er8 In8 Pt4'
_cell_volume   538.49748727
_cell_formula_units_Z   2
loop_
 _symmetry_equiv_pos_site_id
 _symmetry_equiv_pos_as_xyz
  1  'x, y, z'
loop_
 _atom_site_type_symbol
 _atom_site_label
 _atom_site_symmetry_multiplicity
 _atom_site_fract_x
 _atom_site_fract_y
 _atom_site_fract_z
 _atom_site_occupancy
  Sm  Sm0  1  0.000000  0.000000  0.000000  1
  Sm  Sm1  1  0.000000  0.500000  0.500000  1
  Er  Er2  1  0.000000  0.116998  0.413965  1
  Er  Er3  1  0.000000  0.883002  0.586035  1
  Er  Er4  1  0.000000  0.383002  0.913965  1
  Er  Er5  1  0.000000  0.616998  0.086035  1
  Er  Er6  1  0.000000  0.243332  0.220189  1
  Er  Er7  1  0.000000  0.756668  0.779811  1
  Er  Er8  1  0.000000  0.256668  0.720189  1
  Er  Er9  1  0.000000  0.743332  0.279811  1
  In  In10  1  0.500000  0.423145  0.349898  1
  In  In11  1  0.500000  0.576855  0.650102  1
  In  In12  1  0.500000  0.076855  0.849898  1
  In  In13  1  0.500000  0.923145  0.150102  1
  In  In14  1  0.500000  0.294712  0.067087  1
  In  In15  1  0.500000  0.705288  0.932913  1
  In  In16  1  0.500000  0.205288  0.567087  1
  In  In17  1  0.500000  0.794712  0.432913  1
  Pt  Pt18  1  0.500000  0.024410  0.303237  1
  Pt  Pt19  1  0.500000  0.975590  0.696763  1
  Pt  Pt20  1  0.500000  0.475590  0.803237  1
  Pt  Pt21  1  0.500000  0.524410  0.196763  1
