# generated using pymatgen
data_La12Y2PdRh5
_symmetry_space_group_name_H-M   'P 1'
_cell_length_a   10.28364500
_cell_length_b   10.22459004
_cell_length_c   6.51203674
_cell_angle_alpha   90.14178123
_cell_angle_beta   90.00000000
_cell_angle_gamma   120.19124906
_symmetry_Int_Tables_number   1
_chemical_formula_structural   La12Y2PdRh5
_chemical_formula_sum   'La12 Y2 Pd1 Rh5'
_cell_volume   591.83206651
_cell_formula_units_Z   1
loop_
 _symmetry_equiv_pos_site_id
 _symmetry_equiv_pos_as_xyz
  1  'x, y, z'
loop_
 _atom_site_type_symbol
 _atom_site_label
 _atom_site_symmetry_multiplicity
 _atom_site_fract_x
 _atom_site_fract_y
 _atom_site_fract_z
 _atom_site_occupancy
  La  La0  1  0.873714  0.747428  0.767889  1
  La  La1  1  0.257200  0.123326  0.767896  1
  La  La2  1  0.866127  0.123326  0.767896  1
  La  La3  1  0.126245  0.252490  0.283075  1
  La  La4  1  0.746806  0.873557  0.268330  1
  La  La5  1  0.126749  0.873557  0.268330  1
  La  La6  1  0.458446  0.916895  0.599672  1
  La  La7  1  0.077637  0.544485  0.596069  1
  La  La8  1  0.466845  0.544485  0.596069  1
  La  La9  1  0.540746  0.081490  0.103539  1
  La  La10  1  0.918054  0.459734  0.100007  1
  La  La11  1  0.541683  0.459734  0.100007  1
  Y  Y12  1  0.666360  0.332719  0.564869  1
  Y  Y13  1  0.334766  0.669534  0.068433  1
  Pd  Pd14  1  0.188894  0.377786  0.843796  1
  Rh  Rh15  1  0.620676  0.808710  0.842332  1
  Rh  Rh16  1  0.188035  0.808710  0.842332  1
  Rh  Rh17  1  0.810854  0.621710  0.344479  1
  Rh  Rh18  1  0.376948  0.190162  0.345012  1
  Rh  Rh19  1  0.813213  0.190162  0.345012  1
