# generated using pymatgen
data_Zr10Sn6Se
_symmetry_space_group_name_H-M   'P 1'
_cell_length_a   5.89253603
_cell_length_b   8.62961210
_cell_length_c   8.62965803
_cell_angle_alpha   119.99969792
_cell_angle_beta   90.00020433
_cell_angle_gamma   89.99964517
_symmetry_Int_Tables_number   1
_chemical_formula_structural   Zr10Sn6Se
_chemical_formula_sum   'Zr10 Sn6 Se1'
_cell_volume   380.03103224
_cell_formula_units_Z   1
loop_
 _symmetry_equiv_pos_site_id
 _symmetry_equiv_pos_as_xyz
  1  'x, y, z'
loop_
 _atom_site_type_symbol
 _atom_site_label
 _atom_site_symmetry_multiplicity
 _atom_site_fract_x
 _atom_site_fract_y
 _atom_site_fract_z
 _atom_site_occupancy
  Zr  Zr0  1  0.499999  0.333336  0.666669  1
  Zr  Zr1  1  0.500000  0.666668  0.333332  1
  Zr  Zr2  1  0.000000  0.666669  0.333332  1
  Zr  Zr3  1  0.000001  0.333338  0.666669  1
  Zr  Zr4  1  0.762632  0.256403  0.000000  1
  Zr  Zr5  1  0.762634  0.743601  0.743603  1
  Zr  Zr6  1  0.762633  0.999995  0.256396  1
  Zr  Zr7  1  0.237365  0.743597  0.000001  1
  Zr  Zr8  1  0.237366  0.256400  0.256399  1
  Zr  Zr9  1  0.237369  0.000000  0.743601  1
  Sn  Sn10  1  0.748918  0.607865  0.000007  1
  Sn  Sn11  1  0.748919  0.392136  0.392129  1
  Sn  Sn12  1  0.748919  0.999992  0.607861  1
  Sn  Sn13  1  0.251081  0.392135  0.000007  1
  Sn  Sn14  1  0.251082  0.607870  0.607859  1
  Sn  Sn15  1  0.251081  0.999996  0.392133  1
  Se  Se16  1  0.499999  0.000002  0.000002  1
