# generated using pymatgen
data_NdHo6(CBr5)2
_symmetry_space_group_name_H-M   'P 1'
_cell_length_a   10.62477441
_cell_length_b   10.62477416
_cell_length_c   13.27555800
_cell_angle_alpha   80.10372166
_cell_angle_beta   80.10372190
_cell_angle_gamma   20.99369610
_symmetry_Int_Tables_number   1
_chemical_formula_structural   NdHo6(CBr5)2
_chemical_formula_sum   'Nd1 Ho6 C2 Br10'
_cell_volume   528.63901935
_cell_formula_units_Z   1
loop_
 _symmetry_equiv_pos_site_id
 _symmetry_equiv_pos_as_xyz
  1  'x, y, z'
loop_
 _atom_site_type_symbol
 _atom_site_label
 _atom_site_symmetry_multiplicity
 _atom_site_fract_x
 _atom_site_fract_y
 _atom_site_fract_z
 _atom_site_occupancy
  Nd  Nd0  1  0.000000  0.000000  0.000000  1
  Ho  Ho1  1  0.815627  0.815627  0.507236  1
  Ho  Ho2  1  0.184373  0.184373  0.492764  1
  Ho  Ho3  1  0.701864  0.701864  0.715098  1
  Ho  Ho4  1  0.298136  0.298136  0.284902  1
  Ho  Ho5  1  0.341684  0.341684  0.725292  1
  Ho  Ho6  1  0.658316  0.658316  0.274708  1
  C  C7  1  0.260791  0.260791  0.622538  1
  C  C8  1  0.739209  0.739209  0.377462  1
  Br  Br9  1  0.446309  0.446309  0.868225  1
  Br  Br10  1  0.553691  0.553691  0.131775  1
  Br  Br11  1  0.784263  0.784263  0.871212  1
  Br  Br12  1  0.215737  0.215737  0.128788  1
  Br  Br13  1  0.126646  0.126646  0.861479  1
  Br  Br14  1  0.073334  0.073334  0.378126  1
  Br  Br15  1  0.926666  0.926666  0.621874  1
  Br  Br16  1  0.404148  0.404148  0.386483  1
  Br  Br17  1  0.595852  0.595852  0.613517  1
  Br  Br18  1  0.873354  0.873354  0.138521  1
