# generated using pymatgen
data_Ca3Tm5(Si3Pt)4
_symmetry_space_group_name_H-M   'P 1'
_cell_length_a   8.20049700
_cell_length_b   8.20049835
_cell_length_c   8.27094200
_cell_angle_alpha   90.00000000
_cell_angle_beta   90.00000000
_cell_angle_gamma   119.99999857
_symmetry_Int_Tables_number   1
_chemical_formula_structural   Ca3Tm5(Si3Pt)4
_chemical_formula_sum   'Ca3 Tm5 Si12 Pt4'
_cell_volume   481.68822845
_cell_formula_units_Z   1
loop_
 _symmetry_equiv_pos_site_id
 _symmetry_equiv_pos_as_xyz
  1  'x, y, z'
loop_
 _atom_site_type_symbol
 _atom_site_label
 _atom_site_symmetry_multiplicity
 _atom_site_fract_x
 _atom_site_fract_y
 _atom_site_fract_z
 _atom_site_occupancy
  Ca  Ca0  1  0.499959  0.500041  0.750000  1
  Ca  Ca1  1  0.499959  0.999915  0.750000  1
  Ca  Ca2  1  0.000085  0.500041  0.750000  1
  Tm  Tm3  1  0.000000  0.000000  0.250000  1
  Tm  Tm4  1  0.000000  0.000000  0.750000  1
  Tm  Tm5  1  0.500539  0.499461  0.250000  1
  Tm  Tm6  1  0.500539  0.001079  0.250000  1
  Tm  Tm7  1  0.998921  0.499461  0.250000  1
  Si  Si8  1  0.164876  0.835124  0.494528  1
  Si  Si9  1  0.164876  0.329751  0.494528  1
  Si  Si10  1  0.670249  0.835124  0.494528  1
  Si  Si11  1  0.835210  0.164790  0.494247  1
  Si  Si12  1  0.835210  0.670420  0.494247  1
  Si  Si13  1  0.329580  0.164790  0.494247  1
  Si  Si14  1  0.835210  0.164790  0.005753  1
  Si  Si15  1  0.835210  0.670420  0.005753  1
  Si  Si16  1  0.329580  0.164790  0.005753  1
  Si  Si17  1  0.164876  0.835124  0.005472  1
  Si  Si18  1  0.164876  0.329751  0.005472  1
  Si  Si19  1  0.670249  0.835124  0.005472  1
  Pt  Pt20  1  0.333333  0.666667  0.475847  1
  Pt  Pt21  1  0.666667  0.333333  0.478230  1
  Pt  Pt22  1  0.666667  0.333333  0.021770  1
  Pt  Pt23  1  0.333333  0.666667  0.024153  1
