# generated using pymatgen
data_TbSm4GdIn6O18
_symmetry_space_group_name_H-M   'P 1'
_cell_length_a   6.45436800
_cell_length_b   6.45436917
_cell_length_c   12.44708500
_cell_angle_alpha   90.00000000
_cell_angle_beta   90.00000000
_cell_angle_gamma   119.99999402
_symmetry_Int_Tables_number   1
_chemical_formula_structural   TbSm4GdIn6O18
_chemical_formula_sum   'Tb1 Sm4 Gd1 In6 O18'
_cell_volume   449.06151619
_cell_formula_units_Z   1
loop_
 _symmetry_equiv_pos_site_id
 _symmetry_equiv_pos_as_xyz
  1  'x, y, z'
loop_
 _atom_site_type_symbol
 _atom_site_label
 _atom_site_symmetry_multiplicity
 _atom_site_fract_x
 _atom_site_fract_y
 _atom_site_fract_z
 _atom_site_occupancy
  Tb  Tb0  1  0.000000  0.000000  0.996791  1
  Sm  Sm1  1  0.666667  0.333333  0.960729  1
  Sm  Sm2  1  0.333333  0.666667  0.460765  1
  Sm  Sm3  1  0.666667  0.333333  0.460765  1
  Sm  Sm4  1  0.333333  0.666667  0.960729  1
  Gd  Gd5  1  0.000000  0.000000  0.496646  1
  In  In6  1  0.667254  0.667254  0.726868  1
  In  In7  1  0.000000  0.332746  0.726868  1
  In  In8  1  0.332888  0.332888  0.226091  1
  In  In9  1  0.000000  0.667112  0.226091  1
  In  In10  1  0.332746  0.000000  0.726868  1
  In  In11  1  0.667112  0.000000  0.226091  1
  O  O12  1  0.697247  0.697247  0.897261  1
  O  O13  1  0.000000  0.302753  0.897261  1
  O  O14  1  0.304747  0.304747  0.396605  1
  O  O15  1  0.000000  0.695253  0.396605  1
  O  O16  1  0.302753  0.000000  0.897261  1
  O  O17  1  0.695253  0.000000  0.396605  1
  O  O18  1  0.640306  0.640306  0.558387  1
  O  O19  1  0.000000  0.359694  0.558387  1
  O  O20  1  0.357090  0.357090  0.057780  1
  O  O21  1  0.000000  0.642910  0.057780  1
  O  O22  1  0.359694  0.000000  0.558387  1
  O  O23  1  0.642910  0.000000  0.057780  1
  O  O24  1  0.000000  0.000000  0.695925  1
  O  O25  1  0.000000  0.000000  0.194629  1
  O  O26  1  0.666667  0.333333  0.754236  1
  O  O27  1  0.333333  0.666667  0.253676  1
  O  O28  1  0.666667  0.333333  0.253676  1
  O  O29  1  0.333333  0.666667  0.754236  1
