# generated using pymatgen
data_HoTm2Ta3(B2Ru5)2
_symmetry_space_group_name_H-M   'P 1'
_cell_length_a   9.57258841
_cell_length_b   9.57209032
_cell_length_c   3.11526800
_cell_angle_alpha   90.00000000
_cell_angle_beta   90.00000000
_cell_angle_gamma   90.37128316
_symmetry_Int_Tables_number   1
_chemical_formula_structural   HoTm2Ta3(B2Ru5)2
_chemical_formula_sum   'Ho1 Tm2 Ta3 B4 Ru10'
_cell_volume   285.44501923
_cell_formula_units_Z   1
loop_
 _symmetry_equiv_pos_site_id
 _symmetry_equiv_pos_as_xyz
  1  'x, y, z'
loop_
 _atom_site_type_symbol
 _atom_site_label
 _atom_site_symmetry_multiplicity
 _atom_site_fract_x
 _atom_site_fract_y
 _atom_site_fract_z
 _atom_site_occupancy
  Ho  Ho0  1  0.824399  0.674994  0.000000  1
  Tm  Tm1  1  0.175393  0.324152  0.000000  1
  Tm  Tm2  1  0.325536  0.825627  0.000000  1
  Ta  Ta3  1  0.675772  0.175739  0.000000  1
  Ta  Ta4  1  0.497777  0.502620  0.000000  1
  Ta  Ta5  1  0.002955  0.998499  0.000000  1
  B  B6  1  0.622529  0.880832  0.000000  1
  B  B7  1  0.380229  0.123060  0.000000  1
  B  B8  1  0.120037  0.619462  0.000000  1
  B  B9  1  0.876789  0.376301  0.000000  1
  Ru  Ru10  1  0.570590  0.721896  0.500000  1
  Ru  Ru11  1  0.439723  0.280364  0.500000  1
  Ru  Ru12  1  0.070493  0.780863  0.500000  1
  Ru  Ru13  1  0.916564  0.213479  0.500000  1
  Ru  Ru14  1  0.280803  0.569570  0.500000  1
  Ru  Ru15  1  0.713371  0.415916  0.500000  1
  Ru  Ru16  1  0.221466  0.071718  0.500000  1
  Ru  Ru17  1  0.780105  0.940593  0.500000  1
  Ru  Ru18  1  0.508430  0.008853  0.500000  1
  Ru  Ru19  1  0.997038  0.495460  0.500000  1
