# generated using pymatgen
data_Hf6Co12Si7Ni4
_symmetry_space_group_name_H-M   'P 1'
_cell_length_a   8.03589558
_cell_length_b   8.03589553
_cell_length_c   8.03589405
_cell_angle_alpha   60.01084606
_cell_angle_beta   60.01084221
_cell_angle_gamma   60.01084684
_symmetry_Int_Tables_number   1
_chemical_formula_structural   Hf6Co12Si7Ni4
_chemical_formula_sum   'Hf6 Co12 Si7 Ni4'
_cell_volume   367.02406158
_cell_formula_units_Z   1
loop_
 _symmetry_equiv_pos_site_id
 _symmetry_equiv_pos_as_xyz
  1  'x, y, z'
loop_
 _atom_site_type_symbol
 _atom_site_label
 _atom_site_symmetry_multiplicity
 _atom_site_fract_x
 _atom_site_fract_y
 _atom_site_fract_z
 _atom_site_occupancy
  Hf  Hf0  1  0.792967  0.792967  0.206607  1
  Hf  Hf1  1  0.792967  0.206607  0.792967  1
  Hf  Hf2  1  0.204944  0.204944  0.798483  1
  Hf  Hf3  1  0.204944  0.798483  0.204944  1
  Hf  Hf4  1  0.206607  0.792967  0.792967  1
  Hf  Hf5  1  0.798483  0.204944  0.204944  1
  Co  Co6  1  0.513952  0.828121  0.828121  1
  Co  Co7  1  0.828121  0.513952  0.828121  1
  Co  Co8  1  0.828121  0.828121  0.513952  1
  Co  Co9  1  0.828993  0.828993  0.828993  1
  Co  Co10  1  0.167594  0.167594  0.167594  1
  Co  Co11  1  0.139968  0.619825  0.619825  1
  Co  Co12  1  0.619825  0.139968  0.619825  1
  Co  Co13  1  0.619825  0.619825  0.139968  1
  Co  Co14  1  0.619905  0.619905  0.619905  1
  Co  Co15  1  0.381267  0.857162  0.381267  1
  Co  Co16  1  0.857162  0.381267  0.381267  1
  Co  Co17  1  0.381267  0.381267  0.857162  1
  Si  Si18  1  0.501130  0.501130  0.501130  1
  Si  Si19  1  0.499613  0.499613  0.999551  1
  Si  Si20  1  0.499613  0.999551  0.499613  1
  Si  Si21  1  0.000948  0.000948  0.498194  1
  Si  Si22  1  0.000948  0.498194  0.000948  1
  Si  Si23  1  0.999551  0.499613  0.499613  1
  Si  Si24  1  0.498194  0.000948  0.000948  1
  Ni  Ni25  1  0.382466  0.382466  0.382466  1
  Ni  Ni26  1  0.169000  0.492619  0.169000  1
  Ni  Ni27  1  0.492619  0.169000  0.169000  1
  Ni  Ni28  1  0.169000  0.169000  0.492619  1
