# generated using pymatgen
data_Pr4Y(SnBi)2
_symmetry_space_group_name_H-M   'P 1'
_cell_length_a   8.39516500
_cell_length_b   8.47539400
_cell_length_c   16.18892200
_cell_angle_alpha   90.00000000
_cell_angle_beta   90.00000000
_cell_angle_gamma   90.00000000
_symmetry_Int_Tables_number   1
_chemical_formula_structural   Pr4Y(SnBi)2
_chemical_formula_sum   'Pr16 Y4 Sn8 Bi8'
_cell_volume   1151.87953781
_cell_formula_units_Z   4
loop_
 _symmetry_equiv_pos_site_id
 _symmetry_equiv_pos_as_xyz
  1  'x, y, z'
loop_
 _atom_site_type_symbol
 _atom_site_label
 _atom_site_symmetry_multiplicity
 _atom_site_fract_x
 _atom_site_fract_y
 _atom_site_fract_z
 _atom_site_occupancy
  Pr  Pr0  1  0.390775  0.836275  0.879276  1
  Pr  Pr1  1  0.890775  0.663725  0.620724  1
  Pr  Pr2  1  0.609225  0.163725  0.379276  1
  Pr  Pr3  1  0.109225  0.336275  0.120724  1
  Pr  Pr4  1  0.609225  0.163725  0.120724  1
  Pr  Pr5  1  0.109225  0.336275  0.379276  1
  Pr  Pr6  1  0.390775  0.836275  0.620724  1
  Pr  Pr7  1  0.890775  0.663725  0.879276  1
  Pr  Pr8  1  0.549375  0.325438  0.890581  1
  Pr  Pr9  1  0.049375  0.174562  0.609419  1
  Pr  Pr10  1  0.450625  0.674562  0.390581  1
  Pr  Pr11  1  0.950625  0.825438  0.109419  1
  Pr  Pr12  1  0.450625  0.674562  0.109419  1
  Pr  Pr13  1  0.950625  0.825438  0.390581  1
  Pr  Pr14  1  0.549375  0.325438  0.609419  1
  Pr  Pr15  1  0.049375  0.174562  0.890581  1
  Y  Y16  1  0.218326  0.495116  0.750000  1
  Y  Y17  1  0.718326  0.004884  0.750000  1
  Y  Y18  1  0.781674  0.504884  0.250000  1
  Y  Y19  1  0.281674  0.995116  0.250000  1
  Sn  Sn20  1  0.587687  0.624189  0.750000  1
  Sn  Sn21  1  0.087687  0.875811  0.750000  1
  Sn  Sn22  1  0.412313  0.375811  0.250000  1
  Sn  Sn23  1  0.912313  0.124189  0.250000  1
  Sn  Sn24  1  0.352714  0.139878  0.750000  1
  Sn  Sn25  1  0.852714  0.360122  0.750000  1
  Sn  Sn26  1  0.647286  0.860122  0.250000  1
  Sn  Sn27  1  0.147286  0.639878  0.250000  1
  Bi  Bi28  1  0.269309  0.019127  0.046864  1
  Bi  Bi29  1  0.769309  0.480873  0.453136  1
  Bi  Bi30  1  0.730691  0.980873  0.546864  1
  Bi  Bi31  1  0.230691  0.519127  0.953136  1
  Bi  Bi32  1  0.730691  0.980873  0.953136  1
  Bi  Bi33  1  0.230691  0.519127  0.546864  1
  Bi  Bi34  1  0.269309  0.019127  0.453136  1
  Bi  Bi35  1  0.769309  0.480873  0.046864  1
