# generated using pymatgen
data_Yb3Ga24MoPd8
_symmetry_space_group_name_H-M   'P 1'
_cell_length_a   8.51823911
_cell_length_b   8.51823906
_cell_length_c   8.51823923
_cell_angle_alpha   90.07525187
_cell_angle_beta   90.07525212
_cell_angle_gamma   90.07525284
_symmetry_Int_Tables_number   1
_chemical_formula_structural   Yb3Ga24MoPd8
_chemical_formula_sum   'Yb3 Ga24 Mo1 Pd8'
_cell_volume   618.08522112
_cell_formula_units_Z   1
loop_
 _symmetry_equiv_pos_site_id
 _symmetry_equiv_pos_as_xyz
  1  'x, y, z'
loop_
 _atom_site_type_symbol
 _atom_site_label
 _atom_site_symmetry_multiplicity
 _atom_site_fract_x
 _atom_site_fract_y
 _atom_site_fract_z
 _atom_site_occupancy
  Yb  Yb0  1  0.000000  0.500000  0.000000  1
  Yb  Yb1  1  0.500000  0.000000  0.000000  1
  Yb  Yb2  1  0.000000  0.000000  0.500000  1
  Ga  Ga3  1  0.989697  0.642716  0.642716  1
  Ga  Ga4  1  0.642716  0.642716  0.989697  1
  Ga  Ga5  1  0.642716  0.989697  0.642716  1
  Ga  Ga6  1  0.010303  0.357284  0.357284  1
  Ga  Ga7  1  0.357284  0.357284  0.010303  1
  Ga  Ga8  1  0.357284  0.010303  0.357284  1
  Ga  Ga9  1  0.737712  0.500000  0.262288  1
  Ga  Ga10  1  0.262288  0.500000  0.737712  1
  Ga  Ga11  1  0.500000  0.262288  0.737712  1
  Ga  Ga12  1  0.500000  0.737712  0.262288  1
  Ga  Ga13  1  0.262288  0.737712  0.500000  1
  Ga  Ga14  1  0.737712  0.262288  0.500000  1
  Ga  Ga15  1  0.840223  0.140322  0.840223  1
  Ga  Ga16  1  0.140322  0.840223  0.840223  1
  Ga  Ga17  1  0.840223  0.840223  0.140322  1
  Ga  Ga18  1  0.159777  0.859678  0.159777  1
  Ga  Ga19  1  0.859678  0.159777  0.159777  1
  Ga  Ga20  1  0.159777  0.159777  0.859678  1
  Ga  Ga21  1  0.728777  0.487216  0.728777  1
  Ga  Ga22  1  0.487216  0.728777  0.728777  1
  Ga  Ga23  1  0.728777  0.728777  0.487216  1
  Ga  Ga24  1  0.271223  0.512784  0.271223  1
  Ga  Ga25  1  0.512784  0.271223  0.271223  1
  Ga  Ga26  1  0.271223  0.271223  0.512784  1
  Mo  Mo27  1  0.500000  0.500000  0.500000  1
  Pd  Pd28  1  0.833625  0.833625  0.833625  1
  Pd  Pd29  1  0.166375  0.166375  0.166375  1
  Pd  Pd30  1  0.665123  0.334877  0.000000  1
  Pd  Pd31  1  0.000000  0.334877  0.665123  1
  Pd  Pd32  1  0.334877  0.000000  0.665123  1
  Pd  Pd33  1  0.334877  0.665123  0.000000  1
  Pd  Pd34  1  0.000000  0.665123  0.334877  1
  Pd  Pd35  1  0.665123  0.000000  0.334877  1
