# generated using pymatgen
data_Ho8SnPd13Pt11
_symmetry_space_group_name_H-M   'P 1'
_cell_length_a   8.38872300
_cell_length_b   8.40029900
_cell_length_c   8.37937500
_cell_angle_alpha   90.00000000
_cell_angle_beta   90.00000000
_cell_angle_gamma   90.00000000
_symmetry_Int_Tables_number   1
_chemical_formula_structural   Ho8SnPd13Pt11
_chemical_formula_sum   'Ho8 Sn1 Pd13 Pt11'
_cell_volume   590.47596600
_cell_formula_units_Z   1
loop_
 _symmetry_equiv_pos_site_id
 _symmetry_equiv_pos_as_xyz
  1  'x, y, z'
loop_
 _atom_site_type_symbol
 _atom_site_label
 _atom_site_symmetry_multiplicity
 _atom_site_fract_x
 _atom_site_fract_y
 _atom_site_fract_z
 _atom_site_occupancy
  Ho  Ho0  1  0.253373  0.253693  0.253326  1
  Ho  Ho1  1  0.746662  0.746340  0.746733  1
  Ho  Ho2  1  0.746627  0.746307  0.253326  1
  Ho  Ho3  1  0.746662  0.253660  0.746733  1
  Ho  Ho4  1  0.253338  0.253660  0.746733  1
  Ho  Ho5  1  0.253373  0.746307  0.253326  1
  Ho  Ho6  1  0.253338  0.746340  0.746733  1
  Ho  Ho7  1  0.746627  0.253693  0.253326  1
  Sn  Sn8  1  0.000000  0.000000  0.000009  1
  Pd  Pd9  1  0.500000  0.000000  0.264755  1
  Pd  Pd10  1  0.264973  0.000000  0.500040  1
  Pd  Pd11  1  0.500000  0.000000  0.735121  1
  Pd  Pd12  1  0.735027  0.000000  0.500040  1
  Pd  Pd13  1  0.000000  0.500000  0.264007  1
  Pd  Pd14  1  0.000000  0.500000  0.735844  1
  Pd  Pd15  1  0.500000  0.500000  0.745543  1
  Pd  Pd16  1  0.307509  0.000000  0.999987  1
  Pd  Pd17  1  0.692491  0.000000  0.999987  1
  Pd  Pd18  1  0.000000  0.307344  0.999987  1
  Pd  Pd19  1  0.000000  0.692656  0.999987  1
  Pd  Pd20  1  0.000000  0.000000  0.307579  1
  Pd  Pd21  1  0.000000  0.000000  0.692594  1
  Pt  Pt22  1  0.263791  0.500000  0.000031  1
  Pt  Pt23  1  0.736209  0.500000  0.000031  1
  Pt  Pt24  1  0.000000  0.264276  0.500035  1
  Pt  Pt25  1  0.500000  0.263662  0.000028  1
  Pt  Pt26  1  0.000000  0.735724  0.500035  1
  Pt  Pt27  1  0.500000  0.736338  0.000028  1
  Pt  Pt28  1  0.253906  0.500000  0.499952  1
  Pt  Pt29  1  0.746094  0.500000  0.499952  1
  Pt  Pt30  1  0.500000  0.254067  0.499974  1
  Pt  Pt31  1  0.500000  0.745933  0.499974  1
  Pt  Pt32  1  0.500000  0.500000  0.254244  1
