# generated using pymatgen
data_Tm8Tl3Cu
_symmetry_space_group_name_H-M   'P 1'
_cell_length_a   10.41442000
_cell_length_b   10.41442025
_cell_length_c   6.79877000
_cell_angle_alpha   90.00000000
_cell_angle_beta   90.00000000
_cell_angle_gamma   120.00000555
_symmetry_Int_Tables_number   1
_chemical_formula_structural   Tm8Tl3Cu
_chemical_formula_sum   'Tm16 Tl6 Cu2'
_cell_volume   638.60327845
_cell_formula_units_Z   2
loop_
 _symmetry_equiv_pos_site_id
 _symmetry_equiv_pos_as_xyz
  1  'x, y, z'
loop_
 _atom_site_type_symbol
 _atom_site_label
 _atom_site_symmetry_multiplicity
 _atom_site_fract_x
 _atom_site_fract_y
 _atom_site_fract_z
 _atom_site_occupancy
  Tm  Tm0  1  0.526337  0.052675  0.518694  1
  Tm  Tm1  1  0.947325  0.473663  0.518694  1
  Tm  Tm2  1  0.526337  0.473663  0.518694  1
  Tm  Tm3  1  0.473663  0.947325  0.018694  1
  Tm  Tm4  1  0.052675  0.526337  0.018694  1
  Tm  Tm5  1  0.473663  0.526337  0.018694  1
  Tm  Tm6  1  0.175707  0.351413  0.728279  1
  Tm  Tm7  1  0.648587  0.824293  0.728279  1
  Tm  Tm8  1  0.175707  0.824293  0.728279  1
  Tm  Tm9  1  0.824293  0.648587  0.228279  1
  Tm  Tm10  1  0.351413  0.175707  0.228279  1
  Tm  Tm11  1  0.824293  0.175707  0.228279  1
  Tm  Tm12  1  0.666667  0.333333  0.890867  1
  Tm  Tm13  1  0.333333  0.666667  0.390867  1
  Tm  Tm14  1  0.000000  0.000000  0.496273  1
  Tm  Tm15  1  0.000000  0.000000  0.996273  1
  Tl  Tl16  1  0.836241  0.672482  0.753124  1
  Tl  Tl17  1  0.327518  0.163759  0.753124  1
  Tl  Tl18  1  0.836241  0.163759  0.753124  1
  Tl  Tl19  1  0.163759  0.327518  0.253124  1
  Tl  Tl20  1  0.672482  0.836241  0.253124  1
  Tl  Tl21  1  0.163759  0.836241  0.253124  1
  Cu  Cu22  1  0.666667  0.333333  0.291570  1
  Cu  Cu23  1  0.333333  0.666667  0.791570  1
