# generated using pymatgen
data_Er3FeNiSb3O14
_symmetry_space_group_name_H-M   'P 1'
_cell_length_a   7.15257680
_cell_length_b   7.16217681
_cell_length_c   7.13720704
_cell_angle_alpha   117.67872016
_cell_angle_beta   62.27599663
_cell_angle_gamma   117.62324266
_symmetry_Int_Tables_number   1
_chemical_formula_structural   Er3FeNiSb3O14
_chemical_formula_sum   'Er3 Fe1 Ni1 Sb3 O14'
_cell_volume   271.94675008
_cell_formula_units_Z   1
loop_
 _symmetry_equiv_pos_site_id
 _symmetry_equiv_pos_as_xyz
  1  'x, y, z'
loop_
 _atom_site_type_symbol
 _atom_site_label
 _atom_site_symmetry_multiplicity
 _atom_site_fract_x
 _atom_site_fract_y
 _atom_site_fract_z
 _atom_site_occupancy
  Er  Er0  1  0.999888  0.499942  0.000056  1
  Er  Er1  1  0.499942  0.000096  0.000073  1
  Er  Er2  1  0.500008  0.499890  0.499891  1
  Fe  Fe3  1  0.499958  0.500158  0.000021  1
  Ni  Ni4  1  0.000365  0.000152  0.500030  1
  Sb  Sb5  1  0.499995  0.999968  0.499989  1
  Sb  Sb6  1  0.999971  0.499969  0.499999  1
  Sb  Sb7  1  0.999963  0.999953  0.000021  1
  O  O8  1  0.618824  0.380302  0.116811  1
  O  O9  1  0.381070  0.619714  0.883144  1
  O  O10  1  0.078303  0.325855  0.173014  1
  O  O11  1  0.674245  0.923383  0.173552  1
  O  O12  1  0.672518  0.327045  0.581929  1
  O  O13  1  0.921668  0.674088  0.826977  1
  O  O14  1  0.325659  0.076563  0.826435  1
  O  O15  1  0.327447  0.672867  0.417955  1
  O  O16  1  0.652421  0.906329  0.593121  1
  O  O17  1  0.093827  0.348107  0.593404  1
  O  O18  1  0.092858  0.906933  0.153265  1
  O  O19  1  0.347682  0.093652  0.406912  1
  O  O20  1  0.906230  0.651951  0.406615  1
  O  O21  1  0.907160  0.093083  0.846785  1
