# generated using pymatgen
data_Lu4Zn3In5
_symmetry_space_group_name_H-M   'P 1'
_cell_length_a   4.72377100
_cell_length_b   7.15401420
_cell_length_c   8.18577900
_cell_angle_alpha   89.95503803
_cell_angle_beta   90.00000000
_cell_angle_gamma   90.00000000
_symmetry_Int_Tables_number   1
_chemical_formula_structural   Lu4Zn3In5
_chemical_formula_sum   'Lu4 Zn3 In5'
_cell_volume   276.62951498
_cell_formula_units_Z   1
loop_
 _symmetry_equiv_pos_site_id
 _symmetry_equiv_pos_as_xyz
  1  'x, y, z'
loop_
 _atom_site_type_symbol
 _atom_site_label
 _atom_site_symmetry_multiplicity
 _atom_site_fract_x
 _atom_site_fract_y
 _atom_site_fract_z
 _atom_site_occupancy
  Lu  Lu0  1  0.500000  0.493598  0.743538  1
  Lu  Lu1  1  0.500000  0.980554  0.748540  1
  Lu  Lu2  1  0.000000  0.501125  0.257391  1
  Lu  Lu3  1  0.000000  0.990416  0.252622  1
  Zn  Zn4  1  0.500000  0.790485  0.417506  1
  Zn  Zn5  1  0.000000  0.790949  0.917486  1
  Zn  Zn6  1  0.000000  0.302863  0.578651  1
  In  In7  1  0.500000  0.727754  0.082530  1
  In  In8  1  0.500000  0.211884  0.430549  1
  In  In9  1  0.000000  0.205952  0.900092  1
  In  In10  1  0.000000  0.718808  0.585183  1
  In  In11  1  0.500000  0.285611  0.085912  1
