# generated using pymatgen
data_V3Re9S16
_symmetry_space_group_name_H-M   'P 1'
_cell_length_a   6.44968354
_cell_length_b   6.47020673
_cell_length_c   12.87654284
_cell_angle_alpha   93.62468125
_cell_angle_beta   93.39234723
_cell_angle_gamma   93.31786590
_symmetry_Int_Tables_number   1
_chemical_formula_structural   V3Re9S16
_chemical_formula_sum   'V3 Re9 S16'
_cell_volume   534.30878445
_cell_formula_units_Z   1
loop_
 _symmetry_equiv_pos_site_id
 _symmetry_equiv_pos_as_xyz
  1  'x, y, z'
loop_
 _atom_site_type_symbol
 _atom_site_label
 _atom_site_symmetry_multiplicity
 _atom_site_fract_x
 _atom_site_fract_y
 _atom_site_fract_z
 _atom_site_occupancy
  V  V0  1  0.228407  0.558610  0.704706  1
  V  V1  1  0.232978  0.546293  0.204748  1
  V  V2  1  0.420331  0.221265  0.775934  1
  Re  Re3  1  0.408171  0.230037  0.275646  1
  Re  Re4  1  0.544175  0.411565  0.619356  1
  Re  Re5  1  0.549446  0.408555  0.114490  1
  Re  Re6  1  0.774976  0.451596  0.796072  1
  Re  Re7  1  0.769973  0.450650  0.295060  1
  Re  Re8  1  0.592500  0.774471  0.725274  1
  Re  Re9  1  0.588481  0.770691  0.223318  1
  Re  Re10  1  0.448027  0.589618  0.883260  1
  Re  Re11  1  0.448122  0.593871  0.385631  1
  S  S12  1  0.214003  0.224412  0.617923  1
  S  S13  1  0.218876  0.219954  0.109964  1
  S  S14  1  0.781885  0.783231  0.891517  1
  S  S15  1  0.780430  0.783675  0.390027  1
  S  S16  1  0.132011  0.370282  0.854915  1
  S  S17  1  0.128975  0.376031  0.364561  1
  S  S18  1  0.728737  0.130290  0.687457  1
  S  S19  1  0.728988  0.128062  0.186203  1
  S  S20  1  0.373187  0.723987  0.565043  1
  S  S21  1  0.370249  0.717646  0.063505  1
  S  S22  1  0.871737  0.622463  0.638595  1
  S  S23  1  0.872411  0.620303  0.138873  1
  S  S24  1  0.277085  0.872977  0.807726  1
  S  S25  1  0.273325  0.869197  0.307998  1
  S  S26  1  0.620961  0.274628  0.934771  1
  S  S27  1  0.621552  0.275641  0.437424  1
