# generated using pymatgen
data_Sr4MgRhO8
_symmetry_space_group_name_H-M   'P 1'
_cell_length_a   5.57898694
_cell_length_b   5.57898708
_cell_length_c   13.41244940
_cell_angle_alpha   101.99011249
_cell_angle_beta   101.99011358
_cell_angle_gamma   89.99633184
_symmetry_Int_Tables_number   1
_chemical_formula_structural   Sr4MgRhO8
_chemical_formula_sum   'Sr8 Mg2 Rh2 O16'
_cell_volume   399.04193802
_cell_formula_units_Z   2
loop_
 _symmetry_equiv_pos_site_id
 _symmetry_equiv_pos_as_xyz
  1  'x, y, z'
loop_
 _atom_site_type_symbol
 _atom_site_label
 _atom_site_symmetry_multiplicity
 _atom_site_fract_x
 _atom_site_fract_y
 _atom_site_fract_z
 _atom_site_occupancy
  Sr  Sr0  1  0.824048  0.823858  0.645512  1
  Sr  Sr1  1  0.073858  0.574048  0.145512  1
  Sr  Sr2  1  0.177638  0.177967  0.354508  1
  Sr  Sr3  1  0.427967  0.927638  0.854508  1
  Sr  Sr4  1  0.321315  0.321555  0.644249  1
  Sr  Sr5  1  0.571555  0.071315  0.144249  1
  Sr  Sr6  1  0.676053  0.677639  0.355739  1
  Sr  Sr7  1  0.927639  0.426053  0.855739  1
  Mg  Mg8  1  0.000266  0.999633  0.999958  1
  Mg  Mg9  1  0.249633  0.750266  0.499958  1
  Rh  Rh10  1  0.500532  0.499704  0.999991  1
  Rh  Rh11  1  0.749704  0.250532  0.499991  1
  O  O12  1  0.004146  0.483519  0.500067  1
  O  O13  1  0.915618  0.920470  0.835523  1
  O  O14  1  0.083265  0.078695  0.164522  1
  O  O15  1  0.170470  0.665618  0.335523  1
  O  O16  1  0.328695  0.833265  0.664522  1
  O  O17  1  0.245385  0.732086  0.998658  1
  O  O18  1  0.267477  0.245481  0.000248  1
  O  O19  1  0.495481  0.017477  0.500248  1
  O  O20  1  0.517159  0.505311  0.501029  1
  O  O21  1  0.422207  0.418023  0.839560  1
  O  O22  1  0.578736  0.582215  0.160435  1
  O  O23  1  0.668023  0.172207  0.339560  1
  O  O24  1  0.832215  0.328736  0.660435  1
  O  O25  1  0.733519  0.754146  0.000067  1
  O  O26  1  0.755311  0.267159  0.001029  1
  O  O27  1  0.982086  0.995385  0.498658  1
