# generated using pymatgen
data_HfZr4Fe12Co7P12
_symmetry_space_group_name_H-M   'P 1'
_cell_length_a   11.77178300
_cell_length_b   11.77161823
_cell_length_c   3.61479200
_cell_angle_alpha   90.00000000
_cell_angle_beta   90.00000000
_cell_angle_gamma   120.00047145
_symmetry_Int_Tables_number   1
_chemical_formula_structural   HfZr4Fe12Co7P12
_chemical_formula_sum   'Hf1 Zr4 Fe12 Co7 P12'
_cell_volume   433.80074906
_cell_formula_units_Z   1
loop_
 _symmetry_equiv_pos_site_id
 _symmetry_equiv_pos_as_xyz
  1  'x, y, z'
loop_
 _atom_site_type_symbol
 _atom_site_label
 _atom_site_symmetry_multiplicity
 _atom_site_fract_x
 _atom_site_fract_y
 _atom_site_fract_z
 _atom_site_occupancy
  Hf  Hf0  1  0.813317  0.000000  0.000000  1
  Zr  Zr1  1  0.333348  0.666618  0.500000  1
  Zr  Zr2  1  0.666731  0.333382  0.500000  1
  Zr  Zr3  1  0.999916  0.813038  0.000000  1
  Zr  Zr4  1  0.186878  0.186962  0.000000  1
  Fe  Fe5  1  0.622232  0.802802  0.500000  1
  Fe  Fe6  1  0.198235  0.819596  0.500000  1
  Fe  Fe7  1  0.180303  0.378422  0.500000  1
  Fe  Fe8  1  0.378639  0.180404  0.500000  1
  Fe  Fe9  1  0.801882  0.621578  0.500000  1
  Fe  Fe10  1  0.819430  0.197198  0.500000  1
  Fe  Fe11  1  0.284207  0.000000  0.000000  1
  Fe  Fe12  1  0.999319  0.283499  0.000000  1
  Fe  Fe13  1  0.715820  0.716501  0.000000  1
  Fe  Fe14  1  0.446505  0.000000  0.500000  1
  Fe  Fe15  1  0.999770  0.445934  0.500000  1
  Fe  Fe16  1  0.553836  0.554066  0.500000  1
  Co  Co17  1  0.513961  0.874373  0.000000  1
  Co  Co18  1  0.125718  0.639247  0.000000  1
  Co  Co19  1  0.360503  0.486256  0.000000  1
  Co  Co20  1  0.486471  0.360753  0.000000  1
  Co  Co21  1  0.874248  0.513744  0.000000  1
  Co  Co22  1  0.639588  0.125627  0.000000  1
  Co  Co23  1  0.999212  0.000000  0.500000  1
  P  P24  1  0.179776  0.000000  0.500000  1
  P  P25  1  0.999173  0.179406  0.500000  1
  P  P26  1  0.819767  0.820594  0.500000  1
  P  P27  1  0.520125  0.687225  0.000000  1
  P  P28  1  0.312953  0.832847  0.000000  1
  P  P29  1  0.166999  0.479805  0.000000  1
  P  P30  1  0.480107  0.167153  0.000000  1
  P  P31  1  0.687195  0.520195  0.000000  1
  P  P32  1  0.832901  0.312775  0.000000  1
  P  P33  1  0.636228  0.000000  0.500000  1
  P  P34  1  0.999949  0.635191  0.500000  1
  P  P35  1  0.364758  0.364809  0.500000  1
