# generated using pymatgen
data_Y2Er4CrB14Os
_symmetry_space_group_name_H-M   'P 1'
_cell_length_a   8.01358659
_cell_length_b   8.01358699
_cell_length_c   9.31337500
_cell_angle_alpha   90.00000000
_cell_angle_beta   90.00000000
_cell_angle_gamma   154.98385529
_symmetry_Int_Tables_number   1
_chemical_formula_structural   Y2Er4CrB14Os
_chemical_formula_sum   'Y2 Er4 Cr1 B14 Os1'
_cell_volume   252.91324652
_cell_formula_units_Z   1
loop_
 _symmetry_equiv_pos_site_id
 _symmetry_equiv_pos_as_xyz
  1  'x, y, z'
loop_
 _atom_site_type_symbol
 _atom_site_label
 _atom_site_symmetry_multiplicity
 _atom_site_fract_x
 _atom_site_fract_y
 _atom_site_fract_z
 _atom_site_occupancy
  Y  Y0  1  0.754932  0.245068  0.250000  1
  Y  Y1  1  0.242898  0.757102  0.750000  1
  Er  Er2  1  0.894645  0.105355  0.561172  1
  Er  Er3  1  0.105396  0.894604  0.441980  1
  Er  Er4  1  0.105396  0.894604  0.058020  1
  Er  Er5  1  0.894645  0.105355  0.938828  1
  Cr  Cr6  1  0.052299  0.947701  0.750000  1
  B  B7  1  0.544305  0.455695  0.250000  1
  B  B8  1  0.457056  0.542944  0.750000  1
  B  B9  1  0.520715  0.479285  0.904006  1
  B  B10  1  0.479855  0.520145  0.095000  1
  B  B11  1  0.479855  0.520145  0.405000  1
  B  B12  1  0.520715  0.479285  0.595994  1
  B  B13  1  0.630933  0.369067  0.848508  1
  B  B14  1  0.368527  0.631473  0.149564  1
  B  B15  1  0.727744  0.272256  0.966755  1
  B  B16  1  0.273191  0.726809  0.033736  1
  B  B17  1  0.273191  0.726809  0.466264  1
  B  B18  1  0.727744  0.272256  0.533245  1
  B  B19  1  0.630933  0.369067  0.651492  1
  B  B20  1  0.368527  0.631473  0.350436  1
  Os  Os21  1  0.946497  0.053503  0.250000  1
