# generated using pymatgen
data_Zn3Cu(TeO4)4
_symmetry_space_group_name_H-M   'P 1'
_cell_length_a   4.76497288
_cell_length_b   5.63396453
_cell_length_c   10.56183711
_cell_angle_alpha   90.29497894
_cell_angle_beta   88.51363319
_cell_angle_gamma   89.89976711
_symmetry_Int_Tables_number   1
_chemical_formula_structural   Zn3Cu(TeO4)4
_chemical_formula_sum   'Zn3 Cu1 Te4 O16'
_cell_volume   283.44012265
_cell_formula_units_Z   1
loop_
 _symmetry_equiv_pos_site_id
 _symmetry_equiv_pos_as_xyz
  1  'x, y, z'
loop_
 _atom_site_type_symbol
 _atom_site_label
 _atom_site_symmetry_multiplicity
 _atom_site_fract_x
 _atom_site_fract_y
 _atom_site_fract_z
 _atom_site_occupancy
  Zn  Zn0  1  0.000000  0.000000  0.500000  1
  Zn  Zn1  1  0.500000  0.500000  0.500000  1
  Zn  Zn2  1  0.500000  0.500000  0.000000  1
  Cu  Cu3  1  0.000000  0.000000  0.000000  1
  Te  Te4  1  0.480554  0.200344  0.749950  1
  Te  Te5  1  0.020992  0.295769  0.250108  1
  Te  Te6  1  0.979008  0.704231  0.749892  1
  Te  Te7  1  0.519446  0.799656  0.250050  1
  O  O8  1  0.293632  0.227033  0.911822  1
  O  O9  1  0.706368  0.772967  0.088178  1
  O  O10  1  0.672974  0.224001  0.591034  1
  O  O11  1  0.808673  0.722497  0.589849  1
  O  O12  1  0.777759  0.033132  0.324973  1
  O  O13  1  0.756288  0.534885  0.322563  1
  O  O14  1  0.278553  0.537140  0.174580  1
  O  O15  1  0.728574  0.960698  0.823196  1
  O  O16  1  0.721447  0.462860  0.825420  1
  O  O17  1  0.160275  0.730907  0.908679  1
  O  O18  1  0.222241  0.966868  0.675027  1
  O  O19  1  0.327026  0.775999  0.408966  1
  O  O20  1  0.243712  0.465115  0.677437  1
  O  O21  1  0.191327  0.277503  0.410151  1
  O  O22  1  0.839725  0.269093  0.091321  1
  O  O23  1  0.271426  0.039302  0.176804  1
