# generated using pymatgen
data_BSI
_symmetry_space_group_name_H-M   'P 1'
_cell_length_a   4.97805600
_cell_length_b   15.21392364
_cell_length_c   19.44942022
_cell_angle_alpha   64.83118823
_cell_angle_beta   90.00000000
_cell_angle_gamma   90.00000000
_symmetry_Int_Tables_number   1
_chemical_formula_structural   BSI
_chemical_formula_sum   'B12 S12 I12'
_cell_volume   1333.16655552
_cell_formula_units_Z   12
loop_
 _symmetry_equiv_pos_site_id
 _symmetry_equiv_pos_as_xyz
  1  'x, y, z'
loop_
 _atom_site_type_symbol
 _atom_site_label
 _atom_site_symmetry_multiplicity
 _atom_site_fract_x
 _atom_site_fract_y
 _atom_site_fract_z
 _atom_site_occupancy
  B  B0  1  0.755610  0.366868  0.167174  1
  B  B1  1  0.255610  0.633132  0.332826  1
  B  B2  1  0.244390  0.633132  0.832826  1
  B  B3  1  0.744390  0.366868  0.667174  1
  B  B4  1  0.976961  0.176060  0.267007  1
  B  B5  1  0.476961  0.823940  0.232993  1
  B  B6  1  0.023039  0.823940  0.732993  1
  B  B7  1  0.523039  0.176060  0.767007  1
  B  B8  1  0.969437  0.239210  0.101955  1
  B  B9  1  0.469437  0.760790  0.398045  1
  B  B10  1  0.030563  0.760790  0.898045  1
  B  B11  1  0.530563  0.239210  0.601955  1
  S  S12  1  0.678225  0.284317  0.764723  1
  S  S13  1  0.178225  0.715683  0.735277  1
  S  S14  1  0.321775  0.715683  0.235277  1
  S  S15  1  0.821775  0.284317  0.264723  1
  S  S16  1  0.683509  0.355451  0.579963  1
  S  S17  1  0.183509  0.644549  0.920037  1
  S  S18  1  0.316491  0.644549  0.420037  1
  S  S19  1  0.816491  0.355451  0.079963  1
  S  S20  1  0.435581  0.142035  0.691640  1
  S  S21  1  0.935581  0.857965  0.808360  1
  S  S22  1  0.564419  0.857965  0.308360  1
  S  S23  1  0.064419  0.142035  0.191640  1
  I  I24  1  0.569727  0.500972  0.152464  1
  I  I25  1  0.069727  0.499028  0.347536  1
  I  I26  1  0.430273  0.499028  0.847536  1
  I  I27  1  0.930273  0.500972  0.652464  1
  I  I28  1  0.074104  0.068192  0.378850  1
  I  I29  1  0.574104  0.931808  0.121150  1
  I  I30  1  0.925896  0.931808  0.621150  1
  I  I31  1  0.425896  0.068192  0.878850  1
  I  I32  1  0.053916  0.211304  0.004725  1
  I  I33  1  0.553916  0.788696  0.495275  1
  I  I34  1  0.946084  0.788696  0.995275  1
  I  I35  1  0.446084  0.211304  0.504725  1
