# generated using pymatgen
data_Li2PmGe2
_symmetry_space_group_name_H-M   'P 1'
_cell_length_a   6.36475518
_cell_length_b   6.36475488
_cell_length_c   6.36475606
_cell_angle_alpha   142.01506038
_cell_angle_beta   142.01505807
_cell_angle_gamma   54.80611565
_symmetry_Int_Tables_number   1
_chemical_formula_structural   Li2PmGe2
_chemical_formula_sum   'Li2 Pm1 Ge2'
_cell_volume   96.97684473
_cell_formula_units_Z   1
loop_
 _symmetry_equiv_pos_site_id
 _symmetry_equiv_pos_as_xyz
  1  'x, y, z'
loop_
 _atom_site_type_symbol
 _atom_site_label
 _atom_site_symmetry_multiplicity
 _atom_site_fract_x
 _atom_site_fract_y
 _atom_site_fract_z
 _atom_site_occupancy
  Li  Li0  1  0.750000  0.250000  0.500000  1
  Li  Li1  1  0.250000  0.750000  0.500000  1
  Pm  Pm2  1  0.000000  0.000000  0.000000  1
  Ge  Ge3  1  0.389956  0.389956  0.000000  1
  Ge  Ge4  1  0.610043  0.610043  0.000000  1
