# generated using pymatgen
data_Cd10AgPd2
_symmetry_space_group_name_H-M   'P 1'
_cell_length_a   8.79914266
_cell_length_b   8.79914210
_cell_length_c   8.76761492
_cell_angle_alpha   70.69916310
_cell_angle_beta   70.69916035
_cell_angle_gamma   109.63496052
_symmetry_Int_Tables_number   1
_chemical_formula_structural   Cd10AgPd2
_chemical_formula_sum   'Cd20 Ag2 Pd4'
_cell_volume   523.69902632
_cell_formula_units_Z   2
loop_
 _symmetry_equiv_pos_site_id
 _symmetry_equiv_pos_as_xyz
  1  'x, y, z'
loop_
 _atom_site_type_symbol
 _atom_site_label
 _atom_site_symmetry_multiplicity
 _atom_site_fract_x
 _atom_site_fract_y
 _atom_site_fract_z
 _atom_site_occupancy
  Cd  Cd0  1  0.005444  0.005444  0.791374  1
  Cd  Cd1  1  0.784264  0.784264  0.216706  1
  Cd  Cd2  1  0.212710  0.999175  0.994470  1
  Cd  Cd3  1  0.999175  0.212710  0.994470  1
  Cd  Cd4  1  0.258153  0.258153  0.395305  1
  Cd  Cd5  1  0.007765  0.747018  0.647199  1
  Cd  Cd6  1  0.747018  0.007765  0.647199  1
  Cd  Cd7  1  0.649903  0.649903  0.618644  1
  Cd  Cd8  1  0.376846  0.642082  0.354215  1
  Cd  Cd9  1  0.642082  0.376846  0.354215  1
  Cd  Cd10  1  0.354856  0.743886  0.986967  1
  Cd  Cd11  1  0.615428  0.257921  0.734274  1
  Cd  Cd12  1  0.353284  0.004007  0.261643  1
  Cd  Cd13  1  0.743886  0.354856  0.986967  1
  Cd  Cd14  1  0.004007  0.353284  0.261643  1
  Cd  Cd15  1  0.257921  0.615428  0.734274  1
  Cd  Cd16  1  0.644384  0.644384  0.999117  1
  Cd  Cd17  1  0.000536  0.642866  0.359967  1
  Cd  Cd18  1  0.642866  0.000536  0.359967  1
  Cd  Cd19  1  0.353448  0.353448  0.004125  1
  Ag  Ag20  1  0.997717  0.356708  0.639934  1
  Ag  Ag21  1  0.356708  0.997717  0.639934  1
  Pd  Pd22  1  0.999716  0.999716  0.341300  1
  Pd  Pd23  1  0.350346  0.350346  0.657913  1
  Pd  Pd24  1  0.649767  0.991771  0.009089  1
  Pd  Pd25  1  0.991771  0.649767  0.009089  1
