# generated using pymatgen
data_La2Si3Ir
_symmetry_space_group_name_H-M   'P 1'
_cell_length_a   8.31667000
_cell_length_b   8.31669449
_cell_length_c   8.71457300
_cell_angle_alpha   90.00000000
_cell_angle_beta   90.00000000
_cell_angle_gamma   120.00005792
_symmetry_Int_Tables_number   1
_chemical_formula_structural   La2Si3Ir
_chemical_formula_sum   'La8 Si12 Ir4'
_cell_volume   522.00745805
_cell_formula_units_Z   4
loop_
 _symmetry_equiv_pos_site_id
 _symmetry_equiv_pos_as_xyz
  1  'x, y, z'
loop_
 _atom_site_type_symbol
 _atom_site_label
 _atom_site_symmetry_multiplicity
 _atom_site_fract_x
 _atom_site_fract_y
 _atom_site_fract_z
 _atom_site_occupancy
  La  La0  1  0.000004  0.000003  0.250000  1
  La  La1  1  0.999996  0.999997  0.750000  1
  La  La2  1  0.500771  0.499221  0.250000  1
  La  La3  1  0.500777  0.001550  0.250000  1
  La  La4  1  0.998448  0.499224  0.250000  1
  La  La5  1  0.499229  0.500779  0.750000  1
  La  La6  1  0.499223  0.998450  0.750000  1
  La  La7  1  0.001552  0.500776  0.750000  1
  Si  Si8  1  0.166566  0.833434  0.500814  1
  Si  Si9  1  0.166567  0.333132  0.500814  1
  Si  Si10  1  0.666868  0.833433  0.500814  1
  Si  Si11  1  0.833434  0.166566  0.499186  1
  Si  Si12  1  0.833433  0.666868  0.499186  1
  Si  Si13  1  0.333132  0.166567  0.499186  1
  Si  Si14  1  0.833434  0.166566  0.000814  1
  Si  Si15  1  0.833433  0.666868  0.000814  1
  Si  Si16  1  0.333132  0.166567  0.000814  1
  Si  Si17  1  0.166566  0.833434  0.999186  1
  Si  Si18  1  0.166567  0.333132  0.999186  1
  Si  Si19  1  0.666868  0.833433  0.999186  1
  Ir  Ir20  1  0.333334  0.666666  0.496515  1
  Ir  Ir21  1  0.666666  0.333334  0.503485  1
  Ir  Ir22  1  0.666666  0.333334  0.996515  1
  Ir  Ir23  1  0.333334  0.666666  0.003485  1
