# generated using pymatgen
data_ThP4Ru5Rh
_symmetry_space_group_name_H-M   'P 1'
_cell_length_a   6.95442406
_cell_length_b   6.95442293
_cell_length_c   3.82907400
_cell_angle_alpha   90.00000000
_cell_angle_beta   90.00000000
_cell_angle_gamma   120.31908709
_symmetry_Int_Tables_number   1
_chemical_formula_structural   ThP4Ru5Rh
_chemical_formula_sum   'Th1 P4 Ru5 Rh1'
_cell_volume   159.86053362
_cell_formula_units_Z   1
loop_
 _symmetry_equiv_pos_site_id
 _symmetry_equiv_pos_as_xyz
  1  'x, y, z'
loop_
 _atom_site_type_symbol
 _atom_site_label
 _atom_site_symmetry_multiplicity
 _atom_site_fract_x
 _atom_site_fract_y
 _atom_site_fract_z
 _atom_site_occupancy
  Th  Th0  1  0.332108  0.667892  0.000000  1
  P  P1  1  0.670302  0.329698  0.000000  1
  P  P2  1  0.726715  0.867764  0.500000  1
  P  P3  1  0.132236  0.273285  0.500000  1
  P  P4  1  0.137450  0.862550  0.500000  1
  Ru  Ru5  1  0.271343  0.134901  0.000000  1
  Ru  Ru6  1  0.865099  0.728657  0.000000  1
  Ru  Ru7  1  0.866974  0.133026  0.000000  1
  Ru  Ru8  1  0.935532  0.467398  0.500000  1
  Ru  Ru9  1  0.532602  0.064468  0.500000  1
  Rh  Rh10  1  0.529639  0.470361  0.500000  1
