# generated using pymatgen
data_Rb2Os(Cl2F)2
_symmetry_space_group_name_H-M   'P 1'
_cell_length_a   7.00553482
_cell_length_b   7.00553527
_cell_length_c   7.00553821
_cell_angle_alpha   118.72688530
_cell_angle_beta   118.72688725
_cell_angle_gamma   92.21958183
_symmetry_Int_Tables_number   1
_chemical_formula_structural   Rb2Os(Cl2F)2
_chemical_formula_sum   'Rb2 Os1 Cl4 F2'
_cell_volume   247.59086057
_cell_formula_units_Z   1
loop_
 _symmetry_equiv_pos_site_id
 _symmetry_equiv_pos_as_xyz
  1  'x, y, z'
loop_
 _atom_site_type_symbol
 _atom_site_label
 _atom_site_symmetry_multiplicity
 _atom_site_fract_x
 _atom_site_fract_y
 _atom_site_fract_z
 _atom_site_occupancy
  Rb  Rb0  1  0.749999  0.250000  0.499999  1
  Rb  Rb1  1  0.250000  0.749999  0.499999  1
  Os  Os2  1  0.000000  0.000000  0.000000  1
  Cl  Cl3  1  0.765257  0.234743  0.000000  1
  Cl  Cl4  1  0.234743  0.765257  0.000000  1
  Cl  Cl5  1  0.234743  0.234743  0.469486  1
  Cl  Cl6  1  0.765256  0.765256  0.530513  1
  F  F7  1  0.199447  0.199447  0.000000  1
  F  F8  1  0.800553  0.800553  0.000000  1
