# generated using pymatgen
data_Li2Ho5P12Ru17
_symmetry_space_group_name_H-M   'P 1'
_cell_length_a   12.71455400
_cell_length_b   12.51445217
_cell_length_c   3.95371400
_cell_angle_alpha   90.00000000
_cell_angle_beta   90.00000000
_cell_angle_gamma   120.53035842
_symmetry_Int_Tables_number   1
_chemical_formula_structural   Li2Ho5P12Ru17
_chemical_formula_sum   'Li2 Ho5 P12 Ru17'
_cell_volume   541.87982711
_cell_formula_units_Z   1
loop_
 _symmetry_equiv_pos_site_id
 _symmetry_equiv_pos_as_xyz
  1  'x, y, z'
loop_
 _atom_site_type_symbol
 _atom_site_label
 _atom_site_symmetry_multiplicity
 _atom_site_fract_x
 _atom_site_fract_y
 _atom_site_fract_z
 _atom_site_occupancy
  Li  Li0  1  0.000381  0.561621  0.000000  1
  Li  Li1  1  0.438761  0.438379  0.000000  1
  Ho  Ho2  1  0.999841  0.181113  0.500000  1
  Ho  Ho3  1  0.818729  0.818887  0.500000  1
  Ho  Ho4  1  0.181677  0.000000  0.500000  1
  Ho  Ho5  1  0.664050  0.326627  0.000000  1
  Ho  Ho6  1  0.337422  0.673373  0.000000  1
  P  P7  1  0.998878  0.810421  0.000000  1
  P  P8  1  0.188457  0.189579  0.000000  1
  P  P9  1  0.817900  0.000000  0.000000  1
  P  P10  1  0.691601  0.169994  0.500000  1
  P  P11  1  0.818208  0.515698  0.500000  1
  P  P12  1  0.477830  0.301716  0.500000  1
  P  P13  1  0.176115  0.698284  0.500000  1
  P  P14  1  0.521607  0.830006  0.500000  1
  P  P15  1  0.302510  0.484302  0.500000  1
  P  P16  1  0.002275  0.369803  0.000000  1
  P  P17  1  0.632472  0.630197  0.000000  1
  P  P18  1  0.375850  0.000000  0.000000  1
  Ru  Ru19  1  0.556413  0.000000  0.000000  1
  Ru  Ru20  1  0.998644  0.713389  0.500000  1
  Ru  Ru21  1  0.285254  0.286611  0.500000  1
  Ru  Ru22  1  0.717656  0.000000  0.500000  1
  Ru  Ru23  1  0.808475  0.185450  0.000000  1
  Ru  Ru24  1  0.812921  0.616226  0.000000  1
  Ru  Ru25  1  0.377008  0.191173  0.000000  1
  Ru  Ru26  1  0.185835  0.808827  0.000000  1
  Ru  Ru27  1  0.623025  0.814550  0.000000  1
  Ru  Ru28  1  0.196695  0.383774  0.000000  1
  Ru  Ru29  1  0.874314  0.366144  0.500000  1
  Ru  Ru30  1  0.629996  0.510373  0.500000  1
  Ru  Ru31  1  0.491712  0.124410  0.500000  1
  Ru  Ru32  1  0.367302  0.875590  0.500000  1
  Ru  Ru33  1  0.508170  0.633856  0.500000  1
  Ru  Ru34  1  0.119624  0.489627  0.500000  1
  Ru  Ru35  1  0.002391  0.000000  0.000000  1
