# generated using pymatgen
data_Pr6Y10Cd4RuPt3
_symmetry_space_group_name_H-M   'P 1'
_cell_length_a   9.85372299
_cell_length_b   9.85374032
_cell_length_c   9.85374561
_cell_angle_alpha   59.84269290
_cell_angle_beta   59.84196910
_cell_angle_gamma   59.84226495
_symmetry_Int_Tables_number   1
_chemical_formula_structural   Pr6Y10Cd4RuPt3
_chemical_formula_sum   'Pr6 Y10 Cd4 Ru1 Pt3'
_cell_volume   674.11001299
_cell_formula_units_Z   1
loop_
 _symmetry_equiv_pos_site_id
 _symmetry_equiv_pos_as_xyz
  1  'x, y, z'
loop_
 _atom_site_type_symbol
 _atom_site_label
 _atom_site_symmetry_multiplicity
 _atom_site_fract_x
 _atom_site_fract_y
 _atom_site_fract_z
 _atom_site_occupancy
  Pr  Pr0  1  0.938108  0.562093  0.562084  1
  Pr  Pr1  1  0.557928  0.939359  0.939371  1
  Pr  Pr2  1  0.562072  0.938105  0.562082  1
  Pr  Pr3  1  0.939397  0.557852  0.939390  1
  Pr  Pr4  1  0.562077  0.562081  0.938114  1
  Pr  Pr5  1  0.939383  0.939396  0.557865  1
  Y  Y6  1  0.351476  0.351476  0.351474  1
  Y  Y7  1  0.347532  0.347524  0.954018  1
  Y  Y8  1  0.347526  0.954015  0.347533  1
  Y  Y9  1  0.954008  0.347539  0.347533  1
  Y  Y10  1  0.816552  0.187000  0.186998  1
  Y  Y11  1  0.185061  0.810971  0.810972  1
  Y  Y12  1  0.187015  0.816553  0.186997  1
  Y  Y13  1  0.810967  0.185084  0.810966  1
  Y  Y14  1  0.187016  0.186993  0.816554  1
  Y  Y15  1  0.810963  0.810971  0.185083  1
  Cd  Cd16  1  0.579236  0.579237  0.579234  1
  Cd  Cd17  1  0.579560  0.579554  0.260711  1
  Cd  Cd18  1  0.579555  0.260718  0.579550  1
  Cd  Cd19  1  0.260696  0.579563  0.579553  1
  Ru  Ru20  1  0.142154  0.142205  0.142203  1
  Pt  Pt21  1  0.143897  0.143890  0.573938  1
  Pt  Pt22  1  0.143901  0.573941  0.143887  1
  Pt  Pt23  1  0.573919  0.143881  0.143886  1
