# generated using pymatgen
data_Ta4Nb2Co15Si7Pt
_symmetry_space_group_name_H-M   'P 1'
_cell_length_a   7.95640752
_cell_length_b   7.95641929
_cell_length_c   7.95427206
_cell_angle_alpha   59.94829222
_cell_angle_beta   59.94958663
_cell_angle_gamma   59.92930686
_symmetry_Int_Tables_number   1
_chemical_formula_structural   Ta4Nb2Co15Si7Pt
_chemical_formula_sum   'Ta4 Nb2 Co15 Si7 Pt1'
_cell_volume   355.59226520
_cell_formula_units_Z   1
loop_
 _symmetry_equiv_pos_site_id
 _symmetry_equiv_pos_as_xyz
  1  'x, y, z'
loop_
 _atom_site_type_symbol
 _atom_site_label
 _atom_site_symmetry_multiplicity
 _atom_site_fract_x
 _atom_site_fract_y
 _atom_site_fract_z
 _atom_site_occupancy
  Ta  Ta0  1  0.805431  0.198719  0.198282  1
  Ta  Ta1  1  0.796917  0.200619  0.797210  1
  Ta  Ta2  1  0.796116  0.796722  0.201064  1
  Ta  Ta3  1  0.198715  0.199442  0.805003  1
  Nb  Nb4  1  0.199771  0.797607  0.797441  1
  Nb  Nb5  1  0.198078  0.805856  0.198313  1
  Co  Co6  1  0.498054  0.835438  0.834022  1
  Co  Co7  1  0.621559  0.619932  0.143497  1
  Co  Co8  1  0.161647  0.163255  0.506848  1
  Co  Co9  1  0.834001  0.835702  0.496716  1
  Co  Co10  1  0.166092  0.167711  0.166302  1
  Co  Co11  1  0.832885  0.834126  0.834068  1
  Co  Co12  1  0.381511  0.379964  0.857215  1
  Co  Co13  1  0.835337  0.495338  0.835609  1
  Co  Co14  1  0.621144  0.619400  0.620025  1
  Co  Co15  1  0.381527  0.857387  0.380353  1
  Co  Co16  1  0.143394  0.619801  0.620978  1
  Co  Co17  1  0.621157  0.143461  0.620662  1
  Co  Co18  1  0.161939  0.505525  0.163254  1
  Co  Co19  1  0.857055  0.380643  0.381080  1
  Co  Co20  1  0.508216  0.162045  0.161716  1
  Si  Si21  1  0.999897  0.999744  0.499394  1
  Si  Si22  1  0.501119  0.989002  0.501727  1
  Si  Si23  1  0.505578  0.506468  0.505903  1
  Si  Si24  1  0.999598  0.499884  0.999583  1
  Si  Si25  1  0.501159  0.502189  0.989001  1
  Si  Si26  1  0.499055  0.999898  0.999969  1
  Si  Si27  1  0.989073  0.502001  0.501497  1
  Pt  Pt28  1  0.383972  0.382121  0.383267  1
