# generated using pymatgen
data_Tm5SnSb2
_symmetry_space_group_name_H-M   'P 1'
_cell_length_a   8.85097700
_cell_length_b   8.84516518
_cell_length_c   6.32676100
_cell_angle_alpha   90.00000000
_cell_angle_beta   90.00000000
_cell_angle_gamma   120.02174153
_symmetry_Int_Tables_number   1
_chemical_formula_structural   Tm5SnSb2
_chemical_formula_sum   'Tm10 Sn2 Sb4'
_cell_volume   428.85851035
_cell_formula_units_Z   2
loop_
 _symmetry_equiv_pos_site_id
 _symmetry_equiv_pos_as_xyz
  1  'x, y, z'
loop_
 _atom_site_type_symbol
 _atom_site_label
 _atom_site_symmetry_multiplicity
 _atom_site_fract_x
 _atom_site_fract_y
 _atom_site_fract_z
 _atom_site_occupancy
  Tm  Tm0  1  0.334224  0.668449  0.000000  1
  Tm  Tm1  1  0.665776  0.331551  0.500000  1
  Tm  Tm2  1  0.665776  0.331551  0.000000  1
  Tm  Tm3  1  0.334224  0.668449  0.500000  1
  Tm  Tm4  1  0.242830  0.000000  0.250000  1
  Tm  Tm5  1  0.757170  0.000000  0.750000  1
  Tm  Tm6  1  0.997401  0.241476  0.250000  1
  Tm  Tm7  1  0.755925  0.758524  0.250000  1
  Tm  Tm8  1  0.244075  0.241476  0.750000  1
  Tm  Tm9  1  0.002599  0.758524  0.750000  1
  Sn  Sn10  1  0.606788  0.000000  0.250000  1
  Sn  Sn11  1  0.393212  0.000000  0.750000  1
  Sb  Sb12  1  0.999243  0.609220  0.250000  1
  Sb  Sb13  1  0.390023  0.390780  0.250000  1
  Sb  Sb14  1  0.609977  0.609220  0.750000  1
  Sb  Sb15  1  0.000757  0.390780  0.750000  1
