# generated using pymatgen
data_Sn12Ir3Rh5Se12
_symmetry_space_group_name_H-M   'P 1'
_cell_length_a   9.08347686
_cell_length_b   9.08330692
_cell_length_c   9.08297840
_cell_angle_alpha   89.97146089
_cell_angle_beta   89.93230688
_cell_angle_gamma   89.92962288
_symmetry_Int_Tables_number   1
_chemical_formula_structural   Sn12Ir3Rh5Se12
_chemical_formula_sum   'Sn12 Ir3 Rh5 Se12'
_cell_volume   749.41727604
_cell_formula_units_Z   1
loop_
 _symmetry_equiv_pos_site_id
 _symmetry_equiv_pos_as_xyz
  1  'x, y, z'
loop_
 _atom_site_type_symbol
 _atom_site_label
 _atom_site_symmetry_multiplicity
 _atom_site_fract_x
 _atom_site_fract_y
 _atom_site_fract_z
 _atom_site_occupancy
  Sn  Sn0  1  0.500716  0.348948  0.167507  1
  Sn  Sn1  1  0.167865  0.499692  0.349773  1
  Sn  Sn2  1  0.350056  0.168042  0.499878  1
  Sn  Sn3  1  0.498161  0.651161  0.833335  1
  Sn  Sn4  1  0.833425  0.498028  0.650749  1
  Sn  Sn5  1  0.651105  0.833750  0.498217  1
  Sn  Sn6  1  0.997709  0.849247  0.333622  1
  Sn  Sn7  1  0.333494  0.997517  0.848837  1
  Sn  Sn8  1  0.848005  0.333326  0.998208  1
  Sn  Sn9  1  0.000326  0.151830  0.666517  1
  Sn  Sn10  1  0.666417  0.001554  0.151955  1
  Sn  Sn11  1  0.151887  0.666834  0.000477  1
  Ir  Ir12  1  0.754409  0.754392  0.754459  1
  Ir  Ir13  1  0.255991  0.755596  0.254368  1
  Ir  Ir14  1  0.254196  0.255871  0.755828  1
  Rh  Rh15  1  0.245132  0.244680  0.245046  1
  Rh  Rh16  1  0.244006  0.745374  0.743249  1
  Rh  Rh17  1  0.743018  0.243803  0.745336  1
  Rh  Rh18  1  0.745594  0.743898  0.244210  1
  Rh  Rh19  1  0.756044  0.254499  0.256404  1
  Se  Se20  1  0.654216  0.997440  0.851623  1
  Se  Se21  1  0.851662  0.654218  0.997576  1
  Se  Se22  1  0.997398  0.851694  0.654192  1
  Se  Se23  1  0.347311  0.001177  0.149278  1
  Se  Se24  1  0.149112  0.347278  0.001598  1
  Se  Se25  1  0.002037  0.148897  0.347219  1
  Se  Se26  1  0.153460  0.498678  0.650404  1
  Se  Se27  1  0.649717  0.152713  0.498741  1
  Se  Se28  1  0.499089  0.650347  0.153657  1
  Se  Se29  1  0.847781  0.500906  0.350375  1
  Se  Se30  1  0.350798  0.847657  0.499913  1
  Se  Se31  1  0.499863  0.350952  0.847449  1
