# generated using pymatgen
data_Sc4FeRe2B8Ru7
_symmetry_space_group_name_H-M   'P 1'
_cell_length_a   3.01982700
_cell_length_b   8.47780905
_cell_length_c   9.99788633
_cell_angle_alpha   90.69764912
_cell_angle_beta   90.00000000
_cell_angle_gamma   90.00000000
_symmetry_Int_Tables_number   1
_chemical_formula_structural   Sc4FeRe2B8Ru7
_chemical_formula_sum   'Sc4 Fe1 Re2 B8 Ru7'
_cell_volume   255.94207918
_cell_formula_units_Z   1
loop_
 _symmetry_equiv_pos_site_id
 _symmetry_equiv_pos_as_xyz
  1  'x, y, z'
loop_
 _atom_site_type_symbol
 _atom_site_label
 _atom_site_symmetry_multiplicity
 _atom_site_fract_x
 _atom_site_fract_y
 _atom_site_fract_z
 _atom_site_occupancy
  Sc  Sc0  1  0.500000  0.843094  0.172329  1
  Sc  Sc1  1  0.500000  0.156906  0.827671  1
  Sc  Sc2  1  0.500000  0.658792  0.686447  1
  Sc  Sc3  1  0.500000  0.341208  0.313553  1
  Fe  Fe4  1  0.000000  0.000000  0.000000  1
  Re  Re5  1  0.000000  0.664582  0.954793  1
  Re  Re6  1  0.000000  0.335418  0.045207  1
  B  B7  1  0.500000  0.965662  0.591515  1
  B  B8  1  0.500000  0.034338  0.408485  1
  B  B9  1  0.500000  0.856555  0.907646  1
  B  B10  1  0.500000  0.143445  0.092354  1
  B  B11  1  0.500000  0.647541  0.398529  1
  B  B12  1  0.500000  0.352459  0.601471  1
  B  B13  1  0.500000  0.464500  0.912577  1
  B  B14  1  0.500000  0.535500  0.087423  1
  Ru  Ru15  1  0.000000  0.841708  0.454474  1
  Ru  Ru16  1  0.000000  0.158292  0.545526  1
  Ru  Ru17  1  0.000000  0.402399  0.760057  1
  Ru  Ru18  1  0.000000  0.597601  0.239943  1
  Ru  Ru19  1  0.000000  0.500000  0.500000  1
  Ru  Ru20  1  0.000000  0.908737  0.743129  1
  Ru  Ru21  1  0.000000  0.091263  0.256871  1
