# generated using pymatgen
data_SmDy3(Co5As3)4
_symmetry_space_group_name_H-M   'P 1'
_cell_length_a   3.80014800
_cell_length_b   12.20231401
_cell_length_c   10.69330889
_cell_angle_alpha   90.04665897
_cell_angle_beta   90.00000000
_cell_angle_gamma   90.00000000
_symmetry_Int_Tables_number   1
_chemical_formula_structural   SmDy3(Co5As3)4
_chemical_formula_sum   'Sm1 Dy3 Co20 As12'
_cell_volume   495.85497593
_cell_formula_units_Z   1
loop_
 _symmetry_equiv_pos_site_id
 _symmetry_equiv_pos_as_xyz
  1  'x, y, z'
loop_
 _atom_site_type_symbol
 _atom_site_label
 _atom_site_symmetry_multiplicity
 _atom_site_fract_x
 _atom_site_fract_y
 _atom_site_fract_z
 _atom_site_occupancy
  Sm  Sm0  1  0.750000  0.701870  0.082279  1
  Dy  Dy1  1  0.250000  0.298572  0.918061  1
  Dy  Dy2  1  0.250000  0.798621  0.581692  1
  Dy  Dy3  1  0.750000  0.201378  0.418401  1
  Co  Co4  1  0.750000  0.696910  0.385224  1
  Co  Co5  1  0.250000  0.302881  0.616006  1
  Co  Co6  1  0.250000  0.803890  0.882333  1
  Co  Co7  1  0.750000  0.197260  0.116248  1
  Co  Co8  1  0.750000  0.990990  0.211553  1
  Co  Co9  1  0.250000  0.009150  0.788223  1
  Co  Co10  1  0.250000  0.508211  0.710689  1
  Co  Co11  1  0.750000  0.490532  0.288921  1
  Co  Co12  1  0.750000  0.677510  0.783077  1
  Co  Co13  1  0.250000  0.322148  0.216444  1
  Co  Co14  1  0.250000  0.822841  0.284953  1
  Co  Co15  1  0.750000  0.177638  0.715872  1
  Co  Co16  1  0.750000  0.933664  0.968624  1
  Co  Co17  1  0.250000  0.069069  0.030311  1
  Co  Co18  1  0.250000  0.567211  0.470923  1
  Co  Co19  1  0.750000  0.431976  0.530730  1
  Co  Co20  1  0.750000  0.988082  0.592909  1
  Co  Co21  1  0.250000  0.012101  0.407115  1
  Co  Co22  1  0.250000  0.509836  0.092718  1
  Co  Co23  1  0.750000  0.487331  0.906286  1
  As  As24  1  0.750000  0.614026  0.584545  1
  As  As25  1  0.250000  0.385594  0.415735  1
  As  As26  1  0.250000  0.887978  0.084601  1
  As  As27  1  0.750000  0.114930  0.915312  1
  As  As28  1  0.750000  0.890787  0.399194  1
  As  As29  1  0.250000  0.109261  0.600922  1
  As  As30  1  0.250000  0.608435  0.897125  1
  As  As31  1  0.750000  0.390529  0.100910  1
  As  As32  1  0.750000  0.870122  0.769006  1
  As  As33  1  0.250000  0.129989  0.230947  1
  As  As34  1  0.250000  0.628862  0.271620  1
  As  As35  1  0.750000  0.369814  0.730493  1
