# generated using pymatgen
data_Li3Dy3Si2Pb
_symmetry_space_group_name_H-M   'P 1'
_cell_length_a   7.14288500
_cell_length_b   7.14288573
_cell_length_c   4.31196600
_cell_angle_alpha   90.00000000
_cell_angle_beta   90.00000000
_cell_angle_gamma   119.99999198
_symmetry_Int_Tables_number   1
_chemical_formula_structural   Li3Dy3Si2Pb
_chemical_formula_sum   'Li3 Dy3 Si2 Pb1'
_cell_volume   190.52560755
_cell_formula_units_Z   1
loop_
 _symmetry_equiv_pos_site_id
 _symmetry_equiv_pos_as_xyz
  1  'x, y, z'
loop_
 _atom_site_type_symbol
 _atom_site_label
 _atom_site_symmetry_multiplicity
 _atom_site_fract_x
 _atom_site_fract_y
 _atom_site_fract_z
 _atom_site_occupancy
  Li  Li0  1  0.247255  0.000000  0.500000  1
  Li  Li1  1  0.752745  0.752745  0.500000  1
  Li  Li2  1  0.000000  0.247255  0.500000  1
  Dy  Dy3  1  0.000000  0.554849  0.000000  1
  Dy  Dy4  1  0.554849  0.000000  0.000000  1
  Dy  Dy5  1  0.445151  0.445151  0.000000  1
  Si  Si6  1  0.333333  0.666667  0.500000  1
  Si  Si7  1  0.666667  0.333333  0.500000  1
  Pb  Pb8  1  0.000000  0.000000  0.000000  1
