# generated using pymatgen
data_HoEr3Lu4Tl3Co
_symmetry_space_group_name_H-M   'P 1'
_cell_length_a   10.15946000
_cell_length_b   10.15945961
_cell_length_c   7.07052700
_cell_angle_alpha   90.00000000
_cell_angle_beta   90.00000000
_cell_angle_gamma   120.00000127
_symmetry_Int_Tables_number   1
_chemical_formula_structural   HoEr3Lu4Tl3Co
_chemical_formula_sum   'Ho2 Er6 Lu8 Tl6 Co2'
_cell_volume   632.00955486
_cell_formula_units_Z   2
loop_
 _symmetry_equiv_pos_site_id
 _symmetry_equiv_pos_as_xyz
  1  'x, y, z'
loop_
 _atom_site_type_symbol
 _atom_site_label
 _atom_site_symmetry_multiplicity
 _atom_site_fract_x
 _atom_site_fract_y
 _atom_site_fract_z
 _atom_site_occupancy
  Ho  Ho0  1  0.000000  0.000000  0.228717  1
  Ho  Ho1  1  0.000000  0.000000  0.728717  1
  Er  Er2  1  0.462359  0.537641  0.211621  1
  Er  Er3  1  0.075283  0.537641  0.211621  1
  Er  Er4  1  0.462359  0.924717  0.211621  1
  Er  Er5  1  0.537641  0.462359  0.711621  1
  Er  Er6  1  0.924717  0.462359  0.711621  1
  Er  Er7  1  0.537641  0.075283  0.711621  1
  Lu  Lu8  1  0.179465  0.820535  0.512031  1
  Lu  Lu9  1  0.641070  0.820535  0.512031  1
  Lu  Lu10  1  0.179465  0.358930  0.512031  1
  Lu  Lu11  1  0.820535  0.179465  0.012031  1
  Lu  Lu12  1  0.358930  0.179465  0.012031  1
  Lu  Lu13  1  0.820535  0.641070  0.012031  1
  Lu  Lu14  1  0.333333  0.666667  0.817772  1
  Lu  Lu15  1  0.666667  0.333333  0.317772  1
  Tl  Tl16  1  0.163309  0.836691  0.959089  1
  Tl  Tl17  1  0.673381  0.836691  0.959089  1
  Tl  Tl18  1  0.163309  0.326619  0.959089  1
  Tl  Tl19  1  0.836691  0.163309  0.459089  1
  Tl  Tl20  1  0.326619  0.163309  0.459089  1
  Tl  Tl21  1  0.836691  0.673381  0.459089  1
  Co  Co22  1  0.333333  0.666667  0.442309  1
  Co  Co23  1  0.666667  0.333333  0.942309  1
