# generated using pymatgen
data_La2CrCu(TeO6)2
_symmetry_space_group_name_H-M   'P 1'
_cell_length_a   5.22592207
_cell_length_b   5.22592127
_cell_length_c   10.45039407
_cell_angle_alpha   90.00221776
_cell_angle_beta   90.00222992
_cell_angle_gamma   120.00381380
_symmetry_Int_Tables_number   1
_chemical_formula_structural   La2CrCu(TeO6)2
_chemical_formula_sum   'La2 Cr1 Cu1 Te2 O12'
_cell_volume   247.15670571
_cell_formula_units_Z   1
loop_
 _symmetry_equiv_pos_site_id
 _symmetry_equiv_pos_as_xyz
  1  'x, y, z'
loop_
 _atom_site_type_symbol
 _atom_site_label
 _atom_site_symmetry_multiplicity
 _atom_site_fract_x
 _atom_site_fract_y
 _atom_site_fract_z
 _atom_site_occupancy
  La  La0  1  0.999998  0.999995  0.999667  1
  La  La1  1  0.000007  0.000003  0.500333  1
  Cr  Cr2  1  0.333352  0.666645  0.250000  1
  Cu  Cu3  1  0.666646  0.333356  0.750000  1
  Te  Te4  1  0.666686  0.333315  0.250000  1
  Te  Te5  1  0.333318  0.666682  0.750000  1
  O  O6  1  0.623154  0.989804  0.856123  1
  O  O7  1  0.366609  0.376903  0.856132  1
  O  O8  1  0.010255  0.633433  0.856128  1
  O  O9  1  0.374153  0.009269  0.144623  1
  O  O10  1  0.635154  0.625794  0.144617  1
  O  O11  1  0.990677  0.364804  0.144621  1
  O  O12  1  0.366567  0.989745  0.643873  1
  O  O13  1  0.623098  0.633390  0.643869  1
  O  O14  1  0.010197  0.376844  0.643877  1
  O  O15  1  0.635197  0.009323  0.355378  1
  O  O16  1  0.374207  0.364847  0.355384  1
  O  O17  1  0.990731  0.625847  0.355376  1
