# generated using pymatgen
data_Mg2ZnGaPt4
_symmetry_space_group_name_H-M   'P 1'
_cell_length_a   5.43980834
_cell_length_b   5.43980830
_cell_length_c   4.15822000
_cell_angle_alpha   90.00000000
_cell_angle_beta   90.00000000
_cell_angle_gamma   96.76876505
_symmetry_Int_Tables_number   1
_chemical_formula_structural   Mg2ZnGaPt4
_chemical_formula_sum   'Mg2 Zn1 Ga1 Pt4'
_cell_volume   122.19037171
_cell_formula_units_Z   1
loop_
 _symmetry_equiv_pos_site_id
 _symmetry_equiv_pos_as_xyz
  1  'x, y, z'
loop_
 _atom_site_type_symbol
 _atom_site_label
 _atom_site_symmetry_multiplicity
 _atom_site_fract_x
 _atom_site_fract_y
 _atom_site_fract_z
 _atom_site_occupancy
  Mg  Mg0  1  0.734326  0.265674  0.500000  1
  Mg  Mg1  1  0.265674  0.734326  0.500000  1
  Zn  Zn2  1  0.500000  0.500000  0.000000  1
  Ga  Ga3  1  0.000000  0.000000  0.000000  1
  Pt  Pt4  1  0.000000  0.500000  0.000000  1
  Pt  Pt5  1  0.500000  0.000000  0.000000  1
  Pt  Pt6  1  0.232182  0.232182  0.500000  1
  Pt  Pt7  1  0.767818  0.767818  0.500000  1
