# generated using pymatgen
data_Zr8Ti12Si15Au
_symmetry_space_group_name_H-M   'P 1'
_cell_length_a   6.89841016
_cell_length_b   6.87474952
_cell_length_c   12.61250857
_cell_angle_alpha   90.09259658
_cell_angle_beta   89.76128001
_cell_angle_gamma   89.78408660
_symmetry_Int_Tables_number   1
_chemical_formula_structural   Zr8Ti12Si15Au
_chemical_formula_sum   'Zr8 Ti12 Si15 Au1'
_cell_volume   598.13599040
_cell_formula_units_Z   1
loop_
 _symmetry_equiv_pos_site_id
 _symmetry_equiv_pos_as_xyz
  1  'x, y, z'
loop_
 _atom_site_type_symbol
 _atom_site_label
 _atom_site_symmetry_multiplicity
 _atom_site_fract_x
 _atom_site_fract_y
 _atom_site_fract_z
 _atom_site_occupancy
  Zr  Zr0  1  0.001025  0.655058  0.032397  1
  Zr  Zr1  1  0.996730  0.332371  0.535782  1
  Zr  Zr2  1  0.655284  0.002162  0.967309  1
  Zr  Zr3  1  0.156865  0.497095  0.784183  1
  Zr  Zr4  1  0.834219  0.496497  0.276965  1
  Zr  Zr5  1  0.495864  0.156714  0.215813  1
  Zr  Zr6  1  0.503663  0.842827  0.718574  1
  Zr  Zr7  1  0.354101  0.005937  0.466823  1
  Ti  Ti8  1  0.353211  0.505620  0.376062  1
  Ti  Ti9  1  0.841045  0.006315  0.365295  1
  Ti  Ti10  1  0.002872  0.152745  0.127733  1
  Ti  Ti11  1  0.000428  0.848449  0.634755  1
  Ti  Ti12  1  0.652547  0.494349  0.876868  1
  Ti  Ti13  1  0.507215  0.346630  0.624818  1
  Ti  Ti14  1  0.493569  0.652561  0.122175  1
  Ti  Ti15  1  0.153284  0.002121  0.872236  1
  Ti  Ti16  1  0.663691  0.669317  0.500525  1
  Ti  Ti17  1  0.829215  0.170223  0.750624  1
  Ti  Ti18  1  0.172979  0.834048  0.245705  1
  Ti  Ti19  1  0.327496  0.328800  0.999694  1
  Si  Si20  1  0.953273  0.290704  0.936200  1
  Si  Si21  1  0.710983  0.040562  0.563406  1
  Si  Si22  1  0.205896  0.455425  0.186144  1
  Si  Si23  1  0.794691  0.545630  0.686259  1
  Si  Si24  1  0.454526  0.207248  0.814796  1
  Si  Si25  1  0.546117  0.793761  0.312560  1
  Si  Si26  1  0.291318  0.954792  0.062898  1
  Si  Si27  1  0.864644  0.793014  0.825200  1
  Si  Si28  1  0.134442  0.209135  0.323418  1
  Si  Si29  1  0.791634  0.864747  0.174406  1
  Si  Si30  1  0.298395  0.634384  0.575586  1
  Si  Si31  1  0.704887  0.365447  0.071536  1
  Si  Si32  1  0.636818  0.296721  0.429062  1
  Si  Si33  1  0.365003  0.705505  0.927626  1
  Si  Si34  1  0.211039  0.134285  0.678314  1
  Au  Au35  1  0.041030  0.708800  0.438254  1
