# generated using pymatgen
data_Y12Er3Th5Sn16
_symmetry_space_group_name_H-M   'P 1'
_cell_length_a   8.10386067
_cell_length_b   8.20584651
_cell_length_c   15.53050837
_cell_angle_alpha   90.06017819
_cell_angle_beta   89.56679866
_cell_angle_gamma   89.85290819
_symmetry_Int_Tables_number   1
_chemical_formula_structural   Y12Er3Th5Sn16
_chemical_formula_sum   'Y12 Er3 Th5 Sn16'
_cell_volume   1032.73033392
_cell_formula_units_Z   1
loop_
 _symmetry_equiv_pos_site_id
 _symmetry_equiv_pos_as_xyz
  1  'x, y, z'
loop_
 _atom_site_type_symbol
 _atom_site_label
 _atom_site_symmetry_multiplicity
 _atom_site_fract_x
 _atom_site_fract_y
 _atom_site_fract_z
 _atom_site_occupancy
  Y  Y0  1  0.359630  0.834905  0.876043  1
  Y  Y1  1  0.863368  0.663849  0.623137  1
  Y  Y2  1  0.635916  0.165058  0.377323  1
  Y  Y3  1  0.136675  0.335956  0.123388  1
  Y  Y4  1  0.639414  0.161995  0.124159  1
  Y  Y5  1  0.133977  0.337332  0.377745  1
  Y  Y6  1  0.366357  0.838833  0.623675  1
  Y  Y7  1  0.862357  0.661271  0.875359  1
  Y  Y8  1  0.525821  0.323522  0.899494  1
  Y  Y9  1  0.029062  0.175464  0.601009  1
  Y  Y10  1  0.470585  0.676057  0.400141  1
  Y  Y11  1  0.193580  0.500154  0.749433  1
  Er  Er12  1  0.694077  0.999552  0.750329  1
  Er  Er13  1  0.806665  0.500188  0.250434  1
  Er  Er14  1  0.306498  0.000019  0.250767  1
  Th  Th15  1  0.980016  0.820586  0.096713  1
  Th  Th16  1  0.482190  0.678243  0.095883  1
  Th  Th17  1  0.981030  0.823114  0.403614  1
  Th  Th18  1  0.517719  0.322331  0.596195  1
  Th  Th19  1  0.015462  0.177629  0.905132  1
  Sn  Sn20  1  0.300280  0.036872  0.042366  1
  Sn  Sn21  1  0.789449  0.470256  0.455981  1
  Sn  Sn22  1  0.710144  0.970153  0.544010  1
  Sn  Sn23  1  0.205501  0.533127  0.957136  1
  Sn  Sn24  1  0.696232  0.958665  0.958327  1
  Sn  Sn25  1  0.202278  0.542376  0.540738  1
  Sn  Sn26  1  0.296824  0.040161  0.459354  1
  Sn  Sn27  1  0.797737  0.457637  0.039961  1
  Sn  Sn28  1  0.560004  0.621592  0.748725  1
  Sn  Sn29  1  0.059504  0.878598  0.750116  1
  Sn  Sn30  1  0.439665  0.376858  0.249390  1
  Sn  Sn31  1  0.940710  0.122345  0.250647  1
  Sn  Sn32  1  0.328475  0.145804  0.752722  1
  Sn  Sn33  1  0.828728  0.352581  0.747725  1
  Sn  Sn34  1  0.669644  0.853934  0.252644  1
  Sn  Sn35  1  0.174422  0.642988  0.250180  1
