# generated using pymatgen
data_Er7Tm2Lu(CoSb2)2
_symmetry_space_group_name_H-M   'P 1'
_cell_length_a   7.77302900
_cell_length_b   8.73231490
_cell_length_c   12.08156522
_cell_angle_alpha   90.04873452
_cell_angle_beta   90.00000000
_cell_angle_gamma   90.00000000
_symmetry_Int_Tables_number   1
_chemical_formula_structural   Er7Tm2Lu(CoSb2)2
_chemical_formula_sum   'Er14 Tm4 Lu2 Co4 Sb8'
_cell_volume   820.05451125
_cell_formula_units_Z   2
loop_
 _symmetry_equiv_pos_site_id
 _symmetry_equiv_pos_as_xyz
  1  'x, y, z'
loop_
 _atom_site_type_symbol
 _atom_site_label
 _atom_site_symmetry_multiplicity
 _atom_site_fract_x
 _atom_site_fract_y
 _atom_site_fract_z
 _atom_site_occupancy
  Er  Er0  1  0.157364  0.750294  0.204580  1
  Er  Er1  1  0.657364  0.249706  0.295420  1
  Er  Er2  1  0.842518  0.249895  0.795380  1
  Er  Er3  1  0.342518  0.750105  0.704620  1
  Er  Er4  1  0.450679  0.750239  0.997988  1
  Er  Er5  1  0.950679  0.249761  0.502012  1
  Er  Er6  1  0.549227  0.249620  0.002005  1
  Er  Er7  1  0.049227  0.750380  0.497995  1
  Er  Er8  1  0.622779  0.750182  0.308186  1
  Er  Er9  1  0.122779  0.249818  0.191814  1
  Er  Er10  1  0.377296  0.249649  0.691711  1
  Er  Er11  1  0.877296  0.750351  0.808289  1
  Er  Er12  1  0.823382  0.537511  0.065721  1
  Er  Er13  1  0.323382  0.462489  0.434279  1
  Tm  Tm14  1  0.176180  0.462554  0.934239  1
  Tm  Tm15  1  0.676180  0.537446  0.565761  1
  Tm  Tm16  1  0.175734  0.037547  0.934333  1
  Tm  Tm17  1  0.675734  0.962453  0.565667  1
  Lu  Lu18  1  0.824889  0.962367  0.065603  1
  Lu  Lu19  1  0.324889  0.037633  0.434397  1
  Co  Co20  1  0.431133  0.750415  0.490618  1
  Co  Co21  1  0.931133  0.249585  0.009382  1
  Co  Co22  1  0.568840  0.249432  0.509370  1
  Co  Co23  1  0.068840  0.750568  0.990630  1
  Sb  Sb24  1  0.931533  0.991613  0.327243  1
  Sb  Sb25  1  0.431533  0.008387  0.172757  1
  Sb  Sb26  1  0.068776  0.491543  0.672727  1
  Sb  Sb27  1  0.568776  0.508457  0.827273  1
  Sb  Sb28  1  0.068620  0.008451  0.672720  1
  Sb  Sb29  1  0.568620  0.991549  0.827280  1
  Sb  Sb30  1  0.931051  0.508514  0.327285  1
  Sb  Sb31  1  0.431051  0.491486  0.172715  1
