# generated using pymatgen
data_Ho4SiOsRu6
_symmetry_space_group_name_H-M   'P 1'
_cell_length_a   5.45491741
_cell_length_b   5.16373456
_cell_length_c   8.87027000
_cell_angle_alpha   90.00000000
_cell_angle_beta   90.00000000
_cell_angle_gamma   121.93858367
_symmetry_Int_Tables_number   1
_chemical_formula_structural   Ho4SiOsRu6
_chemical_formula_sum   'Ho4 Si1 Os1 Ru6'
_cell_volume   212.03129182
_cell_formula_units_Z   1
loop_
 _symmetry_equiv_pos_site_id
 _symmetry_equiv_pos_as_xyz
  1  'x, y, z'
loop_
 _atom_site_type_symbol
 _atom_site_label
 _atom_site_symmetry_multiplicity
 _atom_site_fract_x
 _atom_site_fract_y
 _atom_site_fract_z
 _atom_site_occupancy
  Ho  Ho0  1  0.669826  0.339600  0.565846  1
  Ho  Ho1  1  0.332747  0.665130  0.432499  1
  Ho  Ho2  1  0.332747  0.665130  0.067501  1
  Ho  Ho3  1  0.669826  0.339600  0.934154  1
  Si  Si4  1  0.836543  0.673150  0.250000  1
  Os  Os5  1  0.157544  0.314771  0.750000  1
  Ru  Ru6  1  0.004951  0.008961  0.498784  1
  Ru  Ru7  1  0.004951  0.008961  0.001216  1
  Ru  Ru8  1  0.170461  0.815412  0.750000  1
  Ru  Ru9  1  0.644170  0.815439  0.750000  1
  Ru  Ru10  1  0.827662  0.177220  0.250000  1
  Ru  Ru11  1  0.348573  0.176627  0.250000  1
