# generated using pymatgen
data_RbLu2F7
_symmetry_space_group_name_H-M   'P 1'
_cell_length_a   6.56599676
_cell_length_b   6.56599690
_cell_length_c   4.28097200
_cell_angle_alpha   90.00000000
_cell_angle_beta   90.00000000
_cell_angle_gamma   116.83068157
_symmetry_Int_Tables_number   1
_chemical_formula_structural   RbLu2F7
_chemical_formula_sum   'Rb1 Lu2 F7'
_cell_volume   164.69338416
_cell_formula_units_Z   1
loop_
 _symmetry_equiv_pos_site_id
 _symmetry_equiv_pos_as_xyz
  1  'x, y, z'
loop_
 _atom_site_type_symbol
 _atom_site_label
 _atom_site_symmetry_multiplicity
 _atom_site_fract_x
 _atom_site_fract_y
 _atom_site_fract_z
 _atom_site_occupancy
  Rb  Rb0  1  0.000000  0.000000  0.000000  1
  Lu  Lu1  1  0.307511  0.692489  0.500000  1
  Lu  Lu2  1  0.692489  0.307511  0.500000  1
  F  F3  1  0.500000  0.500000  0.500000  1
  F  F4  1  0.335436  0.043253  0.500000  1
  F  F5  1  0.664564  0.956747  0.500000  1
  F  F6  1  0.298703  0.701297  0.000000  1
  F  F7  1  0.701297  0.298703  0.000000  1
  F  F8  1  0.956747  0.664564  0.500000  1
  F  F9  1  0.043253  0.335436  0.500000  1
