# generated using pymatgen
data_Lu3In4CoRu
_symmetry_space_group_name_H-M   'P 1'
_cell_length_a   7.89806400
_cell_length_b   7.89806394
_cell_length_c   3.57463200
_cell_angle_alpha   90.00000000
_cell_angle_beta   90.00000000
_cell_angle_gamma   120.00000023
_symmetry_Int_Tables_number   1
_chemical_formula_structural   Lu3In4CoRu
_chemical_formula_sum   'Lu3 In4 Co1 Ru1'
_cell_volume   193.10933293
_cell_formula_units_Z   1
loop_
 _symmetry_equiv_pos_site_id
 _symmetry_equiv_pos_as_xyz
  1  'x, y, z'
loop_
 _atom_site_type_symbol
 _atom_site_label
 _atom_site_symmetry_multiplicity
 _atom_site_fract_x
 _atom_site_fract_y
 _atom_site_fract_z
 _atom_site_occupancy
  Lu  Lu0  1  0.043238  0.292752  0.500000  1
  Lu  Lu1  1  0.707248  0.750485  0.500000  1
  Lu  Lu2  1  0.249515  0.956762  0.500000  1
  In  In3  1  0.665325  0.078080  0.000000  1
  In  In4  1  0.921920  0.587246  0.000000  1
  In  In5  1  0.412754  0.334675  0.000000  1
  In  In6  1  0.333333  0.666667  0.000000  1
  Co  Co7  1  0.666667  0.333333  0.500000  1
  Ru  Ru8  1  0.000000  0.000000  0.000000  1
