# generated using pymatgen
data_Nd15SmCd4(TcNi)2
_symmetry_space_group_name_H-M   'P 1'
_cell_length_a   9.89989844
_cell_length_b   9.89989930
_cell_length_c   10.02908763
_cell_angle_alpha   59.40131242
_cell_angle_beta   59.40131057
_cell_angle_gamma   59.27658436
_symmetry_Int_Tables_number   1
_chemical_formula_structural   Nd15SmCd4(TcNi)2
_chemical_formula_sum   'Nd15 Sm1 Cd4 Tc2 Ni2'
_cell_volume   684.90559652
_cell_formula_units_Z   1
loop_
 _symmetry_equiv_pos_site_id
 _symmetry_equiv_pos_as_xyz
  1  'x, y, z'
loop_
 _atom_site_type_symbol
 _atom_site_label
 _atom_site_symmetry_multiplicity
 _atom_site_fract_x
 _atom_site_fract_y
 _atom_site_fract_z
 _atom_site_occupancy
  Nd  Nd0  1  0.600022  0.600022  0.207181  1
  Nd  Nd1  1  0.597924  0.211439  0.594946  1
  Nd  Nd2  1  0.211439  0.597924  0.594946  1
  Nd  Nd3  1  0.059546  0.439021  0.440634  1
  Nd  Nd4  1  0.437554  0.060080  0.060966  1
  Nd  Nd5  1  0.439021  0.059546  0.440634  1
  Nd  Nd6  1  0.060080  0.437554  0.060966  1
  Nd  Nd7  1  0.441308  0.441308  0.058254  1
  Nd  Nd8  1  0.056901  0.056901  0.444805  1
  Nd  Nd9  1  0.188544  0.805106  0.816186  1
  Nd  Nd10  1  0.804604  0.188904  0.191234  1
  Nd  Nd11  1  0.805106  0.188544  0.816186  1
  Nd  Nd12  1  0.188904  0.804604  0.191234  1
  Nd  Nd13  1  0.814150  0.814150  0.185184  1
  Nd  Nd14  1  0.192300  0.192300  0.809090  1
  Sm  Sm15  1  0.598736  0.598736  0.594008  1
  Cd  Cd16  1  0.829356  0.829356  0.829506  1
  Cd  Cd17  1  0.828692  0.828692  0.510773  1
  Cd  Cd18  1  0.829244  0.510125  0.828461  1
  Cd  Cd19  1  0.510125  0.829244  0.828461  1
  Tc  Tc20  1  0.391244  0.391244  0.382692  1
  Tc  Tc21  1  0.392255  0.392255  0.833776  1
  Ni  Ni22  1  0.395828  0.827118  0.389938  1
  Ni  Ni23  1  0.827118  0.395828  0.389938  1
