# generated using pymatgen
data_KLiPuS3
_symmetry_space_group_name_H-M   'P 1'
_cell_length_a   7.22119102
_cell_length_b   7.22119082
_cell_length_c   10.41711600
_cell_angle_alpha   90.00265739
_cell_angle_beta   89.99734395
_cell_angle_gamma   147.03502273
_symmetry_Int_Tables_number   1
_chemical_formula_structural   KLiPuS3
_chemical_formula_sum   'K2 Li2 Pu2 S6'
_cell_volume   295.57306892
_cell_formula_units_Z   2
loop_
 _symmetry_equiv_pos_site_id
 _symmetry_equiv_pos_as_xyz
  1  'x, y, z'
loop_
 _atom_site_type_symbol
 _atom_site_label
 _atom_site_symmetry_multiplicity
 _atom_site_fract_x
 _atom_site_fract_y
 _atom_site_fract_z
 _atom_site_occupancy
  K  K0  1  0.762314  0.237683  0.249922  1
  K  K1  1  0.237683  0.762314  0.750078  1
  Li  Li2  1  0.035248  0.964750  0.249925  1
  Li  Li3  1  0.964750  0.035248  0.750075  1
  Pu  Pu4  1  0.499999  0.499999  0.000000  1
  Pu  Pu5  1  0.499999  0.499999  0.500000  1
  S  S6  1  0.120278  0.879720  0.051232  1
  S  S7  1  0.445718  0.554279  0.249978  1
  S  S8  1  0.120189  0.879809  0.448742  1
  S  S9  1  0.879809  0.120189  0.551258  1
  S  S10  1  0.554279  0.445718  0.750022  1
  S  S11  1  0.879720  0.120278  0.948767  1
