# generated using pymatgen
data_SrYb19(SiSb2)4
_symmetry_space_group_name_H-M   'P 1'
_cell_length_a   7.99125620
_cell_length_b   9.47321115
_cell_length_c   12.74611092
_cell_angle_alpha   90.03059142
_cell_angle_beta   89.76577266
_cell_angle_gamma   90.10434487
_symmetry_Int_Tables_number   1
_chemical_formula_structural   SrYb19(SiSb2)4
_chemical_formula_sum   'Sr1 Yb19 Si4 Sb8'
_cell_volume   964.90721918
_cell_formula_units_Z   1
loop_
 _symmetry_equiv_pos_site_id
 _symmetry_equiv_pos_as_xyz
  1  'x, y, z'
loop_
 _atom_site_type_symbol
 _atom_site_label
 _atom_site_symmetry_multiplicity
 _atom_site_fract_x
 _atom_site_fract_y
 _atom_site_fract_z
 _atom_site_occupancy
  Sr  Sr0  1  0.822235  0.468936  0.422394  1
  Yb  Yb1  1  0.327746  0.972835  0.078915  1
  Yb  Yb2  1  0.830965  0.027187  0.421945  1
  Yb  Yb3  1  0.672828  0.473080  0.920814  1
  Yb  Yb4  1  0.175171  0.527657  0.580146  1
  Yb  Yb5  1  0.671720  0.027041  0.920246  1
  Yb  Yb6  1  0.174443  0.971284  0.581361  1
  Yb  Yb7  1  0.327455  0.527185  0.078892  1
  Yb  Yb8  1  0.675323  0.750649  0.216290  1
  Yb  Yb9  1  0.178638  0.248530  0.281146  1
  Yb  Yb10  1  0.322318  0.249813  0.781407  1
  Yb  Yb11  1  0.823087  0.750423  0.718370  1
  Yb  Yb12  1  0.150370  0.752688  0.303730  1
  Yb  Yb13  1  0.650048  0.248934  0.193698  1
  Yb  Yb14  1  0.850479  0.248090  0.697388  1
  Yb  Yb15  1  0.348737  0.749972  0.804260  1
  Yb  Yb16  1  0.553420  0.752873  0.500264  1
  Yb  Yb17  1  0.055335  0.249770  0.999630  1
  Yb  Yb18  1  0.442009  0.248269  0.500424  1
  Yb  Yb19  1  0.944997  0.750466  0.999121  1
  Si  Si20  1  0.559313  0.750422  0.991002  1
  Si  Si21  1  0.066949  0.246592  0.512063  1
  Si  Si22  1  0.439999  0.249676  0.007529  1
  Si  Si23  1  0.943381  0.753919  0.493761  1
  Sb  Sb24  1  0.945477  0.006982  0.169105  1
  Sb  Sb25  1  0.447417  0.994418  0.330791  1
  Sb  Sb26  1  0.054701  0.506288  0.830557  1
  Sb  Sb27  1  0.555303  0.493544  0.668795  1
  Sb  Sb28  1  0.054840  0.993293  0.831899  1
  Sb  Sb29  1  0.555683  0.006647  0.669483  1
  Sb  Sb30  1  0.944210  0.493381  0.164688  1
  Sb  Sb31  1  0.435401  0.509157  0.329886  1
