# generated using pymatgen
data_Tm4FeSi4Ni3
_symmetry_space_group_name_H-M   'P 1'
_cell_length_a   4.13193800
_cell_length_b   6.76594095
_cell_length_c   7.08926736
_cell_angle_alpha   89.31230996
_cell_angle_beta   90.00000000
_cell_angle_gamma   90.00000000
_symmetry_Int_Tables_number   1
_chemical_formula_structural   Tm4FeSi4Ni3
_chemical_formula_sum   'Tm4 Fe1 Si4 Ni3'
_cell_volume   198.17646248
_cell_formula_units_Z   1
loop_
 _symmetry_equiv_pos_site_id
 _symmetry_equiv_pos_as_xyz
  1  'x, y, z'
loop_
 _atom_site_type_symbol
 _atom_site_label
 _atom_site_symmetry_multiplicity
 _atom_site_fract_x
 _atom_site_fract_y
 _atom_site_fract_z
 _atom_site_occupancy
  Tm  Tm0  1  0.250000  0.489163  0.201068  1
  Tm  Tm1  1  0.750000  0.507243  0.798927  1
  Tm  Tm2  1  0.750000  0.007183  0.695143  1
  Tm  Tm3  1  0.250000  0.991223  0.303760  1
  Fe  Fe4  1  0.250000  0.165566  0.926411  1
  Si  Si5  1  0.250000  0.804221  0.905093  1
  Si  Si6  1  0.750000  0.198724  0.091575  1
  Si  Si7  1  0.750000  0.693524  0.406364  1
  Si  Si8  1  0.250000  0.300588  0.598708  1
  Ni  Ni9  1  0.250000  0.683633  0.576693  1
  Ni  Ni10  1  0.750000  0.324710  0.420933  1
  Ni  Ni11  1  0.750000  0.834225  0.075325  1
