# generated using pymatgen
data_ZrSc(InPt)2
_symmetry_space_group_name_H-M   'P 1'
_cell_length_a   7.64036213
_cell_length_b   7.63731403
_cell_length_c   7.05659300
_cell_angle_alpha   90.00000000
_cell_angle_beta   90.00000000
_cell_angle_gamma   120.07168933
_symmetry_Int_Tables_number   1
_chemical_formula_structural   ZrSc(InPt)2
_chemical_formula_sum   'Zr3 Sc3 In6 Pt6'
_cell_volume   356.34125838
_cell_formula_units_Z   3
loop_
 _symmetry_equiv_pos_site_id
 _symmetry_equiv_pos_as_xyz
  1  'x, y, z'
loop_
 _atom_site_type_symbol
 _atom_site_label
 _atom_site_symmetry_multiplicity
 _atom_site_fract_x
 _atom_site_fract_y
 _atom_site_fract_z
 _atom_site_occupancy
  Zr  Zr0  1  0.601881  0.996172  0.750000  1
  Zr  Zr1  1  0.996843  0.603297  0.250000  1
  Zr  Zr2  1  0.397410  0.393133  0.250000  1
  Sc  Sc3  1  0.394430  0.398277  0.750000  1
  Sc  Sc4  1  0.002786  0.604722  0.750000  1
  Sc  Sc5  1  0.604847  0.003109  0.250000  1
  In  In6  1  0.273301  0.999833  0.994507  1
  In  In7  1  0.726717  0.726861  0.001212  1
  In  In8  1  0.999902  0.273386  0.001937  1
  In  In9  1  0.726717  0.726861  0.498788  1
  In  In10  1  0.273301  0.999833  0.505493  1
  In  In11  1  0.999902  0.273386  0.498063  1
  Pt  Pt12  1  0.666701  0.333402  0.996347  1
  Pt  Pt13  1  0.994265  0.000349  0.750000  1
  Pt  Pt14  1  0.666701  0.333402  0.503653  1
  Pt  Pt15  1  0.334024  0.667190  0.491874  1
  Pt  Pt16  1  0.334024  0.667190  0.008126  1
  Pt  Pt17  1  0.006249  0.999598  0.250000  1
