# generated using pymatgen
data_Tb3Lu5Re2(B12Ir)2
_symmetry_space_group_name_H-M   'P 1'
_cell_length_a   3.63480900
_cell_length_b   9.08522412
_cell_length_c   11.48518607
_cell_angle_alpha   90.27942280
_cell_angle_beta   90.00000000
_cell_angle_gamma   90.00000000
_symmetry_Int_Tables_number   1
_chemical_formula_structural   Tb3Lu5Re2(B12Ir)2
_chemical_formula_sum   'Tb3 Lu5 Re2 B24 Ir2'
_cell_volume   379.27141425
_cell_formula_units_Z   1
loop_
 _symmetry_equiv_pos_site_id
 _symmetry_equiv_pos_as_xyz
  1  'x, y, z'
loop_
 _atom_site_type_symbol
 _atom_site_label
 _atom_site_symmetry_multiplicity
 _atom_site_fract_x
 _atom_site_fract_y
 _atom_site_fract_z
 _atom_site_occupancy
  Tb  Tb0  1  0.000000  0.317182  0.410425  1
  Tb  Tb1  1  0.000000  0.682935  0.589697  1
  Tb  Tb2  1  0.000000  0.825545  0.082653  1
  Lu  Lu3  1  0.000000  0.173744  0.918362  1
  Lu  Lu4  1  0.000000  0.947017  0.372178  1
  Lu  Lu5  1  0.000000  0.053458  0.627895  1
  Lu  Lu6  1  0.000000  0.441224  0.125097  1
  Lu  Lu7  1  0.000000  0.558188  0.874319  1
  Re  Re8  1  0.000000  0.139061  0.179854  1
  Re  Re9  1  0.000000  0.862250  0.819761  1
  B  B10  1  0.500000  0.554725  0.433557  1
  B  B11  1  0.500000  0.445030  0.566688  1
  B  B12  1  0.500000  0.054267  0.066553  1
  B  B13  1  0.500000  0.947459  0.932512  1
  B  B14  1  0.500000  0.751362  0.420616  1
  B  B15  1  0.500000  0.248720  0.579714  1
  B  B16  1  0.500000  0.249363  0.079682  1
  B  B17  1  0.500000  0.750728  0.918847  1
  B  B18  1  0.500000  0.791991  0.265763  1
  B  B19  1  0.500000  0.207628  0.735203  1
  B  B20  1  0.500000  0.293068  0.233778  1
  B  B21  1  0.500000  0.707047  0.765805  1
  B  B22  1  0.500000  0.630508  0.183242  1
  B  B23  1  0.500000  0.368102  0.817387  1
  B  B24  1  0.500000  0.130895  0.315171  1
  B  B25  1  0.500000  0.869658  0.684895  1
  B  B26  1  0.500000  0.982648  0.213524  1
  B  B27  1  0.500000  0.018972  0.786775  1
  B  B28  1  0.500000  0.482220  0.286317  1
  B  B29  1  0.500000  0.517268  0.713816  1
  B  B30  1  0.500000  0.603059  0.028780  1
  B  B31  1  0.500000  0.394967  0.970591  1
  B  B32  1  0.500000  0.103620  0.472163  1
  B  B33  1  0.500000  0.896574  0.527940  1
  Ir  Ir34  1  0.000000  0.637772  0.320903  1
  Ir  Ir35  1  0.000000  0.361744  0.679537  1
