# generated using pymatgen
data_Ce4Nd2Al17Si7Os8
_symmetry_space_group_name_H-M   'P 1'
_cell_length_a   8.80207839
_cell_length_b   8.78887982
_cell_length_c   9.52823800
_cell_angle_alpha   90.00000000
_cell_angle_beta   90.00000000
_cell_angle_gamma   120.22087605
_symmetry_Int_Tables_number   1
_chemical_formula_structural   Ce4Nd2Al17Si7Os8
_chemical_formula_sum   'Ce4 Nd2 Al17 Si7 Os8'
_cell_volume   636.92906981
_cell_formula_units_Z   1
loop_
 _symmetry_equiv_pos_site_id
 _symmetry_equiv_pos_as_xyz
  1  'x, y, z'
loop_
 _atom_site_type_symbol
 _atom_site_label
 _atom_site_symmetry_multiplicity
 _atom_site_fract_x
 _atom_site_fract_y
 _atom_site_fract_z
 _atom_site_occupancy
  Ce  Ce0  1  0.193271  0.386220  0.250000  1
  Ce  Ce1  1  0.612159  0.806217  0.250000  1
  Ce  Ce2  1  0.194721  0.805914  0.250000  1
  Ce  Ce3  1  0.803384  0.191457  0.750000  1
  Nd  Nd4  1  0.809657  0.619606  0.750000  1
  Nd  Nd5  1  0.381824  0.189197  0.750000  1
  Al  Al6  1  0.163823  0.328990  0.577089  1
  Al  Al7  1  0.835182  0.671810  0.421854  1
  Al  Al8  1  0.672137  0.835519  0.576013  1
  Al  Al9  1  0.835182  0.671810  0.078146  1
  Al  Al10  1  0.328814  0.165010  0.423326  1
  Al  Al11  1  0.163823  0.328990  0.922911  1
  Al  Al12  1  0.163764  0.834595  0.573705  1
  Al  Al13  1  0.328814  0.165010  0.076674  1
  Al  Al14  1  0.836565  0.163172  0.423836  1
  Al  Al15  1  0.672137  0.835519  0.923987  1
  Al  Al16  1  0.836565  0.163172  0.076164  1
  Al  Al17  1  0.163764  0.834595  0.926295  1
  Al  Al18  1  0.128224  0.567484  0.750000  1
  Al  Al19  1  0.566339  0.432875  0.250000  1
  Al  Al20  1  0.438543  0.567536  0.750000  1
  Al  Al21  1  0.999795  0.998503  0.250000  1
  Al  Al22  1  0.997211  0.004073  0.750000  1
  Si  Si23  1  0.333036  0.664716  0.036267  1
  Si  Si24  1  0.665527  0.336535  0.963870  1
  Si  Si25  1  0.665527  0.336535  0.536130  1
  Si  Si26  1  0.333036  0.664716  0.463733  1
  Si  Si27  1  0.566855  0.125638  0.250000  1
  Si  Si28  1  0.435128  0.871879  0.750000  1
  Si  Si29  1  0.873402  0.432436  0.250000  1
  Os  Os30  1  0.501862  0.001073  0.001811  1
  Os  Os31  1  0.998219  0.498368  0.007068  1
  Os  Os32  1  0.501862  0.001073  0.498189  1
  Os  Os33  1  0.499973  0.500756  0.002831  1
  Os  Os34  1  0.998219  0.498368  0.492932  1
  Os  Os35  1  0.499973  0.500756  0.497169  1
  Os  Os36  1  0.000843  0.999938  0.000161  1
  Os  Os37  1  0.000843  0.999938  0.499839  1
