# generated using pymatgen
data_Dy5Mo3P12(Ir5Ru3)2
_symmetry_space_group_name_H-M   'P 1'
_cell_length_a   12.64220600
_cell_length_b   12.64220552
_cell_length_c   3.98863300
_cell_angle_alpha   90.00000000
_cell_angle_beta   90.00000000
_cell_angle_gamma   120.00000126
_symmetry_Int_Tables_number   1
_chemical_formula_structural   Dy5Mo3P12(Ir5Ru3)2
_chemical_formula_sum   'Dy5 Mo3 P12 Ir10 Ru6'
_cell_volume   552.07796448
_cell_formula_units_Z   1
loop_
 _symmetry_equiv_pos_site_id
 _symmetry_equiv_pos_as_xyz
  1  'x, y, z'
loop_
 _atom_site_type_symbol
 _atom_site_label
 _atom_site_symmetry_multiplicity
 _atom_site_fract_x
 _atom_site_fract_y
 _atom_site_fract_z
 _atom_site_occupancy
  Dy  Dy0  1  0.333333  0.666667  0.500000  1
  Dy  Dy1  1  0.666667  0.333333  0.500000  1
  Dy  Dy2  1  0.000000  0.811686  0.000000  1
  Dy  Dy3  1  0.188314  0.188314  0.000000  1
  Dy  Dy4  1  0.811686  0.000000  0.000000  1
  Mo  Mo5  1  0.000000  0.449368  0.500000  1
  Mo  Mo6  1  0.550632  0.550632  0.500000  1
  Mo  Mo7  1  0.449368  0.000000  0.500000  1
  P  P8  1  0.000000  0.635847  0.500000  1
  P  P9  1  0.364153  0.364153  0.500000  1
  P  P10  1  0.635847  0.000000  0.500000  1
  P  P11  1  0.520933  0.690275  0.000000  1
  P  P12  1  0.309725  0.830658  0.000000  1
  P  P13  1  0.169342  0.479067  0.000000  1
  P  P14  1  0.479067  0.169342  0.000000  1
  P  P15  1  0.690275  0.520933  0.000000  1
  P  P16  1  0.830658  0.309725  0.000000  1
  P  P17  1  0.000000  0.181453  0.500000  1
  P  P18  1  0.818547  0.818547  0.500000  1
  P  P19  1  0.181453  0.000000  0.500000  1
  Ir  Ir20  1  0.506993  0.868880  0.000000  1
  Ir  Ir21  1  0.131120  0.638113  0.000000  1
  Ir  Ir22  1  0.361887  0.493007  0.000000  1
  Ir  Ir23  1  0.493007  0.361887  0.000000  1
  Ir  Ir24  1  0.868880  0.506993  0.000000  1
  Ir  Ir25  1  0.638113  0.131120  0.000000  1
  Ir  Ir26  1  0.000000  0.281991  0.000000  1
  Ir  Ir27  1  0.718009  0.718009  0.000000  1
  Ir  Ir28  1  0.281991  0.000000  0.000000  1
  Ir  Ir29  1  0.000000  0.000000  0.500000  1
  Ru  Ru30  1  0.624073  0.805038  0.500000  1
  Ru  Ru31  1  0.194962  0.819035  0.500000  1
  Ru  Ru32  1  0.180965  0.375927  0.500000  1
  Ru  Ru33  1  0.375927  0.180965  0.500000  1
  Ru  Ru34  1  0.805038  0.624073  0.500000  1
  Ru  Ru35  1  0.819035  0.194962  0.500000  1
