# generated using pymatgen
data_ErScInNi7B2
_symmetry_space_group_name_H-M   'P 1'
_cell_length_a   4.95063600
_cell_length_b   4.95063640
_cell_length_c   14.13472700
_cell_angle_alpha   90.00000000
_cell_angle_beta   90.00000000
_cell_angle_gamma   119.99999734
_symmetry_Int_Tables_number   1
_chemical_formula_structural   ErScInNi7B2
_chemical_formula_sum   'Er2 Sc2 In2 Ni14 B4'
_cell_volume   300.01301421
_cell_formula_units_Z   2
loop_
 _symmetry_equiv_pos_site_id
 _symmetry_equiv_pos_as_xyz
  1  'x, y, z'
loop_
 _atom_site_type_symbol
 _atom_site_label
 _atom_site_symmetry_multiplicity
 _atom_site_fract_x
 _atom_site_fract_y
 _atom_site_fract_z
 _atom_site_occupancy
  Er  Er0  1  0.666667  0.333333  0.746792  1
  Er  Er1  1  0.333333  0.666667  0.246792  1
  Sc  Sc2  1  0.333333  0.666667  0.470311  1
  Sc  Sc3  1  0.666667  0.333333  0.970311  1
  In  In4  1  0.666667  0.333333  0.528312  1
  In  In5  1  0.333333  0.666667  0.028312  1
  Ni  Ni6  1  0.833871  0.166129  0.354593  1
  Ni  Ni7  1  0.833871  0.667742  0.354593  1
  Ni  Ni8  1  0.000000  0.000000  0.000853  1
  Ni  Ni9  1  0.000000  0.000000  0.500853  1
  Ni  Ni10  1  0.833336  0.666672  0.145791  1
  Ni  Ni11  1  0.166664  0.833336  0.645791  1
  Ni  Ni12  1  0.666672  0.833336  0.645791  1
  Ni  Ni13  1  0.333328  0.166664  0.145791  1
  Ni  Ni14  1  0.833336  0.166664  0.145791  1
  Ni  Ni15  1  0.166129  0.332258  0.854593  1
  Ni  Ni16  1  0.166129  0.833871  0.854593  1
  Ni  Ni17  1  0.166664  0.333328  0.645791  1
  Ni  Ni18  1  0.667742  0.833871  0.854593  1
  Ni  Ni19  1  0.332258  0.166129  0.354593  1
  B  B20  1  0.666667  0.333333  0.250489  1
  B  B21  1  0.333333  0.666667  0.750489  1
  B  B22  1  0.000000  0.000000  0.752089  1
  B  B23  1  0.000000  0.000000  0.252089  1
