# generated using pymatgen
data_ErLu3(GaRu)4
_symmetry_space_group_name_H-M   'P 1'
_cell_length_a   4.07539100
_cell_length_b   6.91327361
_cell_length_c   7.88641902
_cell_angle_alpha   89.86998121
_cell_angle_beta   90.00000000
_cell_angle_gamma   90.00000000
_symmetry_Int_Tables_number   1
_chemical_formula_structural   ErLu3(GaRu)4
_chemical_formula_sum   'Er1 Lu3 Ga4 Ru4'
_cell_volume   222.19370863
_cell_formula_units_Z   1
loop_
 _symmetry_equiv_pos_site_id
 _symmetry_equiv_pos_as_xyz
  1  'x, y, z'
loop_
 _atom_site_type_symbol
 _atom_site_label
 _atom_site_symmetry_multiplicity
 _atom_site_fract_x
 _atom_site_fract_y
 _atom_site_fract_z
 _atom_site_occupancy
  Er  Er0  1  0.750000  0.475267  0.316588  1
  Lu  Lu1  1  0.250000  0.525108  0.683980  1
  Lu  Lu2  1  0.250000  0.025136  0.817607  1
  Lu  Lu3  1  0.750000  0.974313  0.181813  1
  Ga  Ga4  1  0.750000  0.347445  0.933350  1
  Ga  Ga5  1  0.250000  0.151789  0.434172  1
  Ga  Ga6  1  0.250000  0.653054  0.065950  1
  Ga  Ga7  1  0.750000  0.848514  0.566521  1
  Ru  Ru8  1  0.750000  0.229140  0.622947  1
  Ru  Ru9  1  0.250000  0.772833  0.378457  1
  Ru  Ru10  1  0.750000  0.729393  0.877936  1
  Ru  Ru11  1  0.250000  0.268010  0.120680  1
