# generated using pymatgen
data_La3Pr3(Sn6Ru)2
_symmetry_space_group_name_H-M   'P 1'
_cell_length_a   8.79906488
_cell_length_b   8.79906433
_cell_length_c   13.55257224
_cell_angle_alpha   89.87816078
_cell_angle_beta   90.12183999
_cell_angle_gamma   148.55533256
_symmetry_Int_Tables_number   1
_chemical_formula_structural   La3Pr3(Sn6Ru)2
_chemical_formula_sum   'La3 Pr3 Sn12 Ru2'
_cell_volume   547.38592075
_cell_formula_units_Z   1
loop_
 _symmetry_equiv_pos_site_id
 _symmetry_equiv_pos_as_xyz
  1  'x, y, z'
loop_
 _atom_site_type_symbol
 _atom_site_label
 _atom_site_symmetry_multiplicity
 _atom_site_fract_x
 _atom_site_fract_y
 _atom_site_fract_z
 _atom_site_occupancy
  La  La0  1  0.399318  0.600682  0.404870  1
  La  La1  1  0.600728  0.399272  0.595452  1
  La  La2  1  0.399392  0.600608  0.094836  1
  Pr  Pr3  1  0.602453  0.397547  0.249765  1
  Pr  Pr4  1  0.397725  0.602275  0.750235  1
  Pr  Pr5  1  0.600933  0.399067  0.905164  1
  Sn  Sn6  1  0.927896  0.072104  0.923239  1
  Sn  Sn7  1  0.072459  0.927541  0.075975  1
  Sn  Sn8  1  0.927648  0.072352  0.577208  1
  Sn  Sn9  1  0.072468  0.927532  0.422965  1
  Sn  Sn10  1  0.959530  0.040470  0.249808  1
  Sn  Sn11  1  0.040710  0.959290  0.751062  1
  Sn  Sn12  1  0.745282  0.254719  0.432312  1
  Sn  Sn13  1  0.254513  0.745487  0.567587  1
  Sn  Sn14  1  0.745190  0.254811  0.067213  1
  Sn  Sn15  1  0.254400  0.745600  0.932194  1
  Sn  Sn16  1  0.234262  0.765738  0.249984  1
  Sn  Sn17  1  0.765253  0.234747  0.750448  1
  Ru  Ru18  1  0.801597  0.198403  0.249917  1
  Ru  Ru19  1  0.198245  0.801755  0.749765  1
