# generated using pymatgen
data_Pa5SnGeSb2
_symmetry_space_group_name_H-M   'P 1'
_cell_length_a   9.19399053
_cell_length_b   9.20793198
_cell_length_c   6.20197200
_cell_angle_alpha   90.00000000
_cell_angle_beta   90.00000000
_cell_angle_gamma   120.05017290
_symmetry_Int_Tables_number   1
_chemical_formula_structural   Pa5SnGeSb2
_chemical_formula_sum   'Pa10 Sn2 Ge2 Sb4'
_cell_volume   454.47164918
_cell_formula_units_Z   2
loop_
 _symmetry_equiv_pos_site_id
 _symmetry_equiv_pos_as_xyz
  1  'x, y, z'
loop_
 _atom_site_type_symbol
 _atom_site_label
 _atom_site_symmetry_multiplicity
 _atom_site_fract_x
 _atom_site_fract_y
 _atom_site_fract_z
 _atom_site_occupancy
  Pa  Pa0  1  0.667141  0.333734  0.998770  1
  Pa  Pa1  1  0.332859  0.666595  0.998770  1
  Pa  Pa2  1  0.332859  0.666595  0.501230  1
  Pa  Pa3  1  0.667141  0.333734  0.501230  1
  Pa  Pa4  1  0.730738  0.730271  0.750000  1
  Pa  Pa5  1  0.269262  0.999533  0.750000  1
  Pa  Pa6  1  0.000000  0.270349  0.750000  1
  Pa  Pa7  1  0.269857  0.269745  0.250000  1
  Pa  Pa8  1  0.730143  0.999888  0.250000  1
  Pa  Pa9  1  0.000000  0.730114  0.250000  1
  Sn  Sn10  1  0.382722  0.382707  0.750000  1
  Sn  Sn11  1  0.617278  0.999985  0.750000  1
  Ge  Ge12  1  0.000000  0.000041  0.000054  1
  Ge  Ge13  1  0.000000  0.000041  0.499946  1
  Sb  Sb14  1  0.000000  0.616707  0.750000  1
  Sb  Sb15  1  0.616466  0.616876  0.250000  1
  Sb  Sb16  1  0.383534  0.000410  0.250000  1
  Sb  Sb17  1  0.000000  0.382673  0.250000  1
