# generated using pymatgen
data_Sc8Cu3TcPt4
_symmetry_space_group_name_H-M   'P 1'
_cell_length_a   6.45237500
_cell_length_b   4.66931400
_cell_length_c   9.32188700
_cell_angle_alpha   90.00000000
_cell_angle_beta   90.00185640
_cell_angle_gamma   90.00000000
_symmetry_Int_Tables_number   1
_chemical_formula_structural   Sc8Cu3TcPt4
_chemical_formula_sum   'Sc8 Cu3 Tc1 Pt4'
_cell_volume   280.85134884
_cell_formula_units_Z   1
loop_
 _symmetry_equiv_pos_site_id
 _symmetry_equiv_pos_as_xyz
  1  'x, y, z'
loop_
 _atom_site_type_symbol
 _atom_site_label
 _atom_site_symmetry_multiplicity
 _atom_site_fract_x
 _atom_site_fract_y
 _atom_site_fract_z
 _atom_site_occupancy
  Sc  Sc0  1  0.497201  0.750000  0.121668  1
  Sc  Sc1  1  0.002984  0.750000  0.121488  1
  Sc  Sc2  1  0.499218  0.250001  0.374844  1
  Sc  Sc3  1  0.000776  0.250001  0.374940  1
  Sc  Sc4  1  0.002816  0.750000  0.628610  1
  Sc  Sc5  1  0.497194  0.750000  0.628423  1
  Sc  Sc6  1  0.003041  0.250001  0.874872  1
  Sc  Sc7  1  0.497258  0.250001  0.874942  1
  Cu  Cu8  1  0.750338  0.250001  0.128177  1
  Cu  Cu9  1  0.248689  0.750000  0.375571  1
  Cu  Cu10  1  0.749153  0.250001  0.621235  1
  Tc  Tc11  1  0.250202  0.750000  0.875002  1
  Pt  Pt12  1  0.250394  0.250001  0.125300  1
  Pt  Pt13  1  0.750378  0.750000  0.375236  1
  Pt  Pt14  1  0.250489  0.250001  0.624523  1
  Pt  Pt15  1  0.749870  0.750000  0.875168  1
