# generated using pymatgen
data_CsRbBa2(VSe4)2
_symmetry_space_group_name_H-M   'P 1'
_cell_length_a   7.19246300
_cell_length_b   10.34579500
_cell_length_c   12.66166700
_cell_angle_alpha   90.00000000
_cell_angle_beta   90.00000000
_cell_angle_gamma   90.00000000
_symmetry_Int_Tables_number   1
_chemical_formula_structural   CsRbBa2(VSe4)2
_chemical_formula_sum   'Cs2 Rb2 Ba4 V4 Se16'
_cell_volume   942.17677081
_cell_formula_units_Z   2
loop_
 _symmetry_equiv_pos_site_id
 _symmetry_equiv_pos_as_xyz
  1  'x, y, z'
loop_
 _atom_site_type_symbol
 _atom_site_label
 _atom_site_symmetry_multiplicity
 _atom_site_fract_x
 _atom_site_fract_y
 _atom_site_fract_z
 _atom_site_occupancy
  Cs  Cs0  1  0.750000  0.131688  0.075633  1
  Cs  Cs1  1  0.750000  0.368312  0.575633  1
  Rb  Rb2  1  0.250000  0.864486  0.921720  1
  Rb  Rb3  1  0.250000  0.635514  0.421720  1
  Ba  Ba4  1  0.250000  0.402065  0.850913  1
  Ba  Ba5  1  0.250000  0.097935  0.350913  1
  Ba  Ba6  1  0.750000  0.598857  0.148134  1
  Ba  Ba7  1  0.750000  0.901143  0.648134  1
  V  V8  1  0.250000  0.116092  0.668621  1
  V  V9  1  0.250000  0.383908  0.168621  1
  V  V10  1  0.750000  0.877492  0.332047  1
  V  V11  1  0.750000  0.622508  0.832047  1
  Se  Se12  1  0.503518  0.127513  0.777004  1
  Se  Se13  1  0.996482  0.372487  0.277004  1
  Se  Se14  1  0.005586  0.865877  0.225063  1
  Se  Se15  1  0.494414  0.634123  0.725063  1
  Se  Se16  1  0.494414  0.865877  0.225063  1
  Se  Se17  1  0.005586  0.634123  0.725063  1
  Se  Se18  1  0.996482  0.127513  0.777004  1
  Se  Se19  1  0.503518  0.372487  0.277004  1
  Se  Se20  1  0.250000  0.294434  0.560085  1
  Se  Se21  1  0.250000  0.205566  0.060085  1
  Se  Se22  1  0.750000  0.699774  0.440560  1
  Se  Se23  1  0.750000  0.800226  0.940560  1
  Se  Se24  1  0.250000  0.927878  0.574211  1
  Se  Se25  1  0.250000  0.572122  0.074211  1
  Se  Se26  1  0.750000  0.067525  0.423942  1
  Se  Se27  1  0.750000  0.432475  0.923942  1
