# generated using pymatgen
data_NdErIr2O7
_symmetry_space_group_name_H-M   'P 1'
_cell_length_a   7.30180730
_cell_length_b   7.30180821
_cell_length_c   7.35289400
_cell_angle_alpha   59.76829246
_cell_angle_beta   59.76828828
_cell_angle_gamma   59.53332101
_symmetry_Int_Tables_number   1
_chemical_formula_structural   NdErIr2O7
_chemical_formula_sum   'Nd2 Er2 Ir4 O14'
_cell_volume   275.25151590
_cell_formula_units_Z   2
loop_
 _symmetry_equiv_pos_site_id
 _symmetry_equiv_pos_as_xyz
  1  'x, y, z'
loop_
 _atom_site_type_symbol
 _atom_site_label
 _atom_site_symmetry_multiplicity
 _atom_site_fract_x
 _atom_site_fract_y
 _atom_site_fract_z
 _atom_site_occupancy
  Nd  Nd0  1  0.125000  0.125000  0.625000  1
  Nd  Nd1  1  0.125000  0.125000  0.125000  1
  Er  Er2  1  0.625000  0.125000  0.125000  1
  Er  Er3  1  0.125000  0.625000  0.125000  1
  Ir  Ir4  1  0.125000  0.625000  0.625000  1
  Ir  Ir5  1  0.625000  0.125000  0.625000  1
  Ir  Ir6  1  0.625000  0.625000  0.125000  1
  Ir  Ir7  1  0.625000  0.625000  0.625000  1
  O  O8  1  0.710219  0.710219  0.289781  1
  O  O9  1  0.289500  0.289500  0.710500  1
  O  O10  1  0.700791  0.290046  0.720069  1
  O  O11  1  0.290046  0.700791  0.289095  1
  O  O12  1  0.290046  0.700791  0.720069  1
  O  O13  1  0.700791  0.290046  0.289095  1
  O  O14  1  0.539781  0.539781  0.960219  1
  O  O15  1  0.960500  0.960500  0.539500  1
  O  O16  1  0.549209  0.959954  0.529931  1
  O  O17  1  0.959954  0.549209  0.960905  1
  O  O18  1  0.959954  0.549209  0.529931  1
  O  O19  1  0.549209  0.959954  0.960905  1
  O  O20  1  0.258184  0.258184  0.241816  1
  O  O21  1  0.991816  0.991816  0.008184  1
