# generated using pymatgen
data_Dy5Sc3P12Ir15Rh
_symmetry_space_group_name_H-M   'P 1'
_cell_length_a   12.86082278
_cell_length_b   12.85482714
_cell_length_c   3.96286900
_cell_angle_alpha   90.00000000
_cell_angle_beta   90.00000000
_cell_angle_gamma   119.94002022
_symmetry_Int_Tables_number   1
_chemical_formula_structural   Dy5Sc3P12Ir15Rh
_chemical_formula_sum   'Dy5 Sc3 P12 Ir15 Rh1'
_cell_volume   567.72433666
_cell_formula_units_Z   1
loop_
 _symmetry_equiv_pos_site_id
 _symmetry_equiv_pos_as_xyz
  1  'x, y, z'
loop_
 _atom_site_type_symbol
 _atom_site_label
 _atom_site_symmetry_multiplicity
 _atom_site_fract_x
 _atom_site_fract_y
 _atom_site_fract_z
 _atom_site_occupancy
  Dy  Dy0  1  0.333239  0.666493  0.500000  1
  Dy  Dy1  1  0.666653  0.333338  0.500000  1
  Dy  Dy2  1  0.000039  0.811901  0.000000  1
  Dy  Dy3  1  0.188194  0.188200  0.000000  1
  Dy  Dy4  1  0.811840  0.000046  0.000000  1
  Sc  Sc5  1  0.000080  0.444912  0.500000  1
  Sc  Sc6  1  0.555077  0.555117  0.500000  1
  Sc  Sc7  1  0.444850  0.000147  0.500000  1
  P  P8  1  0.999881  0.645611  0.500000  1
  P  P9  1  0.354265  0.354358  0.500000  1
  P  P10  1  0.645871  0.000189  0.500000  1
  P  P11  1  0.517246  0.687089  0.000000  1
  P  P12  1  0.313047  0.830007  0.000000  1
  P  P13  1  0.169744  0.483119  0.000000  1
  P  P14  1  0.483175  0.169578  0.000000  1
  P  P15  1  0.686605  0.516951  0.000000  1
  P  P16  1  0.830263  0.313357  0.000000  1
  P  P17  1  0.999971  0.176895  0.500000  1
  P  P18  1  0.822968  0.823068  0.500000  1
  P  P19  1  0.176875  0.000004  0.500000  1
  Ir  Ir20  1  0.131870  0.642090  0.000000  1
  Ir  Ir21  1  0.357781  0.489904  0.000000  1
  Ir  Ir22  1  0.489996  0.357740  0.000000  1
  Ir  Ir23  1  0.867800  0.510033  0.000000  1
  Ir  Ir24  1  0.642400  0.132035  0.000000  1
  Ir  Ir25  1  0.000029  0.278010  0.000000  1
  Ir  Ir26  1  0.722019  0.721999  0.000000  1
  Ir  Ir27  1  0.277936  0.999964  0.000000  1
  Ir  Ir28  1  0.627308  0.806498  0.500000  1
  Ir  Ir29  1  0.193339  0.821074  0.500000  1
  Ir  Ir30  1  0.178791  0.372086  0.500000  1
  Ir  Ir31  1  0.372146  0.178861  0.500000  1
  Ir  Ir32  1  0.806796  0.627893  0.500000  1
  Ir  Ir33  1  0.821243  0.193442  0.500000  1
  Ir  Ir34  1  0.000025  0.999991  0.500000  1
  Rh  Rh35  1  0.510638  0.867999  0.000000  1
