# generated using pymatgen
data_Zr6Al16CuNi5Ru
_symmetry_space_group_name_H-M   'P 1'
_cell_length_a   8.61989734
_cell_length_b   8.61989720
_cell_length_c   8.60508100
_cell_angle_alpha   60.05683859
_cell_angle_beta   60.05683912
_cell_angle_gamma   59.74308286
_symmetry_Int_Tables_number   1
_chemical_formula_structural   Zr6Al16CuNi5Ru
_chemical_formula_sum   'Zr6 Al16 Cu1 Ni5 Ru1'
_cell_volume   451.61144047
_cell_formula_units_Z   1
loop_
 _symmetry_equiv_pos_site_id
 _symmetry_equiv_pos_as_xyz
  1  'x, y, z'
loop_
 _atom_site_type_symbol
 _atom_site_label
 _atom_site_symmetry_multiplicity
 _atom_site_fract_x
 _atom_site_fract_y
 _atom_site_fract_z
 _atom_site_occupancy
  Zr  Zr0  1  0.192190  0.807810  0.807777  1
  Zr  Zr1  1  0.807810  0.192190  0.192223  1
  Zr  Zr2  1  0.807810  0.192190  0.807777  1
  Zr  Zr3  1  0.807178  0.807178  0.192822  1
  Zr  Zr4  1  0.192190  0.807810  0.192223  1
  Zr  Zr5  1  0.192822  0.192822  0.807178  1
  Al  Al6  1  0.831786  0.831786  0.838256  1
  Al  Al7  1  0.831786  0.831786  0.498170  1
  Al  Al8  1  0.497702  0.833669  0.834313  1
  Al  Al9  1  0.833669  0.497702  0.834313  1
  Al  Al10  1  0.168214  0.168214  0.161744  1
  Al  Al11  1  0.168214  0.168214  0.501830  1
  Al  Al12  1  0.166331  0.502298  0.165687  1
  Al  Al13  1  0.502298  0.166331  0.165687  1
  Al  Al14  1  0.618863  0.618863  0.621056  1
  Al  Al15  1  0.618863  0.618863  0.141221  1
  Al  Al16  1  0.141425  0.614085  0.622246  1
  Al  Al17  1  0.614085  0.141425  0.622246  1
  Al  Al18  1  0.381137  0.381137  0.378944  1
  Al  Al19  1  0.381137  0.381137  0.858779  1
  Al  Al20  1  0.385915  0.858575  0.377754  1
  Al  Al21  1  0.858575  0.385915  0.377754  1
  Cu  Cu22  1  0.000000  0.000000  0.500000  1
  Ni  Ni23  1  0.000000  0.500000  0.500000  1
  Ni  Ni24  1  0.500000  0.000000  0.000000  1
  Ni  Ni25  1  0.500000  0.000000  0.500000  1
  Ni  Ni26  1  0.500000  0.500000  0.000000  1
  Ni  Ni27  1  0.000000  0.500000  0.000000  1
  Ru  Ru28  1  0.500000  0.500000  0.500000  1
