# generated using pymatgen
data_Sr2ErSi5AsPd20
_symmetry_space_group_name_H-M   'P 1'
_cell_length_a   8.78438289
_cell_length_b   8.82367269
_cell_length_c   8.82367409
_cell_angle_alpha   59.70562608
_cell_angle_beta   60.14719282
_cell_angle_gamma   60.14719713
_symmetry_Int_Tables_number   1
_chemical_formula_structural   Sr2ErSi5AsPd20
_chemical_formula_sum   'Sr2 Er1 Si5 As1 Pd20'
_cell_volume   483.59078272
_cell_formula_units_Z   1
loop_
 _symmetry_equiv_pos_site_id
 _symmetry_equiv_pos_as_xyz
  1  'x, y, z'
loop_
 _atom_site_type_symbol
 _atom_site_label
 _atom_site_symmetry_multiplicity
 _atom_site_fract_x
 _atom_site_fract_y
 _atom_site_fract_z
 _atom_site_occupancy
  Sr  Sr0  1  0.250328  0.249672  0.249672  1
  Sr  Sr1  1  0.750328  0.749672  0.749672  1
  Er  Er2  1  0.001317  0.998683  0.998683  1
  Si  Si3  1  0.267890  0.732110  0.732110  1
  Si  Si4  1  0.267498  0.732502  0.267351  1
  Si  Si5  1  0.732649  0.267351  0.732502  1
  Si  Si6  1  0.267498  0.267351  0.732502  1
  Si  Si7  1  0.732649  0.732502  0.267351  1
  As  As8  1  0.734047  0.265953  0.265953  1
  Pd  Pd9  1  0.343832  0.999545  0.999545  1
  Pd  Pd10  1  0.657078  0.999545  0.999545  1
  Pd  Pd11  1  0.000455  0.342922  0.656168  1
  Pd  Pd12  1  0.000455  0.656168  0.342922  1
  Pd  Pd13  1  0.006435  0.345053  0.993565  1
  Pd  Pd14  1  0.654947  0.993565  0.345053  1
  Pd  Pd15  1  0.999759  0.657725  0.000241  1
  Pd  Pd16  1  0.342275  0.000241  0.657725  1
  Pd  Pd17  1  0.006435  0.993565  0.345053  1
  Pd  Pd18  1  0.999759  0.000241  0.657725  1
  Pd  Pd19  1  0.654947  0.345053  0.993565  1
  Pd  Pd20  1  0.342275  0.657725  0.000241  1
  Pd  Pd21  1  0.380480  0.389133  0.389133  1
  Pd  Pd22  1  0.612655  0.614080  0.614080  1
  Pd  Pd23  1  0.385920  0.387345  0.840817  1
  Pd  Pd24  1  0.385920  0.840817  0.387345  1
  Pd  Pd25  1  0.610867  0.619520  0.158744  1
  Pd  Pd26  1  0.610867  0.158744  0.619520  1
  Pd  Pd27  1  0.841256  0.389133  0.389133  1
  Pd  Pd28  1  0.159183  0.614080  0.614080  1
