# generated using pymatgen
data_LuSb3Pb4O13
_symmetry_space_group_name_H-M   'P 1'
_cell_length_a   7.63464815
_cell_length_b   7.63464888
_cell_length_c   7.63464751
_cell_angle_alpha   59.87914077
_cell_angle_beta   59.87913749
_cell_angle_gamma   59.87913924
_symmetry_Int_Tables_number   1
_chemical_formula_structural   LuSb3Pb4O13
_chemical_formula_sum   'Lu1 Sb3 Pb4 O13'
_cell_volume   313.80473251
_cell_formula_units_Z   1
loop_
 _symmetry_equiv_pos_site_id
 _symmetry_equiv_pos_as_xyz
  1  'x, y, z'
loop_
 _atom_site_type_symbol
 _atom_site_label
 _atom_site_symmetry_multiplicity
 _atom_site_fract_x
 _atom_site_fract_y
 _atom_site_fract_z
 _atom_site_occupancy
  Lu  Lu0  1  0.499944  0.499944  0.499944  1
  Sb  Sb1  1  0.001112  0.499856  0.499856  1
  Sb  Sb2  1  0.499856  0.499856  0.001112  1
  Sb  Sb3  1  0.499856  0.001112  0.499856  1
  Pb  Pb4  1  0.998773  0.998773  0.998773  1
  Pb  Pb5  1  0.499989  0.000916  0.000916  1
  Pb  Pb6  1  0.000916  0.000916  0.499989  1
  Pb  Pb7  1  0.000916  0.499989  0.000916  1
  O  O8  1  0.846320  0.420791  0.420791  1
  O  O9  1  0.421923  0.818565  0.818565  1
  O  O10  1  0.420791  0.420791  0.846320  1
  O  O11  1  0.818565  0.818565  0.421923  1
  O  O12  1  0.818565  0.421923  0.818565  1
  O  O13  1  0.420791  0.846320  0.420791  1
  O  O14  1  0.157984  0.576486  0.576486  1
  O  O15  1  0.577415  0.182952  0.182952  1
  O  O16  1  0.576486  0.576486  0.157984  1
  O  O17  1  0.182952  0.182952  0.577415  1
  O  O18  1  0.182952  0.577415  0.182952  1
  O  O19  1  0.576486  0.157984  0.576486  1
  O  O20  1  0.122412  0.122412  0.122412  1
