# generated using pymatgen
data_Er5Cr3(Co4P3)4
_symmetry_space_group_name_H-M   'P 1'
_cell_length_a   11.96341400
_cell_length_b   11.96341412
_cell_length_c   3.65849000
_cell_angle_alpha   90.00000000
_cell_angle_beta   90.00000000
_cell_angle_gamma   120.00000520
_symmetry_Int_Tables_number   1
_chemical_formula_structural   Er5Cr3(Co4P3)4
_chemical_formula_sum   'Er5 Cr3 Co16 P12'
_cell_volume   453.46393200
_cell_formula_units_Z   1
loop_
 _symmetry_equiv_pos_site_id
 _symmetry_equiv_pos_as_xyz
  1  'x, y, z'
loop_
 _atom_site_type_symbol
 _atom_site_label
 _atom_site_symmetry_multiplicity
 _atom_site_fract_x
 _atom_site_fract_y
 _atom_site_fract_z
 _atom_site_occupancy
  Er  Er0  1  0.666667  0.333333  0.000000  1
  Er  Er1  1  0.333333  0.666667  0.000000  1
  Er  Er2  1  0.812757  0.812757  0.500000  1
  Er  Er3  1  0.187243  0.000000  0.500000  1
  Er  Er4  1  0.000000  0.187243  0.500000  1
  Cr  Cr5  1  0.445938  0.445938  0.000000  1
  Cr  Cr6  1  0.554062  0.000000  0.000000  1
  Cr  Cr7  1  0.000000  0.554062  0.000000  1
  Co  Co8  1  0.873515  0.355665  0.500000  1
  Co  Co9  1  0.644335  0.517850  0.500000  1
  Co  Co10  1  0.482150  0.126485  0.500000  1
  Co  Co11  1  0.355665  0.873515  0.500000  1
  Co  Co12  1  0.517850  0.644335  0.500000  1
  Co  Co13  1  0.126485  0.482150  0.500000  1
  Co  Co14  1  0.799879  0.176871  0.000000  1
  Co  Co15  1  0.823129  0.623007  0.000000  1
  Co  Co16  1  0.376993  0.200121  0.000000  1
  Co  Co17  1  0.176871  0.799879  0.000000  1
  Co  Co18  1  0.623007  0.823129  0.000000  1
  Co  Co19  1  0.200121  0.376993  0.000000  1
  Co  Co20  1  0.282392  0.282392  0.500000  1
  Co  Co21  1  0.717608  0.000000  0.500000  1
  Co  Co22  1  0.000000  0.717608  0.500000  1
  Co  Co23  1  0.000000  0.000000  0.000000  1
  P  P24  1  0.682345  0.162766  0.500000  1
  P  P25  1  0.837234  0.519579  0.500000  1
  P  P26  1  0.480421  0.317655  0.500000  1
  P  P27  1  0.162766  0.682345  0.500000  1
  P  P28  1  0.519579  0.837234  0.500000  1
  P  P29  1  0.317655  0.480421  0.500000  1
  P  P30  1  0.179008  0.179008  0.000000  1
  P  P31  1  0.820992  0.000000  0.000000  1
  P  P32  1  0.000000  0.820992  0.000000  1
  P  P33  1  0.633630  0.633630  0.000000  1
  P  P34  1  0.366370  0.000000  0.000000  1
  P  P35  1  0.000000  0.366370  0.000000  1
