# generated using pymatgen
data_Yb8Mn2CuN8
_symmetry_space_group_name_H-M   'P 1'
_cell_length_a   9.06471772
_cell_length_b   4.92170834
_cell_length_c   7.00481254
_cell_angle_alpha   90.00000931
_cell_angle_beta   75.60066006
_cell_angle_gamma   74.24786178
_symmetry_Int_Tables_number   1
_chemical_formula_structural   Yb8Mn2CuN8
_chemical_formula_sum   'Yb8 Mn2 Cu1 N8'
_cell_volume   290.56211495
_cell_formula_units_Z   1
loop_
 _symmetry_equiv_pos_site_id
 _symmetry_equiv_pos_as_xyz
  1  'x, y, z'
loop_
 _atom_site_type_symbol
 _atom_site_label
 _atom_site_symmetry_multiplicity
 _atom_site_fract_x
 _atom_site_fract_y
 _atom_site_fract_z
 _atom_site_occupancy
  Yb  Yb0  1  0.054653  0.972674  0.746821  1
  Yb  Yb1  1  0.945347  0.027326  0.253179  1
  Yb  Yb2  1  0.671468  0.664266  0.465884  1
  Yb  Yb3  1  0.328532  0.335734  0.534116  1
  Yb  Yb4  1  0.814790  0.592605  0.977102  1
  Yb  Yb5  1  0.185210  0.407395  0.022898  1
  Yb  Yb6  1  0.402567  0.798717  0.190632  1
  Yb  Yb7  1  0.597433  0.201283  0.809368  1
  Mn  Mn8  1  0.376858  0.811570  0.790562  1
  Mn  Mn9  1  0.623142  0.188430  0.209438  1
  Cu  Cu10  1  0.000000  0.500000  0.500000  1
  N  N11  1  0.209230  0.895385  0.995356  1
  N  N12  1  0.790770  0.104615  0.004644  1
  N  N13  1  0.348921  0.825539  0.555443  1
  N  N14  1  0.651079  0.174461  0.444557  1
  N  N15  1  0.567333  0.716334  0.825102  1
  N  N16  1  0.432667  0.283666  0.174898  1
  N  N17  1  0.942242  0.528878  0.261198  1
  N  N18  1  0.057758  0.471122  0.738802  1
