# generated using pymatgen
data_Sc17Si16Mo3
_symmetry_space_group_name_H-M   'P 1'
_cell_length_a   6.80274778
_cell_length_b   7.09656967
_cell_length_c   13.40337600
_cell_angle_alpha   90.00000000
_cell_angle_beta   90.00000000
_cell_angle_gamma   89.85368076
_symmetry_Int_Tables_number   1
_chemical_formula_structural   Sc17Si16Mo3
_chemical_formula_sum   'Sc17 Si16 Mo3'
_cell_volume   647.06159629
_cell_formula_units_Z   1
loop_
 _symmetry_equiv_pos_site_id
 _symmetry_equiv_pos_as_xyz
  1  'x, y, z'
loop_
 _atom_site_type_symbol
 _atom_site_label
 _atom_site_symmetry_multiplicity
 _atom_site_fract_x
 _atom_site_fract_y
 _atom_site_fract_z
 _atom_site_occupancy
  Sc  Sc0  1  0.648605  0.507263  0.750000  1
  Sc  Sc1  1  0.987445  0.683971  0.595338  1
  Sc  Sc2  1  0.012244  0.320648  0.404002  1
  Sc  Sc3  1  0.514228  0.181247  0.401682  1
  Sc  Sc4  1  0.012244  0.320648  0.095998  1
  Sc  Sc5  1  0.482542  0.820691  0.593210  1
  Sc  Sc6  1  0.987445  0.683971  0.904662  1
  Sc  Sc7  1  0.482542  0.820691  0.906790  1
  Sc  Sc8  1  0.514228  0.181247  0.098318  1
  Sc  Sc9  1  0.323804  0.326120  0.624681  1
  Sc  Sc10  1  0.677453  0.673424  0.371281  1
  Sc  Sc11  1  0.177409  0.829487  0.372940  1
  Sc  Sc12  1  0.677453  0.673424  0.128719  1
  Sc  Sc13  1  0.821727  0.167556  0.626081  1
  Sc  Sc14  1  0.323804  0.326120  0.875319  1
  Sc  Sc15  1  0.821727  0.167556  0.873919  1
  Sc  Sc16  1  0.177409  0.829487  0.127060  1
  Si  Si17  1  0.023843  0.388683  0.750000  1
  Si  Si18  1  0.985565  0.595821  0.250000  1
  Si  Si19  1  0.483566  0.906457  0.250000  1
  Si  Si20  1  0.511504  0.091699  0.750000  1
  Si  Si21  1  0.273884  0.648487  0.750000  1
  Si  Si22  1  0.719154  0.356085  0.250000  1
  Si  Si23  1  0.216532  0.146899  0.250000  1
  Si  Si24  1  0.785473  0.860577  0.750000  1
  Si  Si25  1  0.156479  0.027826  0.544469  1
  Si  Si26  1  0.842752  0.974444  0.452262  1
  Si  Si27  1  0.343153  0.527292  0.451507  1
  Si  Si28  1  0.842752  0.974444  0.047738  1
  Si  Si29  1  0.661794  0.466435  0.536523  1
  Si  Si30  1  0.156479  0.027826  0.955531  1
  Si  Si31  1  0.661794  0.466435  0.963477  1
  Si  Si32  1  0.343153  0.527292  0.048493  1
  Mo  Mo33  1  0.144254  0.998395  0.750000  1
  Mo  Mo34  1  0.853834  0.006010  0.250000  1
  Mo  Mo35  1  0.351725  0.495341  0.250000  1
