# generated using pymatgen
data_Y5Sc5(Co2Si5)4
_symmetry_space_group_name_H-M   'P 1'
_cell_length_a   12.21460800
_cell_length_b   12.21460800
_cell_length_c   4.01125000
_cell_angle_alpha   90.00000000
_cell_angle_beta   90.00000000
_cell_angle_gamma   90.00000000
_symmetry_Int_Tables_number   1
_chemical_formula_structural   Y5Sc5(Co2Si5)4
_chemical_formula_sum   'Y5 Sc5 Co8 Si20'
_cell_volume   598.46505667
_cell_formula_units_Z   1
loop_
 _symmetry_equiv_pos_site_id
 _symmetry_equiv_pos_as_xyz
  1  'x, y, z'
loop_
 _atom_site_type_symbol
 _atom_site_label
 _atom_site_symmetry_multiplicity
 _atom_site_fract_x
 _atom_site_fract_y
 _atom_site_fract_z
 _atom_site_occupancy
  Y  Y0  1  0.000000  0.000000  0.000000  1
  Y  Y1  1  0.886503  0.388500  0.500000  1
  Y  Y2  1  0.113497  0.611500  0.500000  1
  Y  Y3  1  0.388500  0.113497  0.500000  1
  Y  Y4  1  0.611500  0.886503  0.500000  1
  Sc  Sc5  1  0.500000  0.500000  0.000000  1
  Sc  Sc6  1  0.674598  0.176778  0.500000  1
  Sc  Sc7  1  0.325402  0.823222  0.500000  1
  Sc  Sc8  1  0.176778  0.325402  0.500000  1
  Sc  Sc9  1  0.823222  0.674598  0.500000  1
  Co  Co10  1  0.742438  0.523732  0.000000  1
  Co  Co11  1  0.257562  0.476268  0.000000  1
  Co  Co12  1  0.246188  0.976037  0.000000  1
  Co  Co13  1  0.753812  0.023963  0.000000  1
  Co  Co14  1  0.476268  0.742438  0.000000  1
  Co  Co15  1  0.523732  0.257562  0.000000  1
  Co  Co16  1  0.023963  0.246188  0.000000  1
  Co  Co17  1  0.976037  0.753812  0.000000  1
  Si  Si18  1  0.569329  0.070565  0.000000  1
  Si  Si19  1  0.430671  0.929435  0.000000  1
  Si  Si20  1  0.070565  0.430671  0.000000  1
  Si  Si21  1  0.929435  0.569329  0.000000  1
  Si  Si22  1  0.657002  0.694609  0.000000  1
  Si  Si23  1  0.342998  0.305391  0.000000  1
  Si  Si24  1  0.158945  0.802739  0.000000  1
  Si  Si25  1  0.841055  0.197261  0.000000  1
  Si  Si26  1  0.305391  0.657002  0.000000  1
  Si  Si27  1  0.694609  0.342998  0.000000  1
  Si  Si28  1  0.197261  0.158945  0.000000  1
  Si  Si29  1  0.802739  0.841055  0.000000  1
  Si  Si30  1  0.661408  0.505881  0.500000  1
  Si  Si31  1  0.338592  0.494119  0.500000  1
  Si  Si32  1  0.168526  0.994617  0.500000  1
  Si  Si33  1  0.831474  0.005383  0.500000  1
  Si  Si34  1  0.494119  0.661408  0.500000  1
  Si  Si35  1  0.505881  0.338592  0.500000  1
  Si  Si36  1  0.005383  0.168526  0.500000  1
  Si  Si37  1  0.994617  0.831474  0.500000  1
