# generated using pymatgen
data_CsPaHF7
_symmetry_space_group_name_H-M   'P 1'
_cell_length_a   5.66524212
_cell_length_b   8.51355598
_cell_length_c   8.87329395
_cell_angle_alpha   109.28661903
_cell_angle_beta   111.25465555
_cell_angle_gamma   91.21783778
_symmetry_Int_Tables_number   1
_chemical_formula_structural   CsPaHF7
_chemical_formula_sum   'Cs2 Pa2 H2 F14'
_cell_volume   371.60805364
_cell_formula_units_Z   2
loop_
 _symmetry_equiv_pos_site_id
 _symmetry_equiv_pos_as_xyz
  1  'x, y, z'
loop_
 _atom_site_type_symbol
 _atom_site_label
 _atom_site_symmetry_multiplicity
 _atom_site_fract_x
 _atom_site_fract_y
 _atom_site_fract_z
 _atom_site_occupancy
  Cs  Cs0  1  0.836440  0.166085  0.776591  1
  Cs  Cs1  1  0.163560  0.833915  0.223409  1
  Pa  Pa2  1  0.697811  0.348542  0.263127  1
  Pa  Pa3  1  0.302189  0.651458  0.736873  1
  H  H4  1  0.816518  0.775752  0.447940  1
  H  H5  1  0.183482  0.224248  0.552060  1
  F  F6  1  0.750164  0.871857  0.419170  1
  F  F7  1  0.249836  0.128143  0.580830  1
  F  F8  1  0.938833  0.629051  0.476574  1
  F  F9  1  0.061167  0.370949  0.523426  1
  F  F10  1  0.558333  0.191717  0.361431  1
  F  F11  1  0.441667  0.808283  0.638569  1
  F  F12  1  0.920665  0.171821  0.180892  1
  F  F13  1  0.079335  0.828179  0.819108  1
  F  F14  1  0.808836  0.472595  0.123899  1
  F  F15  1  0.191164  0.527405  0.876101  1
  F  F16  1  0.427542  0.503979  0.304813  1
  F  F17  1  0.572458  0.496021  0.695187  1
  F  F18  1  0.404850  0.209794  0.020327  1
  F  F19  1  0.595150  0.790206  0.979673  1
