# generated using pymatgen
data_La2Sm3U5O19
_symmetry_space_group_name_H-M   'P 1'
_cell_length_a   6.82124613
_cell_length_b   7.71012461
_cell_length_c   8.64727533
_cell_angle_alpha   101.07999096
_cell_angle_beta   97.59040439
_cell_angle_gamma   107.23406803
_symmetry_Int_Tables_number   1
_chemical_formula_structural   La2Sm3U5O19
_chemical_formula_sum   'La2 Sm3 U5 O19'
_cell_volume   417.50925846
_cell_formula_units_Z   1
loop_
 _symmetry_equiv_pos_site_id
 _symmetry_equiv_pos_as_xyz
  1  'x, y, z'
loop_
 _atom_site_type_symbol
 _atom_site_label
 _atom_site_symmetry_multiplicity
 _atom_site_fract_x
 _atom_site_fract_y
 _atom_site_fract_z
 _atom_site_occupancy
  La  La0  1  0.998549  0.499533  0.994945  1
  La  La1  1  0.207469  0.909137  0.392880  1
  Sm  Sm2  1  0.800732  0.098044  0.604167  1
  Sm  Sm3  1  0.388197  0.295434  0.801296  1
  Sm  Sm4  1  0.605415  0.701763  0.201584  1
  U  U5  1  0.773301  0.596232  0.599024  1
  U  U6  1  0.606521  0.204949  0.198222  1
  U  U7  1  0.999130  0.002839  0.997043  1
  U  U8  1  0.412174  0.810190  0.816734  1
  U  U9  1  0.199994  0.387187  0.390368  1
  O  O10  1  0.343473  0.061138  0.954312  1
  O  O11  1  0.436421  0.995656  0.656975  1
  O  O12  1  0.043070  0.213839  0.853865  1
  O  O13  1  0.720369  0.380083  0.729652  1
  O  O14  1  0.147181  0.184301  0.538927  1
  O  O15  1  0.363559  0.592990  0.951051  1
  O  O16  1  0.952578  0.266062  0.159443  1
  O  O17  1  0.902615  0.396752  0.460978  1
  O  O18  1  0.748462  0.864832  0.761722  1
  O  O19  1  0.546479  0.457022  0.360281  1
  O  O20  1  0.410356  0.554483  0.632421  1
  O  O21  1  0.256566  0.132709  0.237855  1
  O  O22  1  0.062187  0.716927  0.794152  1
  O  O23  1  0.641607  0.410952  0.058411  1
  O  O24  1  0.855158  0.802826  0.463258  1
  O  O25  1  0.254118  0.616732  0.273539  1
  O  O26  1  0.950590  0.786492  0.128479  1
  O  O27  1  0.579727  0.005917  0.348643  1
  O  O28  1  0.657913  0.942620  0.048011  1
