# generated using pymatgen
data_Y4HoBi2P
_symmetry_space_group_name_H-M   'P 1'
_cell_length_a   8.00369800
_cell_length_b   8.99926600
_cell_length_c   12.17408100
_cell_angle_alpha   90.00000000
_cell_angle_beta   90.00000000
_cell_angle_gamma   90.00000000
_symmetry_Int_Tables_number   1
_chemical_formula_structural   Y4HoBi2P
_chemical_formula_sum   'Y16 Ho4 Bi8 P4'
_cell_volume   876.86749052
_cell_formula_units_Z   4
loop_
 _symmetry_equiv_pos_site_id
 _symmetry_equiv_pos_as_xyz
  1  'x, y, z'
loop_
 _atom_site_type_symbol
 _atom_site_label
 _atom_site_symmetry_multiplicity
 _atom_site_fract_x
 _atom_site_fract_y
 _atom_site_fract_z
 _atom_site_occupancy
  Y  Y0  1  0.850006  0.750000  0.794149  1
  Y  Y1  1  0.149994  0.250000  0.205851  1
  Y  Y2  1  0.350006  0.250000  0.705851  1
  Y  Y3  1  0.649994  0.750000  0.294149  1
  Y  Y4  1  0.376044  0.750000  0.699600  1
  Y  Y5  1  0.623956  0.250000  0.300400  1
  Y  Y6  1  0.876044  0.250000  0.800400  1
  Y  Y7  1  0.123956  0.750000  0.199600  1
  Y  Y8  1  0.682643  0.049735  0.564044  1
  Y  Y9  1  0.317357  0.950265  0.435956  1
  Y  Y10  1  0.182643  0.950265  0.935956  1
  Y  Y11  1  0.317357  0.549735  0.435956  1
  Y  Y12  1  0.817357  0.049735  0.064044  1
  Y  Y13  1  0.682643  0.450265  0.564044  1
  Y  Y14  1  0.817357  0.450265  0.064044  1
  Y  Y15  1  0.182643  0.549735  0.935956  1
  Ho  Ho16  1  0.958252  0.750000  0.501864  1
  Ho  Ho17  1  0.041748  0.250000  0.498136  1
  Ho  Ho18  1  0.458252  0.250000  0.998136  1
  Ho  Ho19  1  0.541748  0.750000  0.001864  1
  Bi  Bi20  1  0.576438  0.490642  0.827059  1
  Bi  Bi21  1  0.423562  0.509358  0.172941  1
  Bi  Bi22  1  0.076438  0.509358  0.672941  1
  Bi  Bi23  1  0.423562  0.990642  0.172941  1
  Bi  Bi24  1  0.923562  0.490642  0.327059  1
  Bi  Bi25  1  0.576438  0.009358  0.827059  1
  Bi  Bi26  1  0.923562  0.009358  0.327059  1
  Bi  Bi27  1  0.076438  0.990642  0.672941  1
  P  P28  1  0.575258  0.750000  0.512681  1
  P  P29  1  0.424742  0.250000  0.487319  1
  P  P30  1  0.075258  0.250000  0.987319  1
  P  P31  1  0.924742  0.750000  0.012681  1
