# generated using pymatgen
data_Tb5Y3Re3B24Ru
_symmetry_space_group_name_H-M   'P 1'
_cell_length_a   3.68672500
_cell_length_b   9.19621495
_cell_length_c   11.58857501
_cell_angle_alpha   89.88852722
_cell_angle_beta   90.00000000
_cell_angle_gamma   90.00000000
_symmetry_Int_Tables_number   1
_chemical_formula_structural   Tb5Y3Re3B24Ru
_chemical_formula_sum   'Tb5 Y3 Re3 B24 Ru1'
_cell_volume   392.89732469
_cell_formula_units_Z   1
loop_
 _symmetry_equiv_pos_site_id
 _symmetry_equiv_pos_as_xyz
  1  'x, y, z'
loop_
 _atom_site_type_symbol
 _atom_site_label
 _atom_site_symmetry_multiplicity
 _atom_site_fract_x
 _atom_site_fract_y
 _atom_site_fract_z
 _atom_site_occupancy
  Tb  Tb0  1  0.000000  0.821960  0.085619  1
  Tb  Tb1  1  0.000000  0.177135  0.912388  1
  Tb  Tb2  1  0.000000  0.324811  0.415940  1
  Tb  Tb3  1  0.000000  0.676744  0.586367  1
  Tb  Tb4  1  0.000000  0.441318  0.130394  1
  Y  Y5  1  0.000000  0.556931  0.870693  1
  Y  Y6  1  0.000000  0.942815  0.369615  1
  Y  Y7  1  0.000000  0.057144  0.628959  1
  Re  Re8  1  0.000000  0.862437  0.821823  1
  Re  Re9  1  0.000000  0.638196  0.320400  1
  Re  Re10  1  0.000000  0.362037  0.679153  1
  B  B11  1  0.500000  0.053800  0.067528  1
  B  B12  1  0.500000  0.946964  0.932828  1
  B  B13  1  0.500000  0.553283  0.432995  1
  B  B14  1  0.500000  0.447053  0.567492  1
  B  B15  1  0.500000  0.247524  0.081904  1
  B  B16  1  0.500000  0.751466  0.918484  1
  B  B17  1  0.500000  0.748822  0.418185  1
  B  B18  1  0.500000  0.251984  0.581631  1
  B  B19  1  0.500000  0.289804  0.234463  1
  B  B20  1  0.500000  0.708899  0.765901  1
  B  B21  1  0.500000  0.791072  0.265036  1
  B  B22  1  0.500000  0.208702  0.734128  1
  B  B23  1  0.500000  0.131205  0.313897  1
  B  B24  1  0.500000  0.869594  0.686338  1
  B  B25  1  0.500000  0.630829  0.185549  1
  B  B26  1  0.500000  0.368890  0.814154  1
  B  B27  1  0.500000  0.482740  0.288408  1
  B  B28  1  0.500000  0.517564  0.712274  1
  B  B29  1  0.500000  0.983535  0.211567  1
  B  B30  1  0.500000  0.018055  0.788121  1
  B  B31  1  0.500000  0.102198  0.470946  1
  B  B32  1  0.500000  0.898420  0.527860  1
  B  B33  1  0.500000  0.600979  0.028612  1
  B  B34  1  0.500000  0.397173  0.971443  1
  Ru  Ru35  1  0.000000  0.137917  0.178906  1
