# generated using pymatgen
data_Y20Ni3Bi8Ru
_symmetry_space_group_name_H-M   'P 1'
_cell_length_a   8.07770604
_cell_length_b   8.96755200
_cell_length_c   12.40939785
_cell_angle_alpha   90.00000000
_cell_angle_beta   90.27595693
_cell_angle_gamma   90.00000000
_symmetry_Int_Tables_number   1
_chemical_formula_structural   Y20Ni3Bi8Ru
_chemical_formula_sum   'Y20 Ni3 Bi8 Ru1'
_cell_volume   898.89221502
_cell_formula_units_Z   1
loop_
 _symmetry_equiv_pos_site_id
 _symmetry_equiv_pos_as_xyz
  1  'x, y, z'
loop_
 _atom_site_type_symbol
 _atom_site_label
 _atom_site_symmetry_multiplicity
 _atom_site_fract_x
 _atom_site_fract_y
 _atom_site_fract_z
 _atom_site_occupancy
  Y  Y0  1  0.840390  0.750000  0.792339  1
  Y  Y1  1  0.157476  0.250000  0.204621  1
  Y  Y2  1  0.345671  0.250000  0.702968  1
  Y  Y3  1  0.654601  0.750000  0.295705  1
  Y  Y4  1  0.375723  0.750000  0.696240  1
  Y  Y5  1  0.622549  0.250000  0.305750  1
  Y  Y6  1  0.877208  0.250000  0.807314  1
  Y  Y7  1  0.122284  0.750000  0.191354  1
  Y  Y8  1  0.952719  0.750000  0.501853  1
  Y  Y9  1  0.046470  0.250000  0.498213  1
  Y  Y10  1  0.454481  0.250000  0.999749  1
  Y  Y11  1  0.545947  0.750000  0.000851  1
  Y  Y12  1  0.678031  0.038553  0.565572  1
  Y  Y13  1  0.323362  0.959790  0.435524  1
  Y  Y14  1  0.177602  0.961654  0.934838  1
  Y  Y15  1  0.323362  0.540210  0.435524  1
  Y  Y16  1  0.822213  0.039128  0.064486  1
  Y  Y17  1  0.678031  0.461447  0.565572  1
  Y  Y18  1  0.822213  0.460872  0.064486  1
  Y  Y19  1  0.177602  0.538346  0.934838  1
  Ni  Ni20  1  0.430043  0.250000  0.489183  1
  Ni  Ni21  1  0.067488  0.250000  0.990809  1
  Ni  Ni22  1  0.931396  0.750000  0.007501  1
  Bi  Bi23  1  0.571040  0.490331  0.828472  1
  Bi  Bi24  1  0.428522  0.508731  0.172702  1
  Bi  Bi25  1  0.070872  0.507173  0.673849  1
  Bi  Bi26  1  0.428522  0.991269  0.172702  1
  Bi  Bi27  1  0.930603  0.491732  0.326003  1
  Bi  Bi28  1  0.571040  0.009669  0.828472  1
  Bi  Bi29  1  0.930603  0.008268  0.326003  1
  Bi  Bi30  1  0.070872  0.992827  0.673849  1
  Ru  Ru31  1  0.571066  0.750000  0.512660  1
