# generated using pymatgen
data_SrPr(CoO2)6
_symmetry_space_group_name_H-M   'P 1'
_cell_length_a   4.93861278
_cell_length_b   5.86088296
_cell_length_c   8.54173800
_cell_angle_alpha   89.99996569
_cell_angle_beta   89.99998173
_cell_angle_gamma   73.93442866
_symmetry_Int_Tables_number   1
_chemical_formula_structural   SrPr(CoO2)6
_chemical_formula_sum   'Sr1 Pr1 Co6 O12'
_cell_volume   237.58175237
_cell_formula_units_Z   1
loop_
 _symmetry_equiv_pos_site_id
 _symmetry_equiv_pos_as_xyz
  1  'x, y, z'
loop_
 _atom_site_type_symbol
 _atom_site_label
 _atom_site_symmetry_multiplicity
 _atom_site_fract_x
 _atom_site_fract_y
 _atom_site_fract_z
 _atom_site_occupancy
  Sr  Sr0  1  0.000001  0.500000  0.166660  1
  Pr  Pr1  1  0.500000  0.500000  0.666575  1
  Co  Co2  1  0.500000  0.000000  0.166671  1
  Co  Co3  1  0.500000  0.000000  0.834308  1
  Co  Co4  1  0.500000  0.000000  0.499035  1
  Co  Co5  1  0.000000  0.000000  0.666679  1
  Co  Co6  1  0.000000  0.000000  0.334377  1
  Co  Co7  1  0.000000  0.000000  0.998958  1
  O  O8  1  0.772302  0.172145  0.166680  1
  O  O9  1  0.273970  0.181502  0.666679  1
  O  O10  1  0.227698  0.827856  0.166681  1
  O  O11  1  0.726030  0.818498  0.666679  1
  O  O12  1  0.278426  0.173731  0.001014  1
  O  O13  1  0.772412  0.182424  0.500835  1
  O  O14  1  0.278423  0.173738  0.332327  1
  O  O15  1  0.772403  0.182448  0.832498  1
  O  O16  1  0.721577  0.826262  0.332327  1
  O  O17  1  0.227597  0.817552  0.832499  1
  O  O18  1  0.721574  0.826269  0.001014  1
  O  O19  1  0.227587  0.817576  0.500835  1
