# generated using pymatgen
data_Er4FeTc2Ru5
_symmetry_space_group_name_H-M   'P 1'
_cell_length_a   5.33330947
_cell_length_b   5.23964172
_cell_length_c   8.96305100
_cell_angle_alpha   90.00000000
_cell_angle_beta   90.00000000
_cell_angle_gamma   122.06367340
_symmetry_Int_Tables_number   1
_chemical_formula_structural   Er4FeTc2Ru5
_chemical_formula_sum   'Er4 Fe1 Tc2 Ru5'
_cell_volume   212.26225313
_cell_formula_units_Z   1
loop_
 _symmetry_equiv_pos_site_id
 _symmetry_equiv_pos_as_xyz
  1  'x, y, z'
loop_
 _atom_site_type_symbol
 _atom_site_label
 _atom_site_symmetry_multiplicity
 _atom_site_fract_x
 _atom_site_fract_y
 _atom_site_fract_z
 _atom_site_occupancy
  Er  Er0  1  0.333837  0.662035  0.437310  1
  Er  Er1  1  0.667284  0.336527  0.568451  1
  Er  Er2  1  0.667284  0.336527  0.931549  1
  Er  Er3  1  0.333837  0.662035  0.062690  1
  Fe  Fe4  1  0.164815  0.330084  0.750000  1
  Tc  Tc5  1  0.342259  0.175832  0.250000  1
  Tc  Tc6  1  0.829491  0.666831  0.250000  1
  Ru  Ru7  1  0.173918  0.829429  0.750000  1
  Ru  Ru8  1  0.651039  0.826398  0.750000  1
  Ru  Ru9  1  0.005658  0.999852  0.996389  1
  Ru  Ru10  1  0.824920  0.174599  0.250000  1
  Ru  Ru11  1  0.005658  0.999852  0.503611  1
