# generated using pymatgen
data_Mg3CdSn(SbPt)5
_symmetry_space_group_name_H-M   'P 1'
_cell_length_a   18.82558012
_cell_length_b   18.82557992
_cell_length_c   18.82557969
_cell_angle_alpha   13.83870178
_cell_angle_beta   13.83870602
_cell_angle_gamma   13.83870392
_symmetry_Int_Tables_number   1
_chemical_formula_structural   Mg3CdSn(SbPt)5
_chemical_formula_sum   'Mg3 Cd1 Sn1 Sb5 Pt5'
_cell_volume   332.17403389
_cell_formula_units_Z   1
loop_
 _symmetry_equiv_pos_site_id
 _symmetry_equiv_pos_as_xyz
  1  'x, y, z'
loop_
 _atom_site_type_symbol
 _atom_site_label
 _atom_site_symmetry_multiplicity
 _atom_site_fract_x
 _atom_site_fract_y
 _atom_site_fract_z
 _atom_site_occupancy
  Mg  Mg0  1  0.101229  0.101229  0.101229  1
  Mg  Mg1  1  0.500153  0.500153  0.500153  1
  Mg  Mg2  1  0.898578  0.898578  0.898578  1
  Cd  Cd3  1  0.700116  0.700116  0.700116  1
  Sn  Sn4  1  0.298648  0.298648  0.298648  1
  Sb  Sb5  1  0.596423  0.596423  0.596423  1
  Sb  Sb6  1  0.800917  0.800917  0.800917  1
  Sb  Sb7  1  0.199605  0.199605  0.199605  1
  Sb  Sb8  1  0.001825  0.001825  0.001825  1
  Sb  Sb9  1  0.401973  0.401973  0.401973  1
  Pt  Pt10  1  0.052852  0.052852  0.052852  1
  Pt  Pt11  1  0.450744  0.450744  0.450744  1
  Pt  Pt12  1  0.849599  0.849599  0.849599  1
  Pt  Pt13  1  0.248304  0.248304  0.248304  1
  Pt  Pt14  1  0.649033  0.649033  0.649033  1
