# generated using pymatgen
data_Be8ReMo2Os
_symmetry_space_group_name_H-M   'P 1'
_cell_length_a   4.39845400
_cell_length_b   4.39845545
_cell_length_c   7.21223400
_cell_angle_alpha   90.00000000
_cell_angle_beta   90.00000000
_cell_angle_gamma   120.00000413
_symmetry_Int_Tables_number   1
_chemical_formula_structural   Be8ReMo2Os
_chemical_formula_sum   'Be8 Re1 Mo2 Os1'
_cell_volume   120.83720591
_cell_formula_units_Z   1
loop_
 _symmetry_equiv_pos_site_id
 _symmetry_equiv_pos_as_xyz
  1  'x, y, z'
loop_
 _atom_site_type_symbol
 _atom_site_label
 _atom_site_symmetry_multiplicity
 _atom_site_fract_x
 _atom_site_fract_y
 _atom_site_fract_z
 _atom_site_occupancy
  Be  Be0  1  0.000000  0.000000  0.000004  1
  Be  Be1  1  0.000000  0.000000  0.502542  1
  Be  Be2  1  0.831345  0.662691  0.249189  1
  Be  Be3  1  0.169026  0.830974  0.750794  1
  Be  Be4  1  0.661949  0.830974  0.750794  1
  Be  Be5  1  0.337309  0.168655  0.249189  1
  Be  Be6  1  0.831345  0.168655  0.249189  1
  Be  Be7  1  0.169026  0.338051  0.750794  1
  Re  Re8  1  0.333333  0.666667  0.437190  1
  Mo  Mo9  1  0.333333  0.666667  0.062311  1
  Mo  Mo10  1  0.666667  0.333333  0.560803  1
  Os  Os11  1  0.666667  0.333333  0.937202  1
