# generated using pymatgen
data_ErMgCd2(Ni3B)2
_symmetry_space_group_name_H-M   'P 1'
_cell_length_a   5.08974284
_cell_length_b   5.08978901
_cell_length_c   14.08323500
_cell_angle_alpha   90.00000000
_cell_angle_beta   90.00000000
_cell_angle_gamma   120.00405333
_symmetry_Int_Tables_number   1
_chemical_formula_structural   ErMgCd2(Ni3B)2
_chemical_formula_sum   'Er2 Mg2 Cd4 Ni12 B4'
_cell_volume   315.94460072
_cell_formula_units_Z   2
loop_
 _symmetry_equiv_pos_site_id
 _symmetry_equiv_pos_as_xyz
  1  'x, y, z'
loop_
 _atom_site_type_symbol
 _atom_site_label
 _atom_site_symmetry_multiplicity
 _atom_site_fract_x
 _atom_site_fract_y
 _atom_site_fract_z
 _atom_site_occupancy
  Er  Er0  1  0.666651  0.333343  0.750000  1
  Er  Er1  1  0.333349  0.666657  0.250000  1
  Mg  Mg2  1  0.000000  0.000000  0.000000  1
  Mg  Mg3  1  0.000000  0.000000  0.500000  1
  Cd  Cd4  1  0.333339  0.666667  0.469591  1
  Cd  Cd5  1  0.666661  0.333333  0.969591  1
  Cd  Cd6  1  0.666661  0.333333  0.530409  1
  Cd  Cd7  1  0.333339  0.666667  0.030409  1
  Ni  Ni8  1  0.832146  0.167849  0.348589  1
  Ni  Ni9  1  0.832155  0.664274  0.348593  1
  Ni  Ni10  1  0.832155  0.664274  0.151407  1
  Ni  Ni11  1  0.167854  0.832151  0.651411  1
  Ni  Ni12  1  0.664263  0.832164  0.651388  1
  Ni  Ni13  1  0.335737  0.167836  0.151388  1
  Ni  Ni14  1  0.832146  0.167849  0.151411  1
  Ni  Ni15  1  0.167845  0.335726  0.848593  1
  Ni  Ni16  1  0.167854  0.832151  0.848589  1
  Ni  Ni17  1  0.167845  0.335726  0.651407  1
  Ni  Ni18  1  0.664263  0.832164  0.848612  1
  Ni  Ni19  1  0.335737  0.167836  0.348612  1
  B  B20  1  0.666703  0.333338  0.250000  1
  B  B21  1  0.333297  0.666662  0.750000  1
  B  B22  1  0.999998  0.000017  0.750000  1
  B  B23  1  0.000002  0.999983  0.250000  1
