# generated using pymatgen
data_Dy3ErTm4(B6Os)4
_symmetry_space_group_name_H-M   'P 1'
_cell_length_a   3.63097100
_cell_length_b   9.10331600
_cell_length_c   11.48781901
_cell_angle_alpha   90.00349535
_cell_angle_beta   90.00000000
_cell_angle_gamma   90.00000000
_symmetry_Int_Tables_number   1
_chemical_formula_structural   Dy3ErTm4(B6Os)4
_chemical_formula_sum   'Dy3 Er1 Tm4 B24 Os4'
_cell_volume   379.71694898
_cell_formula_units_Z   1
loop_
 _symmetry_equiv_pos_site_id
 _symmetry_equiv_pos_as_xyz
  1  'x, y, z'
loop_
 _atom_site_type_symbol
 _atom_site_label
 _atom_site_symmetry_multiplicity
 _atom_site_fract_x
 _atom_site_fract_y
 _atom_site_fract_z
 _atom_site_occupancy
  Dy  Dy0  1  0.000000  0.321634  0.413922  1
  Dy  Dy1  1  0.000000  0.678366  0.586109  1
  Dy  Dy2  1  0.000000  0.821678  0.086045  1
  Er  Er3  1  0.000000  0.178525  0.914031  1
  Tm  Tm4  1  0.000000  0.944024  0.373027  1
  Tm  Tm5  1  0.000000  0.056058  0.627013  1
  Tm  Tm6  1  0.000000  0.443857  0.126792  1
  Tm  Tm7  1  0.000000  0.555893  0.873100  1
  B  B8  1  0.500000  0.554036  0.432997  1
  B  B9  1  0.500000  0.445916  0.567064  1
  B  B10  1  0.500000  0.054163  0.066672  1
  B  B11  1  0.500000  0.946333  0.933064  1
  B  B12  1  0.500000  0.748899  0.419765  1
  B  B13  1  0.500000  0.251100  0.580326  1
  B  B14  1  0.500000  0.248768  0.079804  1
  B  B15  1  0.500000  0.751213  0.919745  1
  B  B16  1  0.500000  0.791468  0.266367  1
  B  B17  1  0.500000  0.208367  0.733953  1
  B  B18  1  0.500000  0.291422  0.233495  1
  B  B19  1  0.500000  0.708598  0.766420  1
  B  B20  1  0.500000  0.630986  0.184896  1
  B  B21  1  0.500000  0.368653  0.815319  1
  B  B22  1  0.500000  0.131041  0.315029  1
  B  B23  1  0.500000  0.869064  0.684998  1
  B  B24  1  0.500000  0.982709  0.213335  1
  B  B25  1  0.500000  0.017774  0.786787  1
  B  B26  1  0.500000  0.482618  0.286545  1
  B  B27  1  0.500000  0.517250  0.713501  1
  B  B28  1  0.500000  0.605724  0.029245  1
  B  B29  1  0.500000  0.393656  0.970580  1
  B  B30  1  0.500000  0.105683  0.470781  1
  B  B31  1  0.500000  0.894351  0.529256  1
  Os  Os32  1  0.000000  0.637787  0.320908  1
  Os  Os33  1  0.000000  0.362064  0.679230  1
  Os  Os34  1  0.000000  0.137791  0.178821  1
  Os  Os35  1  0.000000  0.862531  0.821057  1
