# generated using pymatgen
data_Nd8In3Ir
_symmetry_space_group_name_H-M   'P 1'
_cell_length_a   10.79200300
_cell_length_b   10.79200346
_cell_length_c   7.31906500
_cell_angle_alpha   90.00000000
_cell_angle_beta   90.00000000
_cell_angle_gamma   120.00000165
_symmetry_Int_Tables_number   1
_chemical_formula_structural   Nd8In3Ir
_chemical_formula_sum   'Nd16 In6 Ir2'
_cell_volume   738.22774257
_cell_formula_units_Z   2
loop_
 _symmetry_equiv_pos_site_id
 _symmetry_equiv_pos_as_xyz
  1  'x, y, z'
loop_
 _atom_site_type_symbol
 _atom_site_label
 _atom_site_symmetry_multiplicity
 _atom_site_fract_x
 _atom_site_fract_y
 _atom_site_fract_z
 _atom_site_occupancy
  Nd  Nd0  1  0.464654  0.535346  0.482414  1
  Nd  Nd1  1  0.070691  0.535346  0.482414  1
  Nd  Nd2  1  0.464654  0.929309  0.482414  1
  Nd  Nd3  1  0.535346  0.464654  0.982414  1
  Nd  Nd4  1  0.929309  0.464654  0.982414  1
  Nd  Nd5  1  0.535346  0.070691  0.982414  1
  Nd  Nd6  1  0.824520  0.175480  0.274836  1
  Nd  Nd7  1  0.350959  0.175480  0.274836  1
  Nd  Nd8  1  0.824520  0.649041  0.274836  1
  Nd  Nd9  1  0.175480  0.824520  0.774836  1
  Nd  Nd10  1  0.649041  0.824520  0.774836  1
  Nd  Nd11  1  0.175480  0.350959  0.774836  1
  Nd  Nd12  1  0.333333  0.666667  0.100982  1
  Nd  Nd13  1  0.666667  0.333333  0.600982  1
  Nd  Nd14  1  0.000000  0.000000  0.492060  1
  Nd  Nd15  1  0.000000  0.000000  0.992060  1
  In  In16  1  0.162963  0.837037  0.232630  1
  In  In17  1  0.674074  0.837037  0.232630  1
  In  In18  1  0.162963  0.325926  0.232630  1
  In  In19  1  0.837037  0.162963  0.732630  1
  In  In20  1  0.325926  0.162963  0.732630  1
  In  In21  1  0.837037  0.674074  0.732630  1
  Ir  Ir22  1  0.333333  0.666667  0.709595  1
  Ir  Ir23  1  0.666667  0.333333  0.209595  1
