# generated using pymatgen
data_Ho6P12OsRh17
_symmetry_space_group_name_H-M   'P 1'
_cell_length_a   3.94423700
_cell_length_b   11.25716400
_cell_length_c   12.67772000
_cell_angle_alpha   90.00000000
_cell_angle_beta   90.00000000
_cell_angle_gamma   90.00000000
_symmetry_Int_Tables_number   1
_chemical_formula_structural   Ho6P12OsRh17
_chemical_formula_sum   'Ho6 P12 Os1 Rh17'
_cell_volume   562.90246654
_cell_formula_units_Z   1
loop_
 _symmetry_equiv_pos_site_id
 _symmetry_equiv_pos_as_xyz
  1  'x, y, z'
loop_
 _atom_site_type_symbol
 _atom_site_label
 _atom_site_symmetry_multiplicity
 _atom_site_fract_x
 _atom_site_fract_y
 _atom_site_fract_z
 _atom_site_occupancy
  Ho  Ho0  1  0.000000  0.500000  0.520896  1
  Ho  Ho1  1  0.500000  0.000000  0.478753  1
  Ho  Ho2  1  0.500000  0.818100  0.204081  1
  Ho  Ho3  1  0.500000  0.181900  0.204081  1
  Ho  Ho4  1  0.000000  0.682547  0.793503  1
  Ho  Ho5  1  0.000000  0.317453  0.793503  1
  P  P6  1  0.500000  0.314665  0.619221  1
  P  P7  1  0.500000  0.685335  0.619221  1
  P  P8  1  0.000000  0.183985  0.380779  1
  P  P9  1  0.000000  0.816015  0.380779  1
  P  P10  1  0.500000  0.500000  0.877246  1
  P  P11  1  0.000000  0.000000  0.116863  1
  P  P12  1  0.500000  0.841222  0.893284  1
  P  P13  1  0.500000  0.158778  0.893284  1
  P  P14  1  0.000000  0.651540  0.109279  1
  P  P15  1  0.000000  0.348460  0.109279  1
  P  P16  1  0.500000  0.500000  0.353383  1
  P  P17  1  0.000000  0.000000  0.650152  1
  Os  Os18  1  0.500000  0.000000  0.008683  1
  Rh  Rh19  1  0.000000  0.500000  0.978897  1
  Rh  Rh20  1  0.500000  0.294006  0.432001  1
  Rh  Rh21  1  0.500000  0.705994  0.432001  1
  Rh  Rh22  1  0.000000  0.201715  0.568927  1
  Rh  Rh23  1  0.000000  0.798285  0.568927  1
  Rh  Rh24  1  0.500000  0.872518  0.712144  1
  Rh  Rh25  1  0.500000  0.127482  0.712144  1
  Rh  Rh26  1  0.000000  0.628793  0.290305  1
  Rh  Rh27  1  0.000000  0.371207  0.290305  1
  Rh  Rh28  1  0.500000  0.336001  0.993475  1
  Rh  Rh29  1  0.500000  0.663999  0.993475  1
  Rh  Rh30  1  0.000000  0.170402  0.008323  1
  Rh  Rh31  1  0.000000  0.829598  0.008323  1
  Rh  Rh32  1  0.500000  0.500000  0.170323  1
  Rh  Rh33  1  0.000000  0.000000  0.836858  1
  Rh  Rh34  1  0.500000  0.500000  0.699451  1
  Rh  Rh35  1  0.000000  0.000000  0.297857  1
