# generated using pymatgen
data_LaTbBi2(Mo2O7)2
_symmetry_space_group_name_H-M   'P 1'
_cell_length_a   7.55069712
_cell_length_b   7.55069648
_cell_length_c   7.62795241
_cell_angle_alpha   59.11163797
_cell_angle_beta   59.11163800
_cell_angle_gamma   58.71580331
_symmetry_Int_Tables_number   1
_chemical_formula_structural   LaTbBi2(Mo2O7)2
_chemical_formula_sum   'La1 Tb1 Bi2 Mo4 O14'
_cell_volume   300.34782209
_cell_formula_units_Z   1
loop_
 _symmetry_equiv_pos_site_id
 _symmetry_equiv_pos_as_xyz
  1  'x, y, z'
loop_
 _atom_site_type_symbol
 _atom_site_label
 _atom_site_symmetry_multiplicity
 _atom_site_fract_x
 _atom_site_fract_y
 _atom_site_fract_z
 _atom_site_occupancy
  La  La0  1  0.125000  0.125000  0.125000  1
  Tb  Tb1  1  0.125000  0.125000  0.625000  1
  Bi  Bi2  1  0.625000  0.125000  0.125000  1
  Bi  Bi3  1  0.125000  0.625000  0.125000  1
  Mo  Mo4  1  0.625000  0.625000  0.625000  1
  Mo  Mo5  1  0.125000  0.625000  0.625000  1
  Mo  Mo6  1  0.625000  0.625000  0.125000  1
  Mo  Mo7  1  0.625000  0.125000  0.625000  1
  O  O8  1  0.007361  0.007361  0.986641  1
  O  O9  1  0.242639  0.242639  0.263359  1
  O  O10  1  0.291551  0.291551  0.700087  1
  O  O11  1  0.539807  0.539807  0.962209  1
  O  O12  1  0.710107  0.290932  0.708871  1
  O  O13  1  0.702323  0.292889  0.296098  1
  O  O14  1  0.290932  0.710107  0.708871  1
  O  O15  1  0.292889  0.702323  0.296098  1
  O  O16  1  0.710193  0.710193  0.287791  1
  O  O17  1  0.959068  0.539893  0.541129  1
  O  O18  1  0.547677  0.957111  0.953902  1
  O  O19  1  0.958449  0.958449  0.549913  1
  O  O20  1  0.957111  0.547677  0.953902  1
  O  O21  1  0.539893  0.959068  0.541129  1
