# generated using pymatgen
data_Pm4Ir3Pt
_symmetry_space_group_name_H-M   'P 1'
_cell_length_a   7.49866195
_cell_length_b   5.84764861
_cell_length_c   4.26636400
_cell_angle_alpha   90.00000000
_cell_angle_beta   90.00000000
_cell_angle_gamma   90.06765401
_symmetry_Int_Tables_number   1
_chemical_formula_structural   Pm4Ir3Pt
_chemical_formula_sum   'Pm4 Ir3 Pt1'
_cell_volume   187.07796887
_cell_formula_units_Z   1
loop_
 _symmetry_equiv_pos_site_id
 _symmetry_equiv_pos_as_xyz
  1  'x, y, z'
loop_
 _atom_site_type_symbol
 _atom_site_label
 _atom_site_symmetry_multiplicity
 _atom_site_fract_x
 _atom_site_fract_y
 _atom_site_fract_z
 _atom_site_occupancy
  Pm  Pm0  1  0.100691  0.505445  0.000000  1
  Pm  Pm1  1  0.588304  0.745656  0.000000  1
  Pm  Pm2  1  0.237620  0.007537  0.499999  1
  Pm  Pm3  1  0.738001  0.239484  0.499999  1
  Ir  Ir4  1  0.461703  0.230040  0.000000  1
  Ir  Ir5  1  0.957409  0.025263  0.000000  1
  Ir  Ir6  1  0.375539  0.520011  0.499999  1
  Pt  Pt7  1  0.874064  0.726567  0.499999  1
