# generated using pymatgen
data_CaLa2Cu4Ni9B2
_symmetry_space_group_name_H-M   'P 1'
_cell_length_a   5.08216113
_cell_length_b   5.08573815
_cell_length_c   10.81754900
_cell_angle_alpha   89.99917737
_cell_angle_beta   90.00164907
_cell_angle_gamma   120.00172935
_symmetry_Int_Tables_number   1
_chemical_formula_structural   CaLa2Cu4Ni9B2
_chemical_formula_sum   'Ca1 La2 Cu4 Ni9 B2'
_cell_volume   242.13321065
_cell_formula_units_Z   1
loop_
 _symmetry_equiv_pos_site_id
 _symmetry_equiv_pos_as_xyz
  1  'x, y, z'
loop_
 _atom_site_type_symbol
 _atom_site_label
 _atom_site_symmetry_multiplicity
 _atom_site_fract_x
 _atom_site_fract_y
 _atom_site_fract_z
 _atom_site_occupancy
  Ca  Ca0  1  0.999999  0.000001  0.000005  1
  La  La1  1  0.999996  0.999998  0.327480  1
  La  La2  1  0.999990  0.000001  0.672566  1
  Cu  Cu3  1  0.333317  0.666640  0.315105  1
  Cu  Cu4  1  0.666677  0.333360  0.315102  1
  Cu  Cu5  1  0.666664  0.333344  0.684902  1
  Cu  Cu6  1  0.333317  0.666657  0.684899  1
  Ni  Ni7  1  0.500004  0.000001  0.500002  1
  Ni  Ni8  1  0.499974  0.499985  0.500000  1
  Ni  Ni9  1  0.999989  0.500015  0.500002  1
  Ni  Ni10  1  0.500023  0.000000  0.126493  1
  Ni  Ni11  1  0.500017  0.500004  0.126493  1
  Ni  Ni12  1  0.000015  0.499998  0.126527  1
  Ni  Ni13  1  0.499973  0.999999  0.873509  1
  Ni  Ni14  1  0.499975  0.499997  0.873463  1
  Ni  Ni15  1  0.999978  0.500001  0.873442  1
  B  B16  1  0.333358  0.666689  0.000002  1
  B  B17  1  0.666635  0.333312  0.000002  1
