# generated using pymatgen
data_Th2Ga5Ni2Au
_symmetry_space_group_name_H-M   'P 1'
_cell_length_a   4.22989100
_cell_length_b   4.22989100
_cell_length_c   10.39675600
_cell_angle_alpha   90.00000000
_cell_angle_beta   90.00000000
_cell_angle_gamma   90.00000000
_symmetry_Int_Tables_number   1
_chemical_formula_structural   Th2Ga5Ni2Au
_chemical_formula_sum   'Th2 Ga5 Ni2 Au1'
_cell_volume   186.01852829
_cell_formula_units_Z   1
loop_
 _symmetry_equiv_pos_site_id
 _symmetry_equiv_pos_as_xyz
  1  'x, y, z'
loop_
 _atom_site_type_symbol
 _atom_site_label
 _atom_site_symmetry_multiplicity
 _atom_site_fract_x
 _atom_site_fract_y
 _atom_site_fract_z
 _atom_site_occupancy
  Th  Th0  1  0.000000  0.500000  0.233405  1
  Th  Th1  1  0.500000  0.000000  0.766595  1
  Ga  Ga2  1  0.500000  0.500000  0.000000  1
  Ga  Ga3  1  0.000000  0.000000  0.000000  1
  Ga  Ga4  1  0.000000  0.500000  0.657268  1
  Ga  Ga5  1  0.500000  0.000000  0.342732  1
  Ga  Ga6  1  0.000000  0.000000  0.500000  1
  Ni  Ni7  1  0.000000  0.500000  0.880578  1
  Ni  Ni8  1  0.500000  0.000000  0.119422  1
  Au  Au9  1  0.500000  0.500000  0.500000  1
