# generated using pymatgen
data_Sr2Al3H3Pd14
_symmetry_space_group_name_H-M   'P 1'
_cell_length_a   7.00485514
_cell_length_b   7.00485393
_cell_length_c   7.00485369
_cell_angle_alpha   83.01857075
_cell_angle_beta   83.01856914
_cell_angle_gamma   83.01858190
_symmetry_Int_Tables_number   1
_chemical_formula_structural   Sr2Al3H3Pd14
_chemical_formula_sum   'Sr2 Al3 H3 Pd14'
_cell_volume   336.64156936
_cell_formula_units_Z   1
loop_
 _symmetry_equiv_pos_site_id
 _symmetry_equiv_pos_as_xyz
  1  'x, y, z'
loop_
 _atom_site_type_symbol
 _atom_site_label
 _atom_site_symmetry_multiplicity
 _atom_site_fract_x
 _atom_site_fract_y
 _atom_site_fract_z
 _atom_site_occupancy
  Sr  Sr0  1  0.651595  0.651595  0.651595  1
  Sr  Sr1  1  0.348405  0.348405  0.348405  1
  Al  Al2  1  0.000000  0.000000  0.500000  1
  Al  Al3  1  0.500000  0.000000  0.000000  1
  Al  Al4  1  0.000000  0.500000  0.000000  1
  H  H5  1  0.500000  0.500000  0.000000  1
  H  H6  1  0.000000  0.500000  0.500000  1
  H  H7  1  0.500000  0.000000  0.500000  1
  Pd  Pd8  1  0.708164  0.291836  0.000000  1
  Pd  Pd9  1  0.000000  0.708164  0.291836  1
  Pd  Pd10  1  0.291836  0.000000  0.708164  1
  Pd  Pd11  1  0.000000  0.291836  0.708164  1
  Pd  Pd12  1  0.708164  0.000000  0.291836  1
  Pd  Pd13  1  0.291836  0.708164  0.000000  1
  Pd  Pd14  1  0.344046  0.344046  0.869045  1
  Pd  Pd15  1  0.869045  0.344046  0.344046  1
  Pd  Pd16  1  0.344046  0.869045  0.344046  1
  Pd  Pd17  1  0.655954  0.655954  0.130955  1
  Pd  Pd18  1  0.130955  0.655954  0.655954  1
  Pd  Pd19  1  0.655954  0.130955  0.655954  1
  Pd  Pd20  1  0.899740  0.899740  0.899740  1
  Pd  Pd21  1  0.100260  0.100260  0.100260  1
