# generated using pymatgen
data_CaEr(Re2Si)4
_symmetry_space_group_name_H-M   'P 1'
_cell_length_a   7.38725226
_cell_length_b   7.38725352
_cell_length_c   4.16443300
_cell_angle_alpha   90.00000000
_cell_angle_beta   90.00000000
_cell_angle_gamma   90.28439871
_symmetry_Int_Tables_number   1
_chemical_formula_structural   CaEr(Re2Si)4
_chemical_formula_sum   'Ca1 Er1 Re8 Si4'
_cell_volume   227.25657778
_cell_formula_units_Z   1
loop_
 _symmetry_equiv_pos_site_id
 _symmetry_equiv_pos_as_xyz
  1  'x, y, z'
loop_
 _atom_site_type_symbol
 _atom_site_label
 _atom_site_symmetry_multiplicity
 _atom_site_fract_x
 _atom_site_fract_y
 _atom_site_fract_z
 _atom_site_occupancy
  Ca  Ca0  1  0.000000  0.000000  0.500000  1
  Er  Er1  1  0.500000  0.500000  0.000000  1
  Re  Re2  1  0.656161  0.902377  0.000000  1
  Re  Re3  1  0.158951  0.592683  0.500000  1
  Re  Re4  1  0.097623  0.343839  0.000000  1
  Re  Re5  1  0.902377  0.656161  0.000000  1
  Re  Re6  1  0.407317  0.841049  0.500000  1
  Re  Re7  1  0.592683  0.158951  0.500000  1
  Re  Re8  1  0.343839  0.097623  0.000000  1
  Re  Re9  1  0.841049  0.407317  0.500000  1
  Si  Si10  1  0.208093  0.791907  0.000000  1
  Si  Si11  1  0.791907  0.208093  0.000000  1
  Si  Si12  1  0.708801  0.708801  0.500000  1
  Si  Si13  1  0.291199  0.291199  0.500000  1
