# generated using pymatgen
data_Y2Er2Tm2FeBi2
_symmetry_space_group_name_H-M   'P 1'
_cell_length_a   8.28864942
_cell_length_b   8.28864886
_cell_length_c   4.17905100
_cell_angle_alpha   90.00000000
_cell_angle_beta   90.00000000
_cell_angle_gamma   120.19895412
_symmetry_Int_Tables_number   1
_chemical_formula_structural   Y2Er2Tm2FeBi2
_chemical_formula_sum   'Y2 Er2 Tm2 Fe1 Bi2'
_cell_volume   248.14278322
_cell_formula_units_Z   1
loop_
 _symmetry_equiv_pos_site_id
 _symmetry_equiv_pos_as_xyz
  1  'x, y, z'
loop_
 _atom_site_type_symbol
 _atom_site_label
 _atom_site_symmetry_multiplicity
 _atom_site_fract_x
 _atom_site_fract_y
 _atom_site_fract_z
 _atom_site_occupancy
  Y  Y0  1  0.607631  0.000310  0.000000  1
  Y  Y1  1  0.000310  0.607631  0.000000  1
  Er  Er2  1  0.771119  0.771119  0.500000  1
  Er  Er3  1  0.388232  0.388232  0.000000  1
  Tm  Tm4  1  0.229479  0.000613  0.500000  1
  Tm  Tm5  1  0.000613  0.229479  0.500000  1
  Fe  Fe6  1  0.003886  0.003886  0.000000  1
  Bi  Bi7  1  0.333144  0.665588  0.500000  1
  Bi  Bi8  1  0.665588  0.333144  0.500000  1
