# generated using pymatgen
data_Ho5Er5(AlSb2)2
_symmetry_space_group_name_H-M   'P 1'
_cell_length_a   8.88638200
_cell_length_b   8.88305221
_cell_length_c   6.38903200
_cell_angle_alpha   90.00000000
_cell_angle_beta   90.00000000
_cell_angle_gamma   120.06395945
_symmetry_Int_Tables_number   1
_chemical_formula_structural   Ho5Er5(AlSb2)2
_chemical_formula_sum   'Ho5 Er5 Al2 Sb4'
_cell_volume   436.48831861
_cell_formula_units_Z   1
loop_
 _symmetry_equiv_pos_site_id
 _symmetry_equiv_pos_as_xyz
  1  'x, y, z'
loop_
 _atom_site_type_symbol
 _atom_site_label
 _atom_site_symmetry_multiplicity
 _atom_site_fract_x
 _atom_site_fract_y
 _atom_site_fract_z
 _atom_site_occupancy
  Ho  Ho0  1  0.008550  0.765224  0.750000  1
  Ho  Ho1  1  0.008363  0.243138  0.250000  1
  Ho  Ho2  1  0.755552  0.756923  0.250000  1
  Ho  Ho3  1  0.755159  0.998628  0.750000  1
  Ho  Ho4  1  0.241783  0.232227  0.750000  1
  Er  Er5  1  0.242545  0.009723  0.250000  1
  Er  Er6  1  0.335955  0.667984  0.500053  1
  Er  Er7  1  0.656141  0.328036  0.999895  1
  Er  Er8  1  0.656141  0.328036  0.500105  1
  Er  Er9  1  0.335955  0.667984  0.999947  1
  Al  Al10  1  0.398213  0.996931  0.750000  1
  Al  Al11  1  0.397936  0.400680  0.250000  1
  Sb  Sb12  1  0.998947  0.607192  0.250000  1
  Sb  Sb13  1  0.998518  0.392089  0.750000  1
  Sb  Sb14  1  0.605319  0.604429  0.750000  1
  Sb  Sb15  1  0.604927  0.000775  0.250000  1
