# generated using pymatgen
data_RbNaMnO2
_symmetry_space_group_name_H-M   'P 1'
_cell_length_a   7.01167094
_cell_length_b   7.07347000
_cell_length_c   7.01168435
_cell_angle_alpha   90.00001635
_cell_angle_beta   91.62264021
_cell_angle_gamma   90.00009597
_symmetry_Int_Tables_number   1
_chemical_formula_structural   RbNaMnO2
_chemical_formula_sum   'Rb4 Na4 Mn4 O8'
_cell_volume   347.61796609
_cell_formula_units_Z   4
loop_
 _symmetry_equiv_pos_site_id
 _symmetry_equiv_pos_as_xyz
  1  'x, y, z'
loop_
 _atom_site_type_symbol
 _atom_site_label
 _atom_site_symmetry_multiplicity
 _atom_site_fract_x
 _atom_site_fract_y
 _atom_site_fract_z
 _atom_site_occupancy
  Rb  Rb0  1  0.499992  0.999998  0.999998  1
  Rb  Rb1  1  0.999999  0.500000  0.500000  1
  Rb  Rb2  1  0.000007  0.250003  0.000001  1
  Rb  Rb3  1  0.000008  0.749999  0.000015  1
  Na  Na4  1  0.647462  0.250003  0.647463  1
  Na  Na5  1  0.352552  0.250001  0.352552  1
  Na  Na6  1  0.647464  0.749999  0.647463  1
  Na  Na7  1  0.352554  0.749998  0.352552  1
  Mn  Mn8  1  0.623764  0.499999  0.164025  1
  Mn  Mn9  1  0.164034  0.999999  0.623747  1
  Mn  Mn10  1  0.376202  0.499999  0.835958  1
  Mn  Mn11  1  0.835954  0.000001  0.376236  1
  O  O12  1  0.692691  0.749996  0.307311  1
  O  O13  1  0.692689  0.250006  0.307310  1
  O  O14  1  0.307313  0.249995  0.692690  1
  O  O15  1  0.307315  0.750005  0.692691  1
  O  O16  1  0.682078  0.500001  0.867992  1
  O  O17  1  0.317917  0.500000  0.132003  1
  O  O18  1  0.867999  0.000001  0.682078  1
  O  O19  1  0.132003  0.999999  0.317914  1
