# generated using pymatgen
data_Dy2TmMg3Si2Au
_symmetry_space_group_name_H-M   'P 1'
_cell_length_a   7.21216401
_cell_length_b   7.21216435
_cell_length_c   4.28569300
_cell_angle_alpha   90.00000000
_cell_angle_beta   90.00000000
_cell_angle_gamma   119.81891288
_symmetry_Int_Tables_number   1
_chemical_formula_structural   Dy2TmMg3Si2Au
_chemical_formula_sum   'Dy2 Tm1 Mg3 Si2 Au1'
_cell_volume   193.40713430
_cell_formula_units_Z   1
loop_
 _symmetry_equiv_pos_site_id
 _symmetry_equiv_pos_as_xyz
  1  'x, y, z'
loop_
 _atom_site_type_symbol
 _atom_site_label
 _atom_site_symmetry_multiplicity
 _atom_site_fract_x
 _atom_site_fract_y
 _atom_site_fract_z
 _atom_site_occupancy
  Dy  Dy0  1  0.581769  0.999282  0.000000  1
  Dy  Dy1  1  0.999282  0.581769  0.000000  1
  Tm  Tm2  1  0.417140  0.417140  0.000000  1
  Mg  Mg3  1  0.247267  0.000543  0.500000  1
  Mg  Mg4  1  0.000543  0.247267  0.500000  1
  Mg  Mg5  1  0.752394  0.752394  0.500000  1
  Si  Si6  1  0.334032  0.665814  0.500000  1
  Si  Si7  1  0.665814  0.334032  0.500000  1
  Au  Au8  1  0.001760  0.001760  0.000000  1
