# generated using pymatgen
data_Tm7Lu(ZrGa5)4
_symmetry_space_group_name_H-M   'P 1'
_cell_length_a   5.87744010
_cell_length_b   9.40466600
_cell_length_c   11.38274220
_cell_angle_alpha   90.00265178
_cell_angle_beta   89.97879776
_cell_angle_gamma   89.99826144
_symmetry_Int_Tables_number   1
_chemical_formula_structural   Tm7Lu(ZrGa5)4
_chemical_formula_sum   'Tm7 Lu1 Zr4 Ga20'
_cell_volume   629.18514135
_cell_formula_units_Z   1
loop_
 _symmetry_equiv_pos_site_id
 _symmetry_equiv_pos_as_xyz
  1  'x, y, z'
loop_
 _atom_site_type_symbol
 _atom_site_label
 _atom_site_symmetry_multiplicity
 _atom_site_fract_x
 _atom_site_fract_y
 _atom_site_fract_z
 _atom_site_occupancy
  Tm  Tm0  1  0.885824  0.500831  0.352650  1
  Tm  Tm1  1  0.614116  0.999142  0.852648  1
  Tm  Tm2  1  0.114154  0.000813  0.647358  1
  Tm  Tm3  1  0.385945  0.499176  0.147195  1
  Tm  Tm4  1  0.114105  0.499190  0.647485  1
  Tm  Tm5  1  0.385891  0.000838  0.147325  1
  Tm  Tm6  1  0.885856  0.999196  0.352646  1
  Lu  Lu7  1  0.614034  0.500837  0.852656  1
  Zr  Zr8  1  0.858335  0.749905  0.072858  1
  Zr  Zr9  1  0.641579  0.749980  0.572982  1
  Zr  Zr10  1  0.141819  0.250048  0.927011  1
  Zr  Zr11  1  0.358426  0.250017  0.427110  1
  Ga  Ga12  1  0.875112  0.053230  0.090119  1
  Ga  Ga13  1  0.624899  0.446823  0.590301  1
  Ga  Ga14  1  0.125085  0.553135  0.909795  1
  Ga  Ga15  1  0.375082  0.946784  0.409897  1
  Ga  Ga16  1  0.124923  0.946743  0.909901  1
  Ga  Ga17  1  0.375063  0.553217  0.409878  1
  Ga  Ga18  1  0.875036  0.446804  0.090036  1
  Ga  Ga19  1  0.624874  0.053223  0.590110  1
  Ga  Ga20  1  0.152674  0.749991  0.258129  1
  Ga  Ga21  1  0.347444  0.749816  0.758191  1
  Ga  Ga22  1  0.847118  0.250201  0.742012  1
  Ga  Ga23  1  0.652702  0.250003  0.241856  1
  Ga  Ga24  1  0.395330  0.749940  0.999426  1
  Ga  Ga25  1  0.104777  0.750016  0.499471  1
  Ga  Ga26  1  0.604834  0.250310  0.000280  1
  Ga  Ga27  1  0.895206  0.250034  0.500553  1
  Ga  Ga28  1  0.614287  0.749996  0.294522  1
  Ga  Ga29  1  0.885425  0.749716  0.794574  1
  Ga  Ga30  1  0.385765  0.250059  0.705519  1
  Ga  Ga31  1  0.114279  0.249985  0.205508  1
