# generated using pymatgen
data_Dy5Mg2Zr(P3Ir4)4
_symmetry_space_group_name_H-M   'P 1'
_cell_length_a   12.91941600
_cell_length_b   12.78907577
_cell_length_c   3.97899700
_cell_angle_alpha   90.00000000
_cell_angle_beta   90.00000000
_cell_angle_gamma   120.33770963
_symmetry_Int_Tables_number   1
_chemical_formula_structural   Dy5Mg2Zr(P3Ir4)4
_chemical_formula_sum   'Dy5 Mg2 Zr1 P12 Ir16'
_cell_volume   567.41172605
_cell_formula_units_Z   1
loop_
 _symmetry_equiv_pos_site_id
 _symmetry_equiv_pos_as_xyz
  1  'x, y, z'
loop_
 _atom_site_type_symbol
 _atom_site_label
 _atom_site_symmetry_multiplicity
 _atom_site_fract_x
 _atom_site_fract_y
 _atom_site_fract_z
 _atom_site_occupancy
  Dy  Dy0  1  0.334682  0.669008  0.500000  1
  Dy  Dy1  1  0.665676  0.330992  0.500000  1
  Dy  Dy2  1  0.002934  0.812696  0.000000  1
  Dy  Dy3  1  0.190238  0.187304  0.000000  1
  Dy  Dy4  1  0.811904  0.000000  0.000000  1
  Mg  Mg5  1  0.001979  0.447915  0.500000  1
  Mg  Mg6  1  0.554064  0.552085  0.500000  1
  Zr  Zr7  1  0.444370  0.000000  0.500000  1
  P  P8  1  0.995539  0.641591  0.500000  1
  P  P9  1  0.353948  0.358409  0.500000  1
  P  P10  1  0.646050  0.000000  0.500000  1
  P  P11  1  0.515321  0.686064  0.000000  1
  P  P12  1  0.312725  0.830306  0.000000  1
  P  P13  1  0.174484  0.483592  0.000000  1
  P  P14  1  0.482418  0.169694  0.000000  1
  P  P15  1  0.690892  0.516408  0.000000  1
  P  P16  1  0.829257  0.313936  0.000000  1
  P  P17  1  0.998804  0.177969  0.500000  1
  P  P18  1  0.820835  0.822031  0.500000  1
  P  P19  1  0.173787  0.000000  0.500000  1
  Ir  Ir20  1  0.509375  0.866528  0.000000  1
  Ir  Ir21  1  0.138492  0.640205  0.000000  1
  Ir  Ir22  1  0.358993  0.485433  0.000000  1
  Ir  Ir23  1  0.498288  0.359795  0.000000  1
  Ir  Ir24  1  0.873561  0.514567  0.000000  1
  Ir  Ir25  1  0.642849  0.133472  0.000000  1
  Ir  Ir26  1  0.000039  0.279077  0.000000  1
  Ir  Ir27  1  0.720963  0.720923  0.000000  1
  Ir  Ir28  1  0.278116  0.000000  0.000000  1
  Ir  Ir29  1  0.626136  0.803392  0.500000  1
  Ir  Ir30  1  0.186938  0.818735  0.500000  1
  Ir  Ir31  1  0.176861  0.374233  0.500000  1
  Ir  Ir32  1  0.368203  0.181265  0.500000  1
  Ir  Ir33  1  0.802628  0.625767  0.500000  1
  Ir  Ir34  1  0.822744  0.196608  0.500000  1
  Ir  Ir35  1  0.995910  0.000000  0.500000  1
