# generated using pymatgen
data_Pr15Nd4DyPb16
_symmetry_space_group_name_H-M   'P 1'
_cell_length_a   8.49097766
_cell_length_b   8.59532317
_cell_length_c   16.31714000
_cell_angle_alpha   90.05240084
_cell_angle_beta   89.53414407
_cell_angle_gamma   90.04473966
_symmetry_Int_Tables_number   1
_chemical_formula_structural   Pr15Nd4DyPb16
_chemical_formula_sum   'Pr15 Nd4 Dy1 Pb16'
_cell_volume   1190.82866712
_cell_formula_units_Z   1
loop_
 _symmetry_equiv_pos_site_id
 _symmetry_equiv_pos_as_xyz
  1  'x, y, z'
loop_
 _atom_site_type_symbol
 _atom_site_label
 _atom_site_symmetry_multiplicity
 _atom_site_fract_x
 _atom_site_fract_y
 _atom_site_fract_z
 _atom_site_occupancy
  Pr  Pr0  1  0.125103  0.341353  0.881133  1
  Pr  Pr1  1  0.375312  0.842406  0.119328  1
  Pr  Pr2  1  0.871618  0.658826  0.380742  1
  Pr  Pr3  1  0.374207  0.841166  0.380301  1
  Pr  Pr4  1  0.874129  0.658416  0.119224  1
  Pr  Pr5  1  0.625057  0.157970  0.882074  1
  Pr  Pr6  1  0.126192  0.341274  0.618885  1
  Pr  Pr7  1  0.471961  0.678728  0.599975  1
  Pr  Pr8  1  0.969632  0.821557  0.899379  1
  Pr  Pr9  1  0.530603  0.320652  0.101109  1
  Pr  Pr10  1  0.028088  0.177826  0.399477  1
  Pr  Pr11  1  0.527468  0.319753  0.400506  1
  Pr  Pr12  1  0.029952  0.177846  0.101588  1
  Pr  Pr13  1  0.469685  0.678309  0.898653  1
  Pr  Pr14  1  0.973277  0.821850  0.599345  1
  Nd  Nd15  1  0.627948  0.158599  0.618958  1
  Nd  Nd16  1  0.794684  0.497460  0.749817  1
  Nd  Nd17  1  0.295070  0.003065  0.749557  1
  Nd  Nd18  1  0.204948  0.502200  0.249922  1
  Dy  Dy19  1  0.706124  0.996432  0.250317  1
  Pb  Pb20  1  0.715696  0.967378  0.454616  1
  Pb  Pb21  1  0.218014  0.532742  0.044204  1
  Pb  Pb22  1  0.281735  0.031899  0.955691  1
  Pb  Pb23  1  0.783678  0.465650  0.543924  1
  Pb  Pb24  1  0.287049  0.035822  0.543415  1
  Pb  Pb25  1  0.781960  0.468415  0.955619  1
  Pb  Pb26  1  0.718185  0.968578  0.046945  1
  Pb  Pb27  1  0.214358  0.534631  0.455807  1
  Pb  Pb28  1  0.430004  0.374116  0.749781  1
  Pb  Pb29  1  0.928737  0.124486  0.749919  1
  Pb  Pb30  1  0.571615  0.626504  0.249615  1
  Pb  Pb31  1  0.067154  0.877644  0.249998  1
  Pb  Pb32  1  0.662980  0.851843  0.749296  1
  Pb  Pb33  1  0.163112  0.649635  0.749647  1
  Pb  Pb34  1  0.339362  0.148286  0.250559  1
  Pb  Pb35  1  0.835301  0.346688  0.250675  1
