# generated using pymatgen
data_Tb9Y(Ga2Ru3)2
_symmetry_space_group_name_H-M   'P 1'
_cell_length_a   8.36255767
_cell_length_b   8.36255749
_cell_length_c   8.36703700
_cell_angle_alpha   109.46234660
_cell_angle_beta   109.46414830
_cell_angle_gamma   109.46547378
_symmetry_Int_Tables_number   1
_chemical_formula_structural   Tb9Y(Ga2Ru3)2
_chemical_formula_sum   'Tb9 Y1 Ga4 Ru6'
_cell_volume   450.55131008
_cell_formula_units_Z   1
loop_
 _symmetry_equiv_pos_site_id
 _symmetry_equiv_pos_as_xyz
  1  'x, y, z'
loop_
 _atom_site_type_symbol
 _atom_site_label
 _atom_site_symmetry_multiplicity
 _atom_site_fract_x
 _atom_site_fract_y
 _atom_site_fract_z
 _atom_site_occupancy
  Tb  Tb0  1  0.784851  0.784743  0.784778  1
  Tb  Tb1  1  0.317838  0.567838  0.750000  1
  Tb  Tb2  1  0.749928  0.317776  0.567931  1
  Tb  Tb3  1  0.567798  0.750100  0.317926  1
  Tb  Tb4  1  0.715444  0.500088  0.000273  1
  Tb  Tb5  1  0.999814  0.715169  0.499727  1
  Tb  Tb6  1  0.499965  0.000074  0.715222  1
  Tb  Tb7  1  0.249845  0.181997  0.932069  1
  Tb  Tb8  1  0.932174  0.249871  0.182074  1
  Y  Y9  1  0.181728  0.931728  0.250000  1
  Ga  Ga10  1  0.411739  0.411512  0.411906  1
  Ga  Ga11  1  0.088039  0.500293  0.000154  1
  Ga  Ga12  1  0.000139  0.087885  0.499846  1
  Ga  Ga13  1  0.499606  0.999834  0.088094  1
  Ru  Ru14  1  0.876116  0.126116  0.750000  1
  Ru  Ru15  1  0.749923  0.876150  0.126187  1
  Ru  Ru16  1  0.125997  0.749472  0.874524  1
  Ru  Ru17  1  0.249962  0.623736  0.373813  1
  Ru  Ru18  1  0.374948  0.251474  0.625476  1
  Ru  Ru19  1  0.624144  0.374144  0.250000  1
