# generated using pymatgen
data_Rb2Pt3O7
_symmetry_space_group_name_H-M   'P 1'
_cell_length_a   7.63776680
_cell_length_b   7.98663532
_cell_length_c   8.38311880
_cell_angle_alpha   105.54627822
_cell_angle_beta   105.61065204
_cell_angle_gamma   114.87737708
_symmetry_Int_Tables_number   1
_chemical_formula_structural   Rb2Pt3O7
_chemical_formula_sum   'Rb4 Pt6 O14'
_cell_volume   402.03697960
_cell_formula_units_Z   2
loop_
 _symmetry_equiv_pos_site_id
 _symmetry_equiv_pos_as_xyz
  1  'x, y, z'
loop_
 _atom_site_type_symbol
 _atom_site_label
 _atom_site_symmetry_multiplicity
 _atom_site_fract_x
 _atom_site_fract_y
 _atom_site_fract_z
 _atom_site_occupancy
  Rb  Rb0  1  0.324635  0.812004  0.069475  1
  Rb  Rb1  1  0.256167  0.683759  0.490941  1
  Rb  Rb2  1  0.743832  0.316241  0.509058  1
  Rb  Rb3  1  0.675364  0.187996  0.930525  1
  Pt  Pt4  1  0.358621  0.355754  0.074218  1
  Pt  Pt5  1  0.072739  0.073533  0.217171  1
  Pt  Pt6  1  0.783090  0.785652  0.357120  1
  Pt  Pt7  1  0.216911  0.214348  0.642879  1
  Pt  Pt8  1  0.927262  0.926467  0.782828  1
  Pt  Pt9  1  0.641379  0.644246  0.925781  1
  O  O10  1  0.043196  0.189152  0.025763  1
  O  O11  1  0.676718  0.528799  0.124654  1
  O  O12  1  0.749178  0.906533  0.163478  1
  O  O13  1  0.376447  0.211667  0.237620  1
  O  O14  1  0.463921  0.625530  0.284541  1
  O  O15  1  0.108247  0.958212  0.408818  1
  O  O16  1  0.143627  0.304881  0.444418  1
  O  O17  1  0.856373  0.695118  0.555581  1
  O  O18  1  0.891753  0.041788  0.591181  1
  O  O19  1  0.536079  0.374470  0.715458  1
  O  O20  1  0.623554  0.788333  0.762379  1
  O  O21  1  0.250823  0.093467  0.836521  1
  O  O22  1  0.323282  0.471201  0.875347  1
  O  O23  1  0.956805  0.810848  0.974237  1
