# generated using pymatgen
data_Dy(Ta2N3)2
_symmetry_space_group_name_H-M   'P 1'
_cell_length_a   5.31259200
_cell_length_b   5.31259145
_cell_length_c   10.76754300
_cell_angle_alpha   90.00000000
_cell_angle_beta   90.00000000
_cell_angle_gamma   120.00000341
_symmetry_Int_Tables_number   1
_chemical_formula_structural   Dy(Ta2N3)2
_chemical_formula_sum   'Dy2 Ta8 N12'
_cell_volume   263.18438268
_cell_formula_units_Z   2
loop_
 _symmetry_equiv_pos_site_id
 _symmetry_equiv_pos_as_xyz
  1  'x, y, z'
loop_
 _atom_site_type_symbol
 _atom_site_label
 _atom_site_symmetry_multiplicity
 _atom_site_fract_x
 _atom_site_fract_y
 _atom_site_fract_z
 _atom_site_occupancy
  Dy  Dy0  1  0.666667  0.333333  0.000000  1
  Dy  Dy1  1  0.333333  0.666667  0.000000  1
  Ta  Ta2  1  0.679689  0.679689  0.738815  1
  Ta  Ta3  1  0.320311  0.000000  0.738815  1
  Ta  Ta4  1  0.000000  0.320311  0.738815  1
  Ta  Ta5  1  0.320311  0.320311  0.261185  1
  Ta  Ta6  1  0.679689  0.000000  0.261185  1
  Ta  Ta7  1  0.000000  0.679689  0.261185  1
  Ta  Ta8  1  0.333333  0.666667  0.500000  1
  Ta  Ta9  1  0.666667  0.333333  0.500000  1
  N  N10  1  0.657810  0.657810  0.385891  1
  N  N11  1  0.342190  0.000000  0.385891  1
  N  N12  1  0.000000  0.342190  0.385891  1
  N  N13  1  0.342190  0.342190  0.614109  1
  N  N14  1  0.657810  0.000000  0.614109  1
  N  N15  1  0.000000  0.657810  0.614109  1
  N  N16  1  0.342325  0.342325  0.854030  1
  N  N17  1  0.657675  0.000000  0.854030  1
  N  N18  1  0.000000  0.657675  0.854030  1
  N  N19  1  0.657675  0.657675  0.145970  1
  N  N20  1  0.342325  0.000000  0.145970  1
  N  N21  1  0.000000  0.342325  0.145970  1
