# generated using pymatgen
data_Nb3Co(BRu2)2
_symmetry_space_group_name_H-M   'P 1'
_cell_length_a   9.28365100
_cell_length_b   9.28365100
_cell_length_c   3.05012600
_cell_angle_alpha   90.00000000
_cell_angle_beta   90.00000000
_cell_angle_gamma   90.00000000
_symmetry_Int_Tables_number   1
_chemical_formula_structural   Nb3Co(BRu2)2
_chemical_formula_sum   'Nb6 Co2 B4 Ru8'
_cell_volume   262.87869592
_cell_formula_units_Z   2
loop_
 _symmetry_equiv_pos_site_id
 _symmetry_equiv_pos_as_xyz
  1  'x, y, z'
loop_
 _atom_site_type_symbol
 _atom_site_label
 _atom_site_symmetry_multiplicity
 _atom_site_fract_x
 _atom_site_fract_y
 _atom_site_fract_z
 _atom_site_occupancy
  Nb  Nb0  1  0.825506  0.674494  0.000000  1
  Nb  Nb1  1  0.174494  0.325506  0.000000  1
  Nb  Nb2  1  0.325506  0.825506  0.000000  1
  Nb  Nb3  1  0.674494  0.174494  0.000000  1
  Nb  Nb4  1  0.500000  0.500000  0.000000  1
  Nb  Nb5  1  0.000000  0.000000  0.000000  1
  Co  Co6  1  0.500000  0.000000  0.500000  1
  Co  Co7  1  0.000000  0.500000  0.500000  1
  B  B8  1  0.607017  0.892983  0.000000  1
  B  B9  1  0.392983  0.107017  0.000000  1
  B  B10  1  0.107017  0.607017  0.000000  1
  B  B11  1  0.892983  0.392983  0.000000  1
  Ru  Ru12  1  0.566170  0.725086  0.500000  1
  Ru  Ru13  1  0.433830  0.274914  0.500000  1
  Ru  Ru14  1  0.066170  0.774914  0.500000  1
  Ru  Ru15  1  0.933830  0.225086  0.500000  1
  Ru  Ru16  1  0.274914  0.566170  0.500000  1
  Ru  Ru17  1  0.725086  0.433830  0.500000  1
  Ru  Ru18  1  0.225086  0.066170  0.500000  1
  Ru  Ru19  1  0.774914  0.933830  0.500000  1
