# generated using pymatgen
data_CaNb10O18
_symmetry_space_group_name_H-M   'P 1'
_cell_length_a   7.88511057
_cell_length_b   9.36558900
_cell_length_c   10.34726700
_cell_angle_alpha   90.00000000
_cell_angle_beta   110.36712390
_cell_angle_gamma   90.00000000
_symmetry_Int_Tables_number   1
_chemical_formula_structural   CaNb10O18
_chemical_formula_sum   'Ca2 Nb20 O36'
_cell_volume   716.36012639
_cell_formula_units_Z   2
loop_
 _symmetry_equiv_pos_site_id
 _symmetry_equiv_pos_as_xyz
  1  'x, y, z'
loop_
 _atom_site_type_symbol
 _atom_site_label
 _atom_site_symmetry_multiplicity
 _atom_site_fract_x
 _atom_site_fract_y
 _atom_site_fract_z
 _atom_site_occupancy
  Ca  Ca0  1  0.000000  0.000000  0.000000  1
  Ca  Ca1  1  0.000000  0.500001  0.500000  1
  Nb  Nb2  1  0.804314  0.626297  0.021125  1
  Nb  Nb3  1  0.593029  0.123306  0.060502  1
  Nb  Nb4  1  0.182939  0.631481  0.122858  1
  Nb  Nb5  1  0.001728  0.383368  0.166606  1
  Nb  Nb6  1  0.596775  0.616314  0.231635  1
  Nb  Nb7  1  0.403225  0.116314  0.268366  1
  Nb  Nb8  1  0.998274  0.883368  0.333395  1
  Nb  Nb9  1  0.817062  0.131481  0.377142  1
  Nb  Nb10  1  0.406971  0.623307  0.439498  1
  Nb  Nb11  1  0.195687  0.126297  0.478874  1
  Nb  Nb12  1  0.804313  0.873704  0.521125  1
  Nb  Nb13  1  0.593029  0.376693  0.560502  1
  Nb  Nb14  1  0.182939  0.868519  0.622857  1
  Nb  Nb15  1  0.001727  0.116632  0.666606  1
  Nb  Nb16  1  0.596775  0.883686  0.731635  1
  Nb  Nb17  1  0.403226  0.383686  0.768366  1
  Nb  Nb18  1  0.998272  0.616631  0.833393  1
  Nb  Nb19  1  0.817061  0.368519  0.877142  1
  Nb  Nb20  1  0.406972  0.876693  0.939499  1
  Nb  Nb21  1  0.195687  0.373704  0.978874  1
  O  O22  1  0.808635  0.241485  0.039891  1
  O  O23  1  0.585239  0.747081  0.068007  1
  O  O24  1  0.379302  0.001997  0.098706  1
  O  O25  1  0.399560  0.501074  0.105410  1
  O  O26  1  0.195879  0.240643  0.141871  1
  O  O27  1  0.992845  0.772236  0.144388  1
  O  O28  1  0.798566  0.010552  0.195968  1
  O  O29  1  0.806281  0.510570  0.200106  1
  O  O30  1  0.588510  0.243982  0.228973  1
  O  O31  1  0.411492  0.743983  0.271028  1
  O  O32  1  0.193719  0.010570  0.299893  1
  O  O33  1  0.201434  0.510552  0.304032  1
  O  O34  1  0.007154  0.272236  0.355612  1
  O  O35  1  0.804121  0.740644  0.358129  1
  O  O36  1  0.600441  0.001073  0.394590  1
  O  O37  1  0.620696  0.501996  0.401293  1
  O  O38  1  0.414760  0.247081  0.431993  1
  O  O39  1  0.191366  0.741486  0.460108  1
  O  O40  1  0.808634  0.258516  0.539892  1
  O  O41  1  0.585238  0.752919  0.568006  1
  O  O42  1  0.379303  0.498004  0.598707  1
  O  O43  1  0.399559  0.998927  0.605410  1
  O  O44  1  0.195879  0.259355  0.641869  1
  O  O45  1  0.992845  0.727764  0.644387  1
  O  O46  1  0.798565  0.489448  0.695969  1
  O  O47  1  0.806282  0.989430  0.700107  1
  O  O48  1  0.588510  0.256017  0.728973  1
  O  O49  1  0.411491  0.756018  0.771028  1
  O  O50  1  0.193718  0.489430  0.799893  1
  O  O51  1  0.201433  0.989448  0.804032  1
  O  O52  1  0.007155  0.227764  0.855612  1
  O  O53  1  0.804121  0.759356  0.858130  1
  O  O54  1  0.600441  0.498926  0.894591  1
  O  O55  1  0.620697  0.998004  0.901293  1
  O  O56  1  0.414762  0.252919  0.931993  1
  O  O57  1  0.191366  0.758515  0.960108  1
