# generated using pymatgen
data_Dy3Tm3NiI10
_symmetry_space_group_name_H-M   'P 1'
_cell_length_a   7.64025026
_cell_length_b   9.61238776
_cell_length_c   9.64448257
_cell_angle_alpha   107.07685756
_cell_angle_beta   96.87163894
_cell_angle_gamma   104.57116176
_symmetry_Int_Tables_number   1
_chemical_formula_structural   Dy3Tm3NiI10
_chemical_formula_sum   'Dy3 Tm3 Ni1 I10'
_cell_volume   640.79907328
_cell_formula_units_Z   1
loop_
 _symmetry_equiv_pos_site_id
 _symmetry_equiv_pos_as_xyz
  1  'x, y, z'
loop_
 _atom_site_type_symbol
 _atom_site_label
 _atom_site_symmetry_multiplicity
 _atom_site_fract_x
 _atom_site_fract_y
 _atom_site_fract_z
 _atom_site_occupancy
  Dy  Dy0  1  0.031434  0.719951  0.916528  1
  Dy  Dy1  1  0.887518  0.959808  0.236370  1
  Dy  Dy2  1  0.112683  0.040868  0.763948  1
  Tm  Tm3  1  0.336255  0.119725  0.159330  1
  Tm  Tm4  1  0.663936  0.881493  0.841002  1
  Tm  Tm5  1  0.969558  0.276129  0.082685  1
  Ni  Ni6  1  0.999905  0.000164  0.000003  1
  I  I7  1  0.350125  0.449626  0.271769  1
  I  I8  1  0.646180  0.550469  0.726990  1
  I  I9  1  0.771807  0.257336  0.342689  1
  I  I10  1  0.229745  0.744085  0.655686  1
  I  I11  1  0.547046  0.185316  0.907875  1
  I  I12  1  0.454402  0.815936  0.093195  1
  I  I13  1  0.739396  0.912073  0.537814  1
  I  I14  1  0.260707  0.088635  0.462256  1
  I  I15  1  0.914618  0.625056  0.181026  1
  I  I16  1  0.084685  0.373330  0.820836  1
