# generated using pymatgen
data_Sc4Zn2TcAg
_symmetry_space_group_name_H-M   'P 1'
_cell_length_a   6.75371200
_cell_length_b   6.63563100
_cell_length_c   6.75314700
_cell_angle_alpha   90.00000000
_cell_angle_beta   90.00018664
_cell_angle_gamma   90.00000000
_symmetry_Int_Tables_number   1
_chemical_formula_structural   Sc4Zn2TcAg
_chemical_formula_sum   'Sc8 Zn4 Tc2 Ag2'
_cell_volume   302.64323306
_cell_formula_units_Z   2
loop_
 _symmetry_equiv_pos_site_id
 _symmetry_equiv_pos_as_xyz
  1  'x, y, z'
loop_
 _atom_site_type_symbol
 _atom_site_label
 _atom_site_symmetry_multiplicity
 _atom_site_fract_x
 _atom_site_fract_y
 _atom_site_fract_z
 _atom_site_occupancy
  Sc  Sc0  1  0.763592  0.501005  0.263591  1
  Sc  Sc1  1  0.763592  0.998995  0.263591  1
  Sc  Sc2  1  0.236353  0.001008  0.263644  1
  Sc  Sc3  1  0.236353  0.498992  0.263644  1
  Sc  Sc4  1  0.763647  0.501008  0.736356  1
  Sc  Sc5  1  0.763647  0.998992  0.736356  1
  Sc  Sc6  1  0.236408  0.001005  0.736409  1
  Sc  Sc7  1  0.236408  0.498995  0.736409  1
  Zn  Zn8  1  0.997710  0.250000  0.000000  1
  Zn  Zn9  1  0.002290  0.750000  0.000000  1
  Zn  Zn10  1  0.502135  0.250000  0.499981  1
  Zn  Zn11  1  0.497865  0.750000  0.500019  1
  Tc  Tc12  1  0.001376  0.750000  0.500011  1
  Tc  Tc13  1  0.998624  0.250000  0.499989  1
  Ag  Ag14  1  0.502400  0.250000  0.000023  1
  Ag  Ag15  1  0.497601  0.750000  0.999977  1
