# generated using pymatgen
data_ZrTaCo9B6W
_symmetry_space_group_name_H-M   'P 1'
_cell_length_a   5.64950374
_cell_length_b   5.64950483
_cell_length_c   5.64950521
_cell_angle_alpha   95.38808121
_cell_angle_beta   95.38807093
_cell_angle_gamma   95.38807942
_symmetry_Int_Tables_number   1
_chemical_formula_structural   ZrTaCo9B6W
_chemical_formula_sum   'Zr1 Ta1 Co9 B6 W1'
_cell_volume   177.76246178
_cell_formula_units_Z   1
loop_
 _symmetry_equiv_pos_site_id
 _symmetry_equiv_pos_as_xyz
  1  'x, y, z'
loop_
 _atom_site_type_symbol
 _atom_site_label
 _atom_site_symmetry_multiplicity
 _atom_site_fract_x
 _atom_site_fract_y
 _atom_site_fract_z
 _atom_site_occupancy
  Zr  Zr0  1  0.323927  0.323927  0.323927  1
  Ta  Ta1  1  0.685993  0.685993  0.685993  1
  Co  Co2  1  0.996437  0.996437  0.503831  1
  Co  Co3  1  0.503831  0.996437  0.996437  1
  Co  Co4  1  0.996437  0.503831  0.996437  1
  Co  Co5  1  0.700573  0.204854  0.700573  1
  Co  Co6  1  0.700573  0.700573  0.204854  1
  Co  Co7  1  0.204854  0.700573  0.700573  1
  Co  Co8  1  0.295716  0.802131  0.295716  1
  Co  Co9  1  0.295716  0.295716  0.802131  1
  Co  Co10  1  0.802131  0.295716  0.295716  1
  B  B11  1  0.616769  0.386120  0.997593  1
  B  B12  1  0.997593  0.616769  0.386120  1
  B  B13  1  0.386120  0.997593  0.616769  1
  B  B14  1  0.997593  0.386120  0.616769  1
  B  B15  1  0.616769  0.997593  0.386120  1
  B  B16  1  0.386120  0.616769  0.997593  1
  W  W17  1  0.992851  0.992851  0.992851  1
