# generated using pymatgen
data_Ta2TiSi3Ru2W
_symmetry_space_group_name_H-M   'P 1'
_cell_length_a   7.49574539
_cell_length_b   7.49574423
_cell_length_c   7.49574535
_cell_angle_alpha   126.61617504
_cell_angle_beta   124.86998746
_cell_angle_gamma   80.31869510
_symmetry_Int_Tables_number   1
_chemical_formula_structural   Ta2TiSi3Ru2W
_chemical_formula_sum   'Ta4 Ti2 Si6 Ru4 W2'
_cell_volume   267.62440617
_cell_formula_units_Z   2
loop_
 _symmetry_equiv_pos_site_id
 _symmetry_equiv_pos_as_xyz
  1  'x, y, z'
loop_
 _atom_site_type_symbol
 _atom_site_label
 _atom_site_symmetry_multiplicity
 _atom_site_fract_x
 _atom_site_fract_y
 _atom_site_fract_z
 _atom_site_occupancy
  Ta  Ta0  1  0.539566  0.513807  0.474240  1
  Ta  Ta1  1  0.460434  0.934674  0.974240  1
  Ta  Ta2  1  0.744694  0.078460  0.833766  1
  Ta  Ta3  1  0.255306  0.089073  0.333766  1
  Ti  Ti4  1  0.940396  0.904879  0.464484  1
  Ti  Ti5  1  0.059604  0.524089  0.964484  1
  Si  Si6  1  0.721560  0.449662  0.228103  1
  Si  Si7  1  0.278440  0.506542  0.728103  1
  Si  Si8  1  0.683618  0.182600  0.522956  1
  Si  Si9  1  0.316382  0.839338  0.498982  1
  Si  Si10  1  0.159644  0.182600  0.998982  1
  Si  Si11  1  0.840356  0.839338  0.022956  1
  Ru  Ru12  1  0.907465  0.248732  0.412036  1
  Ru  Ru13  1  0.092535  0.504570  0.341266  1
  Ru  Ru14  1  0.336696  0.248732  0.841266  1
  Ru  Ru15  1  0.663304  0.504570  0.912036  1
  W  W16  1  0.500000  0.753067  0.253067  1
  W  W17  1  0.000000  0.753067  0.753067  1
