# generated using pymatgen
data_TbEr3(ReN3)4
_symmetry_space_group_name_H-M   'P 1'
_cell_length_a   7.36267833
_cell_length_b   7.36267765
_cell_length_c   6.27781022
_cell_angle_alpha   72.61111162
_cell_angle_beta   72.61110497
_cell_angle_gamma   81.89519976
_symmetry_Int_Tables_number   1
_chemical_formula_structural   TbEr3(ReN3)4
_chemical_formula_sum   'Tb1 Er3 Re4 N12'
_cell_volume   309.41968915
_cell_formula_units_Z   1
loop_
 _symmetry_equiv_pos_site_id
 _symmetry_equiv_pos_as_xyz
  1  'x, y, z'
loop_
 _atom_site_type_symbol
 _atom_site_label
 _atom_site_symmetry_multiplicity
 _atom_site_fract_x
 _atom_site_fract_y
 _atom_site_fract_z
 _atom_site_occupancy
  Tb  Tb0  1  0.711634  0.288366  0.250000  1
  Er  Er1  1  0.908367  0.091633  0.750000  1
  Er  Er2  1  0.286978  0.713022  0.750000  1
  Er  Er3  1  0.093378  0.906622  0.250000  1
  Re  Re4  1  0.621608  0.794850  0.278902  1
  Re  Re5  1  0.205150  0.378392  0.221098  1
  Re  Re6  1  0.377238  0.204674  0.722314  1
  Re  Re7  1  0.795326  0.622762  0.777686  1
  N  N8  1  0.334078  0.366473  0.917055  1
  N  N9  1  0.007888  0.216216  0.339975  1
  N  N10  1  0.783784  0.992112  0.160025  1
  N  N11  1  0.218169  0.004325  0.840200  1
  N  N12  1  0.663837  0.636715  0.079468  1
  N  N13  1  0.874051  0.372895  0.833792  1
  N  N14  1  0.127506  0.628581  0.159601  1
  N  N15  1  0.995675  0.781831  0.659800  1
  N  N16  1  0.371419  0.872494  0.340399  1
  N  N17  1  0.633527  0.665922  0.582945  1
  N  N18  1  0.627105  0.125949  0.666208  1
  N  N19  1  0.363285  0.336163  0.420532  1
