# generated using pymatgen
data_Sm8Si12Rh3Au
_symmetry_space_group_name_H-M   'P 1'
_cell_length_a   8.22441300
_cell_length_b   8.22441224
_cell_length_c   8.34459200
_cell_angle_alpha   90.00000000
_cell_angle_beta   90.00000000
_cell_angle_gamma   119.99999904
_symmetry_Int_Tables_number   1
_chemical_formula_structural   Sm8Si12Rh3Au
_chemical_formula_sum   'Sm8 Si12 Rh3 Au1'
_cell_volume   488.81612588
_cell_formula_units_Z   1
loop_
 _symmetry_equiv_pos_site_id
 _symmetry_equiv_pos_as_xyz
  1  'x, y, z'
loop_
 _atom_site_type_symbol
 _atom_site_label
 _atom_site_symmetry_multiplicity
 _atom_site_fract_x
 _atom_site_fract_y
 _atom_site_fract_z
 _atom_site_occupancy
  Sm  Sm0  1  0.000000  0.000000  0.748685  1
  Sm  Sm1  1  0.000000  0.000000  0.252121  1
  Sm  Sm2  1  0.495979  0.504021  0.744858  1
  Sm  Sm3  1  0.495979  0.991960  0.744858  1
  Sm  Sm4  1  0.008040  0.504021  0.744858  1
  Sm  Sm5  1  0.499163  0.500837  0.255040  1
  Sm  Sm6  1  0.001674  0.500837  0.255040  1
  Sm  Sm7  1  0.499163  0.998326  0.255040  1
  Si  Si8  1  0.838867  0.161133  0.001175  1
  Si  Si9  1  0.838867  0.677734  0.001175  1
  Si  Si10  1  0.322266  0.161133  0.001175  1
  Si  Si11  1  0.832567  0.167433  0.499187  1
  Si  Si12  1  0.832567  0.665136  0.499187  1
  Si  Si13  1  0.334864  0.167433  0.499187  1
  Si  Si14  1  0.166360  0.833640  0.500915  1
  Si  Si15  1  0.667280  0.833640  0.500915  1
  Si  Si16  1  0.166360  0.332720  0.500915  1
  Si  Si17  1  0.168673  0.831327  0.999015  1
  Si  Si18  1  0.662654  0.831327  0.999015  1
  Si  Si19  1  0.168673  0.337346  0.999015  1
  Rh  Rh20  1  0.666667  0.333333  0.506375  1
  Rh  Rh21  1  0.333333  0.666667  0.493045  1
  Rh  Rh22  1  0.333333  0.666667  0.006207  1
  Au  Au23  1  0.666667  0.333333  0.992998  1
