# generated using pymatgen
data_Sr4HfFe2WO12
_symmetry_space_group_name_H-M   'P 1'
_cell_length_a   5.66455716
_cell_length_b   5.70180024
_cell_length_c   9.85458597
_cell_angle_alpha   89.58458238
_cell_angle_beta   106.64919034
_cell_angle_gamma   119.78449269
_symmetry_Int_Tables_number   1
_chemical_formula_structural   Sr4HfFe2WO12
_chemical_formula_sum   'Sr4 Hf1 Fe2 W1 O12'
_cell_volume   261.14376456
_cell_formula_units_Z   1
loop_
 _symmetry_equiv_pos_site_id
 _symmetry_equiv_pos_as_xyz
  1  'x, y, z'
loop_
 _atom_site_type_symbol
 _atom_site_label
 _atom_site_symmetry_multiplicity
 _atom_site_fract_x
 _atom_site_fract_y
 _atom_site_fract_z
 _atom_site_occupancy
  Sr  Sr0  1  0.750298  0.625587  0.379609  1
  Sr  Sr1  1  0.747645  0.123286  0.868516  1
  Sr  Sr2  1  0.252355  0.876714  0.131484  1
  Sr  Sr3  1  0.249702  0.374413  0.620391  1
  Hf  Hf4  1  0.500000  0.000000  0.500000  1
  Fe  Fe5  1  0.000965  0.250941  0.256139  1
  Fe  Fe6  1  0.999035  0.749059  0.743861  1
  W  W7  1  0.500000  0.500000  0.000000  1
  O  O8  1  0.744832  0.862558  0.119384  1
  O  O9  1  0.747974  0.378302  0.631361  1
  O  O10  1  0.252026  0.621698  0.368639  1
  O  O11  1  0.255168  0.137442  0.880616  1
  O  O12  1  0.200640  0.099400  0.389343  1
  O  O13  1  0.221866  0.606383  0.902856  1
  O  O14  1  0.799360  0.900600  0.610657  1
  O  O15  1  0.778134  0.393617  0.097144  1
  O  O16  1  0.703636  0.641510  0.861071  1
  O  O17  1  0.710440  0.150641  0.350478  1
  O  O18  1  0.289560  0.849359  0.649522  1
  O  O19  1  0.296364  0.358490  0.138929  1
