# generated using pymatgen
data_Pr3Cu4(SiSn)2
_symmetry_space_group_name_H-M   'P 1'
_cell_length_a   8.39879843
_cell_length_b   8.39879941
_cell_length_c   8.39879780
_cell_angle_alpha   148.97229255
_cell_angle_beta   132.47426718
_cell_angle_gamma   57.84732115
_symmetry_Int_Tables_number   1
_chemical_formula_structural   Pr3Cu4(SiSn)2
_chemical_formula_sum   'Pr3 Cu4 Si2 Sn2'
_cell_volume   223.55368907
_cell_formula_units_Z   1
loop_
 _symmetry_equiv_pos_site_id
 _symmetry_equiv_pos_as_xyz
  1  'x, y, z'
loop_
 _atom_site_type_symbol
 _atom_site_label
 _atom_site_symmetry_multiplicity
 _atom_site_fract_x
 _atom_site_fract_y
 _atom_site_fract_z
 _atom_site_occupancy
  Pr  Pr0  1  0.500000  0.000000  0.500000  1
  Pr  Pr1  1  0.127155  0.127155  0.000000  1
  Pr  Pr2  1  0.872845  0.872845  0.000000  1
  Cu  Cu3  1  0.466518  0.652722  0.813796  1
  Cu  Cu4  1  0.838925  0.652722  0.186204  1
  Cu  Cu5  1  0.161075  0.347278  0.813796  1
  Cu  Cu6  1  0.533482  0.347278  0.186204  1
  Si  Si7  1  0.179729  0.500000  0.679729  1
  Si  Si8  1  0.820271  0.500000  0.320271  1
  Sn  Sn9  1  0.717580  0.217580  0.500000  1
  Sn  Sn10  1  0.282420  0.782420  0.500000  1
