# generated using pymatgen
data_Pr10ZnSi4Pt
_symmetry_space_group_name_H-M   'P 1'
_cell_length_a   7.73950504
_cell_length_b   7.73950542
_cell_length_c   9.28819557
_cell_angle_alpha   114.62208605
_cell_angle_beta   114.62209062
_cell_angle_gamma   90.00000243
_symmetry_Int_Tables_number   1
_chemical_formula_structural   Pr10ZnSi4Pt
_chemical_formula_sum   'Pr10 Zn1 Si4 Pt1'
_cell_volume   449.53140501
_cell_formula_units_Z   1
loop_
 _symmetry_equiv_pos_site_id
 _symmetry_equiv_pos_as_xyz
  1  'x, y, z'
loop_
 _atom_site_type_symbol
 _atom_site_label
 _atom_site_symmetry_multiplicity
 _atom_site_fract_x
 _atom_site_fract_y
 _atom_site_fract_z
 _atom_site_occupancy
  Pr  Pr0  1  0.469925  0.469925  0.939848  1
  Pr  Pr1  1  0.030075  0.030075  0.060152  1
  Pr  Pr2  1  0.949087  0.801240  0.281949  1
  Pr  Pr3  1  0.332863  0.480709  0.281949  1
  Pr  Pr4  1  0.801240  0.332863  0.281949  1
  Pr  Pr5  1  0.480709  0.949087  0.281949  1
  Pr  Pr6  1  0.019291  0.167137  0.718051  1
  Pr  Pr7  1  0.698760  0.550913  0.718051  1
  Pr  Pr8  1  0.167137  0.698760  0.718051  1
  Pr  Pr9  1  0.550913  0.019291  0.718051  1
  Zn  Zn10  1  0.250000  0.250000  0.500000  1
  Si  Si11  1  0.614770  0.885230  0.000000  1
  Si  Si12  1  0.385230  0.114770  0.000000  1
  Si  Si13  1  0.885230  0.385230  0.000000  1
  Si  Si14  1  0.114770  0.614770  0.000000  1
  Pt  Pt15  1  0.750000  0.750000  0.500000  1
