# generated using pymatgen
data_Ba12VFe3O19
_symmetry_space_group_name_H-M   'P 1'
_cell_length_a   7.91678517
_cell_length_b   7.93074081
_cell_length_c   10.56722707
_cell_angle_alpha   89.98843286
_cell_angle_beta   90.13528602
_cell_angle_gamma   96.84871969
_symmetry_Int_Tables_number   1
_chemical_formula_structural   Ba12VFe3O19
_chemical_formula_sum   'Ba12 V1 Fe3 O19'
_cell_volume   658.73753912
_cell_formula_units_Z   1
loop_
 _symmetry_equiv_pos_site_id
 _symmetry_equiv_pos_as_xyz
  1  'x, y, z'
loop_
 _atom_site_type_symbol
 _atom_site_label
 _atom_site_symmetry_multiplicity
 _atom_site_fract_x
 _atom_site_fract_y
 _atom_site_fract_z
 _atom_site_occupancy
  Ba  Ba0  1  0.747002  0.267093  0.486012  1
  Ba  Ba1  1  0.254263  0.722845  0.015362  1
  Ba  Ba2  1  0.748221  0.276462  0.011543  1
  Ba  Ba3  1  0.248590  0.730556  0.488855  1
  Ba  Ba4  1  0.577943  0.580917  0.246747  1
  Ba  Ba5  1  0.063658  0.067746  0.766645  1
  Ba  Ba6  1  0.422758  0.428727  0.754860  1
  Ba  Ba7  1  0.929814  0.929300  0.235690  1
  Ba  Ba8  1  0.747788  0.742566  0.932294  1
  Ba  Ba9  1  0.259848  0.263467  0.422227  1
  Ba  Ba10  1  0.255452  0.253906  0.076566  1
  Ba  Ba11  1  0.741639  0.733748  0.569595  1
  V  V12  1  0.496456  0.997919  0.743357  1
  Fe  Fe13  1  0.504703  0.004643  0.259758  1
  Fe  Fe14  1  0.996330  0.495240  0.740518  1
  Fe  Fe15  1  0.001996  0.500931  0.255070  1
  O  O16  1  0.263731  0.962485  0.296608  1
  O  O17  1  0.756177  0.466281  0.761361  1
  O  O18  1  0.540343  0.245187  0.240427  1
  O  O19  1  0.040060  0.736487  0.702515  1
  O  O20  1  0.922762  0.627222  0.391049  1
  O  O21  1  0.425590  0.099685  0.876161  1
  O  O22  1  0.893767  0.583978  0.110962  1
  O  O23  1  0.383141  0.070311  0.616380  1
  O  O24  1  0.242490  0.539276  0.242141  1
  O  O25  1  0.717098  0.040600  0.721984  1
  O  O26  1  0.964741  0.260773  0.278266  1
  O  O27  1  0.454386  0.778093  0.757306  1
  O  O28  1  0.574844  0.887737  0.114719  1
  O  O29  1  0.064362  0.347195  0.609584  1
  O  O30  1  0.648859  0.940418  0.393454  1
  O  O31  1  0.112431  0.416778  0.884733  1
  O  O32  1  0.498449  0.498037  0.997429  1
  O  O33  1  0.004681  0.999733  0.997612  1
  O  O34  1  0.495628  0.503657  0.502209  1
