# generated using pymatgen
data_Yb6Er2Si12Ni3Pd
_symmetry_space_group_name_H-M   'P 1'
_cell_length_a   8.05411900
_cell_length_b   8.05411768
_cell_length_c   8.07514400
_cell_angle_alpha   90.00000000
_cell_angle_beta   90.00000000
_cell_angle_gamma   119.99999310
_symmetry_Int_Tables_number   1
_chemical_formula_structural   Yb6Er2Si12Ni3Pd
_chemical_formula_sum   'Yb6 Er2 Si12 Ni3 Pd1'
_cell_volume   453.64585847
_cell_formula_units_Z   1
loop_
 _symmetry_equiv_pos_site_id
 _symmetry_equiv_pos_as_xyz
  1  'x, y, z'
loop_
 _atom_site_type_symbol
 _atom_site_label
 _atom_site_symmetry_multiplicity
 _atom_site_fract_x
 _atom_site_fract_y
 _atom_site_fract_z
 _atom_site_occupancy
  Yb  Yb0  1  0.501313  0.002628  0.249439  1
  Yb  Yb1  1  0.501363  0.002725  0.750642  1
  Yb  Yb2  1  0.997372  0.498687  0.249439  1
  Yb  Yb3  1  0.997275  0.498637  0.750642  1
  Yb  Yb4  1  0.501313  0.498687  0.249439  1
  Yb  Yb5  1  0.501363  0.498637  0.750642  1
  Er  Er6  1  0.000000  0.000000  0.248635  1
  Er  Er7  1  0.000000  0.000000  0.751363  1
  Si  Si8  1  0.169366  0.338732  0.999995  1
  Si  Si9  1  0.831143  0.662285  0.000058  1
  Si  Si10  1  0.661268  0.830634  0.999995  1
  Si  Si11  1  0.830540  0.661079  0.500044  1
  Si  Si12  1  0.337715  0.168857  0.000058  1
  Si  Si13  1  0.163182  0.326364  0.499921  1
  Si  Si14  1  0.169366  0.830634  0.999995  1
  Si  Si15  1  0.338921  0.169460  0.500044  1
  Si  Si16  1  0.831143  0.168857  0.000058  1
  Si  Si17  1  0.673636  0.836818  0.499921  1
  Si  Si18  1  0.830540  0.169460  0.500044  1
  Si  Si19  1  0.163182  0.836818  0.499921  1
  Ni  Ni20  1  0.333333  0.666667  0.999495  1
  Ni  Ni21  1  0.666667  0.333333  0.999709  1
  Ni  Ni22  1  0.666667  0.333333  0.500089  1
  Pd  Pd23  1  0.333333  0.666667  0.500410  1
