# generated using pymatgen
data_Al6Cd4SeO16
_symmetry_space_group_name_H-M   'P 1'
_cell_length_a   8.04216527
_cell_length_b   8.04216462
_cell_length_c   8.04216478
_cell_angle_alpha   109.71896535
_cell_angle_beta   109.71895761
_cell_angle_gamma   108.97686618
_symmetry_Int_Tables_number   1
_chemical_formula_structural   Al6Cd4SeO16
_chemical_formula_sum   'Al6 Cd4 Se1 O16'
_cell_volume   400.38040122
_cell_formula_units_Z   1
loop_
 _symmetry_equiv_pos_site_id
 _symmetry_equiv_pos_as_xyz
  1  'x, y, z'
loop_
 _atom_site_type_symbol
 _atom_site_label
 _atom_site_symmetry_multiplicity
 _atom_site_fract_x
 _atom_site_fract_y
 _atom_site_fract_z
 _atom_site_occupancy
  Al  Al0  1  0.491323  0.748822  0.244089  1
  Al  Al1  1  0.250000  0.750000  0.500000  1
  Al  Al2  1  0.752767  0.508677  0.257498  1
  Al  Al3  1  0.750000  0.250000  0.500000  1
  Al  Al4  1  0.504732  0.247233  0.755911  1
  Al  Al5  1  0.251178  0.495268  0.742502  1
  Cd  Cd6  1  0.574757  0.005506  0.012985  1
  Cd  Cd7  1  0.994494  0.007479  0.569252  1
  Cd  Cd8  1  0.992521  0.561773  0.987015  1
  Cd  Cd9  1  0.438227  0.425243  0.430748  1
  Se  Se10  1  0.000000  0.000000  0.000000  1
  O  O11  1  0.425806  0.996958  0.718375  1
  O  O12  1  0.705586  0.298866  0.296021  1
  O  O13  1  0.412693  0.708273  0.992743  1
  O  O14  1  0.701134  0.997155  0.406721  1
  O  O15  1  0.003042  0.721416  0.428848  1
  O  O16  1  0.291727  0.284471  0.704422  1
  O  O17  1  0.278584  0.707432  0.281625  1
  O  O18  1  0.002845  0.409565  0.703979  1
  O  O19  1  0.715529  0.419950  0.007257  1
  O  O20  1  0.590435  0.294414  0.593279  1
  O  O21  1  0.292568  0.574194  0.571152  1
  O  O22  1  0.580050  0.587307  0.295578  1
  O  O23  1  0.896634  0.048003  0.147458  1
  O  O24  1  0.951997  0.099456  0.848631  1
  O  O25  1  0.900544  0.749175  0.852542  1
  O  O26  1  0.250825  0.103366  0.151369  1
