# generated using pymatgen
data_NdLuThGa2
_symmetry_space_group_name_H-M   'P 1'
_cell_length_a   7.74388100
_cell_length_b   7.72646200
_cell_length_c   4.45126400
_cell_angle_alpha   90.00000000
_cell_angle_beta   90.00000000
_cell_angle_gamma   90.00000000
_symmetry_Int_Tables_number   1
_chemical_formula_structural   NdLuThGa2
_chemical_formula_sum   'Nd2 Lu2 Th2 Ga4'
_cell_volume   266.33159880
_cell_formula_units_Z   2
loop_
 _symmetry_equiv_pos_site_id
 _symmetry_equiv_pos_as_xyz
  1  'x, y, z'
loop_
 _atom_site_type_symbol
 _atom_site_label
 _atom_site_symmetry_multiplicity
 _atom_site_fract_x
 _atom_site_fract_y
 _atom_site_fract_z
 _atom_site_occupancy
  Nd  Nd0  1  0.173077  0.325251  0.500000  1
  Nd  Nd1  1  0.326923  0.825251  0.500000  1
  Lu  Lu2  1  0.495900  0.499523  0.000000  1
  Lu  Lu3  1  0.004100  0.999523  0.000000  1
  Th  Th4  1  0.675560  0.173857  0.500000  1
  Th  Th5  1  0.824440  0.673857  0.500000  1
  Ga  Ga6  1  0.624319  0.878743  0.000000  1
  Ga  Ga7  1  0.875681  0.378743  0.000000  1
  Ga  Ga8  1  0.117513  0.622624  0.000000  1
  Ga  Ga9  1  0.382487  0.122624  0.000000  1
