# generated using pymatgen
data_TbCe2Ho(Al8Pt3)3
_symmetry_space_group_name_H-M   'P 1'
_cell_length_a   7.53904685
_cell_length_b   7.55220973
_cell_length_c   13.14488332
_cell_angle_alpha   84.50173683
_cell_angle_beta   78.93997855
_cell_angle_gamma   59.94089849
_symmetry_Int_Tables_number   1
_chemical_formula_structural   TbCe2Ho(Al8Pt3)3
_chemical_formula_sum   'Tb1 Ce2 Ho1 Al24 Pt9'
_cell_volume   635.73595312
_cell_formula_units_Z   1
loop_
 _symmetry_equiv_pos_site_id
 _symmetry_equiv_pos_as_xyz
  1  'x, y, z'
loop_
 _atom_site_type_symbol
 _atom_site_label
 _atom_site_symmetry_multiplicity
 _atom_site_fract_x
 _atom_site_fract_y
 _atom_site_fract_z
 _atom_site_occupancy
  Tb  Tb0  1  0.266462  0.501374  0.192016  1
  Ce  Ce1  1  0.394669  0.167966  0.806926  1
  Ce  Ce2  1  0.605450  0.831937  0.192978  1
  Ho  Ho3  1  0.733738  0.498618  0.807658  1
  Al  Al4  1  0.685338  0.832826  0.944355  1
  Al  Al5  1  0.314591  0.167155  0.055021  1
  Al  Al6  1  0.146055  0.832816  0.561080  1
  Al  Al7  1  0.853862  0.167245  0.438992  1
  Al  Al8  1  0.480295  0.167402  0.558535  1
  Al  Al9  1  0.519647  0.832639  0.441617  1
  Al  Al10  1  0.215753  0.166578  0.331867  1
  Al  Al11  1  0.783888  0.833412  0.668491  1
  Al  Al12  1  0.438041  0.507594  0.669050  1
  Al  Al13  1  0.562085  0.492251  0.331247  1
  Al  Al14  1  0.109093  0.160286  0.667796  1
  Al  Al15  1  0.890760  0.840013  0.332614  1
  Al  Al16  1  0.352888  0.499989  0.944478  1
  Al  Al17  1  0.647609  0.499670  0.054961  1
  Al  Al18  1  0.014523  0.167708  0.953590  1
  Al  Al19  1  0.985618  0.832514  0.046013  1
  Al  Al20  1  0.185859  0.500032  0.441486  1
  Al  Al21  1  0.814134  0.499887  0.558645  1
  Al  Al22  1  0.735326  0.165065  0.183455  1
  Al  Al23  1  0.265021  0.835003  0.816576  1
  Al  Al24  1  0.060526  0.632281  0.815415  1
  Al  Al25  1  0.939511  0.367214  0.184613  1
  Al  Al26  1  0.856882  0.041554  0.816346  1
  Al  Al27  1  0.142579  0.958980  0.183687  1
  Pt  Pt28  1  0.119262  0.493169  0.638538  1
  Pt  Pt29  1  0.880337  0.506905  0.361646  1
  Pt  Pt30  1  0.657307  0.171785  0.000015  1
  Pt  Pt31  1  0.342876  0.828093  0.999921  1
  Pt  Pt32  1  0.537879  0.167365  0.362065  1
  Pt  Pt33  1  0.462277  0.832396  0.638156  1
  Pt  Pt34  1  0.780182  0.174823  0.637416  1
  Pt  Pt35  1  0.219792  0.825425  0.362787  1
  Pt  Pt36  1  0.999886  0.500030  0.999948  1
