# generated using pymatgen
data_Th2SiRuI2
_symmetry_space_group_name_H-M   'P 1'
_cell_length_a   4.31418300
_cell_length_b   4.31418219
_cell_length_c   11.85201500
_cell_angle_alpha   90.00000000
_cell_angle_beta   90.00000000
_cell_angle_gamma   119.99998324
_symmetry_Int_Tables_number   1
_chemical_formula_structural   Th2SiRuI2
_chemical_formula_sum   'Th2 Si1 Ru1 I2'
_cell_volume   191.03807874
_cell_formula_units_Z   1
loop_
 _symmetry_equiv_pos_site_id
 _symmetry_equiv_pos_as_xyz
  1  'x, y, z'
loop_
 _atom_site_type_symbol
 _atom_site_label
 _atom_site_symmetry_multiplicity
 _atom_site_fract_x
 _atom_site_fract_y
 _atom_site_fract_z
 _atom_site_occupancy
  Th  Th0  1  0.000000  0.000000  0.146160  1
  Th  Th1  1  0.000000  0.000000  0.848796  1
  Si  Si2  1  0.666667  0.333333  0.988309  1
  Ru  Ru3  1  0.333333  0.666667  0.011959  1
  I  I4  1  0.333333  0.666667  0.663041  1
  I  I5  1  0.666667  0.333333  0.341736  1
