# generated using pymatgen
data_Ti3Zn2Pd3
_symmetry_space_group_name_H-M   'P 1'
_cell_length_a   3.31176200
_cell_length_b   3.31176200
_cell_length_c   11.33423800
_cell_angle_alpha   90.00000000
_cell_angle_beta   90.00000000
_cell_angle_gamma   90.00000000
_symmetry_Int_Tables_number   1
_chemical_formula_structural   Ti3Zn2Pd3
_chemical_formula_sum   'Ti3 Zn2 Pd3'
_cell_volume   124.31128768
_cell_formula_units_Z   1
loop_
 _symmetry_equiv_pos_site_id
 _symmetry_equiv_pos_as_xyz
  1  'x, y, z'
loop_
 _atom_site_type_symbol
 _atom_site_label
 _atom_site_symmetry_multiplicity
 _atom_site_fract_x
 _atom_site_fract_y
 _atom_site_fract_z
 _atom_site_occupancy
  Ti  Ti0  1  0.499999  0.499999  0.128597  1
  Ti  Ti1  1  0.000000  0.000000  0.507149  1
  Ti  Ti2  1  0.499999  0.499999  0.866619  1
  Zn  Zn3  1  0.000000  0.000000  0.000673  1
  Zn  Zn4  1  0.499999  0.499999  0.374023  1
  Pd  Pd5  1  0.000000  0.000000  0.253349  1
  Pd  Pd6  1  0.499999  0.499999  0.611734  1
  Pd  Pd7  1  0.000000  0.000000  0.757856  1
