# generated using pymatgen
data_Tb2Co9As6Ru
_symmetry_space_group_name_H-M   'P 1'
_cell_length_a   3.81073200
_cell_length_b   10.75639700
_cell_length_c   12.22251700
_cell_angle_alpha   90.00000000
_cell_angle_beta   90.00000000
_cell_angle_gamma   90.00000000
_symmetry_Int_Tables_number   1
_chemical_formula_structural   Tb2Co9As6Ru
_chemical_formula_sum   'Tb4 Co18 As12 Ru2'
_cell_volume   500.99787040
_cell_formula_units_Z   2
loop_
 _symmetry_equiv_pos_site_id
 _symmetry_equiv_pos_as_xyz
  1  'x, y, z'
loop_
 _atom_site_type_symbol
 _atom_site_label
 _atom_site_symmetry_multiplicity
 _atom_site_fract_x
 _atom_site_fract_y
 _atom_site_fract_z
 _atom_site_occupancy
  Tb  Tb0  1  0.250000  0.580695  0.701094  1
  Tb  Tb1  1  0.250000  0.919305  0.201094  1
  Tb  Tb2  1  0.750000  0.415761  0.295984  1
  Tb  Tb3  1  0.750000  0.084239  0.795984  1
  Co  Co4  1  0.750000  0.288519  0.009149  1
  Co  Co5  1  0.750000  0.211481  0.509149  1
  Co  Co6  1  0.250000  0.406410  0.488237  1
  Co  Co7  1  0.250000  0.093590  0.988237  1
  Co  Co8  1  0.750000  0.592891  0.511065  1
  Co  Co9  1  0.750000  0.907109  0.011065  1
  Co  Co10  1  0.250000  0.215579  0.177238  1
  Co  Co11  1  0.250000  0.284421  0.677238  1
  Co  Co12  1  0.750000  0.783035  0.823599  1
  Co  Co13  1  0.750000  0.716965  0.323599  1
  Co  Co14  1  0.250000  0.887092  0.699287  1
  Co  Co15  1  0.250000  0.612908  0.199287  1
  Co  Co16  1  0.750000  0.116799  0.302800  1
  Co  Co17  1  0.750000  0.383201  0.802800  1
  Co  Co18  1  0.250000  0.466691  0.932244  1
  Co  Co19  1  0.250000  0.033309  0.432244  1
  Co  Co20  1  0.750000  0.531940  0.068518  1
  Co  Co21  1  0.750000  0.968060  0.568518  1
  As  As22  1  0.250000  0.414455  0.113100  1
  As  As23  1  0.250000  0.085545  0.613100  1
  As  As24  1  0.750000  0.581706  0.885328  1
  As  As25  1  0.750000  0.918294  0.385328  1
  As  As26  1  0.250000  0.269277  0.869842  1
  As  As27  1  0.250000  0.230723  0.369842  1
  As  As28  1  0.750000  0.730374  0.132517  1
  As  As29  1  0.750000  0.769626  0.632517  1
  As  As30  1  0.250000  0.595591  0.389860  1
  As  As31  1  0.250000  0.904409  0.889860  1
  As  As32  1  0.750000  0.397998  0.608757  1
  As  As33  1  0.750000  0.102002  0.108757  1
  Ru  Ru34  1  0.250000  0.711090  0.991380  1
  Ru  Ru35  1  0.250000  0.788910  0.491380  1
