# generated using pymatgen
data_Hf18Ti2Re6SiAs
_symmetry_space_group_name_H-M   'P 1'
_cell_length_a   8.64516000
_cell_length_b   8.64514436
_cell_length_c   8.59582500
_cell_angle_alpha   90.00000000
_cell_angle_beta   90.00000000
_cell_angle_gamma   120.00038623
_symmetry_Int_Tables_number   1
_chemical_formula_structural   Hf18Ti2Re6SiAs
_chemical_formula_sum   'Hf18 Ti2 Re6 Si1 As1'
_cell_volume   556.36754999
_cell_formula_units_Z   1
loop_
 _symmetry_equiv_pos_site_id
 _symmetry_equiv_pos_as_xyz
  1  'x, y, z'
loop_
 _atom_site_type_symbol
 _atom_site_label
 _atom_site_symmetry_multiplicity
 _atom_site_fract_x
 _atom_site_fract_y
 _atom_site_fract_z
 _atom_site_occupancy
  Hf  Hf0  1  0.194431  0.805568  0.453306  1
  Hf  Hf1  1  0.194434  0.388871  0.453307  1
  Hf  Hf2  1  0.611129  0.805566  0.453307  1
  Hf  Hf3  1  0.804418  0.195582  0.548765  1
  Hf  Hf4  1  0.804414  0.608833  0.548762  1
  Hf  Hf5  1  0.391166  0.195586  0.548763  1
  Hf  Hf6  1  0.804418  0.195582  0.951235  1
  Hf  Hf7  1  0.804414  0.608833  0.951238  1
  Hf  Hf8  1  0.391166  0.195586  0.951237  1
  Hf  Hf9  1  0.194431  0.805568  0.046694  1
  Hf  Hf10  1  0.194434  0.388871  0.046693  1
  Hf  Hf11  1  0.611129  0.805566  0.046693  1
  Hf  Hf12  1  0.541691  0.458308  0.250000  1
  Hf  Hf13  1  0.541686  0.083379  0.250000  1
  Hf  Hf14  1  0.916623  0.458314  0.250000  1
  Hf  Hf15  1  0.460468  0.539531  0.750000  1
  Hf  Hf16  1  0.460466  0.920932  0.750000  1
  Hf  Hf17  1  0.079069  0.539533  0.750000  1
  Ti  Ti18  1  0.999999  0.000001  0.500005  1
  Ti  Ti19  1  0.999999  0.000001  0.999995  1
  Re  Re20  1  0.888159  0.111843  0.250000  1
  Re  Re21  1  0.888165  0.776312  0.250000  1
  Re  Re22  1  0.223688  0.111836  0.250000  1
  Re  Re23  1  0.111614  0.888388  0.750000  1
  Re  Re24  1  0.111619  0.223232  0.750000  1
  Re  Re25  1  0.776767  0.888382  0.750000  1
  Si  Si26  1  0.666667  0.333333  0.750000  1
  As  As27  1  0.333331  0.666668  0.250000  1
