# generated using pymatgen
data_YbSm3Tm4(B6Os)4
_symmetry_space_group_name_H-M   'P 1'
_cell_length_a   3.65308200
_cell_length_b   9.14489034
_cell_length_c   11.55812268
_cell_angle_alpha   90.06192614
_cell_angle_beta   90.00000000
_cell_angle_gamma   90.00000000
_symmetry_Int_Tables_number   1
_chemical_formula_structural   YbSm3Tm4(B6Os)4
_chemical_formula_sum   'Yb1 Sm3 Tm4 B24 Os4'
_cell_volume   386.12237527
_cell_formula_units_Z   1
loop_
 _symmetry_equiv_pos_site_id
 _symmetry_equiv_pos_as_xyz
  1  'x, y, z'
loop_
 _atom_site_type_symbol
 _atom_site_label
 _atom_site_symmetry_multiplicity
 _atom_site_fract_x
 _atom_site_fract_y
 _atom_site_fract_z
 _atom_site_occupancy
  Yb  Yb0  1  0.000000  0.177712  0.914045  1
  Sm  Sm1  1  0.000000  0.321511  0.414681  1
  Sm  Sm2  1  0.000000  0.677852  0.586566  1
  Sm  Sm3  1  0.000000  0.823362  0.084716  1
  Tm  Tm4  1  0.000000  0.944163  0.371934  1
  Tm  Tm5  1  0.000000  0.056911  0.629510  1
  Tm  Tm6  1  0.000000  0.442106  0.126869  1
  Tm  Tm7  1  0.000000  0.555354  0.871949  1
  B  B8  1  0.500000  0.555332  0.431162  1
  B  B9  1  0.500000  0.444981  0.568739  1
  B  B10  1  0.500000  0.055876  0.067419  1
  B  B11  1  0.500000  0.946522  0.931127  1
  B  B12  1  0.500000  0.750017  0.417703  1
  B  B13  1  0.500000  0.250558  0.583177  1
  B  B14  1  0.500000  0.249002  0.080999  1
  B  B15  1  0.500000  0.750942  0.917345  1
  B  B16  1  0.500000  0.790820  0.265952  1
  B  B17  1  0.500000  0.209050  0.735354  1
  B  B18  1  0.500000  0.290355  0.233335  1
  B  B19  1  0.500000  0.708864  0.766495  1
  B  B20  1  0.500000  0.630097  0.184772  1
  B  B21  1  0.500000  0.368577  0.815433  1
  B  B22  1  0.500000  0.130213  0.314798  1
  B  B23  1  0.500000  0.870138  0.686166  1
  B  B24  1  0.500000  0.984408  0.213120  1
  B  B25  1  0.500000  0.017528  0.787561  1
  B  B26  1  0.500000  0.483749  0.285827  1
  B  B27  1  0.500000  0.515367  0.713723  1
  B  B28  1  0.500000  0.601543  0.027705  1
  B  B29  1  0.500000  0.397391  0.971765  1
  B  B30  1  0.500000  0.101977  0.472483  1
  B  B31  1  0.500000  0.898154  0.528238  1
  Os  Os32  1  0.000000  0.638407  0.319570  1
  Os  Os33  1  0.000000  0.361508  0.680031  1
  Os  Os34  1  0.000000  0.138817  0.180268  1
  Os  Os35  1  0.000000  0.860832  0.819461  1
