# generated using pymatgen
data_CaDyMnFeO6
_symmetry_space_group_name_H-M   'P 1'
_cell_length_a   5.33504844
_cell_length_b   5.51888300
_cell_length_c   7.61769320
_cell_angle_alpha   90.00048521
_cell_angle_beta   90.05502281
_cell_angle_gamma   89.99985232
_symmetry_Int_Tables_number   1
_chemical_formula_structural   CaDyMnFeO6
_chemical_formula_sum   'Ca2 Dy2 Mn2 Fe2 O12'
_cell_volume   224.29150805
_cell_formula_units_Z   2
loop_
 _symmetry_equiv_pos_site_id
 _symmetry_equiv_pos_as_xyz
  1  'x, y, z'
loop_
 _atom_site_type_symbol
 _atom_site_label
 _atom_site_symmetry_multiplicity
 _atom_site_fract_x
 _atom_site_fract_y
 _atom_site_fract_z
 _atom_site_occupancy
  Ca  Ca0  1  0.510053  0.549860  0.249630  1
  Ca  Ca1  1  0.010055  0.950140  0.749631  1
  Dy  Dy2  1  0.983680  0.063292  0.249202  1
  Dy  Dy3  1  0.483674  0.436707  0.749202  1
  Mn  Mn4  1  0.999792  0.502826  0.499790  1
  Mn  Mn5  1  0.499796  0.997176  0.999787  1
  Fe  Fe6  1  0.999615  0.506886  0.999651  1
  Fe  Fe7  1  0.499614  0.993106  0.499650  1
  O  O8  1  0.799151  0.806981  0.050228  1
  O  O9  1  0.711843  0.295391  0.454609  1
  O  O10  1  0.202570  0.214892  0.547441  1
  O  O11  1  0.311055  0.701563  0.949288  1
  O  O12  1  0.211843  0.204610  0.954607  1
  O  O13  1  0.299146  0.693017  0.550230  1
  O  O14  1  0.811056  0.798436  0.449290  1
  O  O15  1  0.702571  0.285111  0.047439  1
  O  O16  1  0.398581  0.974108  0.245422  1
  O  O17  1  0.083663  0.469177  0.254743  1
  O  O18  1  0.583665  0.030824  0.754738  1
  O  O19  1  0.898577  0.525892  0.745423  1
