# generated using pymatgen
data_NdTeClO3
_symmetry_space_group_name_H-M   'P 1'
_cell_length_a   7.40428200
_cell_length_b   8.19186487
_cell_length_c   8.26982622
_cell_angle_alpha   73.61014287
_cell_angle_beta   90.00000000
_cell_angle_gamma   90.00000000
_symmetry_Int_Tables_number   1
_chemical_formula_structural   NdTeClO3
_chemical_formula_sum   'Nd4 Te4 Cl4 O12'
_cell_volume   481.22203456
_cell_formula_units_Z   4
loop_
 _symmetry_equiv_pos_site_id
 _symmetry_equiv_pos_as_xyz
  1  'x, y, z'
loop_
 _atom_site_type_symbol
 _atom_site_label
 _atom_site_symmetry_multiplicity
 _atom_site_fract_x
 _atom_site_fract_y
 _atom_site_fract_z
 _atom_site_occupancy
  Nd  Nd0  1  0.756055  0.282227  0.385813  1
  Nd  Nd1  1  0.256055  0.217773  0.614187  1
  Nd  Nd2  1  0.243945  0.717773  0.614187  1
  Nd  Nd3  1  0.743945  0.782227  0.385813  1
  Te  Te4  1  0.199057  0.574652  0.255840  1
  Te  Te5  1  0.699057  0.925348  0.744160  1
  Te  Te6  1  0.800943  0.425348  0.744160  1
  Te  Te7  1  0.300943  0.074652  0.255840  1
  Cl  Cl8  1  0.694290  0.605628  0.129601  1
  Cl  Cl9  1  0.194290  0.894372  0.870399  1
  Cl  Cl10  1  0.305710  0.394372  0.870399  1
  Cl  Cl11  1  0.805710  0.105628  0.129601  1
  O  O12  1  0.312322  0.509055  0.472865  1
  O  O13  1  0.812322  0.990945  0.527135  1
  O  O14  1  0.687678  0.490945  0.527135  1
  O  O15  1  0.187678  0.009055  0.472865  1
  O  O16  1  0.052733  0.730787  0.329391  1
  O  O17  1  0.552733  0.769213  0.670609  1
  O  O18  1  0.947267  0.269213  0.670609  1
  O  O19  1  0.447267  0.230787  0.329391  1
  O  O20  1  0.059778  0.371415  0.313427  1
  O  O21  1  0.559778  0.128585  0.686573  1
  O  O22  1  0.940222  0.628585  0.686573  1
  O  O23  1  0.440222  0.871415  0.313427  1
