# generated using pymatgen
data_UZnP2O9
_symmetry_space_group_name_H-M   'P 1'
_cell_length_a   5.45684183
_cell_length_b   5.45684122
_cell_length_c   12.49373600
_cell_angle_alpha   90.00000000
_cell_angle_beta   90.00000000
_cell_angle_gamma   102.87196259
_symmetry_Int_Tables_number   1
_chemical_formula_structural   UZnP2O9
_chemical_formula_sum   'U2 Zn2 P4 O18'
_cell_volume   362.67853906
_cell_formula_units_Z   2
loop_
 _symmetry_equiv_pos_site_id
 _symmetry_equiv_pos_as_xyz
  1  'x, y, z'
loop_
 _atom_site_type_symbol
 _atom_site_label
 _atom_site_symmetry_multiplicity
 _atom_site_fract_x
 _atom_site_fract_y
 _atom_site_fract_z
 _atom_site_occupancy
  U  U0  1  0.805768  0.194232  0.562574  1
  U  U1  1  0.694232  0.305768  0.062574  1
  Zn  Zn2  1  0.204754  0.795246  0.405048  1
  Zn  Zn3  1  0.295246  0.704754  0.905048  1
  P  P4  1  0.099057  0.900943  0.149709  1
  P  P5  1  0.400943  0.599057  0.649709  1
  P  P6  1  0.895949  0.104051  0.857089  1
  P  P7  1  0.604051  0.395949  0.357089  1
  O  O8  1  0.920841  0.079159  0.111563  1
  O  O9  1  0.579159  0.420841  0.611563  1
  O  O10  1  0.070305  0.929695  0.876211  1
  O  O11  1  0.429695  0.570305  0.376211  1
  O  O12  1  0.489721  0.510279  0.008586  1
  O  O13  1  0.010279  0.989721  0.508586  1
  O  O14  1  0.638182  0.361818  0.234590  1
  O  O15  1  0.861818  0.138182  0.734590  1
  O  O16  1  0.866689  0.482529  0.414638  1
  O  O17  1  0.633311  0.017471  0.914638  1
  O  O18  1  0.505853  0.857994  0.598075  1
  O  O19  1  0.994147  0.642006  0.098075  1
  O  O20  1  0.142006  0.494147  0.598075  1
  O  O21  1  0.357994  0.005853  0.098075  1
  O  O22  1  0.517471  0.133311  0.414638  1
  O  O23  1  0.982529  0.366689  0.914638  1
  O  O24  1  0.093744  0.906256  0.269203  1
  O  O25  1  0.406256  0.593744  0.769203  1
