# generated using pymatgen
data_YTa5(B2Ru5)2
_symmetry_space_group_name_H-M   'P 1'
_cell_length_a   9.51023922
_cell_length_b   9.51023922
_cell_length_c   3.05466000
_cell_angle_alpha   90.00000000
_cell_angle_beta   90.00000000
_cell_angle_gamma   90.37239578
_symmetry_Int_Tables_number   1
_chemical_formula_structural   YTa5(B2Ru5)2
_chemical_formula_sum   'Y1 Ta5 B4 Ru10'
_cell_volume   276.27181905
_cell_formula_units_Z   1
loop_
 _symmetry_equiv_pos_site_id
 _symmetry_equiv_pos_as_xyz
  1  'x, y, z'
loop_
 _atom_site_type_symbol
 _atom_site_label
 _atom_site_symmetry_multiplicity
 _atom_site_fract_x
 _atom_site_fract_y
 _atom_site_fract_z
 _atom_site_occupancy
  Y  Y0  1  0.824353  0.675647  0.000000  1
  Ta  Ta1  1  0.178778  0.321222  0.000000  1
  Ta  Ta2  1  0.324022  0.823425  0.000000  1
  Ta  Ta3  1  0.676575  0.175978  0.000000  1
  Ta  Ta4  1  0.501383  0.501160  0.000000  1
  Ta  Ta5  1  0.998840  0.998617  0.000000  1
  B  B6  1  0.617730  0.882270  0.000000  1
  B  B7  1  0.376836  0.123164  0.000000  1
  B  B8  1  0.123462  0.619419  0.000000  1
  B  B9  1  0.880581  0.376538  0.000000  1
  Ru  Ru10  1  0.558041  0.724909  0.500000  1
  Ru  Ru11  1  0.427186  0.283431  0.500000  1
  Ru  Ru12  1  0.082354  0.782565  0.500000  1
  Ru  Ru13  1  0.930795  0.215488  0.500000  1
  Ru  Ru14  1  0.284512  0.569205  0.500000  1
  Ru  Ru15  1  0.717435  0.417646  0.500000  1
  Ru  Ru16  1  0.216569  0.072814  0.500000  1
  Ru  Ru17  1  0.775091  0.941959  0.500000  1
  Ru  Ru18  1  0.495625  0.004375  0.500000  1
  Ru  Ru19  1  0.009832  0.490168  0.500000  1
