# generated using pymatgen
data_Hg4IrRu3O14
_symmetry_space_group_name_H-M   'P 1'
_cell_length_a   7.31733197
_cell_length_b   7.31733161
_cell_length_c   7.31733151
_cell_angle_alpha   60.08894742
_cell_angle_beta   60.08894392
_cell_angle_gamma   60.08896076
_symmetry_Int_Tables_number   1
_chemical_formula_structural   Hg4IrRu3O14
_chemical_formula_sum   'Hg4 Ir1 Ru3 O14'
_cell_volume   277.59888148
_cell_formula_units_Z   1
loop_
 _symmetry_equiv_pos_site_id
 _symmetry_equiv_pos_as_xyz
  1  'x, y, z'
loop_
 _atom_site_type_symbol
 _atom_site_label
 _atom_site_symmetry_multiplicity
 _atom_site_fract_x
 _atom_site_fract_y
 _atom_site_fract_z
 _atom_site_occupancy
  Hg  Hg0  1  0.125000  0.125000  0.125000  1
  Hg  Hg1  1  0.625000  0.125000  0.125000  1
  Hg  Hg2  1  0.125000  0.625000  0.125000  1
  Hg  Hg3  1  0.125000  0.125000  0.625000  1
  Ir  Ir4  1  0.625000  0.625000  0.625000  1
  Ru  Ru5  1  0.625000  0.625000  0.125000  1
  Ru  Ru6  1  0.625000  0.125000  0.625000  1
  Ru  Ru7  1  0.125000  0.625000  0.625000  1
  O  O8  1  0.691291  0.310603  0.310603  1
  O  O9  1  0.694698  0.305363  0.694698  1
  O  O10  1  0.001070  0.001070  0.001070  1
  O  O11  1  0.310603  0.691291  0.310603  1
  O  O12  1  0.694698  0.694698  0.305363  1
  O  O13  1  0.944637  0.555302  0.555302  1
  O  O14  1  0.305363  0.694698  0.694698  1
  O  O15  1  0.248930  0.248930  0.248930  1
  O  O16  1  0.939397  0.558709  0.939397  1
  O  O17  1  0.555302  0.944637  0.555302  1
  O  O18  1  0.555302  0.555302  0.944637  1
  O  O19  1  0.939397  0.939397  0.558709  1
  O  O20  1  0.558709  0.939397  0.939397  1
  O  O21  1  0.310603  0.310603  0.691291  1
