# generated using pymatgen
data_Dy6Ho2SnHg3Au8
_symmetry_space_group_name_H-M   'P 1'
_cell_length_a   8.00893378
_cell_length_b   8.00711478
_cell_length_c   7.33179800
_cell_angle_alpha   90.00000000
_cell_angle_beta   90.00000000
_cell_angle_gamma   89.90452639
_symmetry_Int_Tables_number   1
_chemical_formula_structural   Dy6Ho2SnHg3Au8
_chemical_formula_sum   'Dy6 Ho2 Sn1 Hg3 Au8'
_cell_volume   470.17620360
_cell_formula_units_Z   1
loop_
 _symmetry_equiv_pos_site_id
 _symmetry_equiv_pos_as_xyz
  1  'x, y, z'
loop_
 _atom_site_type_symbol
 _atom_site_label
 _atom_site_symmetry_multiplicity
 _atom_site_fract_x
 _atom_site_fract_y
 _atom_site_fract_z
 _atom_site_occupancy
  Dy  Dy0  1  0.840664  0.159495  0.500082  1
  Dy  Dy1  1  0.159336  0.840505  0.500082  1
  Dy  Dy2  1  0.340414  0.340746  0.999948  1
  Dy  Dy3  1  0.659586  0.659254  0.999948  1
  Dy  Dy4  1  0.684536  0.685193  0.499655  1
  Dy  Dy5  1  0.315464  0.314807  0.499655  1
  Ho  Ho6  1  0.185032  0.815688  0.000384  1
  Ho  Ho7  1  0.814968  0.184312  0.000384  1
  Sn  Sn8  1  0.000000  0.500000  0.249854  1
  Hg  Hg9  1  0.500000  0.000000  0.249941  1
  Hg  Hg10  1  0.000000  0.500000  0.750154  1
  Hg  Hg11  1  0.500000  0.000000  0.750050  1
  Au  Au12  1  0.626619  0.372190  0.275577  1
  Au  Au13  1  0.373381  0.627810  0.275577  1
  Au  Au14  1  0.127336  0.126332  0.775975  1
  Au  Au15  1  0.872664  0.873668  0.775975  1
  Au  Au16  1  0.373135  0.627835  0.725037  1
  Au  Au17  1  0.626865  0.372165  0.725037  1
  Au  Au18  1  0.872654  0.873915  0.223343  1
  Au  Au19  1  0.127346  0.126085  0.223343  1
