# generated using pymatgen
data_Yb4CuSi12Pd2Pt17
_symmetry_space_group_name_H-M   'P 1'
_cell_length_a   4.05055800
_cell_length_b   19.57517104
_cell_length_c   7.31483370
_cell_angle_alpha   89.54497567
_cell_angle_beta   90.00000000
_cell_angle_gamma   90.00000000
_symmetry_Int_Tables_number   1
_chemical_formula_structural   Yb4CuSi12Pd2Pt17
_chemical_formula_sum   'Yb4 Cu1 Si12 Pd2 Pt17'
_cell_volume   579.97754901
_cell_formula_units_Z   1
loop_
 _symmetry_equiv_pos_site_id
 _symmetry_equiv_pos_as_xyz
  1  'x, y, z'
loop_
 _atom_site_type_symbol
 _atom_site_label
 _atom_site_symmetry_multiplicity
 _atom_site_fract_x
 _atom_site_fract_y
 _atom_site_fract_z
 _atom_site_occupancy
  Yb  Yb0  1  0.750000  0.642643  0.120706  1
  Yb  Yb1  1  0.250000  0.356200  0.880388  1
  Yb  Yb2  1  0.250000  0.858142  0.624384  1
  Yb  Yb3  1  0.750000  0.143083  0.377229  1
  Cu  Cu4  1  0.750000  0.118297  0.844976  1
  Si  Si5  1  0.750000  0.742325  0.630540  1
  Si  Si6  1  0.250000  0.257867  0.374945  1
  Si  Si7  1  0.250000  0.759470  0.130169  1
  Si  Si8  1  0.750000  0.240118  0.873629  1
  Si  Si9  1  0.750000  0.924193  0.349807  1
  Si  Si10  1  0.250000  0.074710  0.641874  1
  Si  Si11  1  0.250000  0.576957  0.842871  1
  Si  Si12  1  0.750000  0.423431  0.151908  1
  Si  Si13  1  0.750000  0.917186  0.901495  1
  Si  Si14  1  0.250000  0.084777  0.101449  1
  Si  Si15  1  0.250000  0.583614  0.403380  1
  Si  Si16  1  0.750000  0.414198  0.599143  1
  Pd  Pd17  1  0.250000  0.381430  0.345260  1
  Pd  Pd18  1  0.250000  0.882315  0.148709  1
  Pt  Pt19  1  0.750000  0.801523  0.335415  1
  Pt  Pt20  1  0.250000  0.194687  0.671285  1
  Pt  Pt21  1  0.250000  0.700759  0.835833  1
  Pt  Pt22  1  0.750000  0.300536  0.166800  1
  Pt  Pt23  1  0.750000  0.994426  0.623951  1
  Pt  Pt24  1  0.250000  0.006631  0.371066  1
  Pt  Pt25  1  0.250000  0.511214  0.122645  1
  Pt  Pt26  1  0.750000  0.489295  0.875446  1
  Pt  Pt27  1  0.750000  0.513932  0.378558  1
  Pt  Pt28  1  0.250000  0.482746  0.623319  1
  Pt  Pt29  1  0.250000  0.987968  0.876984  1
  Pt  Pt30  1  0.750000  0.017103  0.117906  1
  Pt  Pt31  1  0.750000  0.798164  0.929655  1
  Pt  Pt32  1  0.250000  0.202450  0.072436  1
  Pt  Pt33  1  0.250000  0.702363  0.427486  1
  Pt  Pt34  1  0.750000  0.295877  0.573448  1
  Pt  Pt35  1  0.750000  0.619372  0.654904  1
