# generated using pymatgen
data_Tb4Dy5YPb6
_symmetry_space_group_name_H-M   'P 1'
_cell_length_a   9.08488500
_cell_length_b   9.08495006
_cell_length_c   6.66578900
_cell_angle_alpha   90.00000000
_cell_angle_beta   90.00000000
_cell_angle_gamma   119.99846174
_symmetry_Int_Tables_number   1
_chemical_formula_structural   Tb4Dy5YPb6
_chemical_formula_sum   'Tb4 Dy5 Y1 Pb6'
_cell_volume   476.46489072
_cell_formula_units_Z   1
loop_
 _symmetry_equiv_pos_site_id
 _symmetry_equiv_pos_as_xyz
  1  'x, y, z'
loop_
 _atom_site_type_symbol
 _atom_site_label
 _atom_site_symmetry_multiplicity
 _atom_site_fract_x
 _atom_site_fract_y
 _atom_site_fract_z
 _atom_site_occupancy
  Tb  Tb0  1  0.238008  0.238078  0.750000  1
  Tb  Tb1  1  0.238176  0.000003  0.250000  1
  Tb  Tb2  1  0.761811  0.761917  0.250000  1
  Tb  Tb3  1  0.999894  0.238085  0.250000  1
  Dy  Dy4  1  0.333364  0.666692  0.999987  1
  Dy  Dy5  1  0.666672  0.333311  0.999989  1
  Dy  Dy6  1  0.761895  0.000001  0.750000  1
  Dy  Dy7  1  0.333364  0.666692  0.500013  1
  Dy  Dy8  1  0.666672  0.333311  0.500011  1
  Y  Y9  1  0.999924  0.761917  0.750000  1
  Pb  Pb10  1  0.999885  0.394542  0.750000  1
  Pb  Pb11  1  0.394720  0.394687  0.250000  1
  Pb  Pb12  1  0.605395  0.000001  0.250000  1
  Pb  Pb13  1  0.605352  0.605458  0.750000  1
  Pb  Pb14  1  0.394834  0.999995  0.750000  1
  Pb  Pb15  1  0.000034  0.605312  0.250000  1
