# generated using pymatgen
data_Zr13Mn2Nb(Ir2N)4
_symmetry_space_group_name_H-M   'P 1'
_cell_length_a   8.68023882
_cell_length_b   8.61425447
_cell_length_c   8.68023758
_cell_angle_alpha   60.06884077
_cell_angle_beta   60.23389674
_cell_angle_gamma   60.06884243
_symmetry_Int_Tables_number   1
_chemical_formula_structural   Zr13Mn2Nb(Ir2N)4
_chemical_formula_sum   'Zr13 Mn2 Nb1 Ir8 N4'
_cell_volume   460.23592799
_cell_formula_units_Z   1
loop_
 _symmetry_equiv_pos_site_id
 _symmetry_equiv_pos_as_xyz
  1  'x, y, z'
loop_
 _atom_site_type_symbol
 _atom_site_label
 _atom_site_symmetry_multiplicity
 _atom_site_fract_x
 _atom_site_fract_y
 _atom_site_fract_z
 _atom_site_occupancy
  Zr  Zr0  1  0.625000  0.125000  0.625000  1
  Zr  Zr1  1  0.810617  0.810183  0.186253  1
  Zr  Zr2  1  0.184666  0.192857  0.811538  1
  Zr  Zr3  1  0.814068  0.187364  0.814068  1
  Zr  Zr4  1  0.191626  0.808425  0.191626  1
  Zr  Zr5  1  0.186253  0.810183  0.810617  1
  Zr  Zr6  1  0.811538  0.192857  0.184666  1
  Zr  Zr7  1  0.439383  0.439817  0.063747  1
  Zr  Zr8  1  0.065334  0.057143  0.438462  1
  Zr  Zr9  1  0.435932  0.062636  0.435932  1
  Zr  Zr10  1  0.058374  0.441575  0.058374  1
  Zr  Zr11  1  0.063747  0.439817  0.439383  1
  Zr  Zr12  1  0.438462  0.057143  0.065334  1
  Mn  Mn13  1  0.125000  0.625000  0.625000  1
  Mn  Mn14  1  0.625000  0.625000  0.125000  1
  Nb  Nb15  1  0.625000  0.625000  0.625000  1
  Ir  Ir16  1  0.754658  0.424258  0.405245  1
  Ir  Ir17  1  0.415039  0.747509  0.415039  1
  Ir  Ir18  1  0.405245  0.424258  0.754658  1
  Ir  Ir19  1  0.411456  0.424957  0.411456  1
  Ir  Ir20  1  0.495342  0.825742  0.844755  1
  Ir  Ir21  1  0.834961  0.502491  0.834961  1
  Ir  Ir22  1  0.844755  0.825742  0.495342  1
  Ir  Ir23  1  0.838544  0.825043  0.838544  1
  N  N24  1  0.625000  0.125000  0.125000  1
  N  N25  1  0.125000  0.625000  0.125000  1
  N  N26  1  0.125000  0.125000  0.625000  1
  N  N27  1  0.125000  0.125000  0.125000  1
