# generated using pymatgen
data_Sm3P6Ru7Rh2
_symmetry_space_group_name_H-M   'P 1'
_cell_length_a   4.00788600
_cell_length_b   11.27089900
_cell_length_c   12.61078500
_cell_angle_alpha   90.00000000
_cell_angle_beta   90.00000000
_cell_angle_gamma   90.00000000
_symmetry_Int_Tables_number   1
_chemical_formula_structural   Sm3P6Ru7Rh2
_chemical_formula_sum   'Sm6 P12 Ru14 Rh4'
_cell_volume   569.66041188
_cell_formula_units_Z   2
loop_
 _symmetry_equiv_pos_site_id
 _symmetry_equiv_pos_as_xyz
  1  'x, y, z'
loop_
 _atom_site_type_symbol
 _atom_site_label
 _atom_site_symmetry_multiplicity
 _atom_site_fract_x
 _atom_site_fract_y
 _atom_site_fract_z
 _atom_site_occupancy
  Sm  Sm0  1  0.000000  0.500000  0.523666  1
  Sm  Sm1  1  0.500000  0.000000  0.476838  1
  Sm  Sm2  1  0.500000  0.819494  0.204463  1
  Sm  Sm3  1  0.500000  0.180506  0.204463  1
  Sm  Sm4  1  0.000000  0.681594  0.795211  1
  Sm  Sm5  1  0.000000  0.318406  0.795211  1
  P  P6  1  0.500000  0.500000  0.884995  1
  P  P7  1  0.000000  0.000000  0.114856  1
  P  P8  1  0.500000  0.500000  0.342690  1
  P  P9  1  0.000000  0.000000  0.662085  1
  P  P10  1  0.500000  0.299273  0.615751  1
  P  P11  1  0.500000  0.700727  0.615751  1
  P  P12  1  0.000000  0.198162  0.384891  1
  P  P13  1  0.000000  0.801838  0.384891  1
  P  P14  1  0.500000  0.845040  0.896762  1
  P  P15  1  0.500000  0.154960  0.896762  1
  P  P16  1  0.000000  0.655974  0.101043  1
  P  P17  1  0.000000  0.344026  0.101043  1
  Ru  Ru18  1  0.500000  0.500000  0.158853  1
  Ru  Ru19  1  0.000000  0.000000  0.844143  1
  Ru  Ru20  1  0.000000  0.500000  0.987950  1
  Ru  Ru21  1  0.500000  0.000000  0.012654  1
  Ru  Ru22  1  0.500000  0.332083  0.991923  1
  Ru  Ru23  1  0.500000  0.667917  0.991923  1
  Ru  Ru24  1  0.000000  0.167827  0.008732  1
  Ru  Ru25  1  0.000000  0.832173  0.008732  1
  Ru  Ru26  1  0.500000  0.299975  0.428193  1
  Ru  Ru27  1  0.500000  0.700025  0.428193  1
  Ru  Ru28  1  0.000000  0.199050  0.569909  1
  Ru  Ru29  1  0.000000  0.800950  0.569909  1
  Ru  Ru30  1  0.500000  0.878355  0.714775  1
  Ru  Ru31  1  0.500000  0.121645  0.714775  1
  Rh  Rh32  1  0.500000  0.500000  0.694116  1
  Rh  Rh33  1  0.000000  0.000000  0.305655  1
  Rh  Rh34  1  0.000000  0.623005  0.284097  1
  Rh  Rh35  1  0.000000  0.376995  0.284097  1
