# generated using pymatgen
data_Yb4Mg2InAu10
_symmetry_space_group_name_H-M   'P 1'
_cell_length_a   8.60919186
_cell_length_b   8.60919226
_cell_length_c   10.18135600
_cell_angle_alpha   90.31590333
_cell_angle_beta   89.68409665
_cell_angle_gamma   108.52344365
_symmetry_Int_Tables_number   1
_chemical_formula_structural   Yb4Mg2InAu10
_chemical_formula_sum   'Yb8 Mg4 In2 Au20'
_cell_volume   715.51292398
_cell_formula_units_Z   2
loop_
 _symmetry_equiv_pos_site_id
 _symmetry_equiv_pos_as_xyz
  1  'x, y, z'
loop_
 _atom_site_type_symbol
 _atom_site_label
 _atom_site_symmetry_multiplicity
 _atom_site_fract_x
 _atom_site_fract_y
 _atom_site_fract_z
 _atom_site_occupancy
  Yb  Yb0  1  0.700094  0.305845  0.999576  1
  Yb  Yb1  1  0.299906  0.694155  0.000424  1
  Yb  Yb2  1  0.805845  0.200094  0.500424  1
  Yb  Yb3  1  0.194155  0.799906  0.499576  1
  Yb  Yb4  1  0.302495  0.304407  0.199237  1
  Yb  Yb5  1  0.697505  0.695593  0.800763  1
  Yb  Yb6  1  0.195593  0.197505  0.699237  1
  Yb  Yb7  1  0.804407  0.802495  0.300763  1
  Mg  Mg8  1  0.485122  0.985122  0.750000  1
  Mg  Mg9  1  0.514878  0.014878  0.250000  1
  Mg  Mg10  1  0.000000  0.000000  0.000000  1
  Mg  Mg11  1  0.500000  0.500000  0.500000  1
  In  In12  1  0.016140  0.516140  0.250000  1
  In  In13  1  0.983860  0.483860  0.750000  1
  Au  Au14  1  0.099758  0.097204  0.401614  1
  Au  Au15  1  0.900242  0.902796  0.598386  1
  Au  Au16  1  0.402796  0.400242  0.901614  1
  Au  Au17  1  0.597204  0.599758  0.098386  1
  Au  Au18  1  0.870188  0.157170  0.206789  1
  Au  Au19  1  0.129812  0.842830  0.793211  1
  Au  Au20  1  0.617961  0.334626  0.705812  1
  Au  Au21  1  0.657170  0.370188  0.293211  1
  Au  Au22  1  0.382039  0.665374  0.294188  1
  Au  Au23  1  0.342830  0.629812  0.706789  1
  Au  Au24  1  0.834626  0.117961  0.794188  1
  Au  Au25  1  0.165374  0.882039  0.205812  1
  Au  Au26  1  0.933480  0.658047  0.013604  1
  Au  Au27  1  0.066520  0.341953  0.986396  1
  Au  Au28  1  0.563436  0.852083  0.513366  1
  Au  Au29  1  0.158047  0.433480  0.486396  1
  Au  Au30  1  0.436564  0.147917  0.486634  1
  Au  Au31  1  0.841953  0.566520  0.513604  1
  Au  Au32  1  0.352083  0.063436  0.986634  1
  Au  Au33  1  0.647917  0.936564  0.013366  1
