# generated using pymatgen
data_Co3Si7Ni2(Mo6C)2
_symmetry_space_group_name_H-M   'P 1'
_cell_length_a   7.73186230
_cell_length_b   7.73186243
_cell_length_c   7.73762873
_cell_angle_alpha   60.31394639
_cell_angle_beta   60.31394511
_cell_angle_gamma   60.36866074
_symmetry_Int_Tables_number   1
_chemical_formula_structural   Co3Si7Ni2(Mo6C)2
_chemical_formula_sum   'Co3 Si7 Ni2 Mo12 C2'
_cell_volume   329.54338369
_cell_formula_units_Z   1
loop_
 _symmetry_equiv_pos_site_id
 _symmetry_equiv_pos_as_xyz
  1  'x, y, z'
loop_
 _atom_site_type_symbol
 _atom_site_label
 _atom_site_symmetry_multiplicity
 _atom_site_fract_x
 _atom_site_fract_y
 _atom_site_fract_z
 _atom_site_occupancy
  Co  Co0  1  0.617662  0.142165  0.616555  1
  Co  Co1  1  0.142165  0.617662  0.616555  1
  Co  Co2  1  0.627615  0.627615  0.627937  1
  Si  Si3  1  0.415486  0.415486  0.756617  1
  Si  Si4  1  0.414203  0.758392  0.417322  1
  Si  Si5  1  0.758392  0.414203  0.417322  1
  Si  Si6  1  0.411931  0.411931  0.415214  1
  Si  Si7  1  0.838297  0.838297  0.500247  1
  Si  Si8  1  0.840037  0.499917  0.835182  1
  Si  Si9  1  0.499917  0.840037  0.835182  1
  Ni  Ni10  1  0.828617  0.828617  0.828799  1
  Ni  Ni11  1  0.617536  0.617536  0.140515  1
  Mo  Mo12  1  0.054853  0.054853  0.448350  1
  Mo  Mo13  1  0.443043  0.056465  0.443552  1
  Mo  Mo14  1  0.056465  0.443043  0.443552  1
  Mo  Mo15  1  0.442962  0.442962  0.056890  1
  Mo  Mo16  1  0.055999  0.447035  0.055335  1
  Mo  Mo17  1  0.447035  0.055999  0.055335  1
  Mo  Mo18  1  0.189761  0.189761  0.808048  1
  Mo  Mo19  1  0.806432  0.187898  0.806687  1
  Mo  Mo20  1  0.187898  0.806432  0.806687  1
  Mo  Mo21  1  0.806394  0.806394  0.189472  1
  Mo  Mo22  1  0.190146  0.808871  0.189297  1
  Mo  Mo23  1  0.808871  0.190146  0.189297  1
  C  C24  1  0.250318  0.250318  0.251988  1
  C  C25  1  0.997966  0.997966  0.998063  1
