# generated using pymatgen
data_TmZr7(Ti2Sn5)2
_symmetry_space_group_name_H-M   'P 1'
_cell_length_a   10.75319531
_cell_length_b   10.77224042
_cell_length_c   10.77224000
_cell_angle_alpha   149.17121258
_cell_angle_beta   131.19676799
_cell_angle_gamma   58.86212591
_symmetry_Int_Tables_number   1
_chemical_formula_structural   TmZr7(Ti2Sn5)2
_chemical_formula_sum   'Tm1 Zr7 Ti4 Sn10'
_cell_volume   477.35398362
_cell_formula_units_Z   1
loop_
 _symmetry_equiv_pos_site_id
 _symmetry_equiv_pos_as_xyz
  1  'x, y, z'
loop_
 _atom_site_type_symbol
 _atom_site_label
 _atom_site_symmetry_multiplicity
 _atom_site_fract_x
 _atom_site_fract_y
 _atom_site_fract_z
 _atom_site_occupancy
  Tm  Tm0  1  0.959254  0.354916  0.604337  1
  Zr  Zr1  1  0.673408  0.437125  0.236283  1
  Zr  Zr2  1  0.326249  0.563117  0.763133  1
  Zr  Zr3  1  0.200424  0.937736  0.262689  1
  Zr  Zr4  1  0.800383  0.063103  0.737280  1
  Zr  Zr5  1  0.248476  0.144392  0.104085  1
  Zr  Zr6  1  0.749401  0.855237  0.894164  1
  Zr  Zr7  1  0.039322  0.644706  0.394616  1
  Ti  Ti8  1  0.306719  0.554571  0.250636  1
  Ti  Ti9  1  0.693973  0.446285  0.752102  1
  Ti  Ti10  1  0.693973  0.941871  0.247688  1
  Ti  Ti11  1  0.306719  0.056083  0.752147  1
  Sn  Sn12  1  0.577720  0.285231  0.292489  1
  Sn  Sn13  1  0.419691  0.714056  0.705635  1
  Sn  Sn14  1  0.993556  0.785662  0.207894  1
  Sn  Sn15  1  0.008489  0.213390  0.795100  1
  Sn  Sn16  1  0.000314  0.250661  0.248875  1
  Sn  Sn17  1  0.000314  0.751439  0.749653  1
  Sn  Sn18  1  0.474555  0.074740  0.399813  1
  Sn  Sn19  1  0.526091  0.925852  0.600241  1
  Sn  Sn20  1  0.674434  0.574067  0.100367  1
  Sn  Sn21  1  0.326534  0.425758  0.900775  1
