# generated using pymatgen
data_NdZr3Sc4(P3Ir4)4
_symmetry_space_group_name_H-M   'P 1'
_cell_length_a   12.84156400
_cell_length_b   12.84156257
_cell_length_c   3.93423100
_cell_angle_alpha   90.00000000
_cell_angle_beta   90.00000000
_cell_angle_gamma   120.00000368
_symmetry_Int_Tables_number   1
_chemical_formula_structural   NdZr3Sc4(P3Ir4)4
_chemical_formula_sum   'Nd1 Zr3 Sc4 P12 Ir16'
_cell_volume   561.85760621
_cell_formula_units_Z   1
loop_
 _symmetry_equiv_pos_site_id
 _symmetry_equiv_pos_as_xyz
  1  'x, y, z'
loop_
 _atom_site_type_symbol
 _atom_site_label
 _atom_site_symmetry_multiplicity
 _atom_site_fract_x
 _atom_site_fract_y
 _atom_site_fract_z
 _atom_site_occupancy
  Nd  Nd0  1  0.333333  0.666667  0.000000  1
  Zr  Zr1  1  0.450185  0.003279  0.000000  1
  Zr  Zr2  1  0.996721  0.446905  0.000000  1
  Zr  Zr3  1  0.553095  0.549815  0.000000  1
  Sc  Sc4  1  0.666667  0.333333  0.000000  1
  Sc  Sc5  1  0.813839  0.998394  0.500000  1
  Sc  Sc6  1  0.001606  0.815445  0.500000  1
  Sc  Sc7  1  0.184555  0.186161  0.500000  1
  P  P8  1  0.174515  0.002642  0.000000  1
  P  P9  1  0.997358  0.171873  0.000000  1
  P  P10  1  0.828127  0.825485  0.000000  1
  P  P11  1  0.166233  0.479252  0.500000  1
  P  P12  1  0.520748  0.686980  0.500000  1
  P  P13  1  0.313020  0.833767  0.500000  1
  P  P14  1  0.688898  0.516301  0.500000  1
  P  P15  1  0.827402  0.311102  0.500000  1
  P  P16  1  0.483699  0.172598  0.500000  1
  P  P17  1  0.650334  0.997610  0.000000  1
  P  P18  1  0.002390  0.652724  0.000000  1
  P  P19  1  0.347276  0.349666  0.000000  1
  Ir  Ir20  1  0.356887  0.487545  0.500000  1
  Ir  Ir21  1  0.512455  0.869342  0.500000  1
  Ir  Ir22  1  0.130658  0.643113  0.500000  1
  Ir  Ir23  1  0.860728  0.502786  0.500000  1
  Ir  Ir24  1  0.642058  0.139272  0.500000  1
  Ir  Ir25  1  0.497214  0.357942  0.500000  1
  Ir  Ir26  1  0.175363  0.366532  0.000000  1
  Ir  Ir27  1  0.633468  0.808831  0.000000  1
  Ir  Ir28  1  0.191169  0.824637  0.000000  1
  Ir  Ir29  1  0.812505  0.631839  0.000000  1
  Ir  Ir30  1  0.819335  0.187495  0.000000  1
  Ir  Ir31  1  0.368161  0.180665  0.000000  1
  Ir  Ir32  1  0.275447  0.002227  0.500000  1
  Ir  Ir33  1  0.997773  0.273220  0.500000  1
  Ir  Ir34  1  0.726780  0.724553  0.500000  1
  Ir  Ir35  1  0.000000  0.000000  0.000000  1
