# generated using pymatgen
data_HoErMoOs3
_symmetry_space_group_name_H-M   'P 1'
_cell_length_a   5.46085600
_cell_length_b   5.46085648
_cell_length_c   8.56143900
_cell_angle_alpha   90.00000000
_cell_angle_beta   90.00000000
_cell_angle_gamma   120.00000920
_symmetry_Int_Tables_number   1
_chemical_formula_structural   HoErMoOs3
_chemical_formula_sum   'Ho2 Er2 Mo2 Os6'
_cell_volume   221.10514345
_cell_formula_units_Z   2
loop_
 _symmetry_equiv_pos_site_id
 _symmetry_equiv_pos_as_xyz
  1  'x, y, z'
loop_
 _atom_site_type_symbol
 _atom_site_label
 _atom_site_symmetry_multiplicity
 _atom_site_fract_x
 _atom_site_fract_y
 _atom_site_fract_z
 _atom_site_occupancy
  Ho  Ho0  1  0.333333  0.666667  0.434816  1
  Ho  Ho1  1  0.666667  0.333333  0.565184  1
  Er  Er2  1  0.666667  0.333333  0.934892  1
  Er  Er3  1  0.333333  0.666667  0.065108  1
  Mo  Mo4  1  0.000000  0.000000  0.500000  1
  Mo  Mo5  1  0.000000  0.000000  0.000000  1
  Os  Os6  1  0.827229  0.172771  0.249890  1
  Os  Os7  1  0.827229  0.654456  0.249890  1
  Os  Os8  1  0.345544  0.172771  0.249890  1
  Os  Os9  1  0.172771  0.827229  0.750110  1
  Os  Os10  1  0.172771  0.345544  0.750110  1
  Os  Os11  1  0.654456  0.827229  0.750110  1
