# generated using pymatgen
data_LaThPt10
_symmetry_space_group_name_H-M   'P 1'
_cell_length_a   4.46883800
_cell_length_b   5.42808200
_cell_length_c   9.36927400
_cell_angle_alpha   90.00000000
_cell_angle_beta   90.00000000
_cell_angle_gamma   90.00000000
_symmetry_Int_Tables_number   1
_chemical_formula_structural   LaThPt10
_chemical_formula_sum   'La1 Th1 Pt10'
_cell_volume   227.27253231
_cell_formula_units_Z   1
loop_
 _symmetry_equiv_pos_site_id
 _symmetry_equiv_pos_as_xyz
  1  'x, y, z'
loop_
 _atom_site_type_symbol
 _atom_site_label
 _atom_site_symmetry_multiplicity
 _atom_site_fract_x
 _atom_site_fract_y
 _atom_site_fract_z
 _atom_site_occupancy
  La  La0  1  0.000000  0.500000  0.500000  1
  Th  Th1  1  0.000000  0.000000  0.000000  1
  Pt  Pt2  1  0.000000  0.000000  0.330290  1
  Pt  Pt3  1  0.000000  0.500000  0.834449  1
  Pt  Pt4  1  0.000000  0.500000  0.165551  1
  Pt  Pt5  1  0.000000  0.000000  0.669710  1
  Pt  Pt6  1  0.500000  0.000000  0.500000  1
  Pt  Pt7  1  0.500000  0.500000  0.000000  1
  Pt  Pt8  1  0.500000  0.247302  0.246822  1
  Pt  Pt9  1  0.500000  0.752698  0.753178  1
  Pt  Pt10  1  0.500000  0.752698  0.246822  1
  Pt  Pt11  1  0.500000  0.247302  0.753178  1
