# generated using pymatgen
data_Th3(Zn2Pt)2
_symmetry_space_group_name_H-M   'P 1'
_cell_length_a   7.42548300
_cell_length_b   7.42548283
_cell_length_c   3.91698300
_cell_angle_alpha   90.00000000
_cell_angle_beta   90.00000000
_cell_angle_gamma   119.99999632
_symmetry_Int_Tables_number   1
_chemical_formula_structural   Th3(Zn2Pt)2
_chemical_formula_sum   'Th3 Zn4 Pt2'
_cell_volume   187.03881423
_cell_formula_units_Z   1
loop_
 _symmetry_equiv_pos_site_id
 _symmetry_equiv_pos_as_xyz
  1  'x, y, z'
loop_
 _atom_site_type_symbol
 _atom_site_label
 _atom_site_symmetry_multiplicity
 _atom_site_fract_x
 _atom_site_fract_y
 _atom_site_fract_z
 _atom_site_occupancy
  Th  Th0  1  0.000000  0.417044  0.000000  1
  Th  Th1  1  0.582956  0.582956  0.000000  1
  Th  Th2  1  0.417044  0.000000  0.000000  1
  Zn  Zn3  1  0.000000  0.757833  0.500000  1
  Zn  Zn4  1  0.242167  0.242167  0.500000  1
  Zn  Zn5  1  0.757833  0.000000  0.500000  1
  Zn  Zn6  1  0.000000  0.000000  0.000000  1
  Pt  Pt7  1  0.666667  0.333333  0.500000  1
  Pt  Pt8  1  0.333333  0.666667  0.500000  1
