# generated using pymatgen
data_Zr6Fe16ReSi5Ge
_symmetry_space_group_name_H-M   'P 1'
_cell_length_a   8.13477715
_cell_length_b   8.15784268
_cell_length_c   8.15784318
_cell_angle_alpha   59.93871259
_cell_angle_beta   60.09349369
_cell_angle_gamma   60.09348791
_symmetry_Int_Tables_number   1
_chemical_formula_structural   Zr6Fe16ReSi5Ge
_chemical_formula_sum   'Zr6 Fe16 Re1 Si5 Ge1'
_cell_volume   383.16998266
_cell_formula_units_Z   1
loop_
 _symmetry_equiv_pos_site_id
 _symmetry_equiv_pos_as_xyz
  1  'x, y, z'
loop_
 _atom_site_type_symbol
 _atom_site_label
 _atom_site_symmetry_multiplicity
 _atom_site_fract_x
 _atom_site_fract_y
 _atom_site_fract_z
 _atom_site_occupancy
  Zr  Zr0  1  0.709243  0.711866  0.288134  1
  Zr  Zr1  1  0.290757  0.711866  0.288134  1
  Zr  Zr2  1  0.710196  0.289804  0.289804  1
  Zr  Zr3  1  0.290757  0.288134  0.711866  1
  Zr  Zr4  1  0.709243  0.288134  0.711866  1
  Zr  Zr5  1  0.289804  0.710196  0.710196  1
  Fe  Fe6  1  0.874860  0.881461  0.368822  1
  Fe  Fe7  1  0.874860  0.368822  0.881461  1
  Fe  Fe8  1  0.368487  0.877425  0.877425  1
  Fe  Fe9  1  0.876664  0.877425  0.877425  1
  Fe  Fe10  1  0.125140  0.118539  0.631178  1
  Fe  Fe11  1  0.125140  0.631178  0.118539  1
  Fe  Fe12  1  0.631513  0.122575  0.122575  1
  Fe  Fe13  1  0.123336  0.122575  0.122575  1
  Fe  Fe14  1  0.676069  0.677359  0.970504  1
  Fe  Fe15  1  0.676069  0.970504  0.677359  1
  Fe  Fe16  1  0.968605  0.678831  0.678831  1
  Fe  Fe17  1  0.673733  0.678831  0.678831  1
  Fe  Fe18  1  0.323931  0.322641  0.029496  1
  Fe  Fe19  1  0.323931  0.029496  0.322641  1
  Fe  Fe20  1  0.031395  0.321169  0.321169  1
  Fe  Fe21  1  0.326267  0.321169  0.321169  1
  Re  Re22  1  0.000000  0.000000  0.000000  1
  Si  Si23  1  0.000000  0.000000  0.500000  1
  Si  Si24  1  0.500000  0.000000  0.500000  1
  Si  Si25  1  0.500000  0.500000  0.000000  1
  Si  Si26  1  0.000000  0.500000  0.000000  1
  Si  Si27  1  0.500000  0.000000  0.000000  1
  Ge  Ge28  1  0.000000  0.500000  0.500000  1
