# generated using pymatgen
data_Tb6Al24Re5Au3
_symmetry_space_group_name_H-M   'P 1'
_cell_length_a   8.96222765
_cell_length_b   8.91789222
_cell_length_c   9.66930757
_cell_angle_alpha   90.48190641
_cell_angle_beta   90.01509026
_cell_angle_gamma   119.20143726
_symmetry_Int_Tables_number   1
_chemical_formula_structural   Tb6Al24Re5Au3
_chemical_formula_sum   'Tb6 Al24 Re5 Au3'
_cell_volume   674.56244287
_cell_formula_units_Z   1
loop_
 _symmetry_equiv_pos_site_id
 _symmetry_equiv_pos_as_xyz
  1  'x, y, z'
loop_
 _atom_site_type_symbol
 _atom_site_label
 _atom_site_symmetry_multiplicity
 _atom_site_fract_x
 _atom_site_fract_y
 _atom_site_fract_z
 _atom_site_occupancy
  Tb  Tb0  1  0.184196  0.386327  0.254666  1
  Tb  Tb1  1  0.815804  0.613673  0.745334  1
  Tb  Tb2  1  0.618535  0.814552  0.250959  1
  Tb  Tb3  1  0.381465  0.185448  0.749041  1
  Tb  Tb4  1  0.190388  0.802062  0.251864  1
  Tb  Tb5  1  0.809612  0.197938  0.748136  1
  Al  Al6  1  0.323796  0.661460  0.026567  1
  Al  Al7  1  0.676204  0.338540  0.973433  1
  Al  Al8  1  0.670412  0.326888  0.523989  1
  Al  Al9  1  0.329588  0.673112  0.476011  1
  Al  Al10  1  0.152262  0.321848  0.576282  1
  Al  Al11  1  0.847738  0.678152  0.423718  1
  Al  Al12  1  0.679582  0.849310  0.575359  1
  Al  Al13  1  0.849091  0.679199  0.076590  1
  Al  Al14  1  0.320418  0.150690  0.424641  1
  Al  Al15  1  0.150909  0.320801  0.923410  1
  Al  Al16  1  0.163953  0.836493  0.575347  1
  Al  Al17  1  0.317939  0.161354  0.083241  1
  Al  Al18  1  0.836047  0.163507  0.424653  1
  Al  Al19  1  0.682061  0.838646  0.916759  1
  Al  Al20  1  0.848642  0.173161  0.078667  1
  Al  Al21  1  0.151358  0.826839  0.921333  1
  Al  Al22  1  0.564432  0.129335  0.255977  1
  Al  Al23  1  0.435568  0.870665  0.744023  1
  Al  Al24  1  0.875028  0.439629  0.249307  1
  Al  Al25  1  0.124972  0.560371  0.750693  1
  Al  Al26  1  0.566892  0.436545  0.249180  1
  Al  Al27  1  0.433108  0.563455  0.750820  1
  Al  Al28  1  0.996974  0.001406  0.250094  1
  Al  Al29  1  0.003026  0.998594  0.749906  1
  Re  Re30  1  0.000000  0.500000  0.000000  1
  Re  Re31  1  0.500000  0.000000  0.500000  1
  Re  Re32  1  0.000000  0.500000  0.500000  1
  Re  Re33  1  0.000000  0.000000  0.000000  1
  Re  Re34  1  0.000000  0.000000  0.500000  1
  Au  Au35  1  0.500000  0.000000  0.000000  1
  Au  Au36  1  0.500000  0.500000  0.000000  1
  Au  Au37  1  0.500000  0.500000  0.500000  1
