# generated using pymatgen
data_Nd5Si3H
_symmetry_space_group_name_H-M   'P 1'
_cell_length_a   8.88019842
_cell_length_b   8.88019873
_cell_length_c   8.88019799
_cell_angle_alpha   127.51637293
_cell_angle_beta   127.51637849
_cell_angle_gamma   77.40980167
_symmetry_Int_Tables_number   1
_chemical_formula_structural   Nd5Si3H
_chemical_formula_sum   'Nd10 Si6 H2'
_cell_volume   427.35848851
_cell_formula_units_Z   2
loop_
 _symmetry_equiv_pos_site_id
 _symmetry_equiv_pos_as_xyz
  1  'x, y, z'
loop_
 _atom_site_type_symbol
 _atom_site_label
 _atom_site_symmetry_multiplicity
 _atom_site_fract_x
 _atom_site_fract_y
 _atom_site_fract_z
 _atom_site_occupancy
  Nd  Nd0  1  0.500000  0.500000  0.000000  1
  Nd  Nd1  1  0.000000  0.000000  0.000000  1
  Nd  Nd2  1  0.524608  0.024608  0.844339  1
  Nd  Nd3  1  0.180270  0.680270  0.155661  1
  Nd  Nd4  1  0.024608  0.180270  0.500000  1
  Nd  Nd5  1  0.680270  0.524608  0.500000  1
  Nd  Nd6  1  0.475392  0.975392  0.155661  1
  Nd  Nd7  1  0.819730  0.319730  0.844339  1
  Nd  Nd8  1  0.975392  0.819730  0.500000  1
  Nd  Nd9  1  0.319730  0.475392  0.500000  1
  Si  Si10  1  0.250000  0.250000  0.000000  1
  Si  Si11  1  0.750000  0.750000  0.000000  1
  Si  Si12  1  0.884067  0.384067  0.268134  1
  Si  Si13  1  0.115933  0.615933  0.731866  1
  Si  Si14  1  0.384067  0.115933  0.500000  1
  Si  Si15  1  0.615933  0.884067  0.500000  1
  H  H16  1  0.250000  0.750000  0.500000  1
  H  H17  1  0.750000  0.250000  0.500000  1
