# generated using pymatgen
data_Mn2Nb12Ga3Fe2Si5N4
_symmetry_space_group_name_H-M   'P 1'
_cell_length_a   8.19879212
_cell_length_b   8.18729709
_cell_length_c   8.19879300
_cell_angle_alpha   60.04636897
_cell_angle_beta   60.09308602
_cell_angle_gamma   60.04636949
_symmetry_Int_Tables_number   1
_chemical_formula_structural   Mn2Nb12Ga3Fe2Si5N4
_chemical_formula_sum   'Mn2 Nb12 Ga3 Fe2 Si5 N4'
_cell_volume   389.70358395
_cell_formula_units_Z   1
loop_
 _symmetry_equiv_pos_site_id
 _symmetry_equiv_pos_as_xyz
  1  'x, y, z'
loop_
 _atom_site_type_symbol
 _atom_site_label
 _atom_site_symmetry_multiplicity
 _atom_site_fract_x
 _atom_site_fract_y
 _atom_site_fract_z
 _atom_site_occupancy
  Mn  Mn0  1  0.142589  0.619225  0.618962  1
  Mn  Mn1  1  0.615548  0.622585  0.139281  1
  Nb  Nb2  1  0.801693  0.802231  0.198083  1
  Nb  Nb3  1  0.200458  0.194111  0.802255  1
  Nb  Nb4  1  0.801753  0.198272  0.801702  1
  Nb  Nb5  1  0.199247  0.803286  0.194180  1
  Nb  Nb6  1  0.200458  0.803175  0.802255  1
  Nb  Nb7  1  0.801693  0.197993  0.198083  1
  Nb  Nb8  1  0.443365  0.443695  0.055657  1
  Nb  Nb9  1  0.056467  0.056027  0.443919  1
  Nb  Nb10  1  0.444589  0.055236  0.444938  1
  Nb  Nb11  1  0.059350  0.442567  0.055515  1
  Nb  Nb12  1  0.056467  0.443587  0.443919  1
  Nb  Nb13  1  0.443365  0.057283  0.055657  1
  Ga  Ga14  1  0.834417  0.497836  0.833879  1
  Ga  Ga15  1  0.833488  0.833940  0.498629  1
  Ga  Ga16  1  0.834417  0.833866  0.833879  1
  Fe  Fe17  1  0.615844  0.138452  0.623095  1
  Fe  Fe18  1  0.615844  0.622610  0.623095  1
  Si  Si19  1  0.754637  0.415140  0.415084  1
  Si  Si20  1  0.416666  0.755003  0.414244  1
  Si  Si21  1  0.417356  0.413985  0.754677  1
  Si  Si22  1  0.416666  0.414088  0.414244  1
  Si  Si23  1  0.496409  0.834512  0.834564  1
  N  N24  1  0.628680  0.123925  0.123469  1
  N  N25  1  0.122826  0.629639  0.123930  1
  N  N26  1  0.122884  0.124121  0.628874  1
  N  N27  1  0.122826  0.123605  0.123930  1
