# generated using pymatgen
data_RbTa(SnSe3)2
_symmetry_space_group_name_H-M   'P 1'
_cell_length_a   9.72282852
_cell_length_b   9.72282662
_cell_length_c   9.72282900
_cell_angle_alpha   40.78359864
_cell_angle_beta   40.78361163
_cell_angle_gamma   40.78361180
_symmetry_Int_Tables_number   1
_chemical_formula_structural   RbTa(SnSe3)2
_chemical_formula_sum   'Rb1 Ta1 Sn2 Se6'
_cell_volume   353.89368529
_cell_formula_units_Z   1
loop_
 _symmetry_equiv_pos_site_id
 _symmetry_equiv_pos_as_xyz
  1  'x, y, z'
loop_
 _atom_site_type_symbol
 _atom_site_label
 _atom_site_symmetry_multiplicity
 _atom_site_fract_x
 _atom_site_fract_y
 _atom_site_fract_z
 _atom_site_occupancy
  Rb  Rb0  1  0.996651  0.996651  0.996651  1
  Ta  Ta1  1  0.167028  0.167028  0.167028  1
  Sn  Sn2  1  0.501403  0.501403  0.501403  1
  Sn  Sn3  1  0.832366  0.832366  0.832366  1
  Se  Se4  1  0.529048  0.232584  0.912297  1
  Se  Se5  1  0.912297  0.529048  0.232584  1
  Se  Se6  1  0.232584  0.912297  0.529048  1
  Se  Se7  1  0.794878  0.121565  0.412181  1
  Se  Se8  1  0.121565  0.412181  0.794878  1
  Se  Se9  1  0.412181  0.794878  0.121565  1
