# generated using pymatgen
data_NdY2Er2(In2Pd)2
_symmetry_space_group_name_H-M   'P 1'
_cell_length_a   3.63502400
_cell_length_b   8.21277300
_cell_length_c   18.34186800
_cell_angle_alpha   90.00000000
_cell_angle_beta   90.00000000
_cell_angle_gamma   90.00000000
_symmetry_Int_Tables_number   1
_chemical_formula_structural   NdY2Er2(In2Pd)2
_chemical_formula_sum   'Nd2 Y4 Er4 In8 Pd4'
_cell_volume   547.57128505
_cell_formula_units_Z   2
loop_
 _symmetry_equiv_pos_site_id
 _symmetry_equiv_pos_as_xyz
  1  'x, y, z'
loop_
 _atom_site_type_symbol
 _atom_site_label
 _atom_site_symmetry_multiplicity
 _atom_site_fract_x
 _atom_site_fract_y
 _atom_site_fract_z
 _atom_site_occupancy
  Nd  Nd0  1  0.000000  0.500000  0.500000  1
  Nd  Nd1  1  0.000000  0.000000  0.000000  1
  Y  Y2  1  0.000000  0.737783  0.282490  1
  Y  Y3  1  0.000000  0.262217  0.717510  1
  Y  Y4  1  0.000000  0.762217  0.782490  1
  Y  Y5  1  0.000000  0.237783  0.217510  1
  Er  Er6  1  0.000000  0.620421  0.084357  1
  Er  Er7  1  0.000000  0.379579  0.915643  1
  Er  Er8  1  0.000000  0.879579  0.584357  1
  Er  Er9  1  0.000000  0.120421  0.415643  1
  In  In10  1  0.500000  0.699024  0.932647  1
  In  In11  1  0.500000  0.300976  0.067353  1
  In  In12  1  0.500000  0.800976  0.432647  1
  In  In13  1  0.500000  0.199024  0.567353  1
  In  In14  1  0.500000  0.584220  0.653347  1
  In  In15  1  0.500000  0.415780  0.346653  1
  In  In16  1  0.500000  0.915780  0.153347  1
  In  In17  1  0.500000  0.084220  0.846653  1
  Pd  Pd18  1  0.500000  0.524366  0.194549  1
  Pd  Pd19  1  0.500000  0.475634  0.805451  1
  Pd  Pd20  1  0.500000  0.975634  0.694549  1
  Pd  Pd21  1  0.500000  0.024366  0.305451  1
