# generated using pymatgen
data_NbAs(P2O7)2
_symmetry_space_group_name_H-M   'P 1'
_cell_length_a   8.46223170
_cell_length_b   4.99893481
_cell_length_c   7.22357130
_cell_angle_alpha   73.43096196
_cell_angle_beta   91.66245792
_cell_angle_gamma   89.78016686
_symmetry_Int_Tables_number   1
_chemical_formula_structural   NbAs(P2O7)2
_chemical_formula_sum   'Nb1 As1 P4 O14'
_cell_volume   292.73754462
_cell_formula_units_Z   1
loop_
 _symmetry_equiv_pos_site_id
 _symmetry_equiv_pos_as_xyz
  1  'x, y, z'
loop_
 _atom_site_type_symbol
 _atom_site_label
 _atom_site_symmetry_multiplicity
 _atom_site_fract_x
 _atom_site_fract_y
 _atom_site_fract_z
 _atom_site_occupancy
  Nb  Nb0  1  0.045261  0.216182  0.283733  1
  As  As1  1  0.552463  0.760700  0.719285  1
  P  P2  1  0.863383  0.611336  0.527969  1
  P  P3  1  0.266867  0.773003  0.100667  1
  P  P4  1  0.790053  0.224310  0.893378  1
  P  P5  1  0.378962  0.391317  0.473095  1
  O  O6  1  0.774920  0.955629  0.842694  1
  O  O7  1  0.337704  0.872336  0.908543  1
  O  O8  1  0.981341  0.851505  0.473681  1
  O  O9  1  0.691792  0.714916  0.516566  1
  O  O10  1  0.385542  0.574701  0.612081  1
  O  O11  1  0.637823  0.388171  0.897491  1
  O  O12  1  0.908865  0.434295  0.742703  1
  O  O13  1  0.396772  0.597547  0.256142  1
  O  O14  1  0.123035  0.572540  0.111339  1
  O  O15  1  0.883253  0.420946  0.395919  1
  O  O16  1  0.206317  0.279435  0.473375  1
  O  O17  1  0.502618  0.166513  0.500603  1
  O  O18  1  0.888445  0.184837  0.086956  1
  O  O19  1  0.207799  0.009783  0.183780  1
