# generated using pymatgen
data_Tb2Tm4Co17TcP12
_symmetry_space_group_name_H-M   'P 1'
_cell_length_a   3.68649800
_cell_length_b   10.49165300
_cell_length_c   12.17289700
_cell_angle_alpha   90.00000000
_cell_angle_beta   90.00000000
_cell_angle_gamma   90.00000000
_symmetry_Int_Tables_number   1
_chemical_formula_structural   Tb2Tm4Co17TcP12
_chemical_formula_sum   'Tb2 Tm4 Co17 Tc1 P12'
_cell_volume   470.81671004
_cell_formula_units_Z   1
loop_
 _symmetry_equiv_pos_site_id
 _symmetry_equiv_pos_as_xyz
  1  'x, y, z'
loop_
 _atom_site_type_symbol
 _atom_site_label
 _atom_site_symmetry_multiplicity
 _atom_site_fract_x
 _atom_site_fract_y
 _atom_site_fract_z
 _atom_site_occupancy
  Tb  Tb0  1  0.000000  0.500000  0.524754  1
  Tb  Tb1  1  0.500000  0.000000  0.477264  1
  Tm  Tm2  1  0.500000  0.817766  0.206614  1
  Tm  Tm3  1  0.500000  0.182234  0.206614  1
  Tm  Tm4  1  0.000000  0.682478  0.795104  1
  Tm  Tm5  1  0.000000  0.317522  0.795104  1
  Co  Co6  1  0.000000  0.000000  0.839667  1
  Co  Co7  1  0.500000  0.500000  0.704063  1
  Co  Co8  1  0.000000  0.000000  0.295283  1
  Co  Co9  1  0.000000  0.500000  0.987447  1
  Co  Co10  1  0.500000  0.000000  0.014729  1
  Co  Co11  1  0.500000  0.331873  0.990712  1
  Co  Co12  1  0.500000  0.668127  0.990712  1
  Co  Co13  1  0.000000  0.166535  0.005914  1
  Co  Co14  1  0.000000  0.833465  0.005914  1
  Co  Co15  1  0.500000  0.296331  0.430510  1
  Co  Co16  1  0.500000  0.703669  0.430510  1
  Co  Co17  1  0.000000  0.203436  0.569389  1
  Co  Co18  1  0.000000  0.796564  0.569389  1
  Co  Co19  1  0.500000  0.878441  0.709426  1
  Co  Co20  1  0.500000  0.121559  0.709426  1
  Co  Co21  1  0.000000  0.621443  0.291486  1
  Co  Co22  1  0.000000  0.378557  0.291486  1
  Tc  Tc23  1  0.500000  0.500000  0.156760  1
  P  P24  1  0.500000  0.500000  0.881037  1
  P  P25  1  0.000000  0.000000  0.117703  1
  P  P26  1  0.500000  0.500000  0.348959  1
  P  P27  1  0.000000  0.000000  0.655745  1
  P  P28  1  0.500000  0.310976  0.617568  1
  P  P29  1  0.500000  0.689024  0.617568  1
  P  P30  1  0.000000  0.188565  0.383268  1
  P  P31  1  0.000000  0.811435  0.383268  1
  P  P32  1  0.500000  0.848945  0.891474  1
  P  P33  1  0.500000  0.151055  0.891474  1
  P  P34  1  0.000000  0.656389  0.106829  1
  P  P35  1  0.000000  0.343611  0.106829  1
