# generated using pymatgen
data_Li3Mn(AlPd5)2
_symmetry_space_group_name_H-M   'P 1'
_cell_length_a   4.15960400
_cell_length_b   5.36717695
_cell_length_c   10.39696234
_cell_angle_alpha   90.80635157
_cell_angle_beta   90.00000000
_cell_angle_gamma   90.00000000
_symmetry_Int_Tables_number   1
_chemical_formula_structural   Li3Mn(AlPd5)2
_chemical_formula_sum   'Li3 Mn1 Al2 Pd10'
_cell_volume   232.09263623
_cell_formula_units_Z   1
loop_
 _symmetry_equiv_pos_site_id
 _symmetry_equiv_pos_as_xyz
  1  'x, y, z'
loop_
 _atom_site_type_symbol
 _atom_site_label
 _atom_site_symmetry_multiplicity
 _atom_site_fract_x
 _atom_site_fract_y
 _atom_site_fract_z
 _atom_site_occupancy
  Li  Li0  1  0.500000  0.839973  0.636921  1
  Li  Li1  1  0.500000  0.661096  0.134050  1
  Li  Li2  1  0.500000  0.340770  0.864893  1
  Mn  Mn3  1  0.500000  0.159395  0.363989  1
  Al  Al4  1  0.000000  0.997399  0.998803  1
  Al  Al5  1  0.000000  0.496912  0.501421  1
  Pd  Pd6  1  0.500000  0.172373  0.108758  1
  Pd  Pd7  1  0.500000  0.826788  0.889423  1
  Pd  Pd8  1  0.500000  0.669779  0.390586  1
  Pd  Pd9  1  0.500000  0.324503  0.610106  1
  Pd  Pd10  1  0.000000  0.994730  0.501975  1
  Pd  Pd11  1  0.000000  0.500110  0.999064  1
  Pd  Pd12  1  0.000000  0.889236  0.236257  1
  Pd  Pd13  1  0.000000  0.118967  0.765651  1
  Pd  Pd14  1  0.000000  0.390253  0.261892  1
  Pd  Pd15  1  0.000000  0.617717  0.736211  1
