# generated using pymatgen
data_Ti15Nb5(AlPt4)2
_symmetry_space_group_name_H-M   'P 1'
_cell_length_a   9.78183744
_cell_length_b   9.78183744
_cell_length_c   5.07391422
_cell_angle_alpha   89.92428773
_cell_angle_beta   89.92428773
_cell_angle_gamma   89.89235190
_symmetry_Int_Tables_number   1
_chemical_formula_structural   Ti15Nb5(AlPt4)2
_chemical_formula_sum   'Ti15 Nb5 Al2 Pt8'
_cell_volume   485.49244914
_cell_formula_units_Z   1
loop_
 _symmetry_equiv_pos_site_id
 _symmetry_equiv_pos_as_xyz
  1  'x, y, z'
loop_
 _atom_site_type_symbol
 _atom_site_label
 _atom_site_symmetry_multiplicity
 _atom_site_fract_x
 _atom_site_fract_y
 _atom_site_fract_z
 _atom_site_occupancy
  Ti  Ti0  1  0.127598  0.465934  0.999884  1
  Ti  Ti1  1  0.965403  0.372776  0.499637  1
  Ti  Ti2  1  0.035293  0.626665  0.498148  1
  Ti  Ti3  1  0.871627  0.533469  0.000579  1
  Ti  Ti4  1  0.372776  0.965403  0.499637  1
  Ti  Ti5  1  0.626665  0.035293  0.498148  1
  Ti  Ti6  1  0.465934  0.127598  0.999884  1
  Ti  Ti7  1  0.533469  0.871627  0.000579  1
  Ti  Ti8  1  0.186376  0.186376  0.253943  1
  Ti  Ti9  1  0.686654  0.313682  0.753086  1
  Ti  Ti10  1  0.313682  0.686654  0.753086  1
  Ti  Ti11  1  0.812822  0.812822  0.251521  1
  Ti  Ti12  1  0.313876  0.686011  0.246201  1
  Ti  Ti13  1  0.686011  0.313876  0.246201  1
  Ti  Ti14  1  0.187944  0.187944  0.746901  1
  Nb  Nb15  1  0.394525  0.394525  0.000210  1
  Nb  Nb16  1  0.894746  0.104838  0.501262  1
  Nb  Nb17  1  0.104838  0.894746  0.501262  1
  Nb  Nb18  1  0.604134  0.604134  0.000072  1
  Nb  Nb19  1  0.815491  0.815491  0.744504  1
  Al  Al20  1  0.001118  0.001118  0.002804  1
  Al  Al21  1  0.499393  0.499393  0.500472  1
  Pt  Pt22  1  0.261678  0.941231  0.999609  1
  Pt  Pt23  1  0.441084  0.238421  0.499827  1
  Pt  Pt24  1  0.557244  0.760916  0.498571  1
  Pt  Pt25  1  0.737724  0.061327  0.002983  1
  Pt  Pt26  1  0.238421  0.441084  0.499827  1
  Pt  Pt27  1  0.760916  0.557244  0.498571  1
  Pt  Pt28  1  0.941231  0.261678  0.999609  1
  Pt  Pt29  1  0.061327  0.737724  0.002983  1
