# generated using pymatgen
data_ErTm9(In2Ir)4
_symmetry_space_group_name_H-M   'P 1'
_cell_length_a   3.55726200
_cell_length_b   8.01022714
_cell_length_c   18.21977932
_cell_angle_alpha   89.97872238
_cell_angle_beta   90.00000000
_cell_angle_gamma   90.00000000
_symmetry_Int_Tables_number   1
_chemical_formula_structural   ErTm9(In2Ir)4
_chemical_formula_sum   'Er1 Tm9 In8 Ir4'
_cell_volume   519.16303970
_cell_formula_units_Z   1
loop_
 _symmetry_equiv_pos_site_id
 _symmetry_equiv_pos_as_xyz
  1  'x, y, z'
loop_
 _atom_site_type_symbol
 _atom_site_label
 _atom_site_symmetry_multiplicity
 _atom_site_fract_x
 _atom_site_fract_y
 _atom_site_fract_z
 _atom_site_occupancy
  Er  Er0  1  0.000000  0.000000  0.000000  1
  Tm  Tm1  1  0.000000  0.500000  0.500000  1
  Tm  Tm2  1  0.000000  0.751696  0.278865  1
  Tm  Tm3  1  0.000000  0.248304  0.721135  1
  Tm  Tm4  1  0.000000  0.748130  0.778787  1
  Tm  Tm5  1  0.000000  0.251870  0.221213  1
  Tm  Tm6  1  0.000000  0.621264  0.087883  1
  Tm  Tm7  1  0.000000  0.378736  0.912117  1
  Tm  Tm8  1  0.000000  0.878561  0.587823  1
  Tm  Tm9  1  0.000000  0.121439  0.412177  1
  In  In10  1  0.500000  0.702801  0.934056  1
  In  In11  1  0.500000  0.297199  0.065944  1
  In  In12  1  0.500000  0.797399  0.434098  1
  In  In13  1  0.500000  0.202601  0.565902  1
  In  In14  1  0.500000  0.565681  0.649042  1
  In  In15  1  0.500000  0.434319  0.350958  1
  In  In16  1  0.500000  0.934573  0.149333  1
  In  In17  1  0.500000  0.065427  0.850667  1
  Ir  Ir18  1  0.500000  0.530443  0.196692  1
  Ir  Ir19  1  0.500000  0.469557  0.803308  1
  Ir  Ir20  1  0.500000  0.969568  0.696735  1
  Ir  Ir21  1  0.500000  0.030432  0.303265  1
