# generated using pymatgen
data_Tm3Cd2AgHgAu2
_symmetry_space_group_name_H-M   'P 1'
_cell_length_a   3.75495000
_cell_length_b   7.86117033
_cell_length_c   7.86116996
_cell_angle_alpha   119.50293550
_cell_angle_beta   90.00000000
_cell_angle_gamma   90.00000000
_symmetry_Int_Tables_number   1
_chemical_formula_structural   Tm3Cd2AgHgAu2
_chemical_formula_sum   'Tm3 Cd2 Ag1 Hg1 Au2'
_cell_volume   201.95877919
_cell_formula_units_Z   1
loop_
 _symmetry_equiv_pos_site_id
 _symmetry_equiv_pos_as_xyz
  1  'x, y, z'
loop_
 _atom_site_type_symbol
 _atom_site_label
 _atom_site_symmetry_multiplicity
 _atom_site_fract_x
 _atom_site_fract_y
 _atom_site_fract_z
 _atom_site_occupancy
  Tm  Tm0  1  0.000000  0.412633  0.412633  1
  Tm  Tm1  1  0.000000  0.995262  0.594864  1
  Tm  Tm2  1  0.000000  0.594864  0.995262  1
  Cd  Cd3  1  0.500000  0.002566  0.268001  1
  Cd  Cd4  1  0.500000  0.268001  0.002566  1
  Ag  Ag5  1  0.000000  0.003366  0.003366  1
  Hg  Hg6  1  0.500000  0.729888  0.729888  1
  Au  Au7  1  0.500000  0.666486  0.326934  1
  Au  Au8  1  0.500000  0.326934  0.666486  1
