# generated using pymatgen
data_TbYAl9Pd2Ru
_symmetry_space_group_name_H-M   'P 1'
_cell_length_a   7.60255931
_cell_length_b   7.60280352
_cell_length_c   9.50554000
_cell_angle_alpha   90.00000000
_cell_angle_beta   90.00000000
_cell_angle_gamma   119.43573034
_symmetry_Int_Tables_number   1
_chemical_formula_structural   TbYAl9Pd2Ru
_chemical_formula_sum   'Tb2 Y2 Al18 Pd4 Ru2'
_cell_volume   478.50051798
_cell_formula_units_Z   2
loop_
 _symmetry_equiv_pos_site_id
 _symmetry_equiv_pos_as_xyz
  1  'x, y, z'
loop_
 _atom_site_type_symbol
 _atom_site_label
 _atom_site_symmetry_multiplicity
 _atom_site_fract_x
 _atom_site_fract_y
 _atom_site_fract_z
 _atom_site_occupancy
  Tb  Tb0  1  0.994790  0.669154  0.250000  1
  Tb  Tb1  1  0.005210  0.330846  0.750000  1
  Y  Y2  1  0.669165  0.994817  0.250000  1
  Y  Y3  1  0.330835  0.005183  0.750000  1
  Al  Al4  1  0.124138  0.124138  0.250000  1
  Al  Al5  1  0.875862  0.875862  0.750000  1
  Al  Al6  1  0.000410  0.329250  0.075898  1
  Al  Al7  1  0.999590  0.670750  0.924102  1
  Al  Al8  1  0.999590  0.670750  0.575898  1
  Al  Al9  1  0.329303  0.000434  0.424120  1
  Al  Al10  1  0.000410  0.329250  0.424102  1
  Al  Al11  1  0.670697  0.999566  0.575880  1
  Al  Al12  1  0.670697  0.999566  0.924120  1
  Al  Al13  1  0.329303  0.000434  0.075880  1
  Al  Al14  1  0.328259  0.328234  0.554335  1
  Al  Al15  1  0.671741  0.671766  0.445665  1
  Al  Al16  1  0.671741  0.671766  0.054335  1
  Al  Al17  1  0.328259  0.328234  0.945665  1
  Al  Al18  1  0.341727  0.546508  0.250000  1
  Al  Al19  1  0.658273  0.453492  0.750000  1
  Al  Al20  1  0.546498  0.341718  0.250000  1
  Al  Al21  1  0.453502  0.658282  0.750000  1
  Pd  Pd22  1  0.672127  0.327772  0.999997  1
  Pd  Pd23  1  0.327873  0.672228  0.000003  1
  Pd  Pd24  1  0.327873  0.672228  0.499997  1
  Pd  Pd25  1  0.672127  0.327772  0.500003  1
  Ru  Ru26  1  0.000000  0.000000  0.000000  1
  Ru  Ru27  1  0.000000  0.000000  0.500000  1
