# generated using pymatgen
data_NpPa3(BeB4)4
_symmetry_space_group_name_H-M   'P 1'
_cell_length_a   6.71990083
_cell_length_b   6.71989651
_cell_length_c   6.71990400
_cell_angle_alpha   113.59271418
_cell_angle_beta   113.59292136
_cell_angle_gamma   101.50957890
_symmetry_Int_Tables_number   1
_chemical_formula_structural   NpPa3(BeB4)4
_chemical_formula_sum   'Np1 Pa3 Be4 B16'
_cell_volume   230.28056954
_cell_formula_units_Z   1
loop_
 _symmetry_equiv_pos_site_id
 _symmetry_equiv_pos_as_xyz
  1  'x, y, z'
loop_
 _atom_site_type_symbol
 _atom_site_label
 _atom_site_symmetry_multiplicity
 _atom_site_fract_x
 _atom_site_fract_y
 _atom_site_fract_z
 _atom_site_occupancy
  Np  Np0  1  0.250095  0.750134  0.500039  1
  Pa  Pa1  1  0.198413  0.198483  0.000070  1
  Pa  Pa2  1  0.801597  0.801572  0.999973  1
  Pa  Pa3  1  0.749983  0.249987  0.500003  1
  Be  Be4  1  0.499433  0.279652  0.780220  1
  Be  Be5  1  0.499325  0.719110  0.219786  1
  Be  Be6  1  0.720538  0.500710  0.219793  1
  Be  Be7  1  0.280918  0.500710  0.780173  1
  B  B8  1  0.113237  0.281610  0.395002  1
  B  B9  1  0.886571  0.718201  0.604988  1
  B  B10  1  0.886606  0.281610  0.168373  1
  B  B11  1  0.113213  0.718201  0.831630  1
  B  B12  1  0.718436  0.886706  0.605050  1
  B  B13  1  0.281655  0.113392  0.394940  1
  B  B14  1  0.718452  0.113392  0.831737  1
  B  B15  1  0.281657  0.886706  0.168270  1
  B  B16  1  0.424604  0.424500  0.540647  1
  B  B17  1  0.883888  0.883978  0.459401  1
  B  B18  1  0.575533  0.116119  0.000160  1
  B  B19  1  0.115982  0.575316  0.999840  1
  B  B20  1  0.575476  0.575316  0.459334  1
  B  B21  1  0.115959  0.116119  0.540586  1
  B  B22  1  0.883854  0.424500  0.999896  1
  B  B23  1  0.424577  0.883978  0.000089  1
