# generated using pymatgen
data_Y12Si12Ir3Pt
_symmetry_space_group_name_H-M   'P 1'
_cell_length_a   4.25011300
_cell_length_b   10.67820365
_cell_length_c   12.35021090
_cell_angle_alpha   90.06359199
_cell_angle_beta   90.00000000
_cell_angle_gamma   90.00000000
_symmetry_Int_Tables_number   1
_chemical_formula_structural   Y12Si12Ir3Pt
_chemical_formula_sum   'Y12 Si12 Ir3 Pt1'
_cell_volume   560.49634199
_cell_formula_units_Z   1
loop_
 _symmetry_equiv_pos_site_id
 _symmetry_equiv_pos_as_xyz
  1  'x, y, z'
loop_
 _atom_site_type_symbol
 _atom_site_label
 _atom_site_symmetry_multiplicity
 _atom_site_fract_x
 _atom_site_fract_y
 _atom_site_fract_z
 _atom_site_occupancy
  Y  Y0  1  0.250000  0.880104  0.021493  1
  Y  Y1  1  0.250000  0.619644  0.520521  1
  Y  Y2  1  0.750000  0.121005  0.979870  1
  Y  Y3  1  0.750000  0.380791  0.478510  1
  Y  Y4  1  0.250000  0.919318  0.603070  1
  Y  Y5  1  0.250000  0.580522  0.104289  1
  Y  Y6  1  0.750000  0.080210  0.396713  1
  Y  Y7  1  0.750000  0.419629  0.896822  1
  Y  Y8  1  0.250000  0.660308  0.800726  1
  Y  Y9  1  0.250000  0.840084  0.301255  1
  Y  Y10  1  0.750000  0.340020  0.198854  1
  Y  Y11  1  0.750000  0.162084  0.697472  1
  Si  Si12  1  0.250000  0.015719  0.822894  1
  Si  Si13  1  0.250000  0.489610  0.321459  1
  Si  Si14  1  0.750000  0.989491  0.177384  1
  Si  Si15  1  0.750000  0.508889  0.679188  1
  Si  Si16  1  0.250000  0.247225  0.840181  1
  Si  Si17  1  0.250000  0.253576  0.340540  1
  Si  Si18  1  0.750000  0.753250  0.160182  1
  Si  Si19  1  0.750000  0.743760  0.655876  1
  Si  Si20  1  0.250000  0.202521  0.542723  1
  Si  Si21  1  0.250000  0.298022  0.043650  1
  Si  Si22  1  0.750000  0.798182  0.455825  1
  Si  Si23  1  0.750000  0.695667  0.959998  1
  Ir  Ir24  1  0.250000  0.389977  0.681507  1
  Ir  Ir25  1  0.250000  0.110501  0.182161  1
  Ir  Ir26  1  0.750000  0.609729  0.319119  1
  Pt  Pt27  1  0.750000  0.890164  0.817717  1
