# generated using pymatgen
data_TbDy4Ho(Sb4Au3)2
_symmetry_space_group_name_H-M   'P 1'
_cell_length_a   8.61645849
_cell_length_b   8.61653939
_cell_length_c   8.61642312
_cell_angle_alpha   109.50714555
_cell_angle_beta   109.47594292
_cell_angle_gamma   109.43021282
_symmetry_Int_Tables_number   1
_chemical_formula_structural   TbDy4Ho(Sb4Au3)2
_chemical_formula_sum   'Tb1 Dy4 Ho1 Sb8 Au6'
_cell_volume   492.45730993
_cell_formula_units_Z   1
loop_
 _symmetry_equiv_pos_site_id
 _symmetry_equiv_pos_as_xyz
  1  'x, y, z'
loop_
 _atom_site_type_symbol
 _atom_site_label
 _atom_site_symmetry_multiplicity
 _atom_site_fract_x
 _atom_site_fract_y
 _atom_site_fract_z
 _atom_site_occupancy
  Tb  Tb0  1  0.250021  0.124978  0.874951  1
  Dy  Dy1  1  0.750025  0.375078  0.625046  1
  Dy  Dy2  1  0.875044  0.249996  0.125073  1
  Dy  Dy3  1  0.124995  0.874975  0.249984  1
  Dy  Dy4  1  0.624911  0.749981  0.374947  1
  Ho  Ho5  1  0.375012  0.624988  0.750012  1
  Sb  Sb6  1  0.321580  0.321569  0.321677  1
  Sb  Sb7  1  0.499962  0.999954  0.178468  1
  Sb  Sb8  1  0.178679  0.500176  0.000202  1
  Sb  Sb9  1  0.999905  0.178560  0.499780  1
  Sb  Sb10  1  0.821386  0.821252  0.821376  1
  Sb  Sb11  1  0.499944  0.000033  0.678551  1
  Sb  Sb12  1  0.999976  0.678341  0.499873  1
  Sb  Sb13  1  0.678557  0.500110  0.000069  1
  Au  Au14  1  0.375259  0.251026  0.625250  1
  Au  Au15  1  0.749085  0.874531  0.124226  1
  Au  Au16  1  0.250311  0.624864  0.375781  1
  Au  Au17  1  0.625314  0.375200  0.250315  1
  Au  Au18  1  0.125347  0.749382  0.874536  1
  Au  Au19  1  0.874689  0.125006  0.749885  1
