# generated using pymatgen
data_Li4VCoNi8P7
_symmetry_space_group_name_H-M   'P 1'
_cell_length_a   9.08378490
_cell_length_b   9.03435001
_cell_length_c   3.58112400
_cell_angle_alpha   90.00000000
_cell_angle_beta   90.00000000
_cell_angle_gamma   120.33321171
_symmetry_Int_Tables_number   1
_chemical_formula_structural   Li4VCoNi8P7
_chemical_formula_sum   'Li4 V1 Co1 Ni8 P7'
_cell_volume   253.65633661
_cell_formula_units_Z   1
loop_
 _symmetry_equiv_pos_site_id
 _symmetry_equiv_pos_as_xyz
  1  'x, y, z'
loop_
 _atom_site_type_symbol
 _atom_site_label
 _atom_site_symmetry_multiplicity
 _atom_site_fract_x
 _atom_site_fract_y
 _atom_site_fract_z
 _atom_site_occupancy
  Li  Li0  1  0.898978  0.120815  0.500000  1
  Li  Li1  1  0.219422  0.098654  0.500000  1
  Li  Li2  1  0.334671  0.666069  0.000000  1
  Li  Li3  1  0.665134  0.333464  0.500000  1
  V  V4  1  0.874137  0.781592  0.500000  1
  Co  Co5  1  0.565207  0.953969  0.500000  1
  Ni  Ni6  1  0.714806  0.882172  0.000000  1
  Ni  Ni7  1  0.163744  0.282858  0.000000  1
  Ni  Ni8  1  0.124348  0.834397  0.000000  1
  Ni  Ni9  1  0.627816  0.568286  0.000000  1
  Ni  Ni10  1  0.939824  0.372102  0.000000  1
  Ni  Ni11  1  0.429639  0.059249  0.000000  1
  Ni  Ni12  1  0.391057  0.437626  0.500000  1
  Ni  Ni13  1  0.050766  0.610910  0.500000  1
  P  P14  1  0.585904  0.715403  0.500000  1
  P  P15  1  0.128304  0.416605  0.500000  1
  P  P16  1  0.295019  0.873871  0.500000  1
  P  P17  1  0.997814  0.991502  0.000000  1
  P  P18  1  0.878555  0.581588  0.000000  1
  P  P19  1  0.694334  0.119995  0.000000  1
  P  P20  1  0.420518  0.298875  0.000000  1
