# generated using pymatgen
data_Dy(YPd2)9
_symmetry_space_group_name_H-M   'P 1'
_cell_length_a   9.80954400
_cell_length_b   9.80954401
_cell_length_c   5.79275600
_cell_angle_alpha   90.00000000
_cell_angle_beta   90.00000000
_cell_angle_gamma   90.00239474
_symmetry_Int_Tables_number   1
_chemical_formula_structural   Dy(YPd2)9
_chemical_formula_sum   'Dy1 Y9 Pd18'
_cell_volume   557.42042073
_cell_formula_units_Z   1
loop_
 _symmetry_equiv_pos_site_id
 _symmetry_equiv_pos_as_xyz
  1  'x, y, z'
loop_
 _atom_site_type_symbol
 _atom_site_label
 _atom_site_symmetry_multiplicity
 _atom_site_fract_x
 _atom_site_fract_y
 _atom_site_fract_z
 _atom_site_occupancy
  Dy  Dy0  1  0.000000  0.000000  0.000000  1
  Y  Y1  1  0.453422  0.808448  0.000000  1
  Y  Y2  1  0.546578  0.191552  0.000000  1
  Y  Y3  1  0.191552  0.546578  0.000000  1
  Y  Y4  1  0.808448  0.453422  0.000000  1
  Y  Y5  1  0.500000  0.500000  0.500000  1
  Y  Y6  1  0.308397  0.046742  0.500000  1
  Y  Y7  1  0.691603  0.953258  0.500000  1
  Y  Y8  1  0.953258  0.691603  0.500000  1
  Y  Y9  1  0.046742  0.308397  0.500000  1
  Pd  Pd10  1  0.191184  0.808816  0.250590  1
  Pd  Pd11  1  0.808816  0.191184  0.749410  1
  Pd  Pd12  1  0.808816  0.191184  0.250590  1
  Pd  Pd13  1  0.191184  0.808816  0.749410  1
  Pd  Pd14  1  0.439636  0.780941  0.500000  1
  Pd  Pd15  1  0.560364  0.219059  0.500000  1
  Pd  Pd16  1  0.219059  0.560364  0.500000  1
  Pd  Pd17  1  0.780941  0.439636  0.500000  1
  Pd  Pd18  1  0.308603  0.308603  0.249210  1
  Pd  Pd19  1  0.691397  0.691397  0.750790  1
  Pd  Pd20  1  0.691397  0.691397  0.249210  1
  Pd  Pd21  1  0.308603  0.308603  0.750790  1
  Pd  Pd22  1  0.280040  0.060163  0.000000  1
  Pd  Pd23  1  0.719960  0.939837  0.000000  1
  Pd  Pd24  1  0.939837  0.719960  0.000000  1
  Pd  Pd25  1  0.060163  0.280040  0.000000  1
  Pd  Pd26  1  0.000000  0.000000  0.500000  1
  Pd  Pd27  1  0.500000  0.500000  0.000000  1
