# generated using pymatgen
data_Ba6Ta2ZnO12
_symmetry_space_group_name_H-M   'P 1'
_cell_length_a   9.34150762
_cell_length_b   9.34150642
_cell_length_c   7.32548907
_cell_angle_alpha   67.61546678
_cell_angle_beta   67.61547208
_cell_angle_gamma   36.91725685
_symmetry_Int_Tables_number   1
_chemical_formula_structural   Ba6Ta2ZnO12
_chemical_formula_sum   'Ba6 Ta2 Zn1 O12'
_cell_volume   351.66866915
_cell_formula_units_Z   1
loop_
 _symmetry_equiv_pos_site_id
 _symmetry_equiv_pos_as_xyz
  1  'x, y, z'
loop_
 _atom_site_type_symbol
 _atom_site_label
 _atom_site_symmetry_multiplicity
 _atom_site_fract_x
 _atom_site_fract_y
 _atom_site_fract_z
 _atom_site_occupancy
  Ba  Ba0  1  0.206779  0.206779  0.708340  1
  Ba  Ba1  1  0.888470  0.888470  0.706832  1
  Ba  Ba2  1  0.548060  0.548060  0.715795  1
  Ba  Ba3  1  0.793221  0.793221  0.291660  1
  Ba  Ba4  1  0.451940  0.451940  0.284205  1
  Ba  Ba5  1  0.111530  0.111530  0.293168  1
  Ta  Ta6  1  0.666994  0.666994  0.001587  1
  Ta  Ta7  1  0.333006  0.333006  0.998413  1
  Zn  Zn8  1  0.000000  0.000000  0.000000  1
  O  O9  1  0.278250  0.278250  0.301483  1
  O  O10  1  0.947757  0.947757  0.314563  1
  O  O11  1  0.620942  0.620942  0.303498  1
  O  O12  1  0.721750  0.721750  0.698517  1
  O  O13  1  0.379058  0.379058  0.696502  1
  O  O14  1  0.052243  0.052243  0.685437  1
  O  O15  1  0.000000  0.500000  0.000000  1
  O  O16  1  0.644135  0.176040  0.000626  1
  O  O17  1  0.355865  0.823960  0.999374  1
  O  O18  1  0.500000  0.000000  0.000000  1
  O  O19  1  0.176040  0.644135  0.000626  1
  O  O20  1  0.823960  0.355865  0.999374  1
