# generated using pymatgen
data_Cs2HfUSe6
_symmetry_space_group_name_H-M   'P 1'
_cell_length_a   7.74091900
_cell_length_b   7.74093280
_cell_length_c   6.77262700
_cell_angle_alpha   90.00017900
_cell_angle_beta   89.99993655
_cell_angle_gamma   119.99996965
_symmetry_Int_Tables_number   1
_chemical_formula_structural   Cs2HfUSe6
_chemical_formula_sum   'Cs2 Hf1 U1 Se6'
_cell_volume   351.45825005
_cell_formula_units_Z   1
loop_
 _symmetry_equiv_pos_site_id
 _symmetry_equiv_pos_as_xyz
  1  'x, y, z'
loop_
 _atom_site_type_symbol
 _atom_site_label
 _atom_site_symmetry_multiplicity
 _atom_site_fract_x
 _atom_site_fract_y
 _atom_site_fract_z
 _atom_site_occupancy
  Cs  Cs0  1  0.333333  0.666667  0.250502  1
  Cs  Cs1  1  0.666667  0.333333  0.744030  1
  Hf  Hf2  1  0.000001  0.000001  0.489404  1
  U  U3  1  0.000000  0.000000  0.989383  1
  Se  Se4  1  0.157066  0.842935  0.735713  1
  Se  Se5  1  0.157066  0.314131  0.735713  1
  Se  Se6  1  0.685869  0.842934  0.735711  1
  Se  Se7  1  0.842863  0.157136  0.243440  1
  Se  Se8  1  0.842862  0.685725  0.243441  1
  Se  Se9  1  0.314275  0.157138  0.243442  1
