# generated using pymatgen
data_Dy4Al15Si3(OsRh2)2
_symmetry_space_group_name_H-M   'P 1'
_cell_length_a   7.51954506
_cell_length_b   7.50177561
_cell_length_c   9.35086952
_cell_angle_alpha   90.02903177
_cell_angle_beta   89.91672613
_cell_angle_gamma   119.26700574
_symmetry_Int_Tables_number   1
_chemical_formula_structural   Dy4Al15Si3(OsRh2)2
_chemical_formula_sum   'Dy4 Al15 Si3 Os2 Rh4'
_cell_volume   460.14890913
_cell_formula_units_Z   1
loop_
 _symmetry_equiv_pos_site_id
 _symmetry_equiv_pos_as_xyz
  1  'x, y, z'
loop_
 _atom_site_type_symbol
 _atom_site_label
 _atom_site_symmetry_multiplicity
 _atom_site_fract_x
 _atom_site_fract_y
 _atom_site_fract_z
 _atom_site_occupancy
  Dy  Dy0  1  0.993348  0.673181  0.747369  1
  Dy  Dy1  1  0.005704  0.319831  0.253835  1
  Dy  Dy2  1  0.685714  0.000994  0.747482  1
  Dy  Dy3  1  0.318655  0.006086  0.249772  1
  Al  Al4  1  0.996927  0.665984  0.420774  1
  Al  Al5  1  0.998009  0.662830  0.076808  1
  Al  Al6  1  0.336840  0.000093  0.922790  1
  Al  Al7  1  0.002692  0.337251  0.927371  1
  Al  Al8  1  0.662419  0.998881  0.076788  1
  Al  Al9  1  0.657315  0.993792  0.421070  1
  Al  Al10  1  0.336102  0.000471  0.576890  1
  Al  Al11  1  0.335366  0.334718  0.051476  1
  Al  Al12  1  0.666841  0.667485  0.948154  1
  Al  Al13  1  0.666452  0.667716  0.553188  1
  Al  Al14  1  0.338031  0.334767  0.448409  1
  Al  Al15  1  0.337782  0.552125  0.750084  1
  Al  Al16  1  0.662301  0.446464  0.250311  1
  Al  Al17  1  0.549120  0.338416  0.750293  1
  Al  Al18  1  0.446265  0.659888  0.249227  1
  Si  Si19  1  0.133179  0.128488  0.751039  1
  Si  Si20  1  0.869169  0.871342  0.250141  1
  Si  Si21  1  0.003119  0.337451  0.575155  1
  Os  Os22  1  0.999328  0.008561  0.501077  1
  Os  Os23  1  0.000036  0.000871  0.999727  1
  Rh  Rh24  1  0.679798  0.329135  0.502328  1
  Rh  Rh25  1  0.319694  0.663201  0.500315  1
  Rh  Rh26  1  0.327693  0.671239  0.999162  1
  Rh  Rh27  1  0.672101  0.328736  0.998964  1
