# generated using pymatgen
data_Tb16TlIn2Rh4Au
_symmetry_space_group_name_H-M   'P 1'
_cell_length_a   9.66429050
_cell_length_b   9.66428950
_cell_length_c   9.67313883
_cell_angle_alpha   59.92894440
_cell_angle_beta   59.92894559
_cell_angle_gamma   59.89610634
_symmetry_Int_Tables_number   1
_chemical_formula_structural   Tb16TlIn2Rh4Au
_chemical_formula_sum   'Tb16 Tl1 In2 Rh4 Au1'
_cell_volume   637.65187112
_cell_formula_units_Z   1
loop_
 _symmetry_equiv_pos_site_id
 _symmetry_equiv_pos_as_xyz
  1  'x, y, z'
loop_
 _atom_site_type_symbol
 _atom_site_label
 _atom_site_symmetry_multiplicity
 _atom_site_fract_x
 _atom_site_fract_y
 _atom_site_fract_z
 _atom_site_occupancy
  Tb  Tb0  1  0.809213  0.809213  0.191437  1
  Tb  Tb1  1  0.810154  0.191298  0.808751  1
  Tb  Tb2  1  0.189981  0.189981  0.811558  1
  Tb  Tb3  1  0.648604  0.051897  0.647978  1
  Tb  Tb4  1  0.062759  0.062759  0.438047  1
  Tb  Tb5  1  0.437726  0.437726  0.069836  1
  Tb  Tb6  1  0.650775  0.650775  0.650109  1
  Tb  Tb7  1  0.812108  0.190393  0.190169  1
  Tb  Tb8  1  0.191298  0.810154  0.808751  1
  Tb  Tb9  1  0.051897  0.648604  0.647978  1
  Tb  Tb10  1  0.438644  0.061637  0.062829  1
  Tb  Tb11  1  0.437460  0.068979  0.437218  1
  Tb  Tb12  1  0.061637  0.438644  0.062829  1
  Tb  Tb13  1  0.648397  0.648397  0.051788  1
  Tb  Tb14  1  0.190393  0.812108  0.190169  1
  Tb  Tb15  1  0.068979  0.437460  0.437218  1
  Tl  Tl16  1  0.415883  0.415883  0.751474  1
  In  In17  1  0.418157  0.745152  0.417246  1
  In  In18  1  0.745152  0.418157  0.417246  1
  Rh  Rh19  1  0.857714  0.426894  0.857696  1
  Rh  Rh20  1  0.857113  0.857113  0.857085  1
  Rh  Rh21  1  0.857787  0.857787  0.426495  1
  Rh  Rh22  1  0.426894  0.857714  0.857696  1
  Au  Au23  1  0.411275  0.411275  0.408402  1
