# generated using pymatgen
data_Ti6Re2TcIr3
_symmetry_space_group_name_H-M   'P 1'
_cell_length_a   4.39064800
_cell_length_b   6.21334200
_cell_length_c   13.19644000
_cell_angle_alpha   90.00000000
_cell_angle_beta   89.99996958
_cell_angle_gamma   90.00000000
_symmetry_Int_Tables_number   1
_chemical_formula_structural   Ti6Re2TcIr3
_chemical_formula_sum   'Ti12 Re4 Tc2 Ir6'
_cell_volume   360.00676973
_cell_formula_units_Z   2
loop_
 _symmetry_equiv_pos_site_id
 _symmetry_equiv_pos_as_xyz
  1  'x, y, z'
loop_
 _atom_site_type_symbol
 _atom_site_label
 _atom_site_symmetry_multiplicity
 _atom_site_fract_x
 _atom_site_fract_y
 _atom_site_fract_z
 _atom_site_occupancy
  Ti  Ti0  1  0.500001  0.250270  0.999961  1
  Ti  Ti1  1  0.500001  0.749731  0.999961  1
  Ti  Ti2  1  0.000039  0.250007  0.166697  1
  Ti  Ti3  1  0.000039  0.749993  0.166697  1
  Ti  Ti4  1  0.500054  0.249991  0.333301  1
  Ti  Ti5  1  0.500054  0.750010  0.333301  1
  Ti  Ti6  1  0.000000  0.249729  0.500038  1
  Ti  Ti7  1  0.000000  0.750270  0.500038  1
  Ti  Ti8  1  0.499949  0.249996  0.666723  1
  Ti  Ti9  1  0.499949  0.750005  0.666723  1
  Ti  Ti10  1  0.999963  0.250006  0.833279  1
  Ti  Ti11  1  0.999963  0.749994  0.833279  1
  Re  Re12  1  0.999998  0.000000  0.999841  1
  Re  Re13  1  0.500037  0.500000  0.166626  1
  Re  Re14  1  0.000057  0.000000  0.333370  1
  Re  Re15  1  0.499998  0.500000  0.500162  1
  Tc  Tc16  1  0.999943  0.000000  0.666790  1
  Tc  Tc17  1  0.499970  0.500000  0.833210  1
  Ir  Ir18  1  0.000001  0.500000  0.999823  1
  Ir  Ir19  1  0.500258  0.000000  0.166566  1
  Ir  Ir20  1  0.000260  0.500000  0.333429  1
  Ir  Ir21  1  0.499999  0.000000  0.500181  1
  Ir  Ir22  1  0.999732  0.500000  0.666732  1
  Ir  Ir23  1  0.499735  0.000000  0.833268  1
