# generated using pymatgen
data_Zr6Ti4Be(Al2Pt)6
_symmetry_space_group_name_H-M   'P 1'
_cell_length_a   8.82922066
_cell_length_b   8.82922129
_cell_length_c   8.82922000
_cell_angle_alpha   59.99999732
_cell_angle_beta   59.99999498
_cell_angle_gamma   60.00000116
_symmetry_Int_Tables_number   1
_chemical_formula_structural   Zr6Ti4Be(Al2Pt)6
_chemical_formula_sum   'Zr6 Ti4 Be1 Al12 Pt6'
_cell_volume   486.68962863
_cell_formula_units_Z   1
loop_
 _symmetry_equiv_pos_site_id
 _symmetry_equiv_pos_as_xyz
  1  'x, y, z'
loop_
 _atom_site_type_symbol
 _atom_site_label
 _atom_site_symmetry_multiplicity
 _atom_site_fract_x
 _atom_site_fract_y
 _atom_site_fract_z
 _atom_site_occupancy
  Zr  Zr0  1  0.689580  0.689580  0.310420  1
  Zr  Zr1  1  0.310420  0.689580  0.310420  1
  Zr  Zr2  1  0.689580  0.310420  0.310420  1
  Zr  Zr3  1  0.310420  0.310420  0.689580  1
  Zr  Zr4  1  0.689580  0.310420  0.689580  1
  Zr  Zr5  1  0.310420  0.689580  0.689580  1
  Ti  Ti6  1  0.885988  0.885988  0.342036  1
  Ti  Ti7  1  0.885988  0.342036  0.885988  1
  Ti  Ti8  1  0.342036  0.885988  0.885988  1
  Ti  Ti9  1  0.885988  0.885988  0.885988  1
  Be  Be10  1  0.000000  0.000000  0.000000  1
  Al  Al11  1  0.116129  0.116129  0.651617  1
  Al  Al12  1  0.116129  0.651617  0.116129  1
  Al  Al13  1  0.651617  0.116129  0.116129  1
  Al  Al14  1  0.116129  0.116129  0.116129  1
  Al  Al15  1  0.666355  0.666355  0.000934  1
  Al  Al16  1  0.666355  0.000934  0.666355  1
  Al  Al17  1  0.000934  0.666355  0.666355  1
  Al  Al18  1  0.666355  0.666355  0.666355  1
  Al  Al19  1  0.333417  0.333417  0.999750  1
  Al  Al20  1  0.333417  0.999750  0.333417  1
  Al  Al21  1  0.999750  0.333417  0.333417  1
  Al  Al22  1  0.333417  0.333417  0.333417  1
  Pt  Pt23  1  0.999640  0.999640  0.500360  1
  Pt  Pt24  1  0.500360  0.999640  0.500360  1
  Pt  Pt25  1  0.999640  0.500360  0.500360  1
  Pt  Pt26  1  0.500360  0.500360  0.999640  1
  Pt  Pt27  1  0.999640  0.500360  0.999640  1
  Pt  Pt28  1  0.500360  0.999640  0.999640  1
