# generated using pymatgen
data_LiDy8Sc11Si15Os
_symmetry_space_group_name_H-M   'P 1'
_cell_length_a   7.05035488
_cell_length_b   7.43429791
_cell_length_c   13.98505900
_cell_angle_alpha   90.00000000
_cell_angle_beta   90.00000000
_cell_angle_gamma   90.04449961
_symmetry_Int_Tables_number   1
_chemical_formula_structural   LiDy8Sc11Si15Os
_chemical_formula_sum   'Li1 Dy8 Sc11 Si15 Os1'
_cell_volume   733.01879463
_cell_formula_units_Z   1
loop_
 _symmetry_equiv_pos_site_id
 _symmetry_equiv_pos_as_xyz
  1  'x, y, z'
loop_
 _atom_site_type_symbol
 _atom_site_label
 _atom_site_symmetry_multiplicity
 _atom_site_fract_x
 _atom_site_fract_y
 _atom_site_fract_z
 _atom_site_occupancy
  Li  Li0  1  0.840016  0.495586  0.250000  1
  Dy  Dy1  1  0.010374  0.184318  0.098159  1
  Dy  Dy2  1  0.990433  0.826941  0.903700  1
  Dy  Dy3  1  0.488856  0.675967  0.904758  1
  Dy  Dy4  1  0.990433  0.826941  0.596300  1
  Dy  Dy5  1  0.515666  0.325346  0.097671  1
  Dy  Dy6  1  0.010374  0.184318  0.401841  1
  Dy  Dy7  1  0.515666  0.325346  0.402329  1
  Dy  Dy8  1  0.488856  0.675967  0.595242  1
  Sc  Sc9  1  0.156241  0.496377  0.750000  1
  Sc  Sc10  1  0.340667  0.004631  0.250000  1
  Sc  Sc11  1  0.669348  0.999373  0.750000  1
  Sc  Sc12  1  0.317490  0.171059  0.627064  1
  Sc  Sc13  1  0.673969  0.819956  0.373184  1
  Sc  Sc14  1  0.165294  0.675765  0.373228  1
  Sc  Sc15  1  0.673969  0.819956  0.126816  1
  Sc  Sc16  1  0.836209  0.318267  0.627517  1
  Sc  Sc17  1  0.317490  0.171059  0.872936  1
  Sc  Sc18  1  0.836209  0.318267  0.872483  1
  Sc  Sc19  1  0.165294  0.675765  0.126772  1
  Si  Si20  1  0.969168  0.895123  0.250000  1
  Si  Si21  1  0.465954  0.613256  0.250000  1
  Si  Si22  1  0.528923  0.388309  0.750000  1
  Si  Si23  1  0.285771  0.866816  0.750000  1
  Si  Si24  1  0.713462  0.119520  0.250000  1
  Si  Si25  1  0.221469  0.373327  0.250000  1
  Si  Si26  1  0.778819  0.626914  0.750000  1
  Si  Si27  1  0.159510  0.468768  0.536679  1
  Si  Si28  1  0.843468  0.538004  0.465274  1
  Si  Si29  1  0.343903  0.966530  0.459009  1
  Si  Si30  1  0.843468  0.538004  0.034726  1
  Si  Si31  1  0.654668  0.033921  0.537749  1
  Si  Si32  1  0.159510  0.468768  0.963321  1
  Si  Si33  1  0.654668  0.033921  0.962251  1
  Si  Si34  1  0.343903  0.966530  0.040991  1
  Os  Os35  1  0.030484  0.111088  0.750000  1
