# generated using pymatgen
data_Y2Ho2LuPd15
_symmetry_space_group_name_H-M   'P 1'
_cell_length_a   4.11149900
_cell_length_b   4.11149900
_cell_length_c   20.74307700
_cell_angle_alpha   90.00000000
_cell_angle_beta   90.00000000
_cell_angle_gamma   90.00000000
_symmetry_Int_Tables_number   1
_chemical_formula_structural   Y2Ho2LuPd15
_chemical_formula_sum   'Y2 Ho2 Lu1 Pd15'
_cell_volume   350.64976923
_cell_formula_units_Z   1
loop_
 _symmetry_equiv_pos_site_id
 _symmetry_equiv_pos_as_xyz
  1  'x, y, z'
loop_
 _atom_site_type_symbol
 _atom_site_label
 _atom_site_symmetry_multiplicity
 _atom_site_fract_x
 _atom_site_fract_y
 _atom_site_fract_z
 _atom_site_occupancy
  Y  Y0  1  0.000000  0.000000  0.599889  1
  Y  Y1  1  0.000000  0.000000  0.801088  1
  Ho  Ho2  1  0.000000  0.000000  0.199171  1
  Ho  Ho3  1  0.000000  0.000000  0.399411  1
  Lu  Lu4  1  0.000000  0.000000  0.000436  1
  Pd  Pd5  1  0.500000  0.500000  0.000093  1
  Pd  Pd6  1  0.500000  0.500000  0.199213  1
  Pd  Pd7  1  0.500000  0.500000  0.399673  1
  Pd  Pd8  1  0.500000  0.500000  0.600229  1
  Pd  Pd9  1  0.500000  0.500000  0.800815  1
  Pd  Pd10  1  0.500000  0.000000  0.098749  1
  Pd  Pd11  1  0.500000  0.000000  0.299571  1
  Pd  Pd12  1  0.500000  0.000000  0.499334  1
  Pd  Pd13  1  0.500000  0.000000  0.700463  1
  Pd  Pd14  1  0.500000  0.000000  0.901874  1
  Pd  Pd15  1  0.000000  0.500000  0.098749  1
  Pd  Pd16  1  0.000000  0.500000  0.299571  1
  Pd  Pd17  1  0.000000  0.500000  0.499334  1
  Pd  Pd18  1  0.000000  0.500000  0.700463  1
  Pd  Pd19  1  0.000000  0.500000  0.901874  1
