# generated using pymatgen
data_Ho6Lu4In8PtRh3
_symmetry_space_group_name_H-M   'P 1'
_cell_length_a   3.60082500
_cell_length_b   8.03723530
_cell_length_c   18.15311812
_cell_angle_alpha   90.03688456
_cell_angle_beta   90.00000000
_cell_angle_gamma   90.00000000
_symmetry_Int_Tables_number   1
_chemical_formula_structural   Ho6Lu4In8PtRh3
_chemical_formula_sum   'Ho6 Lu4 In8 Pt1 Rh3'
_cell_volume   525.36343349
_cell_formula_units_Z   1
loop_
 _symmetry_equiv_pos_site_id
 _symmetry_equiv_pos_as_xyz
  1  'x, y, z'
loop_
 _atom_site_type_symbol
 _atom_site_label
 _atom_site_symmetry_multiplicity
 _atom_site_fract_x
 _atom_site_fract_y
 _atom_site_fract_z
 _atom_site_occupancy
  Ho  Ho0  1  0.000000  0.238332  0.221578  1
  Ho  Ho1  1  0.000000  0.755413  0.778926  1
  Ho  Ho2  1  0.000000  0.255141  0.721149  1
  Ho  Ho3  1  0.000000  0.749320  0.280025  1
  Ho  Ho4  1  0.000000  0.000192  0.999896  1
  Ho  Ho5  1  0.000000  0.500205  0.499945  1
  Lu  Lu6  1  0.000000  0.115049  0.411705  1
  Lu  Lu7  1  0.000000  0.884376  0.589202  1
  Lu  Lu8  1  0.000000  0.384564  0.910663  1
  Lu  Lu9  1  0.000000  0.617389  0.086345  1
  In  In10  1  0.500000  0.422076  0.351368  1
  In  In11  1  0.500000  0.575248  0.649913  1
  In  In12  1  0.500000  0.075579  0.850050  1
  In  In13  1  0.500000  0.925153  0.149741  1
  In  In14  1  0.500000  0.294071  0.065466  1
  In  In15  1  0.500000  0.704833  0.932936  1
  In  In16  1  0.500000  0.204664  0.566758  1
  In  In17  1  0.500000  0.795459  0.433524  1
  Pt  Pt18  1  0.500000  0.525221  0.195373  1
  Rh  Rh19  1  0.500000  0.024070  0.305374  1
  Rh  Rh20  1  0.500000  0.977024  0.694542  1
  Rh  Rh21  1  0.500000  0.476620  0.805519  1
