# generated using pymatgen
data_SrNiSb12Os2Pd
_symmetry_space_group_name_H-M   'P 1'
_cell_length_a   8.19454512
_cell_length_b   8.19723129
_cell_length_c   8.20542661
_cell_angle_alpha   109.53021298
_cell_angle_beta   109.50845778
_cell_angle_gamma   109.48948018
_symmetry_Int_Tables_number   1
_chemical_formula_structural   SrNiSb12Os2Pd
_chemical_formula_sum   'Sr1 Ni1 Sb12 Os2 Pd1'
_cell_volume   423.69771040
_cell_formula_units_Z   1
loop_
 _symmetry_equiv_pos_site_id
 _symmetry_equiv_pos_as_xyz
  1  'x, y, z'
loop_
 _atom_site_type_symbol
 _atom_site_label
 _atom_site_symmetry_multiplicity
 _atom_site_fract_x
 _atom_site_fract_y
 _atom_site_fract_z
 _atom_site_occupancy
  Sr  Sr0  1  0.000000  0.000000  0.000000  1
  Ni  Ni1  1  0.500000  0.000000  0.000000  1
  Sb  Sb2  1  0.848101  0.659579  0.500915  1
  Sb  Sb3  1  0.151899  0.340421  0.499085  1
  Sb  Sb4  1  0.162275  0.665026  0.822507  1
  Sb  Sb5  1  0.837725  0.334974  0.177493  1
  Sb  Sb6  1  0.660012  0.501824  0.848462  1
  Sb  Sb7  1  0.339988  0.498176  0.151538  1
  Sb  Sb8  1  0.661101  0.822910  0.157443  1
  Sb  Sb9  1  0.338899  0.177090  0.842557  1
  Sb  Sb10  1  0.503467  0.850969  0.666970  1
  Sb  Sb11  1  0.496533  0.149031  0.333030  1
  Sb  Sb12  1  0.182493  0.842893  0.339259  1
  Sb  Sb13  1  0.817507  0.157107  0.660741  1
  Os  Os14  1  0.000000  0.500000  0.000000  1
  Os  Os15  1  0.000000  0.000000  0.500000  1
  Pd  Pd16  1  0.500000  0.500000  0.500000  1
