# generated using pymatgen
data_MnBe3InF9
_symmetry_space_group_name_H-M   'P 1'
_cell_length_a   6.82923900
_cell_length_b   6.82923698
_cell_length_c   9.97288500
_cell_angle_alpha   90.00000000
_cell_angle_beta   90.00000000
_cell_angle_gamma   119.99999524
_symmetry_Int_Tables_number   1
_chemical_formula_structural   MnBe3InF9
_chemical_formula_sum   'Mn2 Be6 In2 F18'
_cell_volume   402.80602602
_cell_formula_units_Z   2
loop_
 _symmetry_equiv_pos_site_id
 _symmetry_equiv_pos_as_xyz
  1  'x, y, z'
loop_
 _atom_site_type_symbol
 _atom_site_label
 _atom_site_symmetry_multiplicity
 _atom_site_fract_x
 _atom_site_fract_y
 _atom_site_fract_z
 _atom_site_occupancy
  Mn  Mn0  1  0.333333  0.666667  0.000000  1
  Mn  Mn1  1  0.333333  0.666667  0.500000  1
  Be  Be2  1  0.217595  0.948359  0.250000  1
  Be  Be3  1  0.217595  0.269237  0.750000  1
  Be  Be4  1  0.730763  0.948359  0.750000  1
  Be  Be5  1  0.051641  0.782405  0.750000  1
  Be  Be6  1  0.051641  0.269237  0.250000  1
  Be  Be7  1  0.730763  0.782405  0.250000  1
  In  In8  1  0.666667  0.333333  0.000000  1
  In  In9  1  0.666667  0.333333  0.500000  1
  F  F10  1  0.073993  0.667034  0.621816  1
  F  F11  1  0.593042  0.926007  0.621816  1
  F  F12  1  0.332966  0.406958  0.621816  1
  F  F13  1  0.332966  0.926007  0.378184  1
  F  F14  1  0.234144  0.189508  0.250000  1
  F  F15  1  0.955364  0.765856  0.250000  1
  F  F16  1  0.810492  0.044636  0.250000  1
  F  F17  1  0.810492  0.765856  0.750000  1
  F  F18  1  0.955364  0.189508  0.750000  1
  F  F19  1  0.234144  0.044636  0.750000  1
  F  F20  1  0.332966  0.926007  0.121815  1
  F  F21  1  0.593042  0.667034  0.378184  1
  F  F22  1  0.073993  0.406958  0.378184  1
  F  F23  1  0.073993  0.406958  0.121815  1
  F  F24  1  0.593042  0.667034  0.121815  1
  F  F25  1  0.073993  0.667034  0.878184  1
  F  F26  1  0.593042  0.926007  0.878184  1
  F  F27  1  0.332966  0.406958  0.878184  1
