# generated using pymatgen
data_Cs3Rh2Cl9
_symmetry_space_group_name_H-M   'P 1'
_cell_length_a   7.42310700
_cell_length_b   7.42310704
_cell_length_c   18.63417800
_cell_angle_alpha   90.00000000
_cell_angle_beta   90.00000000
_cell_angle_gamma   120.00000426
_symmetry_Int_Tables_number   1
_chemical_formula_structural   Cs3Rh2Cl9
_chemical_formula_sum   'Cs6 Rh4 Cl18'
_cell_volume   889.22629546
_cell_formula_units_Z   2
loop_
 _symmetry_equiv_pos_site_id
 _symmetry_equiv_pos_as_xyz
  1  'x, y, z'
loop_
 _atom_site_type_symbol
 _atom_site_label
 _atom_site_symmetry_multiplicity
 _atom_site_fract_x
 _atom_site_fract_y
 _atom_site_fract_z
 _atom_site_occupancy
  Cs  Cs0  1  0.000000  0.000000  0.250000  1
  Cs  Cs1  1  0.000000  0.000000  0.750000  1
  Cs  Cs2  1  0.333333  0.666667  0.427818  1
  Cs  Cs3  1  0.666667  0.333333  0.572182  1
  Cs  Cs4  1  0.666667  0.333333  0.927818  1
  Cs  Cs5  1  0.333333  0.666667  0.072182  1
  Rh  Rh6  1  0.333333  0.666667  0.666116  1
  Rh  Rh7  1  0.666667  0.333333  0.333884  1
  Rh  Rh8  1  0.666667  0.333333  0.166116  1
  Rh  Rh9  1  0.333333  0.666667  0.833884  1
  Cl  Cl10  1  0.522787  0.477213  0.250000  1
  Cl  Cl11  1  0.522787  0.045573  0.250000  1
  Cl  Cl12  1  0.954427  0.477213  0.250000  1
  Cl  Cl13  1  0.477213  0.522787  0.750000  1
  Cl  Cl14  1  0.477213  0.954427  0.750000  1
  Cl  Cl15  1  0.045573  0.522787  0.750000  1
  Cl  Cl16  1  0.816534  0.183466  0.404576  1
  Cl  Cl17  1  0.816534  0.633067  0.404576  1
  Cl  Cl18  1  0.366933  0.183466  0.404576  1
  Cl  Cl19  1  0.183466  0.816534  0.595424  1
  Cl  Cl20  1  0.183466  0.366933  0.595424  1
  Cl  Cl21  1  0.633067  0.816534  0.595424  1
  Cl  Cl22  1  0.183466  0.816534  0.904576  1
  Cl  Cl23  1  0.183466  0.366933  0.904576  1
  Cl  Cl24  1  0.633067  0.816534  0.904576  1
  Cl  Cl25  1  0.816534  0.183466  0.095424  1
  Cl  Cl26  1  0.816534  0.633067  0.095424  1
  Cl  Cl27  1  0.366933  0.183466  0.095424  1
