# generated using pymatgen
data_PrNd3Al3(Ga5Ir2)3
_symmetry_space_group_name_H-M   'P 1'
_cell_length_a   7.64516606
_cell_length_b   7.64713671
_cell_length_c   9.60668602
_cell_angle_alpha   90.00108821
_cell_angle_beta   90.00158191
_cell_angle_gamma   119.58430243
_symmetry_Int_Tables_number   1
_chemical_formula_structural   PrNd3Al3(Ga5Ir2)3
_chemical_formula_sum   'Pr1 Nd3 Al3 Ga15 Ir6'
_cell_volume   488.42062960
_cell_formula_units_Z   1
loop_
 _symmetry_equiv_pos_site_id
 _symmetry_equiv_pos_as_xyz
  1  'x, y, z'
loop_
 _atom_site_type_symbol
 _atom_site_label
 _atom_site_symmetry_multiplicity
 _atom_site_fract_x
 _atom_site_fract_y
 _atom_site_fract_z
 _atom_site_occupancy
  Pr  Pr0  1  0.999913  0.669977  0.250084  1
  Nd  Nd1  1  0.999759  0.330464  0.748986  1
  Nd  Nd2  1  0.669989  0.000109  0.250099  1
  Nd  Nd3  1  0.330441  0.999743  0.748983  1
  Al  Al4  1  0.663539  0.663732  0.454148  1
  Al  Al5  1  0.667630  0.667832  0.045682  1
  Al  Al6  1  0.332158  0.332160  0.952665  1
  Ga  Ga7  1  0.127162  0.127402  0.249483  1
  Ga  Ga8  1  0.873207  0.873223  0.749296  1
  Ga  Ga9  1  0.002200  0.335177  0.077560  1
  Ga  Ga10  1  0.998652  0.665057  0.921022  1
  Ga  Ga11  1  0.997682  0.664613  0.578358  1
  Ga  Ga12  1  0.336304  0.004269  0.420511  1
  Ga  Ga13  1  0.003948  0.335617  0.420524  1
  Ga  Ga14  1  0.664625  0.997738  0.578114  1
  Ga  Ga15  1  0.665068  0.998710  0.921256  1
  Ga  Ga16  1  0.335859  0.002519  0.077572  1
  Ga  Ga17  1  0.329426  0.329428  0.560670  1
  Ga  Ga18  1  0.348808  0.549410  0.249904  1
  Ga  Ga19  1  0.654795  0.451515  0.750186  1
  Ga  Ga20  1  0.549087  0.348296  0.249904  1
  Ga  Ga21  1  0.451541  0.654812  0.750184  1
  Ir  Ir22  1  0.668282  0.331803  0.999615  1
  Ir  Ir23  1  0.331955  0.668339  0.999616  1
  Ir  Ir24  1  0.331605  0.671400  0.499190  1
  Ir  Ir25  1  0.671336  0.331445  0.499194  1
  Ir  Ir26  1  0.999809  0.999894  0.999215  1
  Ir  Ir27  1  0.995216  0.995316  0.497973  1
