# generated using pymatgen
data_La6Dy7Ho3(CdIr)4
_symmetry_space_group_name_H-M   'P 1'
_cell_length_a   9.81841623
_cell_length_b   9.82363828
_cell_length_c   9.81841163
_cell_angle_alpha   59.98241953
_cell_angle_beta   59.96858157
_cell_angle_gamma   59.98237211
_symmetry_Int_Tables_number   1
_chemical_formula_structural   La6Dy7Ho3(CdIr)4
_chemical_formula_sum   'La6 Dy7 Ho3 Cd4 Ir4'
_cell_volume   669.30066429
_cell_formula_units_Z   1
loop_
 _symmetry_equiv_pos_site_id
 _symmetry_equiv_pos_as_xyz
  1  'x, y, z'
loop_
 _atom_site_type_symbol
 _atom_site_label
 _atom_site_symmetry_multiplicity
 _atom_site_fract_x
 _atom_site_fract_y
 _atom_site_fract_z
 _atom_site_occupancy
  La  La0  1  0.193020  0.806866  0.806889  1
  La  La1  1  0.806889  0.193225  0.193020  1
  La  La2  1  0.807028  0.192972  0.807028  1
  La  La3  1  0.193226  0.806774  0.193226  1
  La  La4  1  0.806781  0.806750  0.193181  1
  La  La5  1  0.193181  0.193287  0.806781  1
  Dy  Dy6  1  0.596574  0.596407  0.596717  1
  Dy  Dy7  1  0.596806  0.596487  0.210085  1
  Dy  Dy8  1  0.596717  0.210302  0.596574  1
  Dy  Dy9  1  0.210085  0.596622  0.596806  1
  Dy  Dy10  1  0.063266  0.436767  0.436264  1
  Dy  Dy11  1  0.436264  0.063704  0.063266  1
  Dy  Dy12  1  0.436559  0.063441  0.436559  1
  Ho  Ho13  1  0.063456  0.436544  0.063456  1
  Ho  Ho14  1  0.436375  0.436871  0.063147  1
  Ho  Ho15  1  0.063147  0.063607  0.436375  1
  Cd  Cd16  1  0.828778  0.828637  0.828695  1
  Cd  Cd17  1  0.828840  0.828731  0.513782  1
  Cd  Cd18  1  0.828695  0.513889  0.828778  1
  Cd  Cd19  1  0.513782  0.828646  0.828840  1
  Ir  Ir20  1  0.391293  0.390928  0.391092  1
  Ir  Ir21  1  0.391132  0.391056  0.827012  1
  Ir  Ir22  1  0.391092  0.826687  0.391293  1
  Ir  Ir23  1  0.827012  0.390800  0.391132  1
