# generated using pymatgen
data_Pr6(TlIn)5
_symmetry_space_group_name_H-M   'P 1'
_cell_length_a   6.69594492
_cell_length_b   6.69450609
_cell_length_c   10.72659400
_cell_angle_alpha   89.99983038
_cell_angle_beta   90.00006845
_cell_angle_gamma   102.30502506
_symmetry_Int_Tables_number   1
_chemical_formula_structural   Pr6(TlIn)5
_chemical_formula_sum   'Pr6 Tl5 In5'
_cell_volume   469.78459543
_cell_formula_units_Z   1
loop_
 _symmetry_equiv_pos_site_id
 _symmetry_equiv_pos_as_xyz
  1  'x, y, z'
loop_
 _atom_site_type_symbol
 _atom_site_label
 _atom_site_symmetry_multiplicity
 _atom_site_fract_x
 _atom_site_fract_y
 _atom_site_fract_z
 _atom_site_occupancy
  Pr  Pr0  1  0.631867  0.629777  0.250000  1
  Pr  Pr1  1  0.370035  0.368747  0.750000  1
  Pr  Pr2  1  0.203257  0.797505  0.498217  1
  Pr  Pr3  1  0.203257  0.797506  0.001783  1
  Pr  Pr4  1  0.797118  0.205793  0.498820  1
  Pr  Pr5  1  0.797117  0.205791  0.001180  1
  Tl  Tl6  1  0.010192  0.009579  0.249999  1
  Tl  Tl7  1  0.988372  0.988304  0.749999  1
  Tl  Tl8  1  0.505105  0.075017  0.250002  1
  Tl  Tl9  1  0.925485  0.494800  0.750000  1
  Tl  Tl10  1  0.493893  0.923294  0.750000  1
  In  In11  1  0.309274  0.313775  0.047453  1
  In  In12  1  0.689287  0.689334  0.954393  1
  In  In13  1  0.309274  0.313776  0.452547  1
  In  In14  1  0.689287  0.689334  0.545606  1
  In  In15  1  0.077180  0.497667  0.250000  1
