# generated using pymatgen
data_La9NdIrOs3
_symmetry_space_group_name_H-M   'P 1'
_cell_length_a   9.12682661
_cell_length_b   9.10160173
_cell_length_c   7.44187305
_cell_angle_alpha   85.03324119
_cell_angle_beta   84.98430481
_cell_angle_gamma   43.55563374
_symmetry_Int_Tables_number   1
_chemical_formula_structural   La9NdIrOs3
_chemical_formula_sum   'La9 Nd1 Ir1 Os3'
_cell_volume   424.09314755
_cell_formula_units_Z   1
loop_
 _symmetry_equiv_pos_site_id
 _symmetry_equiv_pos_as_xyz
  1  'x, y, z'
loop_
 _atom_site_type_symbol
 _atom_site_label
 _atom_site_symmetry_multiplicity
 _atom_site_fract_x
 _atom_site_fract_y
 _atom_site_fract_z
 _atom_site_occupancy
  La  La0  1  0.020587  0.798853  0.909034  1
  La  La1  1  0.199108  0.984415  0.590027  1
  La  La2  1  0.987945  0.196382  0.092819  1
  La  La3  1  0.807450  0.012553  0.409720  1
  La  La4  1  0.355840  0.211652  0.818507  1
  La  La5  1  0.786609  0.644773  0.681138  1
  La  La6  1  0.641591  0.783481  0.179960  1
  La  La7  1  0.209326  0.361602  0.321997  1
  La  La8  1  0.570981  0.431654  0.746591  1
  Nd  Nd9  1  0.430991  0.569033  0.249599  1
  Ir  Ir10  1  0.598052  0.175230  0.077564  1
  Os  Os11  1  0.172246  0.605207  0.577326  1
  Os  Os12  1  0.394653  0.827589  0.923794  1
  Os  Os13  1  0.824621  0.397578  0.421924  1
