# generated using pymatgen
data_KLi(Ga3Te5)2
_symmetry_space_group_name_H-M   'P 1'
_cell_length_a   10.53581521
_cell_length_b   10.53581346
_cell_length_c   10.69851125
_cell_angle_alpha   89.01106160
_cell_angle_beta   89.01106209
_cell_angle_gamma   88.58750617
_symmetry_Int_Tables_number   1
_chemical_formula_structural   KLi(Ga3Te5)2
_chemical_formula_sum   'K2 Li2 Ga12 Te20'
_cell_volume   1186.86489609
_cell_formula_units_Z   2
loop_
 _symmetry_equiv_pos_site_id
 _symmetry_equiv_pos_as_xyz
  1  'x, y, z'
loop_
 _atom_site_type_symbol
 _atom_site_label
 _atom_site_symmetry_multiplicity
 _atom_site_fract_x
 _atom_site_fract_y
 _atom_site_fract_z
 _atom_site_occupancy
  K  K0  1  0.501774  0.498226  0.500000  1
  K  K1  1  0.243517  0.756483  0.000000  1
  Li  Li2  1  0.723245  0.999739  0.712538  1
  Li  Li3  1  0.000261  0.276755  0.287462  1
  Ga  Ga4  1  0.429219  0.161411  0.881382  1
  Ga  Ga5  1  0.154763  0.122544  0.574003  1
  Ga  Ga6  1  0.117500  0.422869  0.842042  1
  Ga  Ga7  1  0.877456  0.845237  0.425997  1
  Ga  Ga8  1  0.577131  0.882500  0.157958  1
  Ga  Ga9  1  0.838589  0.570781  0.118618  1
  Ga  Ga10  1  0.661645  0.250058  0.161881  1
  Ga  Ga11  1  0.252238  0.842546  0.344597  1
  Ga  Ga12  1  0.828653  0.660611  0.746785  1
  Ga  Ga13  1  0.157454  0.747762  0.655403  1
  Ga  Ga14  1  0.339389  0.171347  0.253215  1
  Ga  Ga15  1  0.749942  0.338355  0.838119  1
  Te  Te16  1  0.175499  0.170131  0.825399  1
  Te  Te17  1  0.829869  0.824501  0.174601  1
  Te  Te18  1  0.430111  0.327231  0.069943  1
  Te  Te19  1  0.321187  0.926977  0.570978  1
  Te  Te20  1  0.928166  0.431369  0.677608  1
  Te  Te21  1  0.073023  0.678813  0.429022  1
  Te  Te22  1  0.568631  0.071834  0.322392  1
  Te  Te23  1  0.672769  0.569889  0.930057  1
  Te  Te24  1  0.577639  0.239679  0.694015  1
  Te  Te25  1  0.233131  0.313944  0.428639  1
  Te  Te26  1  0.302097  0.564255  0.749947  1
  Te  Te27  1  0.686056  0.766869  0.571361  1
  Te  Te28  1  0.435745  0.697903  0.250053  1
  Te  Te29  1  0.760321  0.422361  0.305985  1
  Te  Te30  1  0.983758  0.836273  0.814035  1
  Te  Te31  1  0.831818  0.168182  0.000000  1
  Te  Te32  1  0.163727  0.016242  0.185965  1
  Te  Te33  1  0.518848  0.926462  0.919746  1
  Te  Te34  1  0.916317  0.083683  0.500000  1
  Te  Te35  1  0.073538  0.481152  0.080254  1
