# generated using pymatgen
data_LiLaHoSi3Ag
_symmetry_space_group_name_H-M   'P 1'
_cell_length_a   9.38390724
_cell_length_b   9.38390756
_cell_length_c   7.01182300
_cell_angle_alpha   90.00000000
_cell_angle_beta   90.00000000
_cell_angle_gamma   153.21611616
_symmetry_Int_Tables_number   1
_chemical_formula_structural   LiLaHoSi3Ag
_chemical_formula_sum   'Li2 La2 Ho2 Si6 Ag2'
_cell_volume   278.23711222
_cell_formula_units_Z   2
loop_
 _symmetry_equiv_pos_site_id
 _symmetry_equiv_pos_as_xyz
  1  'x, y, z'
loop_
 _atom_site_type_symbol
 _atom_site_label
 _atom_site_symmetry_multiplicity
 _atom_site_fract_x
 _atom_site_fract_y
 _atom_site_fract_z
 _atom_site_occupancy
  Li  Li0  1  0.807915  0.192085  0.940234  1
  Li  Li1  1  0.807915  0.192085  0.559766  1
  La  La2  1  0.555455  0.444545  0.250000  1
  La  La3  1  0.446150  0.553850  0.750000  1
  Ho  Ho4  1  0.347186  0.652814  0.250000  1
  Ho  Ho5  1  0.652454  0.347546  0.750000  1
  Si  Si6  1  0.726436  0.273564  0.250000  1
  Si  Si7  1  0.276798  0.723202  0.750000  1
  Si  Si8  1  0.057889  0.942111  0.921910  1
  Si  Si9  1  0.940336  0.059664  0.078080  1
  Si  Si10  1  0.940336  0.059664  0.421920  1
  Si  Si11  1  0.057889  0.942111  0.578090  1
  Ag  Ag12  1  0.191622  0.808378  0.048097  1
  Ag  Ag13  1  0.191622  0.808378  0.451903  1
