# generated using pymatgen
data_Ac4HoIn3
_symmetry_space_group_name_H-M   'P 1'
_cell_length_a   6.61593487
_cell_length_b   9.81389721
_cell_length_c   9.81389841
_cell_angle_alpha   83.47620051
_cell_angle_beta   70.30155903
_cell_angle_gamma   70.30155617
_symmetry_Int_Tables_number   1
_chemical_formula_structural   Ac4HoIn3
_chemical_formula_sum   'Ac8 Ho2 In6'
_cell_volume   564.80198231
_cell_formula_units_Z   2
loop_
 _symmetry_equiv_pos_site_id
 _symmetry_equiv_pos_as_xyz
  1  'x, y, z'
loop_
 _atom_site_type_symbol
 _atom_site_label
 _atom_site_symmetry_multiplicity
 _atom_site_fract_x
 _atom_site_fract_y
 _atom_site_fract_z
 _atom_site_occupancy
  Ac  Ac0  1  0.721078  0.864596  0.693248  1
  Ac  Ac1  1  0.278922  0.135404  0.306752  1
  Ac  Ac2  1  0.778922  0.306752  0.135404  1
  Ac  Ac3  1  0.221078  0.693248  0.864596  1
  Ac  Ac4  1  0.585674  0.693248  0.135404  1
  Ac  Ac5  1  0.414326  0.306752  0.864596  1
  Ac  Ac6  1  0.085674  0.135404  0.693248  1
  Ac  Ac7  1  0.914326  0.864596  0.306752  1
  Ho  Ho8  1  0.750000  0.500000  0.500000  1
  Ho  Ho9  1  0.250000  0.500000  0.500000  1
  In  In10  1  0.153453  0.500000  0.193095  1
  In  In11  1  0.846547  0.500000  0.806905  1
  In  In12  1  0.346547  0.806905  0.500000  1
  In  In13  1  0.653453  0.193095  0.500000  1
  In  In14  1  0.250000  0.000000  0.000000  1
  In  In15  1  0.750000  0.000000  0.000000  1
