# generated using pymatgen
data_UCuI6
_symmetry_space_group_name_H-M   'P 1'
_cell_length_a   7.95858338
_cell_length_b   7.95858381
_cell_length_c   6.96806822
_cell_angle_alpha   84.21192147
_cell_angle_beta   84.21192090
_cell_angle_gamma   121.03389578
_symmetry_Int_Tables_number   1
_chemical_formula_structural   UCuI6
_chemical_formula_sum   'U1 Cu1 I6'
_cell_volume   370.15243448
_cell_formula_units_Z   1
loop_
 _symmetry_equiv_pos_site_id
 _symmetry_equiv_pos_as_xyz
  1  'x, y, z'
loop_
 _atom_site_type_symbol
 _atom_site_label
 _atom_site_symmetry_multiplicity
 _atom_site_fract_x
 _atom_site_fract_y
 _atom_site_fract_z
 _atom_site_occupancy
  U  U0  1  0.989731  0.010269  0.000000  1
  Cu  Cu1  1  0.915206  0.084794  0.500000  1
  I  I2  1  0.257479  0.268485  0.248364  1
  I  I3  1  0.731515  0.742521  0.751636  1
  I  I4  1  0.014051  0.348536  0.736188  1
  I  I5  1  0.345406  0.070851  0.767422  1
  I  I6  1  0.929149  0.654594  0.232578  1
  I  I7  1  0.651464  0.985949  0.263812  1
