# generated using pymatgen
data_Nb2Ga3Ni
_symmetry_space_group_name_H-M   'P 1'
_cell_length_a   5.13479100
_cell_length_b   5.13479077
_cell_length_c   7.84618700
_cell_angle_alpha   90.00000000
_cell_angle_beta   90.00000000
_cell_angle_gamma   119.99809755
_symmetry_Int_Tables_number   1
_chemical_formula_structural   Nb2Ga3Ni
_chemical_formula_sum   'Nb4 Ga6 Ni2'
_cell_volume   179.16085869
_cell_formula_units_Z   2
loop_
 _symmetry_equiv_pos_site_id
 _symmetry_equiv_pos_as_xyz
  1  'x, y, z'
loop_
 _atom_site_type_symbol
 _atom_site_label
 _atom_site_symmetry_multiplicity
 _atom_site_fract_x
 _atom_site_fract_y
 _atom_site_fract_z
 _atom_site_occupancy
  Nb  Nb0  1  0.666671  0.333329  0.570343  1
  Nb  Nb1  1  0.333329  0.666671  0.429657  1
  Nb  Nb2  1  0.333329  0.666671  0.070343  1
  Nb  Nb3  1  0.666671  0.333329  0.929657  1
  Ga  Ga4  1  0.168937  0.337856  0.750000  1
  Ga  Ga5  1  0.168919  0.831081  0.750000  1
  Ga  Ga6  1  0.662144  0.831063  0.750000  1
  Ga  Ga7  1  0.831063  0.662144  0.250000  1
  Ga  Ga8  1  0.831081  0.168919  0.250000  1
  Ga  Ga9  1  0.337856  0.168937  0.250000  1
  Ni  Ni10  1  0.000000  0.000000  0.500000  1
  Ni  Ni11  1  0.000000  0.000000  0.000000  1
