# generated using pymatgen
data_Ce4Si3Mo
_symmetry_space_group_name_H-M   'P 1'
_cell_length_a   5.46495266
_cell_length_b   8.37073171
_cell_length_c   8.37073163
_cell_angle_alpha   83.88970679
_cell_angle_beta   70.97193540
_cell_angle_gamma   70.97194574
_symmetry_Int_Tables_number   1
_chemical_formula_structural   Ce4Si3Mo
_chemical_formula_sum   'Ce8 Si6 Mo2'
_cell_volume   342.22110230
_cell_formula_units_Z   2
loop_
 _symmetry_equiv_pos_site_id
 _symmetry_equiv_pos_as_xyz
  1  'x, y, z'
loop_
 _atom_site_type_symbol
 _atom_site_label
 _atom_site_symmetry_multiplicity
 _atom_site_fract_x
 _atom_site_fract_y
 _atom_site_fract_z
 _atom_site_occupancy
  Ce  Ce0  1  0.093411  0.135429  0.677874  1
  Ce  Ce1  1  0.906589  0.864571  0.322126  1
  Ce  Ce2  1  0.771208  0.322017  0.135457  1
  Ce  Ce3  1  0.406589  0.322126  0.864571  1
  Ce  Ce4  1  0.228792  0.677983  0.864543  1
  Ce  Ce5  1  0.593411  0.677874  0.135429  1
  Ce  Ce6  1  0.728792  0.864543  0.677983  1
  Ce  Ce7  1  0.271208  0.135457  0.322017  1
  Si  Si8  1  0.141193  0.499989  0.217637  1
  Si  Si9  1  0.858807  0.500011  0.782363  1
  Si  Si10  1  0.358807  0.782363  0.500011  1
  Si  Si11  1  0.641193  0.217637  0.499989  1
  Si  Si12  1  0.250000  0.000052  0.999948  1
  Si  Si13  1  0.750000  0.999948  0.000052  1
  Mo  Mo14  1  0.250000  0.499884  0.500116  1
  Mo  Mo15  1  0.750000  0.500116  0.499884  1
