# generated using pymatgen
data_Li4La4Ir3Pt
_symmetry_space_group_name_H-M   'P 1'
_cell_length_a   4.06467800
_cell_length_b   7.24412403
_cell_length_c   8.68504108
_cell_angle_alpha   89.46554713
_cell_angle_beta   90.00000000
_cell_angle_gamma   90.00000000
_symmetry_Int_Tables_number   1
_chemical_formula_structural   Li4La4Ir3Pt
_chemical_formula_sum   'Li4 La4 Ir3 Pt1'
_cell_volume   255.72018321
_cell_formula_units_Z   1
loop_
 _symmetry_equiv_pos_site_id
 _symmetry_equiv_pos_as_xyz
  1  'x, y, z'
loop_
 _atom_site_type_symbol
 _atom_site_label
 _atom_site_symmetry_multiplicity
 _atom_site_fract_x
 _atom_site_fract_y
 _atom_site_fract_z
 _atom_site_occupancy
  Li  Li0  1  0.250000  0.118866  0.053035  1
  Li  Li1  1  0.250000  0.618869  0.449873  1
  Li  Li2  1  0.750000  0.879140  0.948361  1
  Li  Li3  1  0.750000  0.381509  0.551320  1
  La  La4  1  0.250000  0.050412  0.668887  1
  La  La5  1  0.250000  0.565986  0.822918  1
  La  La6  1  0.750000  0.945484  0.320973  1
  La  La7  1  0.750000  0.448554  0.183707  1
  Ir  Ir8  1  0.250000  0.236581  0.370376  1
  Ir  Ir9  1  0.250000  0.735822  0.126891  1
  Ir  Ir10  1  0.750000  0.761906  0.630478  1
  Pt  Pt11  1  0.750000  0.256872  0.873181  1
