# generated using pymatgen
data_Zr6Co15Si7Os
_symmetry_space_group_name_H-M   'P 1'
_cell_length_a   8.10245537
_cell_length_b   8.10245533
_cell_length_c   8.12916891
_cell_angle_alpha   60.10864490
_cell_angle_beta   60.10864655
_cell_angle_gamma   60.00000047
_symmetry_Int_Tables_number   1
_chemical_formula_structural   Zr6Co15Si7Os
_chemical_formula_sum   'Zr6 Co15 Si7 Os1'
_cell_volume   377.98597420
_cell_formula_units_Z   1
loop_
 _symmetry_equiv_pos_site_id
 _symmetry_equiv_pos_as_xyz
  1  'x, y, z'
loop_
 _atom_site_type_symbol
 _atom_site_label
 _atom_site_symmetry_multiplicity
 _atom_site_fract_x
 _atom_site_fract_y
 _atom_site_fract_z
 _atom_site_occupancy
  Zr  Zr0  1  0.707493  0.293356  0.291658  1
  Zr  Zr1  1  0.294771  0.294771  0.708055  1
  Zr  Zr2  1  0.294771  0.702402  0.708055  1
  Zr  Zr3  1  0.707493  0.707493  0.291658  1
  Zr  Zr4  1  0.293356  0.707493  0.291658  1
  Zr  Zr5  1  0.702402  0.294771  0.708055  1
  Co  Co6  1  0.672682  0.981577  0.673058  1
  Co  Co7  1  0.359814  0.878362  0.883462  1
  Co  Co8  1  0.017315  0.329685  0.323316  1
  Co  Co9  1  0.981577  0.672682  0.673058  1
  Co  Co10  1  0.326693  0.326693  0.019922  1
  Co  Co11  1  0.673334  0.673334  0.979997  1
  Co  Co12  1  0.639467  0.120310  0.119913  1
  Co  Co13  1  0.672682  0.672682  0.673058  1
  Co  Co14  1  0.879878  0.879878  0.360365  1
  Co  Co15  1  0.120310  0.120310  0.119913  1
  Co  Co16  1  0.878362  0.359814  0.883462  1
  Co  Co17  1  0.878362  0.878362  0.883462  1
  Co  Co18  1  0.329685  0.329685  0.323316  1
  Co  Co19  1  0.120310  0.639467  0.119913  1
  Co  Co20  1  0.329685  0.017315  0.323316  1
  Si  Si21  1  0.998957  0.501256  0.998531  1
  Si  Si22  1  0.998902  0.998902  0.497921  1
  Si  Si23  1  0.996516  0.996516  0.010451  1
  Si  Si24  1  0.501256  0.501256  0.998531  1
  Si  Si25  1  0.504275  0.998902  0.497921  1
  Si  Si26  1  0.501256  0.998957  0.998531  1
  Si  Si27  1  0.998902  0.504275  0.497921  1
  Os  Os28  1  0.119493  0.119493  0.641523  1
