# generated using pymatgen
data_Ba(TiS2)8
_symmetry_space_group_name_H-M   'P 1'
_cell_length_a   6.85060100
_cell_length_b   6.85060119
_cell_length_c   14.87987900
_cell_angle_alpha   90.00000000
_cell_angle_beta   90.00000000
_cell_angle_gamma   119.99999428
_symmetry_Int_Tables_number   1
_chemical_formula_structural   Ba(TiS2)8
_chemical_formula_sum   'Ba1 Ti8 S16'
_cell_volume   604.76606721
_cell_formula_units_Z   1
loop_
 _symmetry_equiv_pos_site_id
 _symmetry_equiv_pos_as_xyz
  1  'x, y, z'
loop_
 _atom_site_type_symbol
 _atom_site_label
 _atom_site_symmetry_multiplicity
 _atom_site_fract_x
 _atom_site_fract_y
 _atom_site_fract_z
 _atom_site_occupancy
  Ba  Ba0  1  0.000000  0.000000  0.000000  1
  Ti  Ti1  1  0.501900  0.498100  0.736652  1
  Ti  Ti2  1  0.498100  0.501900  0.263348  1
  Ti  Ti3  1  0.501900  0.003799  0.736652  1
  Ti  Ti4  1  0.498100  0.996201  0.263348  1
  Ti  Ti5  1  0.996201  0.498100  0.736652  1
  Ti  Ti6  1  0.003799  0.501900  0.263348  1
  Ti  Ti7  1  0.000000  0.000000  0.734231  1
  Ti  Ti8  1  0.000000  0.000000  0.265769  1
  S  S9  1  0.833147  0.666295  0.165786  1
  S  S10  1  0.832917  0.665835  0.642013  1
  S  S11  1  0.833147  0.166853  0.165786  1
  S  S12  1  0.832917  0.167083  0.642013  1
  S  S13  1  0.333333  0.666667  0.164617  1
  S  S14  1  0.333333  0.666667  0.644392  1
  S  S15  1  0.333705  0.166853  0.165786  1
  S  S16  1  0.334165  0.167083  0.642013  1
  S  S17  1  0.666295  0.833147  0.834214  1
  S  S18  1  0.665835  0.832917  0.357987  1
  S  S19  1  0.666667  0.333333  0.835383  1
  S  S20  1  0.666667  0.333333  0.355608  1
  S  S21  1  0.166853  0.833147  0.834214  1
  S  S22  1  0.167083  0.832917  0.357987  1
  S  S23  1  0.166853  0.333705  0.834214  1
  S  S24  1  0.167083  0.334165  0.357987  1
