# generated using pymatgen
data_Tm5ScC2Br7
_symmetry_space_group_name_H-M   'P 1'
_cell_length_a   10.33522046
_cell_length_b   10.33522090
_cell_length_c   12.05253319
_cell_angle_alpha   57.60148818
_cell_angle_beta   57.60148711
_cell_angle_gamma   20.78462846
_symmetry_Int_Tables_number   1
_chemical_formula_structural   Tm5ScC2Br7
_chemical_formula_sum   'Tm5 Sc1 C2 Br7'
_cell_volume   383.11335897
_cell_formula_units_Z   1
loop_
 _symmetry_equiv_pos_site_id
 _symmetry_equiv_pos_as_xyz
  1  'x, y, z'
loop_
 _atom_site_type_symbol
 _atom_site_label
 _atom_site_symmetry_multiplicity
 _atom_site_fract_x
 _atom_site_fract_y
 _atom_site_fract_z
 _atom_site_occupancy
  Tm  Tm0  1  0.234908  0.234908  0.819751  1
  Tm  Tm1  1  0.311727  0.311727  0.367792  1
  Tm  Tm2  1  0.131657  0.131657  0.445873  1
  Tm  Tm3  1  0.869412  0.869412  0.550805  1
  Tm  Tm4  1  0.688505  0.688505  0.629049  1
  Sc  Sc5  1  0.763210  0.763210  0.190294  1
  C  C6  1  0.281273  0.281273  0.598802  1
  C  C7  1  0.719320  0.719320  0.399887  1
  Br  Br8  1  0.167813  0.167813  0.176129  1
  Br  Br9  1  0.839071  0.839071  0.819831  1
  Br  Br10  1  0.058632  0.058632  0.717438  1
  Br  Br11  1  0.941892  0.941892  0.279753  1
  Br  Br12  1  0.500274  0.500274  0.499400  1
  Br  Br13  1  0.377894  0.377894  0.081382  1
  Br  Br14  1  0.614413  0.614413  0.923815  1
