# generated using pymatgen
data_Hf3ZrB4(Ru5W)2
_symmetry_space_group_name_H-M   'P 1'
_cell_length_a   9.45958011
_cell_length_b   9.45958011
_cell_length_c   3.08255200
_cell_angle_alpha   90.00000000
_cell_angle_beta   90.00000000
_cell_angle_gamma   90.07649872
_symmetry_Int_Tables_number   1
_chemical_formula_structural   Hf3ZrB4(Ru5W)2
_chemical_formula_sum   'Hf3 Zr1 B4 Ru10 W2'
_cell_volume   275.83777635
_cell_formula_units_Z   1
loop_
 _symmetry_equiv_pos_site_id
 _symmetry_equiv_pos_as_xyz
  1  'x, y, z'
loop_
 _atom_site_type_symbol
 _atom_site_label
 _atom_site_symmetry_multiplicity
 _atom_site_fract_x
 _atom_site_fract_y
 _atom_site_fract_z
 _atom_site_occupancy
  Hf  Hf0  1  0.676276  0.176366  0.000000  1
  Hf  Hf1  1  0.323634  0.823724  0.000000  1
  Hf  Hf2  1  0.176352  0.323648  0.000000  1
  Zr  Zr3  1  0.823606  0.676394  0.000000  1
  B  B4  1  0.120786  0.620738  0.000000  1
  B  B5  1  0.879262  0.379214  0.000000  1
  B  B6  1  0.620522  0.879478  0.000000  1
  B  B7  1  0.379316  0.120684  0.000000  1
  Ru  Ru8  1  0.216093  0.071191  0.500000  1
  Ru  Ru9  1  0.783611  0.930110  0.500000  1
  Ru  Ru10  1  0.072123  0.783997  0.500000  1
  Ru  Ru11  1  0.716003  0.427877  0.500000  1
  Ru  Ru12  1  0.929012  0.215926  0.500000  1
  Ru  Ru13  1  0.284074  0.570988  0.500000  1
  Ru  Ru14  1  0.569890  0.716389  0.500000  1
  Ru  Ru15  1  0.428809  0.283907  0.500000  1
  Ru  Ru16  1  0.499860  0.000140  0.500000  1
  Ru  Ru17  1  0.000955  0.499045  0.500000  1
  W  W18  1  0.000025  0.000207  0.000000  1
  W  W19  1  0.499793  0.499975  0.000000  1
