# generated using pymatgen
data_YbSm7SiPd24
_symmetry_space_group_name_H-M   'P 1'
_cell_length_a   8.41285619
_cell_length_b   8.41285619
_cell_length_c   8.41285619
_cell_angle_alpha   90.01709309
_cell_angle_beta   90.01709309
_cell_angle_gamma   90.01709309
_symmetry_Int_Tables_number   1
_chemical_formula_structural   YbSm7SiPd24
_chemical_formula_sum   'Yb1 Sm7 Si1 Pd24'
_cell_volume   595.42948542
_cell_formula_units_Z   1
loop_
 _symmetry_equiv_pos_site_id
 _symmetry_equiv_pos_as_xyz
  1  'x, y, z'
loop_
 _atom_site_type_symbol
 _atom_site_label
 _atom_site_symmetry_multiplicity
 _atom_site_fract_x
 _atom_site_fract_y
 _atom_site_fract_z
 _atom_site_occupancy
  Yb  Yb0  1  0.253002  0.253002  0.253002  1
  Sm  Sm1  1  0.746612  0.746612  0.746612  1
  Sm  Sm2  1  0.746510  0.746510  0.253295  1
  Sm  Sm3  1  0.746510  0.253295  0.746510  1
  Sm  Sm4  1  0.253452  0.253452  0.746527  1
  Sm  Sm5  1  0.253452  0.746527  0.253452  1
  Sm  Sm6  1  0.253295  0.746510  0.746510  1
  Sm  Sm7  1  0.746527  0.253452  0.253452  1
  Si  Si8  1  0.000421  0.000421  0.000421  1
  Pd  Pd9  1  0.257213  0.498996  0.001027  1
  Pd  Pd10  1  0.742864  0.500131  0.999736  1
  Pd  Pd11  1  0.001027  0.257213  0.498996  1
  Pd  Pd12  1  0.498996  0.257213  0.001027  1
  Pd  Pd13  1  0.999736  0.742864  0.500131  1
  Pd  Pd14  1  0.500131  0.742864  0.999736  1
  Pd  Pd15  1  0.498996  0.001027  0.257213  1
  Pd  Pd16  1  0.257213  0.001027  0.498996  1
  Pd  Pd17  1  0.500131  0.999736  0.742864  1
  Pd  Pd18  1  0.742864  0.999736  0.500131  1
  Pd  Pd19  1  0.001027  0.498996  0.257213  1
  Pd  Pd20  1  0.999736  0.500131  0.742864  1
  Pd  Pd21  1  0.251998  0.498735  0.498735  1
  Pd  Pd22  1  0.747920  0.500246  0.500246  1
  Pd  Pd23  1  0.498735  0.251998  0.498735  1
  Pd  Pd24  1  0.500246  0.747920  0.500246  1
  Pd  Pd25  1  0.498735  0.498735  0.251998  1
  Pd  Pd26  1  0.500246  0.500246  0.747920  1
  Pd  Pd27  1  0.280507  0.001336  0.001336  1
  Pd  Pd28  1  0.719311  0.999958  0.999958  1
  Pd  Pd29  1  0.001336  0.280507  0.001336  1
  Pd  Pd30  1  0.999958  0.719311  0.999958  1
  Pd  Pd31  1  0.001336  0.001336  0.280507  1
  Pd  Pd32  1  0.999958  0.999958  0.719311  1
