# generated using pymatgen
data_Hf5ZrFe5Si12Rh
_symmetry_space_group_name_H-M   'P 1'
_cell_length_a   9.72747603
_cell_length_b   9.71764653
_cell_length_c   9.72255888
_cell_angle_alpha   148.95277300
_cell_angle_beta   133.15219045
_cell_angle_gamma   57.20525466
_symmetry_Int_Tables_number   1
_chemical_formula_structural   Hf5ZrFe5Si12Rh
_chemical_formula_sum   'Hf5 Zr1 Fe5 Si12 Rh1'
_cell_volume   343.39196276
_cell_formula_units_Z   1
loop_
 _symmetry_equiv_pos_site_id
 _symmetry_equiv_pos_as_xyz
  1  'x, y, z'
loop_
 _atom_site_type_symbol
 _atom_site_label
 _atom_site_symmetry_multiplicity
 _atom_site_fract_x
 _atom_site_fract_y
 _atom_site_fract_z
 _atom_site_occupancy
  Hf  Hf0  1  0.144146  0.403549  0.738391  1
  Hf  Hf1  1  0.666121  0.403533  0.259862  1
  Hf  Hf2  1  0.334320  0.596185  0.740774  1
  Hf  Hf3  1  0.139336  0.141546  0.998638  1
  Hf  Hf4  1  0.860852  0.858305  0.001591  1
  Zr  Zr5  1  0.854705  0.596352  0.260805  1
  Fe  Fe6  1  0.745649  0.001562  0.746865  1
  Fe  Fe7  1  0.000688  0.000683  0.500027  1
  Fe  Fe8  1  0.499961  0.000089  0.000006  1
  Fe  Fe9  1  0.253402  0.997448  0.253364  1
  Fe  Fe10  1  0.000767  0.500438  0.999672  1
  Si  Si11  1  0.484744  0.126329  0.339984  1
  Si  Si12  1  0.515145  0.873719  0.659980  1
  Si  Si13  1  0.209623  0.857698  0.347405  1
  Si  Si14  1  0.790698  0.142466  0.652570  1
  Si  Si15  1  0.706691  0.721984  0.024576  1
  Si  Si16  1  0.293426  0.278547  0.975338  1
  Si  Si17  1  0.499532  0.741968  0.242813  1
  Si  Si18  1  0.499694  0.257546  0.756725  1
  Si  Si19  1  0.000266  0.253232  0.254115  1
  Si  Si20  1  0.207767  0.723802  0.505898  1
  Si  Si21  1  0.999885  0.746213  0.746578  1
  Si  Si22  1  0.792617  0.276833  0.494207  1
  Rh  Rh23  1  0.499966  0.499972  0.499817  1
