# generated using pymatgen
data_Er2Hf2IrPt
_symmetry_space_group_name_H-M   'P 1'
_cell_length_a   4.64465800
_cell_length_b   7.01103000
_cell_length_c   8.16970400
_cell_angle_alpha   90.00000000
_cell_angle_beta   90.00000000
_cell_angle_gamma   90.00000000
_symmetry_Int_Tables_number   1
_chemical_formula_structural   Er2Hf2IrPt
_chemical_formula_sum   'Er4 Hf4 Ir2 Pt2'
_cell_volume   266.03690594
_cell_formula_units_Z   2
loop_
 _symmetry_equiv_pos_site_id
 _symmetry_equiv_pos_as_xyz
  1  'x, y, z'
loop_
 _atom_site_type_symbol
 _atom_site_label
 _atom_site_symmetry_multiplicity
 _atom_site_fract_x
 _atom_site_fract_y
 _atom_site_fract_z
 _atom_site_occupancy
  Er  Er0  1  0.250000  0.983873  0.324029  1
  Er  Er1  1  0.250000  0.483873  0.175971  1
  Er  Er2  1  0.750000  0.018402  0.677152  1
  Er  Er3  1  0.750000  0.518402  0.822848  1
  Hf  Hf4  1  0.250000  0.354465  0.571824  1
  Hf  Hf5  1  0.250000  0.854465  0.928176  1
  Hf  Hf6  1  0.750000  0.641297  0.421272  1
  Hf  Hf7  1  0.750000  0.141297  0.078728  1
  Ir  Ir8  1  0.750000  0.769853  0.093223  1
  Ir  Ir9  1  0.750000  0.269853  0.406777  1
  Pt  Pt10  1  0.250000  0.232111  0.902815  1
  Pt  Pt11  1  0.250000  0.732111  0.597185  1
