# generated using pymatgen
data_Gd3Bi2
_symmetry_space_group_name_H-M   'P 1'
_cell_length_a   8.51577400
_cell_length_b   8.51577400
_cell_length_c   4.29893300
_cell_angle_alpha   90.00000000
_cell_angle_beta   90.00000000
_cell_angle_gamma   90.00000000
_symmetry_Int_Tables_number   1
_chemical_formula_structural   Gd3Bi2
_chemical_formula_sum   'Gd6 Bi4'
_cell_volume   311.75177218
_cell_formula_units_Z   2
loop_
 _symmetry_equiv_pos_site_id
 _symmetry_equiv_pos_as_xyz
  1  'x, y, z'
loop_
 _atom_site_type_symbol
 _atom_site_label
 _atom_site_symmetry_multiplicity
 _atom_site_fract_x
 _atom_site_fract_y
 _atom_site_fract_z
 _atom_site_occupancy
  Gd  Gd0  1  0.848156  0.651844  0.500000  1
  Gd  Gd1  1  0.348156  0.848156  0.500000  1
  Gd  Gd2  1  0.151844  0.348156  0.500000  1
  Gd  Gd3  1  0.651844  0.151844  0.500000  1
  Gd  Gd4  1  0.500000  0.500000  0.000000  1
  Gd  Gd5  1  0.000000  0.000000  0.000000  1
  Bi  Bi6  1  0.149588  0.649588  0.000000  1
  Bi  Bi7  1  0.649588  0.850412  0.000000  1
  Bi  Bi8  1  0.350412  0.149588  0.000000  1
  Bi  Bi9  1  0.850412  0.350412  0.000000  1
