# generated using pymatgen
data_CaTb2Y4FeI12
_symmetry_space_group_name_H-M   'P 1'
_cell_length_a   9.73948219
_cell_length_b   9.80322168
_cell_length_c   9.75355551
_cell_angle_alpha   106.87275325
_cell_angle_beta   106.75744220
_cell_angle_gamma   106.92205597
_symmetry_Int_Tables_number   1
_chemical_formula_structural   CaTb2Y4FeI12
_chemical_formula_sum   'Ca1 Tb2 Y4 Fe1 I12'
_cell_volume   778.69103003
_cell_formula_units_Z   1
loop_
 _symmetry_equiv_pos_site_id
 _symmetry_equiv_pos_as_xyz
  1  'x, y, z'
loop_
 _atom_site_type_symbol
 _atom_site_label
 _atom_site_symmetry_multiplicity
 _atom_site_fract_x
 _atom_site_fract_y
 _atom_site_fract_z
 _atom_site_occupancy
  Ca  Ca0  1  0.499946  0.499944  0.499992  1
  Tb  Tb1  1  0.976085  0.907401  0.713426  1
  Tb  Tb2  1  0.713939  0.975801  0.907608  1
  Y  Y3  1  0.098007  0.302032  0.024884  1
  Y  Y4  1  0.023936  0.092639  0.286743  1
  Y  Y5  1  0.286308  0.024485  0.092522  1
  Y  Y6  1  0.902277  0.698155  0.975237  1
  Fe  Fe7  1  0.999421  0.999864  0.999114  1
  I  I8  1  0.456411  0.376280  0.148483  1
  I  I9  1  0.147891  0.453955  0.378067  1
  I  I10  1  0.377464  0.149654  0.454566  1
  I  I11  1  0.543743  0.623367  0.851558  1
  I  I12  1  0.851714  0.545220  0.621970  1
  I  I13  1  0.621974  0.849817  0.544677  1
  I  I14  1  0.774317  0.318031  0.926333  1
  I  I15  1  0.927451  0.777489  0.318776  1
  I  I16  1  0.316811  0.926731  0.776468  1
  I  I17  1  0.226148  0.682493  0.073856  1
  I  I18  1  0.072608  0.223027  0.680858  1
  I  I19  1  0.683548  0.073613  0.224861  1
