# generated using pymatgen
data_Hf4FeSi4Ir3
_symmetry_space_group_name_H-M   'P 1'
_cell_length_a   3.95842100
_cell_length_b   6.45823561
_cell_length_c   7.34471672
_cell_angle_alpha   89.74779785
_cell_angle_beta   90.00000000
_cell_angle_gamma   90.00000000
_symmetry_Int_Tables_number   1
_chemical_formula_structural   Hf4FeSi4Ir3
_chemical_formula_sum   'Hf4 Fe1 Si4 Ir3'
_cell_volume   187.76157068
_cell_formula_units_Z   1
loop_
 _symmetry_equiv_pos_site_id
 _symmetry_equiv_pos_as_xyz
  1  'x, y, z'
loop_
 _atom_site_type_symbol
 _atom_site_label
 _atom_site_symmetry_multiplicity
 _atom_site_fract_x
 _atom_site_fract_y
 _atom_site_fract_z
 _atom_site_occupancy
  Hf  Hf0  1  0.250000  0.017268  0.318042  1
  Hf  Hf1  1  0.250000  0.512873  0.190288  1
  Hf  Hf2  1  0.750000  0.989589  0.678716  1
  Hf  Hf3  1  0.750000  0.476493  0.814456  1
  Fe  Fe4  1  0.750000  0.348860  0.435711  1
  Si  Si5  1  0.250000  0.280428  0.605253  1
  Si  Si6  1  0.250000  0.778903  0.880628  1
  Si  Si7  1  0.750000  0.715729  0.382501  1
  Si  Si8  1  0.750000  0.223148  0.131128  1
  Ir  Ir9  1  0.250000  0.159170  0.934300  1
  Ir  Ir10  1  0.250000  0.654570  0.564947  1
  Ir  Ir11  1  0.750000  0.842970  0.064029  1
