# generated using pymatgen
data_Rb2S8BrO26
_symmetry_space_group_name_H-M   'P 1'
_cell_length_a   7.63359685
_cell_length_b   9.08843441
_cell_length_c   9.59000104
_cell_angle_alpha   103.08712523
_cell_angle_beta   88.93077068
_cell_angle_gamma   105.51271207
_symmetry_Int_Tables_number   1
_chemical_formula_structural   Rb2S8BrO26
_chemical_formula_sum   'Rb2 S8 Br1 O26'
_cell_volume   623.81881458
_cell_formula_units_Z   1
loop_
 _symmetry_equiv_pos_site_id
 _symmetry_equiv_pos_as_xyz
  1  'x, y, z'
loop_
 _atom_site_type_symbol
 _atom_site_label
 _atom_site_symmetry_multiplicity
 _atom_site_fract_x
 _atom_site_fract_y
 _atom_site_fract_z
 _atom_site_occupancy
  Rb  Rb0  1  0.131596  0.256403  0.872641  1
  Rb  Rb1  1  0.868404  0.743597  0.127359  1
  S  S2  1  0.671338  0.353128  0.707059  1
  S  S3  1  0.328662  0.646872  0.292941  1
  S  S4  1  0.866619  0.191941  0.482833  1
  S  S5  1  0.133381  0.808059  0.517167  1
  S  S6  1  0.374040  0.129729  0.211865  1
  S  S7  1  0.625960  0.870271  0.788135  1
  S  S8  1  0.787344  0.222461  0.192537  1
  S  S9  1  0.212656  0.777539  0.807463  1
  Br  Br10  1  0.500000  0.500000  0.500000  1
  O  O11  1  0.690111  0.194057  0.578438  1
  O  O12  1  0.309889  0.805943  0.421562  1
  O  O13  1  0.706544  0.481508  0.622621  1
  O  O14  1  0.293456  0.518492  0.377379  1
  O  O15  1  0.817651  0.390964  0.811730  1
  O  O16  1  0.182349  0.609036  0.188270  1
  O  O17  1  0.834292  0.293929  0.371031  1
  O  O18  1  0.165708  0.706071  0.628969  1
  O  O19  1  0.027272  0.283624  0.566989  1
  O  O20  1  0.972728  0.716376  0.433011  1
  O  O21  1  0.486555  0.300570  0.743934  1
  O  O22  1  0.513445  0.699430  0.256066  1
  O  O23  1  0.841317  0.032132  0.410390  1
  O  O24  1  0.158683  0.967868  0.589610  1
  O  O25  1  0.383576  0.190767  0.366703  1
  O  O26  1  0.616424  0.809233  0.633297  1
  O  O27  1  0.605115  0.095507  0.183190  1
  O  O28  1  0.394885  0.904493  0.816810  1
  O  O29  1  0.774545  0.359926  0.149892  1
  O  O30  1  0.225455  0.640074  0.850108  1
  O  O31  1  0.924146  0.145277  0.138682  1
  O  O32  1  0.075854  0.854723  0.861318  1
  O  O33  1  0.369000  0.236253  0.122552  1
  O  O34  1  0.631000  0.763747  0.877448  1
  O  O35  1  0.271629  0.967986  0.164988  1
  O  O36  1  0.728371  0.032014  0.835012  1
