# generated using pymatgen
data_LuRu(SeO3)4
_symmetry_space_group_name_H-M   'P 1'
_cell_length_a   8.37515000
_cell_length_b   8.69049276
_cell_length_c   8.43742985
_cell_angle_alpha   91.48998693
_cell_angle_beta   90.00000000
_cell_angle_gamma   90.00000000
_symmetry_Int_Tables_number   1
_chemical_formula_structural   LuRu(SeO3)4
_chemical_formula_sum   'Lu2 Ru2 Se8 O24'
_cell_volume   613.90377540
_cell_formula_units_Z   2
loop_
 _symmetry_equiv_pos_site_id
 _symmetry_equiv_pos_as_xyz
  1  'x, y, z'
loop_
 _atom_site_type_symbol
 _atom_site_label
 _atom_site_symmetry_multiplicity
 _atom_site_fract_x
 _atom_site_fract_y
 _atom_site_fract_z
 _atom_site_occupancy
  Lu  Lu0  1  0.000000  0.500000  0.000000  1
  Lu  Lu1  1  0.500000  0.500000  0.500000  1
  Ru  Ru2  1  0.000000  0.000000  0.500000  1
  Ru  Ru3  1  0.500000  0.000000  0.000000  1
  Se  Se4  1  0.343994  0.693140  0.166660  1
  Se  Se5  1  0.843994  0.306860  0.333340  1
  Se  Se6  1  0.696390  0.845611  0.688504  1
  Se  Se7  1  0.196390  0.154389  0.811496  1
  Se  Se8  1  0.656006  0.306860  0.833340  1
  Se  Se9  1  0.156006  0.693140  0.666660  1
  Se  Se10  1  0.303610  0.154389  0.311496  1
  Se  Se11  1  0.803610  0.845611  0.188504  1
  O  O12  1  0.245941  0.570959  0.041413  1
  O  O13  1  0.745941  0.429041  0.458587  1
  O  O14  1  0.768329  0.981284  0.550770  1
  O  O15  1  0.268329  0.018716  0.949230  1
  O  O16  1  0.551396  0.974931  0.770685  1
  O  O17  1  0.477338  0.578439  0.256690  1
  O  O18  1  0.977338  0.421561  0.243310  1
  O  O19  1  0.051396  0.025069  0.729315  1
  O  O20  1  0.979672  0.222375  0.476757  1
  O  O21  1  0.579016  0.736070  0.571403  1
  O  O22  1  0.479672  0.777625  0.023243  1
  O  O23  1  0.079016  0.263930  0.928597  1
  O  O24  1  0.754059  0.429041  0.958587  1
  O  O25  1  0.254059  0.570959  0.541413  1
  O  O26  1  0.231671  0.018716  0.449230  1
  O  O27  1  0.731671  0.981284  0.050770  1
  O  O28  1  0.448604  0.025069  0.229315  1
  O  O29  1  0.522662  0.421561  0.743310  1
  O  O30  1  0.022662  0.578439  0.756690  1
  O  O31  1  0.948604  0.974931  0.270685  1
  O  O32  1  0.020328  0.777625  0.523243  1
  O  O33  1  0.420984  0.263930  0.428597  1
  O  O34  1  0.520328  0.222375  0.976757  1
  O  O35  1  0.920984  0.736070  0.071403  1
