# generated using pymatgen
data_Sc4Pt2O
_symmetry_space_group_name_H-M   'P 1'
_cell_length_a   8.75697628
_cell_length_b   8.75697625
_cell_length_c   8.75697700
_cell_angle_alpha   60.00000096
_cell_angle_beta   60.00000106
_cell_angle_gamma   59.99999624
_symmetry_Int_Tables_number   1
_chemical_formula_structural   Sc4Pt2O
_chemical_formula_sum   'Sc16 Pt8 O4'
_cell_volume   474.84027833
_cell_formula_units_Z   4
loop_
 _symmetry_equiv_pos_site_id
 _symmetry_equiv_pos_as_xyz
  1  'x, y, z'
loop_
 _atom_site_type_symbol
 _atom_site_label
 _atom_site_symmetry_multiplicity
 _atom_site_fract_x
 _atom_site_fract_y
 _atom_site_fract_z
 _atom_site_occupancy
  Sc  Sc0  1  0.125000  0.625000  0.625000  1
  Sc  Sc1  1  0.625000  0.125000  0.625000  1
  Sc  Sc2  1  0.625000  0.625000  0.125000  1
  Sc  Sc3  1  0.625000  0.625000  0.625000  1
  Sc  Sc4  1  0.817989  0.817989  0.182011  1
  Sc  Sc5  1  0.182011  0.182011  0.817989  1
  Sc  Sc6  1  0.817989  0.182011  0.817989  1
  Sc  Sc7  1  0.182011  0.817989  0.182011  1
  Sc  Sc8  1  0.182011  0.817989  0.817989  1
  Sc  Sc9  1  0.817989  0.182011  0.182011  1
  Sc  Sc10  1  0.432011  0.432011  0.067989  1
  Sc  Sc11  1  0.067989  0.067989  0.432011  1
  Sc  Sc12  1  0.432011  0.067989  0.432011  1
  Sc  Sc13  1  0.067989  0.432011  0.067989  1
  Sc  Sc14  1  0.067989  0.432011  0.432011  1
  Sc  Sc15  1  0.432011  0.067989  0.067989  1
  Pt  Pt16  1  0.767350  0.410883  0.410883  1
  Pt  Pt17  1  0.410883  0.767350  0.410883  1
  Pt  Pt18  1  0.410883  0.410883  0.767350  1
  Pt  Pt19  1  0.410883  0.410883  0.410883  1
  Pt  Pt20  1  0.482650  0.839117  0.839117  1
  Pt  Pt21  1  0.839117  0.482650  0.839117  1
  Pt  Pt22  1  0.839117  0.839117  0.482650  1
  Pt  Pt23  1  0.839117  0.839117  0.839117  1
  O  O24  1  0.625000  0.125000  0.125000  1
  O  O25  1  0.125000  0.625000  0.125000  1
  O  O26  1  0.125000  0.125000  0.625000  1
  O  O27  1  0.125000  0.125000  0.125000  1
