# generated using pymatgen
data_Ho4InPd6Pt5
_symmetry_space_group_name_H-M   'P 1'
_cell_length_a   4.19808700
_cell_length_b   5.83305780
_cell_length_c   11.65796641
_cell_angle_alpha   87.19136443
_cell_angle_beta   90.00000000
_cell_angle_gamma   90.00000000
_symmetry_Int_Tables_number   1
_chemical_formula_structural   Ho4InPd6Pt5
_chemical_formula_sum   'Ho4 In1 Pd6 Pt5'
_cell_volume   285.13367422
_cell_formula_units_Z   1
loop_
 _symmetry_equiv_pos_site_id
 _symmetry_equiv_pos_as_xyz
  1  'x, y, z'
loop_
 _atom_site_type_symbol
 _atom_site_label
 _atom_site_symmetry_multiplicity
 _atom_site_fract_x
 _atom_site_fract_y
 _atom_site_fract_z
 _atom_site_occupancy
  Ho  Ho0  1  0.500000  0.752637  0.375623  1
  Ho  Ho1  1  0.500000  0.718601  0.860264  1
  Ho  Ho2  1  0.500000  0.281399  0.139736  1
  Ho  Ho3  1  0.500000  0.247363  0.624377  1
  In  In4  1  0.000000  0.000000  0.000000  1
  Pd  Pd5  1  0.000000  0.500000  0.500000  1
  Pd  Pd6  1  0.500000  0.250952  0.377878  1
  Pd  Pd7  1  0.500000  0.229103  0.882070  1
  Pd  Pd8  1  0.500000  0.770897  0.117930  1
  Pd  Pd9  1  0.500000  0.749048  0.622122  1
  Pd  Pd10  1  0.000000  0.000000  0.500000  1
  Pt  Pt11  1  0.000000  0.009809  0.250603  1
  Pt  Pt12  1  0.000000  0.990191  0.749397  1
  Pt  Pt13  1  0.000000  0.500000  0.000000  1
  Pt  Pt14  1  0.000000  0.514727  0.250889  1
  Pt  Pt15  1  0.000000  0.485273  0.749111  1
