# generated using pymatgen
data_La4PrSmTa2O14
_symmetry_space_group_name_H-M   'P 1'
_cell_length_a   6.75108329
_cell_length_b   6.74063398
_cell_length_c   7.79737200
_cell_angle_alpha   90.00000000
_cell_angle_beta   90.00000000
_cell_angle_gamma   108.99538647
_symmetry_Int_Tables_number   1
_chemical_formula_structural   La4PrSmTa2O14
_chemical_formula_sum   'La4 Pr1 Sm1 Ta2 O14'
_cell_volume   335.50930596
_cell_formula_units_Z   1
loop_
 _symmetry_equiv_pos_site_id
 _symmetry_equiv_pos_as_xyz
  1  'x, y, z'
loop_
 _atom_site_type_symbol
 _atom_site_label
 _atom_site_symmetry_multiplicity
 _atom_site_fract_x
 _atom_site_fract_y
 _atom_site_fract_z
 _atom_site_occupancy
  La  La0  1  0.472110  0.475089  0.500730  1
  La  La1  1  0.472110  0.475089  0.999270  1
  La  La2  1  0.532498  0.995004  0.750000  1
  La  La3  1  0.993477  0.531309  0.250000  1
  Pr  Pr4  1  0.465260  0.996657  0.250000  1
  Sm  Sm5  1  0.996592  0.465991  0.750000  1
  Ta  Ta6  1  0.999152  0.998997  0.501299  1
  Ta  Ta7  1  0.999152  0.998997  0.998701  1
  O  O8  1  0.696556  0.939242  0.467560  1
  O  O9  1  0.956633  0.700996  0.538614  1
  O  O10  1  0.696556  0.939242  0.032440  1
  O  O11  1  0.956633  0.700996  0.961386  1
  O  O12  1  0.318562  0.078306  0.524189  1
  O  O13  1  0.070735  0.317779  0.478433  1
  O  O14  1  0.318562  0.078306  0.975811  1
  O  O15  1  0.070735  0.317779  0.021567  1
  O  O16  1  0.947877  0.059048  0.750000  1
  O  O17  1  0.054256  0.949738  0.250000  1
  O  O18  1  0.361332  0.622309  0.750000  1
  O  O19  1  0.625313  0.368032  0.250000  1
  O  O20  1  0.638703  0.361061  0.750000  1
  O  O21  1  0.357200  0.630038  0.250000  1
