# generated using pymatgen
data_Y5B4PdPt14
_symmetry_space_group_name_H-M   'P 1'
_cell_length_a   4.04446400
_cell_length_b   4.04446400
_cell_length_c   24.08266300
_cell_angle_alpha   90.00000000
_cell_angle_beta   90.00000000
_cell_angle_gamma   90.00000000
_symmetry_Int_Tables_number   1
_chemical_formula_structural   Y5B4PdPt14
_chemical_formula_sum   'Y5 B4 Pd1 Pt14'
_cell_volume   393.93671278
_cell_formula_units_Z   1
loop_
 _symmetry_equiv_pos_site_id
 _symmetry_equiv_pos_as_xyz
  1  'x, y, z'
loop_
 _atom_site_type_symbol
 _atom_site_label
 _atom_site_symmetry_multiplicity
 _atom_site_fract_x
 _atom_site_fract_y
 _atom_site_fract_z
 _atom_site_occupancy
  Y  Y0  1  0.000000  0.000000  0.901407  1
  Y  Y1  1  0.000000  0.000000  0.098593  1
  Y  Y2  1  0.000000  0.000000  0.304071  1
  Y  Y3  1  0.000000  0.000000  0.500000  1
  Y  Y4  1  0.000000  0.000000  0.695929  1
  B  B5  1  0.500000  0.500000  0.163646  1
  B  B6  1  0.500000  0.500000  0.371624  1
  B  B7  1  0.500000  0.500000  0.628376  1
  B  B8  1  0.500000  0.500000  0.836354  1
  Pd  Pd9  1  0.500000  0.500000  0.500000  1
  Pt  Pt10  1  0.500000  0.500000  0.920846  1
  Pt  Pt11  1  0.500000  0.500000  0.079154  1
  Pt  Pt12  1  0.500000  0.500000  0.285845  1
  Pt  Pt13  1  0.500000  0.500000  0.714155  1
  Pt  Pt14  1  0.500000  0.000000  0.000000  1
  Pt  Pt15  1  0.500000  0.000000  0.202016  1
  Pt  Pt16  1  0.500000  0.000000  0.408686  1
  Pt  Pt17  1  0.500000  0.000000  0.591314  1
  Pt  Pt18  1  0.500000  0.000000  0.797984  1
  Pt  Pt19  1  0.000000  0.500000  0.000000  1
  Pt  Pt20  1  0.000000  0.500000  0.202016  1
  Pt  Pt21  1  0.000000  0.500000  0.408686  1
  Pt  Pt22  1  0.000000  0.500000  0.591314  1
  Pt  Pt23  1  0.000000  0.500000  0.797984  1
