# generated using pymatgen
data_Y6Th2Cd2NiOs
_symmetry_space_group_name_H-M   'P 1'
_cell_length_a   9.70952186
_cell_length_b   9.70952295
_cell_length_c   9.78552300
_cell_angle_alpha   59.74072965
_cell_angle_beta   59.74072588
_cell_angle_gamma   59.45521405
_symmetry_Int_Tables_number   1
_chemical_formula_structural   Y6Th2Cd2NiOs
_chemical_formula_sum   'Y12 Th4 Cd4 Ni2 Os2'
_cell_volume   647.06160028
_cell_formula_units_Z   2
loop_
 _symmetry_equiv_pos_site_id
 _symmetry_equiv_pos_as_xyz
  1  'x, y, z'
loop_
 _atom_site_type_symbol
 _atom_site_label
 _atom_site_symmetry_multiplicity
 _atom_site_fract_x
 _atom_site_fract_y
 _atom_site_fract_z
 _atom_site_occupancy
  Y  Y0  1  0.062471  0.435677  0.439270  1
  Y  Y1  1  0.435677  0.062471  0.062582  1
  Y  Y2  1  0.435677  0.062471  0.439270  1
  Y  Y3  1  0.062471  0.435677  0.062582  1
  Y  Y4  1  0.438880  0.438880  0.061120  1
  Y  Y5  1  0.061614  0.061614  0.438386  1
  Y  Y6  1  0.185981  0.808991  0.817785  1
  Y  Y7  1  0.808991  0.185981  0.187242  1
  Y  Y8  1  0.808991  0.185981  0.817785  1
  Y  Y9  1  0.185981  0.808991  0.187242  1
  Y  Y10  1  0.814165  0.814165  0.185835  1
  Y  Y11  1  0.186708  0.186708  0.813292  1
  Th  Th12  1  0.600036  0.600036  0.596314  1
  Th  Th13  1  0.600036  0.600036  0.203612  1
  Th  Th14  1  0.599815  0.206430  0.596877  1
  Th  Th15  1  0.206430  0.599815  0.596877  1
  Cd  Cd16  1  0.831055  0.831055  0.834699  1
  Cd  Cd17  1  0.831055  0.831055  0.503190  1
  Cd  Cd18  1  0.830505  0.503559  0.832967  1
  Cd  Cd19  1  0.503559  0.830505  0.832967  1
  Ni  Ni20  1  0.395333  0.820099  0.392285  1
  Ni  Ni21  1  0.820099  0.395333  0.392285  1
  Os  Os22  1  0.397234  0.397234  0.390318  1
  Os  Os23  1  0.397234  0.397234  0.815216  1
