# generated using pymatgen
data_TmLu3Mg3ZnPt4
_symmetry_space_group_name_H-M   'P 1'
_cell_length_a   4.14422900
_cell_length_b   6.90163718
_cell_length_c   8.48707706
_cell_angle_alpha   89.01416481
_cell_angle_beta   90.00000000
_cell_angle_gamma   90.00000000
_symmetry_Int_Tables_number   1
_chemical_formula_structural   TmLu3Mg3ZnPt4
_chemical_formula_sum   'Tm1 Lu3 Mg3 Zn1 Pt4'
_cell_volume   242.71114884
_cell_formula_units_Z   1
loop_
 _symmetry_equiv_pos_site_id
 _symmetry_equiv_pos_as_xyz
  1  'x, y, z'
loop_
 _atom_site_type_symbol
 _atom_site_label
 _atom_site_symmetry_multiplicity
 _atom_site_fract_x
 _atom_site_fract_y
 _atom_site_fract_z
 _atom_site_occupancy
  Tm  Tm0  1  0.750000  0.449733  0.831261  1
  Lu  Lu1  1  0.250000  0.537036  0.170683  1
  Lu  Lu2  1  0.750000  0.960842  0.677787  1
  Lu  Lu3  1  0.250000  0.043875  0.321258  1
  Mg  Mg4  1  0.250000  0.634941  0.560101  1
  Mg  Mg5  1  0.750000  0.365090  0.440975  1
  Mg  Mg6  1  0.750000  0.871787  0.054254  1
  Zn  Zn7  1  0.250000  0.135612  0.941876  1
  Pt  Pt8  1  0.250000  0.747153  0.870722  1
  Pt  Pt9  1  0.750000  0.253887  0.131315  1
  Pt  Pt10  1  0.750000  0.759247  0.371110  1
  Pt  Pt11  1  0.250000  0.240795  0.628660  1
