# generated using pymatgen
data_Nd3Er5(LuSb)12
_symmetry_space_group_name_H-M   'P 1'
_cell_length_a   8.08564433
_cell_length_b   9.14855200
_cell_length_c   11.74692000
_cell_angle_alpha   90.00000000
_cell_angle_beta   90.03285830
_cell_angle_gamma   90.00000000
_symmetry_Int_Tables_number   1
_chemical_formula_structural   Nd3Er5(LuSb)12
_chemical_formula_sum   'Nd3 Er5 Lu12 Sb12'
_cell_volume   868.94229038
_cell_formula_units_Z   1
loop_
 _symmetry_equiv_pos_site_id
 _symmetry_equiv_pos_as_xyz
  1  'x, y, z'
loop_
 _atom_site_type_symbol
 _atom_site_label
 _atom_site_symmetry_multiplicity
 _atom_site_fract_x
 _atom_site_fract_y
 _atom_site_fract_z
 _atom_site_occupancy
  Nd  Nd0  1  0.175812  0.750000  0.227750  1
  Nd  Nd1  1  0.675732  0.250000  0.271875  1
  Nd  Nd2  1  0.824230  0.250000  0.771548  1
  Er  Er3  1  0.323968  0.750000  0.728298  1
  Er  Er4  1  0.660943  0.750000  0.291050  1
  Er  Er5  1  0.161996  0.250000  0.209915  1
  Er  Er6  1  0.337811  0.250000  0.709768  1
  Er  Er7  1  0.839225  0.750000  0.789472  1
  Lu  Lu8  1  0.810087  0.937861  0.065202  1
  Lu  Lu9  1  0.310822  0.061849  0.433896  1
  Lu  Lu10  1  0.189275  0.438362  0.933951  1
  Lu  Lu11  1  0.690957  0.561301  0.565768  1
  Lu  Lu12  1  0.189275  0.061638  0.933951  1
  Lu  Lu13  1  0.690957  0.938699  0.565768  1
  Lu  Lu14  1  0.810087  0.562139  0.065202  1
  Lu  Lu15  1  0.310822  0.438151  0.433896  1
  Lu  Lu16  1  0.524449  0.250000  0.994877  1
  Lu  Lu17  1  0.025459  0.750000  0.504653  1
  Lu  Lu18  1  0.474082  0.750000  0.003877  1
  Lu  Lu19  1  0.975903  0.250000  0.496722  1
  Sb  Sb20  1  0.936479  0.992143  0.330113  1
  Sb  Sb21  1  0.436637  0.007684  0.170440  1
  Sb  Sb22  1  0.067346  0.494691  0.671622  1
  Sb  Sb23  1  0.558268  0.511352  0.827101  1
  Sb  Sb24  1  0.067346  0.005309  0.671622  1
  Sb  Sb25  1  0.558268  0.988648  0.827101  1
  Sb  Sb26  1  0.936479  0.507857  0.330113  1
  Sb  Sb27  1  0.436637  0.492316  0.170440  1
  Sb  Sb28  1  0.903339  0.250000  0.030268  1
  Sb  Sb29  1  0.403585  0.750000  0.475177  1
  Sb  Sb30  1  0.097538  0.750000  0.968248  1
  Sb  Sb31  1  0.596185  0.250000  0.530317  1
