# generated using pymatgen
data_Dy5Si12Ir3Pt16
_symmetry_space_group_name_H-M   'P 1'
_cell_length_a   13.06056000
_cell_length_b   13.06055935
_cell_length_c   4.02181800
_cell_angle_alpha   90.00000000
_cell_angle_beta   90.00000000
_cell_angle_gamma   120.00000164
_symmetry_Int_Tables_number   1
_chemical_formula_structural   Dy5Si12Ir3Pt16
_chemical_formula_sum   'Dy5 Si12 Ir3 Pt16'
_cell_volume   594.12333992
_cell_formula_units_Z   1
loop_
 _symmetry_equiv_pos_site_id
 _symmetry_equiv_pos_as_xyz
  1  'x, y, z'
loop_
 _atom_site_type_symbol
 _atom_site_label
 _atom_site_symmetry_multiplicity
 _atom_site_fract_x
 _atom_site_fract_y
 _atom_site_fract_z
 _atom_site_occupancy
  Dy  Dy0  1  0.333333  0.666667  0.500000  1
  Dy  Dy1  1  0.666667  0.333333  0.500000  1
  Dy  Dy2  1  0.000000  0.815269  0.000000  1
  Dy  Dy3  1  0.184731  0.184731  0.000000  1
  Dy  Dy4  1  0.815269  0.000000  0.000000  1
  Si  Si5  1  0.000000  0.631315  0.500000  1
  Si  Si6  1  0.368685  0.368685  0.500000  1
  Si  Si7  1  0.631315  0.000000  0.500000  1
  Si  Si8  1  0.521343  0.684856  0.000000  1
  Si  Si9  1  0.315144  0.836487  0.000000  1
  Si  Si10  1  0.163513  0.478657  0.000000  1
  Si  Si11  1  0.478657  0.163513  0.000000  1
  Si  Si12  1  0.684856  0.521343  0.000000  1
  Si  Si13  1  0.836487  0.315144  0.000000  1
  Si  Si14  1  0.000000  0.179692  0.500000  1
  Si  Si15  1  0.820308  0.820308  0.500000  1
  Si  Si16  1  0.179692  0.000000  0.500000  1
  Ir  Ir17  1  0.000000  0.280729  0.000000  1
  Ir  Ir18  1  0.719271  0.719271  0.000000  1
  Ir  Ir19  1  0.280729  0.000000  0.000000  1
  Pt  Pt20  1  0.507981  0.865372  0.000000  1
  Pt  Pt21  1  0.134628  0.642609  0.000000  1
  Pt  Pt22  1  0.357391  0.492019  0.000000  1
  Pt  Pt23  1  0.492019  0.357391  0.000000  1
  Pt  Pt24  1  0.865372  0.507981  0.000000  1
  Pt  Pt25  1  0.642609  0.134628  0.000000  1
  Pt  Pt26  1  0.000000  0.447422  0.500000  1
  Pt  Pt27  1  0.552578  0.552578  0.500000  1
  Pt  Pt28  1  0.447422  0.000000  0.500000  1
  Pt  Pt29  1  0.628207  0.811008  0.500000  1
  Pt  Pt30  1  0.188992  0.817198  0.500000  1
  Pt  Pt31  1  0.182802  0.371793  0.500000  1
  Pt  Pt32  1  0.371793  0.182802  0.500000  1
  Pt  Pt33  1  0.811008  0.628207  0.500000  1
  Pt  Pt34  1  0.817198  0.188992  0.500000  1
  Pt  Pt35  1  0.000000  0.000000  0.500000  1
