# generated using pymatgen
data_Ho4Tm12In4NiRh3
_symmetry_space_group_name_H-M   'P 1'
_cell_length_a   9.54465595
_cell_length_b   9.54830958
_cell_length_c   9.54963030
_cell_angle_alpha   59.98405380
_cell_angle_beta   60.00659138
_cell_angle_gamma   60.00635980
_symmetry_Int_Tables_number   1
_chemical_formula_structural   Ho4Tm12In4NiRh3
_chemical_formula_sum   'Ho4 Tm12 In4 Ni1 Rh3'
_cell_volume   615.38719577
_cell_formula_units_Z   1
loop_
 _symmetry_equiv_pos_site_id
 _symmetry_equiv_pos_as_xyz
  1  'x, y, z'
loop_
 _atom_site_type_symbol
 _atom_site_label
 _atom_site_symmetry_multiplicity
 _atom_site_fract_x
 _atom_site_fract_y
 _atom_site_fract_z
 _atom_site_occupancy
  Ho  Ho0  1  0.062740  0.063327  0.437550  1
  Ho  Ho1  1  0.436598  0.063535  0.437124  1
  Ho  Ho2  1  0.062485  0.438181  0.061117  1
  Ho  Ho3  1  0.045836  0.652399  0.648203  1
  Tm  Tm4  1  0.439740  0.438655  0.060292  1
  Tm  Tm5  1  0.652222  0.047477  0.647635  1
  Tm  Tm6  1  0.187032  0.810939  0.190329  1
  Tm  Tm7  1  0.188432  0.188973  0.811840  1
  Tm  Tm8  1  0.811185  0.811023  0.190921  1
  Tm  Tm9  1  0.440465  0.060681  0.059073  1
  Tm  Tm10  1  0.810772  0.187639  0.190223  1
  Tm  Tm11  1  0.062890  0.436382  0.437852  1
  Tm  Tm12  1  0.810043  0.189582  0.811857  1
  Tm  Tm13  1  0.189080  0.810394  0.812093  1
  Tm  Tm14  1  0.649939  0.648589  0.051193  1
  Tm  Tm15  1  0.653408  0.652624  0.648468  1
  In  In16  1  0.415489  0.416005  0.417834  1
  In  In17  1  0.750042  0.416358  0.418351  1
  In  In18  1  0.417514  0.748556  0.417430  1
  In  In19  1  0.418266  0.416887  0.747926  1
  Ni  Ni20  1  0.857509  0.859301  0.424387  1
  Rh  Rh21  1  0.855303  0.858613  0.859643  1
  Rh  Rh22  1  0.427337  0.857276  0.859143  1
  Rh  Rh23  1  0.855675  0.426605  0.859520  1
