# generated using pymatgen
data_Na4Sr8Al3GaAs12
_symmetry_space_group_name_H-M   'P 1'
_cell_length_a   8.39296282
_cell_length_b   8.39296453
_cell_length_c   11.86714248
_cell_angle_alpha   76.34216170
_cell_angle_beta   76.34216488
_cell_angle_gamma   67.95532481
_symmetry_Int_Tables_number   1
_chemical_formula_structural   Na4Sr8Al3GaAs12
_chemical_formula_sum   'Na4 Sr8 Al3 Ga1 As12'
_cell_volume   742.75430595
_cell_formula_units_Z   1
loop_
 _symmetry_equiv_pos_site_id
 _symmetry_equiv_pos_as_xyz
  1  'x, y, z'
loop_
 _atom_site_type_symbol
 _atom_site_label
 _atom_site_symmetry_multiplicity
 _atom_site_fract_x
 _atom_site_fract_y
 _atom_site_fract_z
 _atom_site_occupancy
  Na  Na0  1  0.297875  0.702001  0.999705  1
  Na  Na1  1  0.356726  0.356726  0.232072  1
  Na  Na2  1  0.643061  0.643061  0.768242  1
  Na  Na3  1  0.702001  0.297875  0.999705  1
  Sr  Sr4  1  0.747881  0.192819  0.685215  1
  Sr  Sr5  1  0.253046  0.806963  0.314614  1
  Sr  Sr6  1  0.192819  0.747881  0.685215  1
  Sr  Sr7  1  0.500289  0.999736  0.499672  1
  Sr  Sr8  1  0.806963  0.253046  0.314614  1
  Sr  Sr9  1  0.000200  0.499963  0.999988  1
  Sr  Sr10  1  0.499963  0.000200  0.999988  1
  Sr  Sr11  1  0.999736  0.500289  0.499672  1
  Al  Al12  1  0.090151  0.090151  0.883043  1
  Al  Al13  1  0.910268  0.910268  0.117297  1
  Al  Al14  1  0.301816  0.301816  0.732981  1
  Ga  Ga15  1  0.696093  0.696093  0.268450  1
  As  As16  1  0.026863  0.610645  0.227541  1
  As  As17  1  0.588023  0.588023  0.133690  1
  As  As18  1  0.975273  0.390368  0.771652  1
  As  As19  1  0.094101  0.094101  0.484629  1
  As  As20  1  0.591466  0.591466  0.493350  1
  As  As21  1  0.907846  0.907846  0.902838  1
  As  As22  1  0.092529  0.092529  0.097112  1
  As  As23  1  0.410952  0.410952  0.864493  1
  As  As24  1  0.610645  0.026863  0.227541  1
  As  As25  1  0.905896  0.905896  0.515020  1
  As  As26  1  0.390368  0.975273  0.771652  1
  As  As27  1  0.407152  0.407152  0.510008  1
