# generated using pymatgen
data_La4Tb5ErRu4
_symmetry_space_group_name_H-M   'P 1'
_cell_length_a   8.87419744
_cell_length_b   8.87419777
_cell_length_c   7.32679500
_cell_angle_alpha   83.82930623
_cell_angle_beta   83.82930600
_cell_angle_gamma   43.43681892
_symmetry_Int_Tables_number   1
_chemical_formula_structural   La4Tb5ErRu4
_chemical_formula_sum   'La4 Tb5 Er1 Ru4'
_cell_volume   394.05108627
_cell_formula_units_Z   1
loop_
 _symmetry_equiv_pos_site_id
 _symmetry_equiv_pos_as_xyz
  1  'x, y, z'
loop_
 _atom_site_type_symbol
 _atom_site_label
 _atom_site_symmetry_multiplicity
 _atom_site_fract_x
 _atom_site_fract_y
 _atom_site_fract_z
 _atom_site_occupancy
  La  La0  1  0.016085  0.791046  0.907361  1
  La  La1  1  0.208954  0.983915  0.592639  1
  La  La2  1  0.982905  0.210244  0.091776  1
  La  La3  1  0.789756  0.017095  0.408224  1
  Tb  Tb4  1  0.364685  0.206578  0.817256  1
  Tb  Tb5  1  0.793422  0.635315  0.682744  1
  Tb  Tb6  1  0.636106  0.792172  0.183468  1
  Tb  Tb7  1  0.207828  0.363894  0.316532  1
  Tb  Tb8  1  0.570868  0.429132  0.750000  1
  Er  Er9  1  0.428386  0.571614  0.250000  1
  Ru  Ru10  1  0.170270  0.603825  0.582992  1
  Ru  Ru11  1  0.396175  0.829730  0.917008  1
  Ru  Ru12  1  0.829980  0.395422  0.416251  1
  Ru  Ru13  1  0.604578  0.170020  0.083749  1
