# generated using pymatgen
data_Ca2AgPdPt
_symmetry_space_group_name_H-M   'P 1'
_cell_length_a   5.62337210
_cell_length_b   5.62337190
_cell_length_c   5.62337175
_cell_angle_alpha   132.71199521
_cell_angle_beta   117.50328870
_cell_angle_gamma   81.94561670
_symmetry_Int_Tables_number   1
_chemical_formula_structural   Ca2AgPdPt
_chemical_formula_sum   'Ca2 Ag1 Pd1 Pt1'
_cell_volume   111.72948831
_cell_formula_units_Z   1
loop_
 _symmetry_equiv_pos_site_id
 _symmetry_equiv_pos_as_xyz
  1  'x, y, z'
loop_
 _atom_site_type_symbol
 _atom_site_label
 _atom_site_symmetry_multiplicity
 _atom_site_fract_x
 _atom_site_fract_y
 _atom_site_fract_z
 _atom_site_occupancy
  Ca  Ca0  1  0.702386  0.201877  0.500509  1
  Ca  Ca1  1  0.298632  0.798123  0.500509  1
  Ag  Ag2  1  0.999693  0.000000  0.999693  1
  Pd  Pd3  1  0.270600  0.500000  0.770600  1
  Pt  Pt4  1  0.728689  0.500000  0.228689  1
