# generated using pymatgen
data_TbEr3Al24CuPd8
_symmetry_space_group_name_H-M   'P 1'
_cell_length_a   7.53373842
_cell_length_b   7.53630573
_cell_length_c   13.10496500
_cell_angle_alpha   84.50064558
_cell_angle_beta   100.96458656
_cell_angle_gamma   119.82543115
_symmetry_Int_Tables_number   1
_chemical_formula_structural   TbEr3Al24CuPd8
_chemical_formula_sum   'Tb1 Er3 Al24 Cu1 Pd8'
_cell_volume   633.71651284
_cell_formula_units_Z   1
loop_
 _symmetry_equiv_pos_site_id
 _symmetry_equiv_pos_as_xyz
  1  'x, y, z'
loop_
 _atom_site_type_symbol
 _atom_site_label
 _atom_site_symmetry_multiplicity
 _atom_site_fract_x
 _atom_site_fract_y
 _atom_site_fract_z
 _atom_site_occupancy
  Tb  Tb0  1  0.231256  0.498167  0.191625  1
  Er  Er1  1  0.438024  0.830728  0.807399  1
  Er  Er2  1  0.562281  0.168473  0.192243  1
  Er  Er3  1  0.767142  0.501825  0.807176  1
  Al  Al4  1  0.482506  0.166480  0.944245  1
  Al  Al5  1  0.518204  0.834410  0.055175  1
  Al  Al6  1  0.020230  0.165429  0.562058  1
  Al  Al7  1  0.978251  0.833417  0.436854  1
  Al  Al8  1  0.353485  0.832309  0.560226  1
  Al  Al9  1  0.645607  0.166353  0.439738  1
  Al  Al10  1  0.617047  0.835010  0.329544  1
  Al  Al11  1  0.383547  0.168342  0.671187  1
  Al  Al12  1  0.059999  0.493324  0.671207  1
  Al  Al13  1  0.942659  0.506524  0.329328  1
  Al  Al14  1  0.728308  0.837320  0.669803  1
  Al  Al15  1  0.269257  0.159416  0.330575  1
  Al  Al16  1  0.147510  0.500974  0.943722  1
  Al  Al17  1  0.851197  0.499245  0.054998  1
  Al  Al18  1  0.816801  0.832262  0.954112  1
  Al  Al19  1  0.183474  0.167305  0.045800  1
  Al  Al20  1  0.313155  0.499656  0.442214  1
  Al  Al21  1  0.686327  0.499831  0.560128  1
  Al  Al22  1  0.103263  0.836568  0.184157  1
  Al  Al23  1  0.897369  0.164273  0.816017  1
  Al  Al24  1  0.309501  0.371796  0.812903  1
  Al  Al25  1  0.692062  0.629834  0.185371  1
  Al  Al26  1  0.103360  0.958434  0.815700  1
  Al  Al27  1  0.896695  0.041425  0.184249  1
  Cu  Cu28  1  0.390391  0.509595  0.639900  1
  Pd  Pd29  1  0.611552  0.491484  0.362738  1
  Pd  Pd30  1  0.171406  0.828505  0.999300  1
  Pd  Pd31  1  0.828479  0.171879  0.999612  1
  Pd  Pd32  1  0.295816  0.832718  0.362895  1
  Pd  Pd33  1  0.704197  0.166734  0.638225  1
  Pd  Pd34  1  0.046467  0.824233  0.637575  1
  Pd  Pd35  1  0.953589  0.175617  0.362978  1
  Pd  Pd36  1  0.499582  0.500107  0.999026  1
