# generated using pymatgen
data_Dy3Y7CdHg2Ru
_symmetry_space_group_name_H-M   'P 1'
_cell_length_a   9.64249338
_cell_length_b   9.64249335
_cell_length_c   9.78506718
_cell_angle_alpha   89.98100788
_cell_angle_beta   90.01899211
_cell_angle_gamma   119.97385451
_symmetry_Int_Tables_number   1
_chemical_formula_structural   Dy3Y7CdHg2Ru
_chemical_formula_sum   'Dy6 Y14 Cd2 Hg4 Ru2'
_cell_volume   788.11114288
_cell_formula_units_Z   2
loop_
 _symmetry_equiv_pos_site_id
 _symmetry_equiv_pos_as_xyz
  1  'x, y, z'
loop_
 _atom_site_type_symbol
 _atom_site_label
 _atom_site_symmetry_multiplicity
 _atom_site_fract_x
 _atom_site_fract_y
 _atom_site_fract_z
 _atom_site_occupancy
  Dy  Dy0  1  0.209536  0.790464  0.438978  1
  Dy  Dy1  1  0.209430  0.419239  0.439956  1
  Dy  Dy2  1  0.580761  0.790570  0.439956  1
  Dy  Dy3  1  0.790340  0.209660  0.560029  1
  Dy  Dy4  1  0.789930  0.580520  0.559666  1
  Dy  Dy5  1  0.419480  0.210070  0.559666  1
  Y  Y6  1  0.001506  0.998494  0.494497  1
  Y  Y7  1  0.001489  0.998511  0.005602  1
  Y  Y8  1  0.790544  0.209456  0.939586  1
  Y  Y9  1  0.790162  0.580999  0.940162  1
  Y  Y10  1  0.419001  0.209838  0.940162  1
  Y  Y11  1  0.209386  0.790614  0.061267  1
  Y  Y12  1  0.209152  0.418759  0.060223  1
  Y  Y13  1  0.581241  0.790848  0.060223  1
  Y  Y14  1  0.541198  0.458802  0.250842  1
  Y  Y15  1  0.541284  0.082550  0.250910  1
  Y  Y16  1  0.917450  0.458716  0.250910  1
  Y  Y17  1  0.458651  0.541349  0.749040  1
  Y  Y18  1  0.456228  0.917659  0.749046  1
  Y  Y19  1  0.082341  0.543772  0.749046  1
  Cd  Cd20  1  0.112319  0.228771  0.750288  1
  Cd  Cd21  1  0.771229  0.887681  0.750288  1
  Hg  Hg22  1  0.880793  0.119207  0.249628  1
  Hg  Hg23  1  0.881587  0.760368  0.249803  1
  Hg  Hg24  1  0.239632  0.118413  0.249803  1
  Hg  Hg25  1  0.115904  0.884096  0.750390  1
  Ru  Ru26  1  0.333399  0.666601  0.252534  1
  Ru  Ru27  1  0.666027  0.333973  0.747496  1
