# generated using pymatgen
data_Pr4Ti5Fe3O20
_symmetry_space_group_name_H-M   'P 1'
_cell_length_a   5.93154600
_cell_length_b   7.71717859
_cell_length_c   8.81884870
_cell_angle_alpha   90.18826265
_cell_angle_beta   90.00000000
_cell_angle_gamma   90.00000000
_symmetry_Int_Tables_number   1
_chemical_formula_structural   Pr4Ti5Fe3O20
_chemical_formula_sum   'Pr4 Ti5 Fe3 O20'
_cell_volume   403.67885465
_cell_formula_units_Z   1
loop_
 _symmetry_equiv_pos_site_id
 _symmetry_equiv_pos_as_xyz
  1  'x, y, z'
loop_
 _atom_site_type_symbol
 _atom_site_label
 _atom_site_symmetry_multiplicity
 _atom_site_fract_x
 _atom_site_fract_y
 _atom_site_fract_z
 _atom_site_occupancy
  Pr  Pr0  1  0.998031  0.362071  0.672503  1
  Pr  Pr1  1  0.998031  0.637929  0.327497  1
  Pr  Pr2  1  0.000463  0.857662  0.828940  1
  Pr  Pr3  1  0.000463  0.142338  0.171060  1
  Ti  Ti4  1  0.503832  0.118604  0.857367  1
  Ti  Ti5  1  0.503832  0.881396  0.142633  1
  Ti  Ti6  1  0.497479  0.617139  0.643315  1
  Ti  Ti7  1  0.497479  0.382861  0.356685  1
  Ti  Ti8  1  0.235008  0.000000  0.500000  1
  Fe  Fe9  1  0.247310  0.500000  0.000000  1
  Fe  Fe10  1  0.741706  0.000000  0.500000  1
  Fe  Fe11  1  0.752834  0.500000  0.000000  1
  O  O12  1  0.258735  0.899758  0.291208  1
  O  O13  1  0.258735  0.100242  0.708792  1
  O  O14  1  0.745245  0.396855  0.213717  1
  O  O15  1  0.745245  0.603145  0.786283  1
  O  O16  1  0.746065  0.105836  0.718796  1
  O  O17  1  0.746065  0.894164  0.281204  1
  O  O18  1  0.253821  0.599041  0.786972  1
  O  O19  1  0.253821  0.400959  0.213028  1
  O  O20  1  0.500784  0.337918  0.925527  1
  O  O21  1  0.500784  0.662082  0.074473  1
  O  O22  1  0.487616  0.834694  0.580037  1
  O  O23  1  0.487616  0.165306  0.419963  1
  O  O24  1  0.285121  0.000000  0.000000  1
  O  O25  1  0.713843  0.500000  0.500000  1
  O  O26  1  0.712396  0.000000  0.000000  1
  O  O27  1  0.285086  0.500000  0.500000  1
  O  O28  1  0.021079  0.167572  0.446460  1
  O  O29  1  0.021079  0.832428  0.553540  1
  O  O30  1  0.000199  0.665432  0.053676  1
  O  O31  1  0.000199  0.334568  0.946324  1
