# generated using pymatgen
data_Ca3DyGaSiIr4
_symmetry_space_group_name_H-M   'P 1'
_cell_length_a   5.67332793
_cell_length_b   5.75083234
_cell_length_c   7.54727527
_cell_angle_alpha   79.32612039
_cell_angle_beta   79.69020159
_cell_angle_gamma   59.96869821
_symmetry_Int_Tables_number   1
_chemical_formula_structural   Ca3DyGaSiIr4
_chemical_formula_sum   'Ca3 Dy1 Ga1 Si1 Ir4'
_cell_volume   208.41433877
_cell_formula_units_Z   1
loop_
 _symmetry_equiv_pos_site_id
 _symmetry_equiv_pos_as_xyz
  1  'x, y, z'
loop_
 _atom_site_type_symbol
 _atom_site_label
 _atom_site_symmetry_multiplicity
 _atom_site_fract_x
 _atom_site_fract_y
 _atom_site_fract_z
 _atom_site_occupancy
  Ca  Ca0  1  0.280084  0.008898  0.361155  1
  Ca  Ca1  1  0.008971  0.283471  0.855423  1
  Ca  Ca2  1  0.717036  0.989627  0.641940  1
  Dy  Dy3  1  0.995463  0.712307  0.144025  1
  Ga  Ga4  1  0.407316  0.591925  0.749719  1
  Si  Si5  1  0.580474  0.421756  0.250174  1
  Ir  Ir6  1  0.494545  0.778647  0.001130  1
  Ir  Ir7  1  0.219872  0.509272  0.495414  1
  Ir  Ir8  1  0.515634  0.214757  0.024881  1
  Ir  Ir9  1  0.780606  0.489337  0.476139  1
