# generated using pymatgen
data_Tb7GaNi15
_symmetry_space_group_name_H-M   'P 1'
_cell_length_a   8.71561924
_cell_length_b   8.74622508
_cell_length_c   8.73774100
_cell_angle_alpha   131.63091281
_cell_angle_beta   131.54082764
_cell_angle_gamma   70.82104762
_symmetry_Int_Tables_number   1
_chemical_formula_structural   Tb7GaNi15
_chemical_formula_sum   'Tb7 Ga1 Ni15'
_cell_volume   365.08063916
_cell_formula_units_Z   1
loop_
 _symmetry_equiv_pos_site_id
 _symmetry_equiv_pos_as_xyz
  1  'x, y, z'
loop_
 _atom_site_type_symbol
 _atom_site_label
 _atom_site_symmetry_multiplicity
 _atom_site_fract_x
 _atom_site_fract_y
 _atom_site_fract_z
 _atom_site_occupancy
  Tb  Tb0  1  0.095733  0.095380  0.392595  1
  Tb  Tb1  1  0.703138  0.702784  0.607405  1
  Tb  Tb2  1  0.903306  0.295273  0.000000  1
  Tb  Tb3  1  0.758131  0.250520  0.511776  1
  Tb  Tb4  1  0.502941  0.511189  0.000000  1
  Tb  Tb5  1  0.292803  0.903659  0.000000  1
  Tb  Tb6  1  0.246355  0.738744  0.488224  1
  Ga  Ga7  1  0.431770  0.194916  0.000000  1
  Ni  Ni8  1  0.682835  0.935174  0.484911  1
  Ni  Ni9  1  0.933188  0.680440  0.479786  1
  Ni  Ni10  1  0.192673  0.435581  0.000000  1
  Ni  Ni11  1  0.320706  0.799528  0.253577  1
  Ni  Ni12  1  0.939358  0.668078  0.000000  1
  Ni  Ni13  1  0.810072  0.809867  0.242843  1
  Ni  Ni14  1  0.067129  0.545951  0.746423  1
  Ni  Ni15  1  0.060025  0.054124  0.722681  1
  Ni  Ni16  1  0.661589  0.936804  0.000000  1
  Ni  Ni17  1  0.567228  0.567025  0.757157  1
  Ni  Ni18  1  0.800150  0.325276  0.257949  1
  Ni  Ni19  1  0.542201  0.067326  0.742051  1
  Ni  Ni20  1  0.197924  0.450264  0.515089  1
  Ni  Ni21  1  0.337344  0.331444  0.277319  1
  Ni  Ni22  1  0.453402  0.200655  0.520214  1
