# generated using pymatgen
data_Yb10RhAu7
_symmetry_space_group_name_H-M   'P 1'
_cell_length_a   7.67474084
_cell_length_b   7.83201959
_cell_length_c   14.99092500
_cell_angle_alpha   90.00000000
_cell_angle_beta   90.00000000
_cell_angle_gamma   88.92965383
_symmetry_Int_Tables_number   1
_chemical_formula_structural   Yb10RhAu7
_chemical_formula_sum   'Yb20 Rh2 Au14'
_cell_volume   900.92809489
_cell_formula_units_Z   2
loop_
 _symmetry_equiv_pos_site_id
 _symmetry_equiv_pos_as_xyz
  1  'x, y, z'
loop_
 _atom_site_type_symbol
 _atom_site_label
 _atom_site_symmetry_multiplicity
 _atom_site_fract_x
 _atom_site_fract_y
 _atom_site_fract_z
 _atom_site_occupancy
  Yb  Yb0  1  0.016631  0.186338  0.397551  1
  Yb  Yb1  1  0.864015  0.655642  0.376083  1
  Yb  Yb2  1  0.536169  0.327239  0.104078  1
  Yb  Yb3  1  0.145405  0.336923  0.624067  1
  Yb  Yb4  1  0.367221  0.835620  0.379061  1
  Yb  Yb5  1  0.145405  0.336923  0.875933  1
  Yb  Yb6  1  0.367221  0.835620  0.120939  1
  Yb  Yb7  1  0.195298  0.493824  0.250000  1
  Yb  Yb8  1  0.536169  0.327239  0.395922  1
  Yb  Yb9  1  0.787593  0.500166  0.750000  1
  Yb  Yb10  1  0.973804  0.823522  0.901458  1
  Yb  Yb11  1  0.973804  0.823522  0.598542  1
  Yb  Yb12  1  0.470839  0.664285  0.603700  1
  Yb  Yb13  1  0.623605  0.173279  0.622904  1
  Yb  Yb14  1  0.298468  0.000056  0.750000  1
  Yb  Yb15  1  0.623605  0.173279  0.877096  1
  Yb  Yb16  1  0.706145  0.017562  0.250000  1
  Yb  Yb17  1  0.864015  0.655642  0.123917  1
  Yb  Yb18  1  0.470839  0.664285  0.896300  1
  Yb  Yb19  1  0.016631  0.186338  0.102449  1
  Rh  Rh20  1  0.837673  0.359414  0.250000  1
  Rh  Rh21  1  0.431156  0.375560  0.750000  1
  Au  Au22  1  0.667705  0.860182  0.750000  1
  Au  Au23  1  0.805062  0.472680  0.544680  1
  Au  Au24  1  0.698741  0.972166  0.043895  1
  Au  Au25  1  0.805062  0.472680  0.955320  1
  Au  Au26  1  0.203022  0.528660  0.456476  1
  Au  Au27  1  0.203022  0.528660  0.043524  1
  Au  Au28  1  0.170802  0.639435  0.750000  1
  Au  Au29  1  0.330182  0.139812  0.250000  1
  Au  Au30  1  0.569878  0.613680  0.250000  1
  Au  Au31  1  0.067700  0.878396  0.250000  1
  Au  Au32  1  0.299556  0.023065  0.955018  1
  Au  Au33  1  0.929261  0.123072  0.750000  1
  Au  Au34  1  0.698741  0.972166  0.456105  1
  Au  Au35  1  0.299556  0.023065  0.544982  1
