# generated using pymatgen
data_Ho16In4Ru3Pt
_symmetry_space_group_name_H-M   'P 1'
_cell_length_a   9.60151167
_cell_length_b   9.60151126
_cell_length_c   9.60486260
_cell_angle_alpha   60.01153893
_cell_angle_beta   60.01153954
_cell_angle_gamma   60.00000011
_symmetry_Int_Tables_number   1
_chemical_formula_structural   Ho16In4Ru3Pt
_chemical_formula_sum   'Ho16 In4 Ru3 Pt1'
_cell_volume   626.22599922
_cell_formula_units_Z   1
loop_
 _symmetry_equiv_pos_site_id
 _symmetry_equiv_pos_as_xyz
  1  'x, y, z'
loop_
 _atom_site_type_symbol
 _atom_site_label
 _atom_site_symmetry_multiplicity
 _atom_site_fract_x
 _atom_site_fract_y
 _atom_site_fract_z
 _atom_site_occupancy
  Ho  Ho0  1  0.188413  0.188413  0.808992  1
  Ho  Ho1  1  0.599131  0.599131  0.202605  1
  Ho  Ho2  1  0.440583  0.059797  0.439822  1
  Ho  Ho3  1  0.440597  0.440597  0.064567  1
  Ho  Ho4  1  0.814183  0.188413  0.808992  1
  Ho  Ho5  1  0.190533  0.809943  0.189581  1
  Ho  Ho6  1  0.440597  0.054239  0.064567  1
  Ho  Ho7  1  0.188413  0.814183  0.808992  1
  Ho  Ho8  1  0.054239  0.440597  0.064567  1
  Ho  Ho9  1  0.809943  0.809943  0.189581  1
  Ho  Ho10  1  0.199522  0.601649  0.597180  1
  Ho  Ho11  1  0.059797  0.440583  0.439822  1
  Ho  Ho12  1  0.059797  0.059797  0.439822  1
  Ho  Ho13  1  0.809943  0.190533  0.189581  1
  Ho  Ho14  1  0.601649  0.199522  0.597180  1
  Ho  Ho15  1  0.601649  0.601649  0.597180  1
  In  In16  1  0.832851  0.832851  0.832286  1
  In  In17  1  0.833266  0.833266  0.500204  1
  In  In18  1  0.502012  0.832851  0.832286  1
  In  In19  1  0.832851  0.502012  0.832286  1
  Ru  Ru20  1  0.391239  0.825489  0.392032  1
  Ru  Ru21  1  0.391239  0.391239  0.392032  1
  Ru  Ru22  1  0.825489  0.391239  0.392032  1
  Pt  Pt23  1  0.392062  0.392062  0.823814  1
