# generated using pymatgen
data_Ta2Nb3Al(B2Ru5)2
_symmetry_space_group_name_H-M   'P 1'
_cell_length_a   3.01313200
_cell_length_b   9.39010548
_cell_length_c   9.39120648
_cell_angle_alpha   90.06429614
_cell_angle_beta   90.00000000
_cell_angle_gamma   90.00000000
_symmetry_Int_Tables_number   1
_chemical_formula_structural   Ta2Nb3Al(B2Ru5)2
_chemical_formula_sum   'Ta2 Nb3 Al1 B4 Ru10'
_cell_volume   265.71112869
_cell_formula_units_Z   1
loop_
 _symmetry_equiv_pos_site_id
 _symmetry_equiv_pos_as_xyz
  1  'x, y, z'
loop_
 _atom_site_type_symbol
 _atom_site_label
 _atom_site_symmetry_multiplicity
 _atom_site_fract_x
 _atom_site_fract_y
 _atom_site_fract_z
 _atom_site_occupancy
  Ta  Ta0  1  0.000000  0.181134  0.674331  1
  Ta  Ta1  1  0.000000  0.999901  0.000042  1
  Nb  Nb2  1  0.000000  0.674503  0.818981  1
  Nb  Nb3  1  0.000000  0.325345  0.181033  1
  Nb  Nb4  1  0.000000  0.819441  0.325726  1
  Al  Al5  1  0.000000  0.500086  0.499910  1
  B  B6  1  0.000000  0.870422  0.616263  1
  B  B7  1  0.000000  0.129437  0.383738  1
  B  B8  1  0.000000  0.616181  0.129416  1
  B  B9  1  0.000000  0.383917  0.870699  1
  Ru  Ru10  1  0.500000  0.714735  0.568323  1
  Ru  Ru11  1  0.500000  0.285075  0.432391  1
  Ru  Ru12  1  0.500000  0.780140  0.071152  1
  Ru  Ru13  1  0.500000  0.219492  0.927790  1
  Ru  Ru14  1  0.500000  0.568209  0.285284  1
  Ru  Ru15  1  0.500000  0.430815  0.714488  1
  Ru  Ru16  1  0.500000  0.071327  0.219801  1
  Ru  Ru17  1  0.500000  0.929386  0.780072  1
  Ru  Ru18  1  0.500000  0.000585  0.500624  1
  Ru  Ru19  1  0.500000  0.499870  0.999936  1
