# generated using pymatgen
data_Tb8OsRuI8
_symmetry_space_group_name_H-M   'P 1'
_cell_length_a   11.29823105
_cell_length_b   11.29823320
_cell_length_c   6.22536400
_cell_angle_alpha   90.00440083
_cell_angle_beta   90.00440105
_cell_angle_gamma   90.03894159
_symmetry_Int_Tables_number   1
_chemical_formula_structural   Tb8OsRuI8
_chemical_formula_sum   'Tb8 Os1 Ru1 I8'
_cell_volume   794.66783203
_cell_formula_units_Z   1
loop_
 _symmetry_equiv_pos_site_id
 _symmetry_equiv_pos_as_xyz
  1  'x, y, z'
loop_
 _atom_site_type_symbol
 _atom_site_label
 _atom_site_symmetry_multiplicity
 _atom_site_fract_x
 _atom_site_fract_y
 _atom_site_fract_z
 _atom_site_occupancy
  Tb  Tb0  1  0.800916  0.081786  0.999964  1
  Tb  Tb1  1  0.081787  0.800919  0.500600  1
  Tb  Tb2  1  0.081439  0.198977  0.999893  1
  Tb  Tb3  1  0.198975  0.081433  0.500535  1
  Tb  Tb4  1  0.918567  0.801025  0.999465  1
  Tb  Tb5  1  0.918214  0.199084  0.500036  1
  Tb  Tb6  1  0.199081  0.918213  0.999400  1
  Tb  Tb7  1  0.801023  0.918561  0.500107  1
  Os  Os8  1  0.999949  0.000051  0.750000  1
  Ru  Ru9  1  0.000042  0.999958  0.250000  1
  I  I10  1  0.643396  0.149719  0.497364  1
  I  I11  1  0.850665  0.643541  0.503099  1
  I  I12  1  0.356459  0.149335  0.996901  1
  I  I13  1  0.149326  0.356454  0.497151  1
  I  I14  1  0.643546  0.850674  0.002849  1
  I  I15  1  0.356612  0.850277  0.502902  1
  I  I16  1  0.149723  0.643388  0.997098  1
  I  I17  1  0.850281  0.356604  0.002636  1
