# generated using pymatgen
data_Tb4Dy4Ti3Si16Mo9
_symmetry_space_group_name_H-M   'P 1'
_cell_length_a   6.92447665
_cell_length_b   6.92448393
_cell_length_c   12.83646148
_cell_angle_alpha   90.01051885
_cell_angle_beta   89.99271846
_cell_angle_gamma   89.79600330
_symmetry_Int_Tables_number   1
_chemical_formula_structural   Tb4Dy4Ti3Si16Mo9
_chemical_formula_sum   'Tb4 Dy4 Ti3 Si16 Mo9'
_cell_volume   615.48422310
_cell_formula_units_Z   1
loop_
 _symmetry_equiv_pos_site_id
 _symmetry_equiv_pos_as_xyz
  1  'x, y, z'
loop_
 _atom_site_type_symbol
 _atom_site_label
 _atom_site_symmetry_multiplicity
 _atom_site_fract_x
 _atom_site_fract_y
 _atom_site_fract_z
 _atom_site_occupancy
  Tb  Tb0  1  0.997467  0.660261  0.031546  1
  Tb  Tb1  1  0.000916  0.340601  0.531310  1
  Tb  Tb2  1  0.660259  0.997548  0.968458  1
  Tb  Tb3  1  0.160905  0.503706  0.780913  1
  Dy  Dy4  1  0.838580  0.500074  0.282697  1
  Dy  Dy5  1  0.503561  0.160829  0.219144  1
  Dy  Dy6  1  0.500124  0.838711  0.717265  1
  Dy  Dy7  1  0.340884  0.000741  0.468676  1
  Ti  Ti8  1  0.829049  0.169010  0.748504  1
  Ti  Ti9  1  0.169080  0.829121  0.251530  1
  Ti  Ti10  1  0.330630  0.330548  0.000037  1
  Si  Si11  1  0.036692  0.713223  0.438322  1
  Si  Si12  1  0.958275  0.288865  0.936125  1
  Si  Si13  1  0.712850  0.036549  0.561641  1
  Si  Si14  1  0.209731  0.459615  0.186464  1
  Si  Si15  1  0.787995  0.542535  0.685048  1
  Si  Si16  1  0.459854  0.209565  0.813539  1
  Si  Si17  1  0.542466  0.788417  0.315003  1
  Si  Si18  1  0.289048  0.958453  0.063932  1
  Si  Si19  1  0.799803  0.871262  0.184278  1
  Si  Si20  1  0.303647  0.625984  0.565263  1
  Si  Si21  1  0.700222  0.371606  0.065951  1
  Si  Si22  1  0.625560  0.303450  0.434580  1
  Si  Si23  1  0.371808  0.700407  0.934187  1
  Si  Si24  1  0.127975  0.202551  0.315247  1
  Si  Si25  1  0.202672  0.127518  0.684742  1
  Si  Si26  1  0.871128  0.800049  0.815723  1
  Mo  Mo27  1  0.333869  0.504786  0.374871  1
  Mo  Mo28  1  0.843904  0.998040  0.373106  1
  Mo  Mo29  1  0.006818  0.159518  0.125599  1
  Mo  Mo30  1  0.997983  0.844059  0.626780  1
  Mo  Mo31  1  0.504809  0.333619  0.625032  1
  Mo  Mo32  1  0.159502  0.006846  0.874441  1
  Mo  Mo33  1  0.668807  0.668891  0.499987  1
  Mo  Mo34  1  0.493785  0.659314  0.125000  1
  Mo  Mo35  1  0.659342  0.493727  0.875060  1
