# generated using pymatgen
data_CeTm9(Sn3P)2
_symmetry_space_group_name_H-M   'P 1'
_cell_length_a   8.96863374
_cell_length_b   8.96863475
_cell_length_c   6.57349500
_cell_angle_alpha   90.00000000
_cell_angle_beta   90.00000000
_cell_angle_gamma   120.15051647
_symmetry_Int_Tables_number   1
_chemical_formula_structural   CeTm9(Sn3P)2
_chemical_formula_sum   'Ce1 Tm9 Sn6 P2'
_cell_volume   457.21334585
_cell_formula_units_Z   1
loop_
 _symmetry_equiv_pos_site_id
 _symmetry_equiv_pos_as_xyz
  1  'x, y, z'
loop_
 _atom_site_type_symbol
 _atom_site_label
 _atom_site_symmetry_multiplicity
 _atom_site_fract_x
 _atom_site_fract_y
 _atom_site_fract_z
 _atom_site_occupancy
  Ce  Ce0  1  0.759205  0.759205  0.750000  1
  Tm  Tm1  1  0.666349  0.332420  0.000776  1
  Tm  Tm2  1  0.332420  0.666349  0.000776  1
  Tm  Tm3  1  0.332420  0.666349  0.499224  1
  Tm  Tm4  1  0.666349  0.332420  0.499224  1
  Tm  Tm5  1  0.242672  0.000268  0.750000  1
  Tm  Tm6  1  0.000268  0.242672  0.750000  1
  Tm  Tm7  1  0.243355  0.243355  0.250000  1
  Tm  Tm8  1  0.757920  0.001266  0.250000  1
  Tm  Tm9  1  0.001266  0.757920  0.250000  1
  Sn  Sn10  1  0.395020  0.395020  0.750000  1
  Sn  Sn11  1  0.599505  0.002521  0.750000  1
  Sn  Sn12  1  0.002521  0.599505  0.750000  1
  Sn  Sn13  1  0.600392  0.600392  0.250000  1
  Sn  Sn14  1  0.397485  0.999946  0.250000  1
  Sn  Sn15  1  0.999946  0.397485  0.250000  1
  P  P16  1  0.001453  0.001453  0.002528  1
  P  P17  1  0.001453  0.001453  0.497472  1
