# generated using pymatgen
data_HoPa3(ZnRu)4
_symmetry_space_group_name_H-M   'P 1'
_cell_length_a   3.82528000
_cell_length_b   6.90513603
_cell_length_c   8.11284600
_cell_angle_alpha   90.09265889
_cell_angle_beta   90.00000000
_cell_angle_gamma   90.00000000
_symmetry_Int_Tables_number   1
_chemical_formula_structural   HoPa3(ZnRu)4
_chemical_formula_sum   'Ho1 Pa3 Zn4 Ru4'
_cell_volume   214.29307292
_cell_formula_units_Z   1
loop_
 _symmetry_equiv_pos_site_id
 _symmetry_equiv_pos_as_xyz
  1  'x, y, z'
loop_
 _atom_site_type_symbol
 _atom_site_label
 _atom_site_symmetry_multiplicity
 _atom_site_fract_x
 _atom_site_fract_y
 _atom_site_fract_z
 _atom_site_occupancy
  Ho  Ho0  1  0.250000  0.054018  0.312218  1
  Pa  Pa1  1  0.250000  0.556261  0.192081  1
  Pa  Pa2  1  0.750000  0.455973  0.817859  1
  Pa  Pa3  1  0.750000  0.952214  0.678827  1
  Zn  Zn4  1  0.250000  0.614840  0.556958  1
  Zn  Zn5  1  0.750000  0.363038  0.443757  1
  Zn  Zn6  1  0.750000  0.888434  0.062331  1
  Zn  Zn7  1  0.250000  0.116027  0.948048  1
  Ru  Ru8  1  0.250000  0.734394  0.863859  1
  Ru  Ru9  1  0.750000  0.292417  0.115673  1
  Ru  Ru10  1  0.750000  0.745445  0.365127  1
  Ru  Ru11  1  0.250000  0.226938  0.643258  1
