# generated using pymatgen
data_Tb11In9CoIr3
_symmetry_space_group_name_H-M   'P 1'
_cell_length_a   3.73662200
_cell_length_b   13.07369523
_cell_length_c   13.06661250
_cell_angle_alpha   111.42932874
_cell_angle_beta   90.00000000
_cell_angle_gamma   90.00000000
_symmetry_Int_Tables_number   1
_chemical_formula_structural   Tb11In9CoIr3
_chemical_formula_sum   'Tb11 In9 Co1 Ir3'
_cell_volume   594.19509877
_cell_formula_units_Z   1
loop_
 _symmetry_equiv_pos_site_id
 _symmetry_equiv_pos_as_xyz
  1  'x, y, z'
loop_
 _atom_site_type_symbol
 _atom_site_label
 _atom_site_symmetry_multiplicity
 _atom_site_fract_x
 _atom_site_fract_y
 _atom_site_fract_z
 _atom_site_occupancy
  Tb  Tb0  1  0.000000  0.916665  0.580211  1
  Tb  Tb1  1  0.000000  0.078966  0.418753  1
  Tb  Tb2  1  0.000000  0.581889  0.919776  1
  Tb  Tb3  1  0.000000  0.419268  0.080618  1
  Tb  Tb4  1  0.000000  0.160859  0.838701  1
  Tb  Tb5  1  0.000000  0.838514  0.161458  1
  Tb  Tb6  1  0.000000  0.374177  0.625680  1
  Tb  Tb7  1  0.000000  0.627413  0.376005  1
  Tb  Tb8  1  0.000000  0.687263  0.684328  1
  Tb  Tb9  1  0.000000  0.313751  0.314039  1
  Tb  Tb10  1  0.000000  0.000369  0.999339  1
  In  In11  1  0.500000  0.156893  0.632360  1
  In  In12  1  0.500000  0.838599  0.369579  1
  In  In13  1  0.500000  0.632655  0.159000  1
  In  In14  1  0.500000  0.367814  0.841719  1
  In  In15  1  0.500000  0.921140  0.778430  1
  In  In16  1  0.500000  0.074290  0.217692  1
  In  In17  1  0.500000  0.782092  0.923420  1
  In  In18  1  0.500000  0.218225  0.075810  1
  In  In19  1  0.500000  0.501924  0.500215  1
  Co  Co20  1  0.500000  0.758034  0.551260  1
  Ir  Ir21  1  0.500000  0.246681  0.451471  1
  Ir  Ir22  1  0.500000  0.549970  0.751876  1
  Ir  Ir23  1  0.500000  0.452549  0.248259  1
