# generated using pymatgen
data_Li4Sm3HoPt4
_symmetry_space_group_name_H-M   'P 1'
_cell_length_a   4.08557600
_cell_length_b   7.20947377
_cell_length_c   8.55546100
_cell_angle_alpha   90.58030515
_cell_angle_beta   90.00000000
_cell_angle_gamma   90.00000000
_symmetry_Int_Tables_number   1
_chemical_formula_structural   Li4Sm3HoPt4
_chemical_formula_sum   'Li4 Sm3 Ho1 Pt4'
_cell_volume   251.98692123
_cell_formula_units_Z   1
loop_
 _symmetry_equiv_pos_site_id
 _symmetry_equiv_pos_as_xyz
  1  'x, y, z'
loop_
 _atom_site_type_symbol
 _atom_site_label
 _atom_site_symmetry_multiplicity
 _atom_site_fract_x
 _atom_site_fract_y
 _atom_site_fract_z
 _atom_site_occupancy
  Li  Li0  1  0.250000  0.129748  0.440599  1
  Li  Li1  1  0.250000  0.626395  0.059921  1
  Li  Li2  1  0.750000  0.868462  0.555858  1
  Li  Li3  1  0.750000  0.376583  0.945183  1
  Sm  Sm4  1  0.250000  0.047282  0.817746  1
  Sm  Sm5  1  0.250000  0.543998  0.680974  1
  Sm  Sm6  1  0.750000  0.955782  0.184472  1
  Ho  Ho7  1  0.750000  0.453233  0.319048  1
  Pt  Pt8  1  0.250000  0.738598  0.375539  1
  Pt  Pt9  1  0.250000  0.252287  0.126466  1
  Pt  Pt10  1  0.750000  0.252324  0.615565  1
  Pt  Pt11  1  0.750000  0.755308  0.878630  1
