# generated using pymatgen
data_Dy2Al9CuRu2
_symmetry_space_group_name_H-M   'P 1'
_cell_length_a   7.58115543
_cell_length_b   7.58115507
_cell_length_c   9.51433500
_cell_angle_alpha   90.00000000
_cell_angle_beta   90.00000000
_cell_angle_gamma   119.67355093
_symmetry_Int_Tables_number   1
_chemical_formula_structural   Dy2Al9CuRu2
_chemical_formula_sum   'Dy4 Al18 Cu2 Ru4'
_cell_volume   475.11538320
_cell_formula_units_Z   2
loop_
 _symmetry_equiv_pos_site_id
 _symmetry_equiv_pos_as_xyz
  1  'x, y, z'
loop_
 _atom_site_type_symbol
 _atom_site_label
 _atom_site_symmetry_multiplicity
 _atom_site_fract_x
 _atom_site_fract_y
 _atom_site_fract_z
 _atom_site_occupancy
  Dy  Dy0  1  0.995134  0.671796  0.250000  1
  Dy  Dy1  1  0.004866  0.328204  0.750000  1
  Dy  Dy2  1  0.671796  0.995134  0.250000  1
  Dy  Dy3  1  0.328204  0.004866  0.750000  1
  Al  Al4  1  0.130492  0.130492  0.250000  1
  Al  Al5  1  0.869508  0.869508  0.750000  1
  Al  Al6  1  0.001267  0.339753  0.073769  1
  Al  Al7  1  0.998733  0.660247  0.926231  1
  Al  Al8  1  0.998733  0.660247  0.573769  1
  Al  Al9  1  0.339753  0.001267  0.426231  1
  Al  Al10  1  0.001267  0.339753  0.426231  1
  Al  Al11  1  0.660247  0.998733  0.573769  1
  Al  Al12  1  0.660247  0.998733  0.926231  1
  Al  Al13  1  0.339753  0.001267  0.073769  1
  Al  Al14  1  0.338413  0.338413  0.548013  1
  Al  Al15  1  0.661587  0.661587  0.451987  1
  Al  Al16  1  0.661587  0.661587  0.048013  1
  Al  Al17  1  0.338413  0.338413  0.951987  1
  Al  Al18  1  0.336234  0.550367  0.250000  1
  Al  Al19  1  0.663766  0.449633  0.750000  1
  Al  Al20  1  0.550367  0.336234  0.250000  1
  Al  Al21  1  0.449633  0.663766  0.750000  1
  Cu  Cu22  1  0.000000  0.000000  0.000000  1
  Cu  Cu23  1  0.000000  0.000000  0.500000  1
  Ru  Ru24  1  0.672345  0.327655  0.000000  1
  Ru  Ru25  1  0.327655  0.672345  0.000000  1
  Ru  Ru26  1  0.327655  0.672345  0.500000  1
  Ru  Ru27  1  0.672345  0.327655  0.500000  1
