# generated using pymatgen
data_Hf(Si2Rh3)2
_symmetry_space_group_name_H-M   'P 1'
_cell_length_a   7.01300800
_cell_length_b   7.01300843
_cell_length_c   3.72747700
_cell_angle_alpha   90.00000000
_cell_angle_beta   90.00000000
_cell_angle_gamma   120.00000742
_symmetry_Int_Tables_number   1
_chemical_formula_structural   Hf(Si2Rh3)2
_chemical_formula_sum   'Hf1 Si4 Rh6'
_cell_volume   158.76481681
_cell_formula_units_Z   1
loop_
 _symmetry_equiv_pos_site_id
 _symmetry_equiv_pos_as_xyz
  1  'x, y, z'
loop_
 _atom_site_type_symbol
 _atom_site_label
 _atom_site_symmetry_multiplicity
 _atom_site_fract_x
 _atom_site_fract_y
 _atom_site_fract_z
 _atom_site_occupancy
  Hf  Hf0  1  0.000000  0.000000  0.000000  1
  Si  Si1  1  0.666667  0.333333  0.000000  1
  Si  Si2  1  0.197196  0.394777  0.500000  1
  Si  Si3  1  0.197579  0.802804  0.500000  1
  Si  Si4  1  0.605223  0.802421  0.500000  1
  Rh  Rh5  1  0.468296  0.933965  0.000000  1
  Rh  Rh6  1  0.465669  0.531704  0.000000  1
  Rh  Rh7  1  0.066035  0.534331  0.000000  1
  Rh  Rh8  1  0.805689  0.612228  0.500000  1
  Rh  Rh9  1  0.806539  0.194311  0.500000  1
  Rh  Rh10  1  0.387772  0.193461  0.500000  1
