# generated using pymatgen
data_Pr8Mg(CdAu4)5
_symmetry_space_group_name_H-M   'P 1'
_cell_length_a   8.85187252
_cell_length_b   8.85187200
_cell_length_c   10.48808900
_cell_angle_alpha   89.98039410
_cell_angle_beta   89.98039410
_cell_angle_gamma   108.57895856
_symmetry_Int_Tables_number   1
_chemical_formula_structural   Pr8Mg(CdAu4)5
_chemical_formula_sum   'Pr8 Mg1 Cd5 Au20'
_cell_volume   778.97305711
_cell_formula_units_Z   1
loop_
 _symmetry_equiv_pos_site_id
 _symmetry_equiv_pos_as_xyz
  1  'x, y, z'
loop_
 _atom_site_type_symbol
 _atom_site_label
 _atom_site_symmetry_multiplicity
 _atom_site_fract_x
 _atom_site_fract_y
 _atom_site_fract_z
 _atom_site_occupancy
  Pr  Pr0  1  0.701311  0.298689  0.000000  1
  Pr  Pr1  1  0.298689  0.701311  0.000000  1
  Pr  Pr2  1  0.797362  0.202638  0.500000  1
  Pr  Pr3  1  0.202638  0.797362  0.500000  1
  Pr  Pr4  1  0.299191  0.299192  0.204759  1
  Pr  Pr5  1  0.700809  0.700808  0.795241  1
  Pr  Pr6  1  0.197546  0.197545  0.706786  1
  Pr  Pr7  1  0.802454  0.802455  0.293214  1
  Mg  Mg8  1  0.500000  0.500000  0.500000  1
  Cd  Cd9  1  0.017044  0.518277  0.251917  1
  Cd  Cd10  1  0.982956  0.481723  0.748083  1
  Cd  Cd11  1  0.481723  0.982956  0.748082  1
  Cd  Cd12  1  0.518277  0.017044  0.251918  1
  Cd  Cd13  1  0.000000  0.000000  0.000000  1
  Au  Au14  1  0.096271  0.096271  0.406496  1
  Au  Au15  1  0.903729  0.903729  0.593504  1
  Au  Au16  1  0.403116  0.403116  0.906402  1
  Au  Au17  1  0.596884  0.596884  0.093598  1
  Au  Au18  1  0.886843  0.167018  0.209784  1
  Au  Au19  1  0.113157  0.832982  0.790216  1
  Au  Au20  1  0.609882  0.338231  0.705666  1
  Au  Au21  1  0.661769  0.390118  0.294333  1
  Au  Au22  1  0.390118  0.661769  0.294334  1
  Au  Au23  1  0.338231  0.609882  0.705667  1
  Au  Au24  1  0.832982  0.113157  0.790216  1
  Au  Au25  1  0.167018  0.886843  0.209784  1
  Au  Au26  1  0.931377  0.655682  0.020284  1
  Au  Au27  1  0.068623  0.344318  0.979716  1
  Au  Au28  1  0.569545  0.835992  0.521059  1
  Au  Au29  1  0.164008  0.430456  0.478941  1
  Au  Au30  1  0.430455  0.164008  0.478941  1
  Au  Au31  1  0.835992  0.569544  0.521059  1
  Au  Au32  1  0.344318  0.068623  0.979716  1
  Au  Au33  1  0.655682  0.931377  0.020284  1
