# generated using pymatgen
data_Tm3Fe2Co(NiP)6
_symmetry_space_group_name_H-M   'P 1'
_cell_length_a   3.71387900
_cell_length_b   10.48053600
_cell_length_c   12.19918600
_cell_angle_alpha   90.00000000
_cell_angle_beta   90.00000000
_cell_angle_gamma   90.00000000
_symmetry_Int_Tables_number   1
_chemical_formula_structural   Tm3Fe2Co(NiP)6
_chemical_formula_sum   'Tm6 Fe4 Co2 Ni12 P12'
_cell_volume   474.83431554
_cell_formula_units_Z   2
loop_
 _symmetry_equiv_pos_site_id
 _symmetry_equiv_pos_as_xyz
  1  'x, y, z'
loop_
 _atom_site_type_symbol
 _atom_site_label
 _atom_site_symmetry_multiplicity
 _atom_site_fract_x
 _atom_site_fract_y
 _atom_site_fract_z
 _atom_site_occupancy
  Tm  Tm0  1  0.000000  0.500000  0.522432  1
  Tm  Tm1  1  0.500000  0.000000  0.477624  1
  Tm  Tm2  1  0.500000  0.817135  0.205587  1
  Tm  Tm3  1  0.500000  0.182865  0.205587  1
  Tm  Tm4  1  0.000000  0.681915  0.794554  1
  Tm  Tm5  1  0.000000  0.318085  0.794554  1
  Fe  Fe6  1  0.500000  0.500000  0.155272  1
  Fe  Fe7  1  0.000000  0.000000  0.842569  1
  Fe  Fe8  1  0.500000  0.331281  0.994668  1
  Fe  Fe9  1  0.500000  0.668719  0.994668  1
  Co  Co10  1  0.000000  0.500000  0.985433  1
  Co  Co11  1  0.500000  0.000000  0.012859  1
  Ni  Ni12  1  0.500000  0.500000  0.704207  1
  Ni  Ni13  1  0.000000  0.000000  0.298732  1
  Ni  Ni14  1  0.000000  0.164800  0.006736  1
  Ni  Ni15  1  0.000000  0.835200  0.006736  1
  Ni  Ni16  1  0.500000  0.302053  0.428900  1
  Ni  Ni17  1  0.500000  0.697947  0.428900  1
  Ni  Ni18  1  0.000000  0.198475  0.570777  1
  Ni  Ni19  1  0.000000  0.801525  0.570777  1
  Ni  Ni20  1  0.500000  0.879051  0.711055  1
  Ni  Ni21  1  0.500000  0.120949  0.711055  1
  Ni  Ni22  1  0.000000  0.621458  0.287683  1
  Ni  Ni23  1  0.000000  0.378542  0.287683  1
  P  P24  1  0.500000  0.500000  0.883974  1
  P  P25  1  0.000000  0.000000  0.122298  1
  P  P26  1  0.500000  0.500000  0.344831  1
  P  P27  1  0.000000  0.000000  0.653957  1
  P  P28  1  0.500000  0.315335  0.616457  1
  P  P29  1  0.500000  0.684665  0.616457  1
  P  P30  1  0.000000  0.185001  0.384743  1
  P  P31  1  0.000000  0.814999  0.384743  1
  P  P32  1  0.500000  0.845119  0.892548  1
  P  P33  1  0.500000  0.154881  0.892548  1
  P  P34  1  0.000000  0.653191  0.104199  1
  P  P35  1  0.000000  0.346809  0.104199  1
