# generated using pymatgen
data_LiYLu5Co17P12
_symmetry_space_group_name_H-M   'P 1'
_cell_length_a   3.67365400
_cell_length_b   10.48677400
_cell_length_c   12.10261700
_cell_angle_alpha   90.00000000
_cell_angle_beta   90.00000000
_cell_angle_gamma   90.00000000
_symmetry_Int_Tables_number   1
_chemical_formula_structural   LiYLu5Co17P12
_chemical_formula_sum   'Li1 Y1 Lu5 Co17 P12'
_cell_volume   466.25064830
_cell_formula_units_Z   1
loop_
 _symmetry_equiv_pos_site_id
 _symmetry_equiv_pos_as_xyz
  1  'x, y, z'
loop_
 _atom_site_type_symbol
 _atom_site_label
 _atom_site_symmetry_multiplicity
 _atom_site_fract_x
 _atom_site_fract_y
 _atom_site_fract_z
 _atom_site_occupancy
  Li  Li0  1  0.000000  0.000000  0.844842  1
  Y  Y1  1  0.000000  0.500000  0.522601  1
  Lu  Lu2  1  0.500000  0.000000  0.476970  1
  Lu  Lu3  1  0.500000  0.818521  0.205981  1
  Lu  Lu4  1  0.500000  0.181479  0.205981  1
  Lu  Lu5  1  0.000000  0.680812  0.794331  1
  Lu  Lu6  1  0.000000  0.319188  0.794331  1
  Co  Co7  1  0.500000  0.500000  0.158816  1
  Co  Co8  1  0.500000  0.500000  0.704952  1
  Co  Co9  1  0.000000  0.000000  0.296441  1
  Co  Co10  1  0.000000  0.500000  0.987666  1
  Co  Co11  1  0.500000  0.000000  0.014914  1
  Co  Co12  1  0.500000  0.334125  0.995901  1
  Co  Co13  1  0.500000  0.665875  0.995901  1
  Co  Co14  1  0.000000  0.168413  0.004948  1
  Co  Co15  1  0.000000  0.831587  0.004948  1
  Co  Co16  1  0.500000  0.295958  0.429929  1
  Co  Co17  1  0.500000  0.704042  0.429929  1
  Co  Co18  1  0.000000  0.202005  0.568279  1
  Co  Co19  1  0.000000  0.797995  0.568279  1
  Co  Co20  1  0.500000  0.877538  0.707548  1
  Co  Co21  1  0.500000  0.122462  0.707548  1
  Co  Co22  1  0.000000  0.621862  0.290238  1
  Co  Co23  1  0.000000  0.378138  0.290238  1
  P  P24  1  0.500000  0.500000  0.882701  1
  P  P25  1  0.000000  0.000000  0.117367  1
  P  P26  1  0.500000  0.500000  0.343902  1
  P  P27  1  0.000000  0.000000  0.651781  1
  P  P28  1  0.500000  0.310475  0.617131  1
  P  P29  1  0.500000  0.689525  0.617131  1
  P  P30  1  0.000000  0.187823  0.382699  1
  P  P31  1  0.000000  0.812177  0.382699  1
  P  P32  1  0.500000  0.843089  0.892972  1
  P  P33  1  0.500000  0.156911  0.892972  1
  P  P34  1  0.000000  0.654064  0.108569  1
  P  P35  1  0.000000  0.345936  0.108569  1
