# generated using pymatgen
data_Nd3Tm2Sn3
_symmetry_space_group_name_H-M   'P 1'
_cell_length_a   6.64614500
_cell_length_b   9.13212536
_cell_length_c   9.13295807
_cell_angle_alpha   119.99698062
_cell_angle_beta   90.00000000
_cell_angle_gamma   90.00000000
_symmetry_Int_Tables_number   1
_chemical_formula_structural   Nd3Tm2Sn3
_chemical_formula_sum   'Nd6 Tm4 Sn6'
_cell_volume   480.06161872
_cell_formula_units_Z   2
loop_
 _symmetry_equiv_pos_site_id
 _symmetry_equiv_pos_as_xyz
  1  'x, y, z'
loop_
 _atom_site_type_symbol
 _atom_site_label
 _atom_site_symmetry_multiplicity
 _atom_site_fract_x
 _atom_site_fract_y
 _atom_site_fract_z
 _atom_site_occupancy
  Nd  Nd0  1  0.750002  0.241243  0.000000  1
  Nd  Nd1  1  0.749998  0.758644  0.758691  1
  Nd  Nd2  1  0.749998  0.999953  0.241309  1
  Nd  Nd3  1  0.250002  0.758757  0.000000  1
  Nd  Nd4  1  0.249998  0.241356  0.241309  1
  Nd  Nd5  1  0.249998  0.000047  0.758691  1
  Tm  Tm6  1  0.500000  0.333345  0.666704  1
  Tm  Tm7  1  0.500000  0.666641  0.333296  1
  Tm  Tm8  1  0.000000  0.666655  0.333296  1
  Tm  Tm9  1  0.000000  0.333359  0.666704  1
  Sn  Sn10  1  0.749998  0.600984  0.000000  1
  Sn  Sn11  1  0.750002  0.398950  0.398943  1
  Sn  Sn12  1  0.750002  0.000007  0.601057  1
  Sn  Sn13  1  0.249998  0.399016  0.000000  1
  Sn  Sn14  1  0.250002  0.601050  0.601057  1
  Sn  Sn15  1  0.250002  0.999993  0.398943  1
