# generated using pymatgen
data_U2TcC2
_symmetry_space_group_name_H-M   'P 1'
_cell_length_a   3.42732156
_cell_length_b   3.42732214
_cell_length_c   6.78592957
_cell_angle_alpha   104.62735408
_cell_angle_beta   104.62735424
_cell_angle_gamma   90.00001753
_symmetry_Int_Tables_number   1
_chemical_formula_structural   U2TcC2
_chemical_formula_sum   'U2 Tc1 C2'
_cell_volume   74.45448235
_cell_formula_units_Z   1
loop_
 _symmetry_equiv_pos_site_id
 _symmetry_equiv_pos_as_xyz
  1  'x, y, z'
loop_
 _atom_site_type_symbol
 _atom_site_label
 _atom_site_symmetry_multiplicity
 _atom_site_fract_x
 _atom_site_fract_y
 _atom_site_fract_z
 _atom_site_occupancy
  U  U0  1  0.645662  0.645662  0.291324  1
  U  U1  1  0.354338  0.354338  0.708676  1
  Tc  Tc2  1  0.000000  0.000000  0.000000  1
  C  C3  1  0.172410  0.172409  0.344819  1
  C  C4  1  0.827590  0.827591  0.655181  1
