# generated using pymatgen
data_TeSe7Br2
_symmetry_space_group_name_H-M   'P 1'
_cell_length_a   9.86609900
_cell_length_b   10.48464000
_cell_length_c   14.80094500
_cell_angle_alpha   90.00000000
_cell_angle_beta   90.00000000
_cell_angle_gamma   90.00000000
_symmetry_Int_Tables_number   1
_chemical_formula_structural   TeSe7Br2
_chemical_formula_sum   'Te4 Se28 Br8'
_cell_volume   1531.04669721
_cell_formula_units_Z   4
loop_
 _symmetry_equiv_pos_site_id
 _symmetry_equiv_pos_as_xyz
  1  'x, y, z'
loop_
 _atom_site_type_symbol
 _atom_site_label
 _atom_site_symmetry_multiplicity
 _atom_site_fract_x
 _atom_site_fract_y
 _atom_site_fract_z
 _atom_site_occupancy
  Te  Te0  1  0.750000  0.310617  0.607419  1
  Te  Te1  1  0.250000  0.189383  0.107419  1
  Te  Te2  1  0.250000  0.689383  0.392581  1
  Te  Te3  1  0.750000  0.810617  0.892581  1
  Se  Se4  1  0.941122  0.618770  0.198849  1
  Se  Se5  1  0.941122  0.118770  0.301151  1
  Se  Se6  1  0.459732  0.825086  0.450489  1
  Se  Se7  1  0.750000  0.218360  0.236152  1
  Se  Se8  1  0.534371  0.743067  0.587235  1
  Se  Se9  1  0.441122  0.381230  0.801151  1
  Se  Se10  1  0.959732  0.174914  0.549511  1
  Se  Se11  1  0.534371  0.243067  0.912765  1
  Se  Se12  1  0.250000  0.281640  0.736152  1
  Se  Se13  1  0.965629  0.743067  0.587235  1
  Se  Se14  1  0.034371  0.756933  0.087235  1
  Se  Se15  1  0.465629  0.756933  0.087235  1
  Se  Se16  1  0.034371  0.256933  0.412765  1
  Se  Se17  1  0.965629  0.243067  0.912765  1
  Se  Se18  1  0.040268  0.325086  0.049511  1
  Se  Se19  1  0.058878  0.381230  0.801151  1
  Se  Se20  1  0.441122  0.881230  0.698849  1
  Se  Se21  1  0.558878  0.118770  0.301151  1
  Se  Se22  1  0.250000  0.781640  0.763848  1
  Se  Se23  1  0.558878  0.618770  0.198849  1
  Se  Se24  1  0.058878  0.881230  0.698849  1
  Se  Se25  1  0.540268  0.174914  0.549511  1
  Se  Se26  1  0.750000  0.718360  0.263848  1
  Se  Se27  1  0.459732  0.325086  0.049511  1
  Se  Se28  1  0.465629  0.256933  0.412765  1
  Se  Se29  1  0.040268  0.825086  0.450489  1
  Se  Se30  1  0.959732  0.674914  0.950489  1
  Se  Se31  1  0.540268  0.674914  0.950489  1
  Br  Br32  1  0.250000  0.889980  0.271282  1
  Br  Br33  1  0.750000  0.975132  0.025181  1
  Br  Br34  1  0.250000  0.024868  0.974819  1
  Br  Br35  1  0.750000  0.110020  0.728718  1
  Br  Br36  1  0.750000  0.475132  0.474819  1
  Br  Br37  1  0.250000  0.524868  0.525181  1
  Br  Br38  1  0.750000  0.610020  0.771282  1
  Br  Br39  1  0.250000  0.389980  0.228718  1
