# generated using pymatgen
data_Nd3Ho(Ni5Sn)4
_symmetry_space_group_name_H-M   'P 1'
_cell_length_a   4.92363600
_cell_length_b   4.92364021
_cell_length_c   19.76901600
_cell_angle_alpha   90.00000000
_cell_angle_beta   90.00000000
_cell_angle_gamma   120.00124511
_symmetry_Int_Tables_number   1
_chemical_formula_structural   Nd3Ho(Ni5Sn)4
_chemical_formula_sum   'Nd3 Ho1 Ni20 Sn4'
_cell_volume   415.03286047
_cell_formula_units_Z   1
loop_
 _symmetry_equiv_pos_site_id
 _symmetry_equiv_pos_as_xyz
  1  'x, y, z'
loop_
 _atom_site_type_symbol
 _atom_site_label
 _atom_site_symmetry_multiplicity
 _atom_site_fract_x
 _atom_site_fract_y
 _atom_site_fract_z
 _atom_site_occupancy
  Nd  Nd0  1  0.666666  0.333334  0.750000  1
  Nd  Nd1  1  0.000002  0.000000  0.499304  1
  Nd  Nd2  1  0.000002  0.000000  0.000696  1
  Ho  Ho3  1  0.333333  0.666668  0.250000  1
  Ni  Ni4  1  0.000006  0.000011  0.250000  1
  Ni  Ni5  1  0.999997  0.000002  0.750000  1
  Ni  Ni6  1  0.333337  0.666667  0.750000  1
  Ni  Ni7  1  0.666666  0.333334  0.250000  1
  Ni  Ni8  1  0.333332  0.666674  0.957199  1
  Ni  Ni9  1  0.666661  0.333333  0.044587  1
  Ni  Ni10  1  0.666661  0.333333  0.455413  1
  Ni  Ni11  1  0.333332  0.666674  0.542801  1
  Ni  Ni12  1  0.833681  0.166305  0.351996  1
  Ni  Ni13  1  0.833679  0.667360  0.351997  1
  Ni  Ni14  1  0.332648  0.166321  0.351997  1
  Ni  Ni15  1  0.166184  0.833812  0.645943  1
  Ni  Ni16  1  0.166183  0.332366  0.645943  1
  Ni  Ni17  1  0.667628  0.833819  0.645944  1
  Ni  Ni18  1  0.166184  0.833812  0.854057  1
  Ni  Ni19  1  0.166183  0.332366  0.854057  1
  Ni  Ni20  1  0.667628  0.833819  0.854056  1
  Ni  Ni21  1  0.833681  0.166305  0.148004  1
  Ni  Ni22  1  0.833679  0.667360  0.148003  1
  Ni  Ni23  1  0.332648  0.166321  0.148003  1
  Sn  Sn24  1  0.333334  0.666667  0.410831  1
  Sn  Sn25  1  0.666666  0.333335  0.586733  1
  Sn  Sn26  1  0.666666  0.333335  0.913267  1
  Sn  Sn27  1  0.333334  0.666667  0.089169  1
