# generated using pymatgen
data_Y2Ho14MgHg3Ir4
_symmetry_space_group_name_H-M   'P 1'
_cell_length_a   9.59774853
_cell_length_b   9.58660314
_cell_length_c   9.58315900
_cell_angle_alpha   60.01188027
_cell_angle_beta   60.05026832
_cell_angle_gamma   60.00729970
_symmetry_Int_Tables_number   1
_chemical_formula_structural   Y2Ho14MgHg3Ir4
_chemical_formula_sum   'Y2 Ho14 Mg1 Hg3 Ir4'
_cell_volume   623.81456946
_cell_formula_units_Z   1
loop_
 _symmetry_equiv_pos_site_id
 _symmetry_equiv_pos_as_xyz
  1  'x, y, z'
loop_
 _atom_site_type_symbol
 _atom_site_label
 _atom_site_symmetry_multiplicity
 _atom_site_fract_x
 _atom_site_fract_y
 _atom_site_fract_z
 _atom_site_occupancy
  Y  Y0  1  0.811621  0.813321  0.187529  1
  Y  Y1  1  0.186302  0.188439  0.812630  1
  Ho  Ho2  1  0.599793  0.597906  0.598038  1
  Ho  Ho3  1  0.599793  0.597906  0.204262  1
  Ho  Ho4  1  0.599947  0.204253  0.597899  1
  Ho  Ho5  1  0.193698  0.602148  0.602077  1
  Ho  Ho6  1  0.058543  0.441067  0.441111  1
  Ho  Ho7  1  0.437394  0.061918  0.061881  1
  Ho  Ho8  1  0.437394  0.061918  0.438807  1
  Ho  Ho9  1  0.058543  0.441067  0.059278  1
  Ho  Ho10  1  0.437397  0.438983  0.061810  1
  Ho  Ho11  1  0.058494  0.059236  0.441134  1
  Ho  Ho12  1  0.187006  0.811470  0.811485  1
  Ho  Ho13  1  0.810661  0.188568  0.188447  1
  Ho  Ho14  1  0.810661  0.188568  0.812324  1
  Ho  Ho15  1  0.187006  0.811470  0.190040  1
  Mg  Mg16  1  0.535465  0.821451  0.821542  1
  Hg  Hg17  1  0.832201  0.837028  0.836470  1
  Hg  Hg18  1  0.832201  0.837028  0.494301  1
  Hg  Hg19  1  0.831844  0.494161  0.836998  1
  Ir  Ir20  1  0.389851  0.393239  0.392729  1
  Ir  Ir21  1  0.389851  0.393239  0.824181  1
  Ir  Ir22  1  0.389405  0.824192  0.393201  1
  Ir  Ir23  1  0.824928  0.391421  0.391826  1
