# generated using pymatgen
data_LaPr(Zn2Cu3)2
_symmetry_space_group_name_H-M   'P 1'
_cell_length_a   4.23663000
_cell_length_b   5.28839300
_cell_length_c   8.92082800
_cell_angle_alpha   90.00000000
_cell_angle_beta   90.00000000
_cell_angle_gamma   90.00000000
_symmetry_Int_Tables_number   1
_chemical_formula_structural   LaPr(Zn2Cu3)2
_chemical_formula_sum   'La1 Pr1 Zn4 Cu6'
_cell_volume   199.87083408
_cell_formula_units_Z   1
loop_
 _symmetry_equiv_pos_site_id
 _symmetry_equiv_pos_as_xyz
  1  'x, y, z'
loop_
 _atom_site_type_symbol
 _atom_site_label
 _atom_site_symmetry_multiplicity
 _atom_site_fract_x
 _atom_site_fract_y
 _atom_site_fract_z
 _atom_site_occupancy
  La  La0  1  0.000000  0.999989  0.000000  1
  Pr  Pr1  1  0.000000  0.499976  0.500000  1
  Zn  Zn2  1  0.500000  0.250569  0.251877  1
  Zn  Zn3  1  0.500000  0.749405  0.748123  1
  Zn  Zn4  1  0.500000  0.749405  0.251877  1
  Zn  Zn5  1  0.500000  0.250569  0.748123  1
  Cu  Cu6  1  0.000000  0.999972  0.337574  1
  Cu  Cu7  1  0.000000  0.499990  0.835662  1
  Cu  Cu8  1  0.000000  0.499990  0.164338  1
  Cu  Cu9  1  0.000000  0.999972  0.662426  1
  Cu  Cu10  1  0.500000  0.999983  0.500000  1
  Cu  Cu11  1  0.500000  0.499984  0.000000  1
