# generated using pymatgen
data_Ho12Ir2PtRh
_symmetry_space_group_name_H-M   'P 1'
_cell_length_a   6.36695686
_cell_length_b   7.15987085
_cell_length_c   9.30456500
_cell_angle_alpha   90.00000000
_cell_angle_beta   90.00000000
_cell_angle_gamma   90.10541954
_symmetry_Int_Tables_number   1
_chemical_formula_structural   Ho12Ir2PtRh
_chemical_formula_sum   'Ho12 Ir2 Pt1 Rh1'
_cell_volume   424.16266083
_cell_formula_units_Z   1
loop_
 _symmetry_equiv_pos_site_id
 _symmetry_equiv_pos_as_xyz
  1  'x, y, z'
loop_
 _atom_site_type_symbol
 _atom_site_label
 _atom_site_symmetry_multiplicity
 _atom_site_fract_x
 _atom_site_fract_y
 _atom_site_fract_z
 _atom_site_occupancy
  Ho  Ho0  1  0.331081  0.676417  0.060770  1
  Ho  Ho1  1  0.174162  0.182058  0.438727  1
  Ho  Ho2  1  0.672395  0.321894  0.562404  1
  Ho  Ho3  1  0.825298  0.821608  0.935535  1
  Ho  Ho4  1  0.672395  0.321894  0.937596  1
  Ho  Ho5  1  0.825298  0.821608  0.564465  1
  Ho  Ho6  1  0.331081  0.676417  0.439230  1
  Ho  Ho7  1  0.174162  0.182058  0.061273  1
  Ho  Ho8  1  0.865821  0.527901  0.250000  1
  Ho  Ho9  1  0.628427  0.035368  0.250000  1
  Ho  Ho10  1  0.131402  0.467069  0.750000  1
  Ho  Ho11  1  0.369046  0.964888  0.750000  1
  Ir  Ir12  1  0.450377  0.383787  0.250000  1
  Ir  Ir13  1  0.545856  0.615985  0.750000  1
  Pt  Pt14  1  0.049907  0.884615  0.250000  1
  Rh  Rh15  1  0.953292  0.116430  0.750000  1
