# generated using pymatgen
data_Zr8Al14AsRh7
_symmetry_space_group_name_H-M   'P 1'
_cell_length_a   8.89639081
_cell_length_b   8.89650547
_cell_length_c   8.89635438
_cell_angle_alpha   120.07710347
_cell_angle_beta   119.84610997
_cell_angle_gamma   90.06599236
_symmetry_Int_Tables_number   1
_chemical_formula_structural   Zr8Al14AsRh7
_chemical_formula_sum   'Zr8 Al14 As1 Rh7'
_cell_volume   498.17533976
_cell_formula_units_Z   1
loop_
 _symmetry_equiv_pos_site_id
 _symmetry_equiv_pos_as_xyz
  1  'x, y, z'
loop_
 _atom_site_type_symbol
 _atom_site_label
 _atom_site_symmetry_multiplicity
 _atom_site_fract_x
 _atom_site_fract_y
 _atom_site_fract_z
 _atom_site_occupancy
  Zr  Zr0  1  0.802297  0.296169  0.085849  1
  Zr  Zr1  1  0.210323  0.296172  0.493877  1
  Zr  Zr2  1  0.199600  0.699600  0.500000  1
  Zr  Zr3  1  0.210328  0.716448  0.914154  1
  Zr  Zr4  1  0.802295  0.716445  0.506117  1
  Zr  Zr5  1  0.786635  0.286633  0.500000  1
  Zr  Zr6  1  0.380094  0.121178  0.741091  1
  Zr  Zr7  1  0.380097  0.639008  0.258911  1
  Al  Al8  1  0.162744  0.330090  0.167344  1
  Al  Al9  1  0.162739  0.995396  0.832656  1
  Al  Al10  1  0.154881  0.335857  0.819030  1
  Al  Al11  1  0.516825  0.335856  0.180976  1
  Al  Al12  1  0.833955  0.662960  0.829004  1
  Al  Al13  1  0.833951  0.004944  0.170991  1
  Al  Al14  1  0.833473  0.665135  0.168326  1
  Al  Al15  1  0.496808  0.665136  0.831662  1
  Al  Al16  1  0.380874  0.120368  0.260514  1
  Al  Al17  1  0.859855  0.120367  0.739493  1
  Al  Al18  1  0.621840  0.879047  0.257206  1
  Al  Al19  1  0.621843  0.364638  0.742795  1
  Al  Al20  1  0.622932  0.879466  0.743465  1
  Al  Al21  1  0.135999  0.879466  0.256533  1
  As  As22  1  0.993225  0.493224  0.499999  1
  Rh  Rh23  1  0.997357  0.998791  0.500279  1
  Rh  Rh24  1  0.498514  0.998788  0.001434  1
  Rh  Rh25  1  0.499392  0.499391  0.000000  1
  Rh  Rh26  1  0.498526  0.497093  0.499738  1
  Rh  Rh27  1  0.997348  0.497090  0.998559  1
  Rh  Rh28  1  0.999081  0.999081  0.999997  1
  Rh  Rh29  1  0.506161  0.006160  0.499999  1
