# generated using pymatgen
data_Sr4TbEu3(BO4)4
_symmetry_space_group_name_H-M   'P 1'
_cell_length_a   3.75316100
_cell_length_b   9.87173880
_cell_length_c   11.01833336
_cell_angle_alpha   89.89877677
_cell_angle_beta   90.00000000
_cell_angle_gamma   90.00000000
_symmetry_Int_Tables_number   1
_chemical_formula_structural   Sr4TbEu3(BO4)4
_chemical_formula_sum   'Sr4 Tb1 Eu3 B4 O16'
_cell_volume   408.23109364
_cell_formula_units_Z   1
loop_
 _symmetry_equiv_pos_site_id
 _symmetry_equiv_pos_as_xyz
  1  'x, y, z'
loop_
 _atom_site_type_symbol
 _atom_site_label
 _atom_site_symmetry_multiplicity
 _atom_site_fract_x
 _atom_site_fract_y
 _atom_site_fract_z
 _atom_site_occupancy
  Sr  Sr0  1  0.250000  0.664759  0.080904  1
  Sr  Sr1  1  0.750000  0.338989  0.918510  1
  Sr  Sr2  1  0.750000  0.163957  0.418600  1
  Sr  Sr3  1  0.250000  0.830475  0.582297  1
  Tb  Tb4  1  0.250000  0.415476  0.613322  1
  Eu  Eu5  1  0.250000  0.078093  0.117109  1
  Eu  Eu6  1  0.750000  0.925708  0.880491  1
  Eu  Eu7  1  0.750000  0.575824  0.384705  1
  B  B8  1  0.250000  0.365963  0.200732  1
  B  B9  1  0.750000  0.630714  0.798803  1
  B  B10  1  0.750000  0.865546  0.300759  1
  B  B11  1  0.250000  0.139655  0.700585  1
  O  O12  1  0.250000  0.494068  0.253484  1
  O  O13  1  0.750000  0.505457  0.740916  1
  O  O14  1  0.750000  0.993036  0.246798  1
  O  O15  1  0.250000  0.009758  0.749096  1
  O  O16  1  0.250000  0.249182  0.272426  1
  O  O17  1  0.750000  0.750593  0.731006  1
  O  O18  1  0.750000  0.748585  0.229814  1
  O  O19  1  0.250000  0.254990  0.773882  1
  O  O20  1  0.250000  0.354912  0.074492  1
  O  O21  1  0.750000  0.636337  0.925758  1
  O  O22  1  0.750000  0.855798  0.427478  1
  O  O23  1  0.250000  0.157384  0.574425  1
  O  O24  1  0.250000  0.606384  0.502251  1
  O  O25  1  0.750000  0.386537  0.504142  1
  O  O26  1  0.750000  0.110931  0.000616  1
  O  O27  1  0.250000  0.890887  0.996600  1
