# generated using pymatgen
data_Ce2Si2Pd2RuRh
_symmetry_space_group_name_H-M   'P 1'
_cell_length_a   9.28799700
_cell_length_b   9.28799696
_cell_length_c   4.14241800
_cell_angle_alpha   90.00000000
_cell_angle_beta   90.00000000
_cell_angle_gamma   154.63345374
_symmetry_Int_Tables_number   1
_chemical_formula_structural   Ce2Si2Pd2RuRh
_chemical_formula_sum   'Ce2 Si2 Pd2 Ru1 Rh1'
_cell_volume   153.09296750
_cell_formula_units_Z   1
loop_
 _symmetry_equiv_pos_site_id
 _symmetry_equiv_pos_as_xyz
  1  'x, y, z'
loop_
 _atom_site_type_symbol
 _atom_site_label
 _atom_site_symmetry_multiplicity
 _atom_site_fract_x
 _atom_site_fract_y
 _atom_site_fract_z
 _atom_site_occupancy
  Ce  Ce0  1  0.108652  0.891348  0.750000  1
  Ce  Ce1  1  0.891269  0.108731  0.250000  1
  Si  Si2  1  0.317046  0.682954  0.750000  1
  Si  Si3  1  0.682943  0.317057  0.250000  1
  Pd  Pd4  1  0.549368  0.450632  0.250000  1
  Pd  Pd5  1  0.450728  0.549272  0.750000  1
  Ru  Ru6  1  0.250196  0.749804  0.250000  1
  Rh  Rh7  1  0.749798  0.250202  0.750000  1
