# generated using pymatgen
data_Lu3TaSn2(B2Ru5)2
_symmetry_space_group_name_H-M   'P 1'
_cell_length_a   9.64059708
_cell_length_b   9.64059759
_cell_length_c   3.09527000
_cell_angle_alpha   90.00000000
_cell_angle_beta   90.00000000
_cell_angle_gamma   90.63786206
_symmetry_Int_Tables_number   1
_chemical_formula_structural   Lu3TaSn2(B2Ru5)2
_chemical_formula_sum   'Lu3 Ta1 Sn2 B4 Ru10'
_cell_volume   287.66002405
_cell_formula_units_Z   1
loop_
 _symmetry_equiv_pos_site_id
 _symmetry_equiv_pos_as_xyz
  1  'x, y, z'
loop_
 _atom_site_type_symbol
 _atom_site_label
 _atom_site_symmetry_multiplicity
 _atom_site_fract_x
 _atom_site_fract_y
 _atom_site_fract_z
 _atom_site_occupancy
  Lu  Lu0  1  0.823719  0.674454  0.000000  1
  Lu  Lu1  1  0.174454  0.323719  0.000000  1
  Lu  Lu2  1  0.324223  0.824223  0.000000  1
  Ta  Ta3  1  0.673613  0.173613  0.000000  1
  Sn  Sn4  1  0.499282  0.506954  0.000000  1
  Sn  Sn5  1  0.006954  0.999282  0.000000  1
  B  B6  1  0.624747  0.883079  0.000000  1
  B  B7  1  0.383079  0.124747  0.000000  1
  B  B8  1  0.117352  0.617352  0.000000  1
  B  B9  1  0.875476  0.375476  0.000000  1
  Ru  Ru10  1  0.572346  0.727887  0.500000  1
  Ru  Ru11  1  0.444685  0.278571  0.500000  1
  Ru  Ru12  1  0.068981  0.774828  0.500000  1
  Ru  Ru13  1  0.912578  0.214241  0.500000  1
  Ru  Ru14  1  0.274828  0.568981  0.500000  1
  Ru  Ru15  1  0.714241  0.412578  0.500000  1
  Ru  Ru16  1  0.227887  0.072346  0.500000  1
  Ru  Ru17  1  0.778571  0.944685  0.500000  1
  Ru  Ru18  1  0.508105  0.008105  0.500000  1
  Ru  Ru19  1  0.994878  0.494878  0.500000  1
