# generated using pymatgen
data_La2PrCu4(P2O)2
_symmetry_space_group_name_H-M   'P 1'
_cell_length_a   4.01876680
_cell_length_b   4.01876660
_cell_length_c   13.82748852
_cell_angle_alpha   98.35570035
_cell_angle_beta   98.35569791
_cell_angle_gamma   90.00000724
_symmetry_Int_Tables_number   1
_chemical_formula_structural   La2PrCu4(P2O)2
_chemical_formula_sum   'La2 Pr1 Cu4 P4 O2'
_cell_volume   218.55384225
_cell_formula_units_Z   1
loop_
 _symmetry_equiv_pos_site_id
 _symmetry_equiv_pos_as_xyz
  1  'x, y, z'
loop_
 _atom_site_type_symbol
 _atom_site_label
 _atom_site_symmetry_multiplicity
 _atom_site_fract_x
 _atom_site_fract_y
 _atom_site_fract_z
 _atom_site_occupancy
  La  La0  1  0.703850  0.703850  0.407699  1
  La  La1  1  0.296150  0.296150  0.592301  1
  Pr  Pr2  1  0.000000  0.000000  0.000000  1
  Cu  Cu3  1  0.593460  0.093460  0.186918  1
  Cu  Cu4  1  0.093460  0.593460  0.186918  1
  Cu  Cu5  1  0.906541  0.406540  0.813082  1
  Cu  Cu6  1  0.406540  0.906541  0.813082  1
  P  P7  1  0.541448  0.541448  0.082894  1
  P  P8  1  0.138537  0.138537  0.277073  1
  P  P9  1  0.861464  0.861464  0.722926  1
  P  P10  1  0.458553  0.458553  0.917107  1
  O  O11  1  0.750001  0.250000  0.500000  1
  O  O12  1  0.250000  0.750001  0.500000  1
