# generated using pymatgen
data_PrNd10In9Pt4
_symmetry_space_group_name_H-M   'P 1'
_cell_length_a   13.49082997
_cell_length_b   13.49082996
_cell_length_c   3.82254700
_cell_angle_alpha   90.00000000
_cell_angle_beta   90.00000000
_cell_angle_gamma   111.27052107
_symmetry_Int_Tables_number   1
_chemical_formula_structural   PrNd10In9Pt4
_chemical_formula_sum   'Pr1 Nd10 In9 Pt4'
_cell_volume   648.31971648
_cell_formula_units_Z   1
loop_
 _symmetry_equiv_pos_site_id
 _symmetry_equiv_pos_as_xyz
  1  'x, y, z'
loop_
 _atom_site_type_symbol
 _atom_site_label
 _atom_site_symmetry_multiplicity
 _atom_site_fract_x
 _atom_site_fract_y
 _atom_site_fract_z
 _atom_site_occupancy
  Pr  Pr0  1  0.000000  0.000000  0.000000  1
  Nd  Nd1  1  0.072491  0.417643  0.000000  1
  Nd  Nd2  1  0.927509  0.582357  0.000000  1
  Nd  Nd3  1  0.417643  0.072491  0.000000  1
  Nd  Nd4  1  0.582357  0.927509  0.000000  1
  Nd  Nd5  1  0.628586  0.371414  0.000000  1
  Nd  Nd6  1  0.371414  0.628586  0.000000  1
  Nd  Nd7  1  0.840769  0.159231  0.000000  1
  Nd  Nd8  1  0.159231  0.840769  0.000000  1
  Nd  Nd9  1  0.309655  0.309655  0.000000  1
  Nd  Nd10  1  0.690345  0.690345  0.000000  1
  In  In11  1  0.839440  0.366297  0.500000  1
  In  In12  1  0.160560  0.633703  0.500000  1
  In  In13  1  0.366297  0.839440  0.500000  1
  In  In14  1  0.633703  0.160560  0.500000  1
  In  In15  1  0.075021  0.218105  0.500000  1
  In  In16  1  0.924979  0.781895  0.500000  1
  In  In17  1  0.218105  0.075021  0.500000  1
  In  In18  1  0.781895  0.924979  0.500000  1
  In  In19  1  0.500000  0.500000  0.500000  1
  Pt  Pt20  1  0.246626  0.449773  0.500000  1
  Pt  Pt21  1  0.753374  0.550227  0.500000  1
  Pt  Pt22  1  0.449773  0.246626  0.500000  1
  Pt  Pt23  1  0.550227  0.753374  0.500000  1
