# generated using pymatgen
data_Ac2YLu(ZnSn)4
_symmetry_space_group_name_H-M   'P 1'
_cell_length_a   4.57903600
_cell_length_b   4.57903607
_cell_length_c   17.08455600
_cell_angle_alpha   90.00000000
_cell_angle_beta   90.00000000
_cell_angle_gamma   120.00001397
_symmetry_Int_Tables_number   1
_chemical_formula_structural   Ac2YLu(ZnSn)4
_chemical_formula_sum   'Ac2 Y1 Lu1 Zn4 Sn4'
_cell_volume   310.22899746
_cell_formula_units_Z   1
loop_
 _symmetry_equiv_pos_site_id
 _symmetry_equiv_pos_as_xyz
  1  'x, y, z'
loop_
 _atom_site_type_symbol
 _atom_site_label
 _atom_site_symmetry_multiplicity
 _atom_site_fract_x
 _atom_site_fract_y
 _atom_site_fract_z
 _atom_site_occupancy
  Ac  Ac0  1  0.000000  0.000000  0.502837  1
  Ac  Ac1  1  0.000000  0.000000  0.997163  1
  Y  Y2  1  0.000000  0.000000  0.250000  1
  Lu  Lu3  1  0.000000  0.000000  0.750000  1
  Zn  Zn4  1  0.333333  0.666667  0.166475  1
  Zn  Zn5  1  0.666667  0.333333  0.671382  1
  Zn  Zn6  1  0.666667  0.333333  0.828618  1
  Zn  Zn7  1  0.333333  0.666667  0.333525  1
  Sn  Sn8  1  0.666667  0.333333  0.376442  1
  Sn  Sn9  1  0.666667  0.333333  0.123558  1
  Sn  Sn10  1  0.333333  0.666667  0.872736  1
  Sn  Sn11  1  0.333333  0.666667  0.627264  1
