# generated using pymatgen
data_Y2Si4Tc3
_symmetry_space_group_name_H-M   'P 1'
_cell_length_a   6.80148000
_cell_length_b   6.79463735
_cell_length_c   6.79101585
_cell_angle_alpha   69.75216063
_cell_angle_beta   90.00000000
_cell_angle_gamma   90.00000000
_symmetry_Int_Tables_number   1
_chemical_formula_structural   Y2Si4Tc3
_chemical_formula_sum   'Y4 Si8 Tc6'
_cell_volume   294.44345906
_cell_formula_units_Z   2
loop_
 _symmetry_equiv_pos_site_id
 _symmetry_equiv_pos_as_xyz
  1  'x, y, z'
loop_
 _atom_site_type_symbol
 _atom_site_label
 _atom_site_symmetry_multiplicity
 _atom_site_fract_x
 _atom_site_fract_y
 _atom_site_fract_z
 _atom_site_occupancy
  Y  Y0  1  0.167868  0.941203  0.191571  1
  Y  Y1  1  0.332132  0.441203  0.191571  1
  Y  Y2  1  0.832132  0.058797  0.808429  1
  Y  Y3  1  0.667868  0.558797  0.808429  1
  Si  Si4  1  0.551880  0.121365  0.103453  1
  Si  Si5  1  0.358277  0.630633  0.513612  1
  Si  Si6  1  0.858277  0.869367  0.486388  1
  Si  Si7  1  0.051880  0.378635  0.896547  1
  Si  Si8  1  0.141723  0.130633  0.513612  1
  Si  Si9  1  0.641723  0.369367  0.486388  1
  Si  Si10  1  0.948120  0.621365  0.103453  1
  Si  Si11  1  0.448120  0.878635  0.896547  1
  Tc  Tc12  1  0.849728  0.242807  0.240155  1
  Tc  Tc13  1  0.349728  0.257193  0.759845  1
  Tc  Tc14  1  0.150272  0.757193  0.759845  1
  Tc  Tc15  1  0.650272  0.742807  0.240155  1
  Tc  Tc16  1  0.500000  0.000000  0.500000  1
  Tc  Tc17  1  0.000000  0.500000  0.500000  1
