# generated using pymatgen
data_LiAc3Al11
_symmetry_space_group_name_H-M   'P 1'
_cell_length_a   8.96511046
_cell_length_b   8.96510997
_cell_length_c   8.96510914
_cell_angle_alpha   150.54342669
_cell_angle_beta   103.80750662
_cell_angle_gamma   83.71987934
_symmetry_Int_Tables_number   1
_chemical_formula_structural   LiAc3Al11
_chemical_formula_sum   'Li1 Ac3 Al11'
_cell_volume   336.71626041
_cell_formula_units_Z   1
loop_
 _symmetry_equiv_pos_site_id
 _symmetry_equiv_pos_as_xyz
  1  'x, y, z'
loop_
 _atom_site_type_symbol
 _atom_site_label
 _atom_site_symmetry_multiplicity
 _atom_site_fract_x
 _atom_site_fract_y
 _atom_site_fract_z
 _atom_site_occupancy
  Li  Li0  1  0.621569  0.000000  0.621569  1
  Ac  Ac1  1  0.999436  0.000000  0.999436  1
  Ac  Ac2  1  0.334007  0.333541  0.000466  1
  Ac  Ac3  1  0.666924  0.666459  0.000466  1
  Al  Al4  1  0.385251  0.000000  0.385251  1
  Al  Al5  1  0.249100  0.500000  0.749100  1
  Al  Al6  1  0.748565  0.500000  0.248565  1
  Al  Al7  1  0.587281  0.835420  0.751861  1
  Al  Al8  1  0.916440  0.164580  0.751861  1
  Al  Al9  1  0.288714  0.668709  0.620005  1
  Al  Al10  1  0.951296  0.331291  0.620005  1
  Al  Al11  1  0.048631  0.666970  0.381661  1
  Al  Al12  1  0.714688  0.333030  0.381661  1
  Al  Al13  1  0.084483  0.834935  0.249549  1
  Al  Al14  1  0.414613  0.165065  0.249549  1
