# generated using pymatgen
data_DyRuBr18
_symmetry_space_group_name_H-M   'P 1'
_cell_length_a   9.28659663
_cell_length_b   9.31344355
_cell_length_c   9.20338626
_cell_angle_alpha   88.08276867
_cell_angle_beta   88.12629721
_cell_angle_gamma   88.87107106
_symmetry_Int_Tables_number   1
_chemical_formula_structural   DyRuBr18
_chemical_formula_sum   'Dy1 Ru1 Br18'
_cell_volume   794.99371376
_cell_formula_units_Z   1
loop_
 _symmetry_equiv_pos_site_id
 _symmetry_equiv_pos_as_xyz
  1  'x, y, z'
loop_
 _atom_site_type_symbol
 _atom_site_label
 _atom_site_symmetry_multiplicity
 _atom_site_fract_x
 _atom_site_fract_y
 _atom_site_fract_z
 _atom_site_occupancy
  Dy  Dy0  1  0.000000  0.000000  0.000000  1
  Ru  Ru1  1  0.500000  0.500000  0.500000  1
  Br  Br2  1  0.769511  0.483217  0.503356  1
  Br  Br3  1  0.501150  0.768527  0.466595  1
  Br  Br4  1  0.479159  0.512528  0.771489  1
  Br  Br5  1  0.230489  0.516783  0.496644  1
  Br  Br6  1  0.498850  0.231473  0.533405  1
  Br  Br7  1  0.520841  0.487472  0.228511  1
  Br  Br8  1  0.881767  0.383156  0.736014  1
  Br  Br9  1  0.737543  0.882685  0.379203  1
  Br  Br10  1  0.382211  0.745369  0.879755  1
  Br  Br11  1  0.118233  0.616844  0.263986  1
  Br  Br12  1  0.262457  0.117315  0.620797  1
  Br  Br13  1  0.617789  0.254631  0.120245  1
  Br  Br14  1  0.033647  0.968256  0.696228  1
  Br  Br15  1  0.699004  0.030317  0.971247  1
  Br  Br16  1  0.969245  0.698864  0.037851  1
  Br  Br17  1  0.966353  0.031744  0.303772  1
  Br  Br18  1  0.300996  0.969683  0.028753  1
  Br  Br19  1  0.030755  0.301136  0.962149  1
