# generated using pymatgen
data_CaNd6BBr12
_symmetry_space_group_name_H-M   'P 1'
_cell_length_a   9.38273135
_cell_length_b   9.37295630
_cell_length_c   9.36732656
_cell_angle_alpha   106.83611395
_cell_angle_beta   106.88834926
_cell_angle_gamma   106.83061803
_symmetry_Int_Tables_number   1
_chemical_formula_structural   CaNd6BBr12
_chemical_formula_sum   'Ca1 Nd6 B1 Br12'
_cell_volume   688.82468742
_cell_formula_units_Z   1
loop_
 _symmetry_equiv_pos_site_id
 _symmetry_equiv_pos_as_xyz
  1  'x, y, z'
loop_
 _atom_site_type_symbol
 _atom_site_label
 _atom_site_symmetry_multiplicity
 _atom_site_fract_x
 _atom_site_fract_y
 _atom_site_fract_z
 _atom_site_occupancy
  Ca  Ca0  1  0.500000  0.500000  0.500000  1
  Nd  Nd1  1  0.307357  0.100732  0.025199  1
  Nd  Nd2  1  0.025166  0.307207  0.100526  1
  Nd  Nd3  1  0.100593  0.025072  0.306891  1
  Nd  Nd4  1  0.899407  0.974928  0.693110  1
  Nd  Nd5  1  0.974834  0.692794  0.899475  1
  Nd  Nd6  1  0.692644  0.899268  0.974802  1
  B  B7  1  0.000000  0.000000  0.000000  1
  Br  Br8  1  0.681990  0.225439  0.071183  1
  Br  Br9  1  0.378737  0.457403  0.159425  1
  Br  Br10  1  0.071224  0.682092  0.225298  1
  Br  Br11  1  0.774530  0.928838  0.317925  1
  Br  Br12  1  0.457488  0.159405  0.378644  1
  Br  Br13  1  0.159320  0.378677  0.457337  1
  Br  Br14  1  0.840680  0.621324  0.542663  1
  Br  Br15  1  0.542512  0.840596  0.621356  1
  Br  Br16  1  0.225471  0.071163  0.682075  1
  Br  Br17  1  0.928776  0.317908  0.774703  1
  Br  Br18  1  0.621264  0.542597  0.840575  1
  Br  Br19  1  0.318011  0.774561  0.928817  1
