# generated using pymatgen
data_Hf6TaTi(NbGa3)2
_symmetry_space_group_name_H-M   'P 1'
_cell_length_a   7.94132500
_cell_length_b   7.94132509
_cell_length_c   5.45489400
_cell_angle_alpha   90.00000000
_cell_angle_beta   90.00000000
_cell_angle_gamma   120.00000381
_symmetry_Int_Tables_number   1
_chemical_formula_structural   Hf6TaTi(NbGa3)2
_chemical_formula_sum   'Hf6 Ta1 Ti1 Nb2 Ga6'
_cell_volume   297.92220620
_cell_formula_units_Z   1
loop_
 _symmetry_equiv_pos_site_id
 _symmetry_equiv_pos_as_xyz
  1  'x, y, z'
loop_
 _atom_site_type_symbol
 _atom_site_label
 _atom_site_symmetry_multiplicity
 _atom_site_fract_x
 _atom_site_fract_y
 _atom_site_fract_z
 _atom_site_occupancy
  Hf  Hf0  1  0.245898  0.001621  0.248433  1
  Hf  Hf1  1  0.755724  0.001621  0.751567  1
  Hf  Hf2  1  0.998379  0.244276  0.248433  1
  Hf  Hf3  1  0.998379  0.754102  0.751567  1
  Hf  Hf4  1  0.755724  0.754102  0.248433  1
  Hf  Hf5  1  0.245898  0.244276  0.751567  1
  Ta  Ta6  1  0.666667  0.333333  0.500000  1
  Ti  Ti7  1  0.333333  0.666667  0.500000  1
  Nb  Nb8  1  0.333333  0.666667  0.000000  1
  Nb  Nb9  1  0.666667  0.333333  0.000000  1
  Ga  Ga10  1  0.601796  0.997592  0.252154  1
  Ga  Ga11  1  0.395795  0.997592  0.747846  1
  Ga  Ga12  1  0.002408  0.604205  0.252154  1
  Ga  Ga13  1  0.002408  0.398204  0.747846  1
  Ga  Ga14  1  0.395795  0.398204  0.252154  1
  Ga  Ga15  1  0.601796  0.604205  0.747846  1
