# generated using pymatgen
data_DyY18Ho(CoSb2)4
_symmetry_space_group_name_H-M   'P 1'
_cell_length_a   7.92523217
_cell_length_b   8.77744533
_cell_length_c   12.22727624
_cell_angle_alpha   89.98162883
_cell_angle_beta   90.01283228
_cell_angle_gamma   90.02283859
_symmetry_Int_Tables_number   1
_chemical_formula_structural   DyY18Ho(CoSb2)4
_chemical_formula_sum   'Dy1 Y18 Ho1 Co4 Sb8'
_cell_volume   850.56945598
_cell_formula_units_Z   1
loop_
 _symmetry_equiv_pos_site_id
 _symmetry_equiv_pos_as_xyz
  1  'x, y, z'
loop_
 _atom_site_type_symbol
 _atom_site_label
 _atom_site_symmetry_multiplicity
 _atom_site_fract_x
 _atom_site_fract_y
 _atom_site_fract_z
 _atom_site_occupancy
  Dy  Dy0  1  0.677400  0.533432  0.565120  1
  Y  Y1  1  0.154467  0.750427  0.203179  1
  Y  Y2  1  0.345397  0.749662  0.703309  1
  Y  Y3  1  0.845199  0.249855  0.796452  1
  Y  Y4  1  0.654850  0.250053  0.296285  1
  Y  Y5  1  0.459190  0.750707  0.998406  1
  Y  Y6  1  0.041218  0.749445  0.498409  1
  Y  Y7  1  0.543777  0.249009  0.001911  1
  Y  Y8  1  0.956851  0.250751  0.501876  1
  Y  Y9  1  0.624540  0.750088  0.305638  1
  Y  Y10  1  0.875318  0.750049  0.805967  1
  Y  Y11  1  0.375616  0.250366  0.694205  1
  Y  Y12  1  0.124030  0.249458  0.194008  1
  Y  Y13  1  0.821556  0.533341  0.065666  1
  Y  Y14  1  0.678385  0.966795  0.565586  1
  Y  Y15  1  0.178316  0.032881  0.934431  1
  Y  Y16  1  0.321552  0.466921  0.434294  1
  Y  Y17  1  0.178353  0.466911  0.934775  1
  Y  Y18  1  0.321633  0.033434  0.434537  1
  Ho  Ho19  1  0.823570  0.966449  0.065243  1
  Co  Co20  1  0.438638  0.749684  0.490853  1
  Co  Co21  1  0.060592  0.750647  0.991096  1
  Co  Co22  1  0.563145  0.251360  0.509498  1
  Co  Co23  1  0.936570  0.248541  0.009484  1
  Sb  Sb24  1  0.929315  0.507723  0.326795  1
  Sb  Sb25  1  0.570548  0.992206  0.826754  1
  Sb  Sb26  1  0.070926  0.007584  0.672782  1
  Sb  Sb27  1  0.428884  0.492277  0.172581  1
  Sb  Sb28  1  0.070908  0.492352  0.673271  1
  Sb  Sb29  1  0.429372  0.007653  0.173017  1
  Sb  Sb30  1  0.928984  0.992370  0.327192  1
  Sb  Sb31  1  0.570901  0.507570  0.827380  1
