# generated using pymatgen
data_Ho4Hf3MnF28
_symmetry_space_group_name_H-M   'P 1'
_cell_length_a   5.64667292
_cell_length_b   8.94710726
_cell_length_c   12.00334525
_cell_angle_alpha   62.49586322
_cell_angle_beta   89.95846472
_cell_angle_gamma   90.04264759
_symmetry_Int_Tables_number   1
_chemical_formula_structural   Ho4Hf3MnF28
_chemical_formula_sum   'Ho4 Hf3 Mn1 F28'
_cell_volume   537.88537755
_cell_formula_units_Z   1
loop_
 _symmetry_equiv_pos_site_id
 _symmetry_equiv_pos_as_xyz
  1  'x, y, z'
loop_
 _atom_site_type_symbol
 _atom_site_label
 _atom_site_symmetry_multiplicity
 _atom_site_fract_x
 _atom_site_fract_y
 _atom_site_fract_z
 _atom_site_occupancy
  Ho  Ho0  1  0.758080  0.817459  0.764342  1
  Ho  Ho1  1  0.260397  0.186404  0.728928  1
  Ho  Ho2  1  0.242385  0.185978  0.240859  1
  Ho  Ho3  1  0.743716  0.811866  0.268212  1
  Hf  Hf4  1  0.757222  0.273237  0.955975  1
  Hf  Hf5  1  0.255360  0.725971  0.543582  1
  Hf  Hf6  1  0.245108  0.725599  0.045092  1
  Mn  Mn7  1  0.740700  0.273901  0.454940  1
  F  F8  1  0.464772  0.707495  0.921162  1
  F  F9  1  0.943342  0.290474  0.569015  1
  F  F10  1  0.537599  0.290181  0.080827  1
  F  F11  1  0.040604  0.708788  0.418195  1
  F  F12  1  0.474402  0.284112  0.543329  1
  F  F13  1  0.952186  0.721688  0.950060  1
  F  F14  1  0.551699  0.715177  0.453981  1
  F  F15  1  0.048972  0.277587  0.051454  1
  F  F16  1  0.774978  0.524814  0.857421  1
  F  F17  1  0.260501  0.473974  0.638999  1
  F  F18  1  0.225722  0.474216  0.145284  1
  F  F19  1  0.733659  0.506111  0.362793  1
  F  F20  1  0.756106  0.022152  0.057809  1
  F  F21  1  0.259650  0.977041  0.445809  1
  F  F22  1  0.243480  0.976104  0.941134  1
  F  F23  1  0.738305  0.042356  0.546068  1
  F  F24  1  0.976317  0.736970  0.642888  1
  F  F25  1  0.485180  0.269302  0.849285  1
  F  F26  1  0.996463  0.267326  0.360557  1
  F  F27  1  0.516750  0.729616  0.151025  1
  F  F28  1  0.035590  0.747055  0.172893  1
  F  F29  1  0.540389  0.258936  0.336104  1
  F  F30  1  0.966803  0.251108  0.826892  1
  F  F31  1  0.463406  0.746664  0.672686  1
  F  F32  1  0.427800  0.973500  0.238463  1
  F  F33  1  0.927629  0.025818  0.268052  1
  F  F34  1  0.576126  0.028001  0.766287  1
  F  F35  1  0.078602  0.973017  0.729601  1
