# generated using pymatgen
data_RbBiP2S7
_symmetry_space_group_name_H-M   'P 1'
_cell_length_a   12.74412400
_cell_length_b   9.23819760
_cell_length_c   9.77734700
_cell_angle_alpha   89.57882108
_cell_angle_beta   90.00000000
_cell_angle_gamma   90.00000000
_symmetry_Int_Tables_number   1
_chemical_formula_structural   RbBiP2S7
_chemical_formula_sum   'Rb4 Bi4 P8 S28'
_cell_volume   1151.08270961
_cell_formula_units_Z   4
loop_
 _symmetry_equiv_pos_site_id
 _symmetry_equiv_pos_as_xyz
  1  'x, y, z'
loop_
 _atom_site_type_symbol
 _atom_site_label
 _atom_site_symmetry_multiplicity
 _atom_site_fract_x
 _atom_site_fract_y
 _atom_site_fract_z
 _atom_site_occupancy
  Rb  Rb0  1  0.690216  0.628025  0.886968  1
  Rb  Rb1  1  0.190216  0.871975  0.113032  1
  Rb  Rb2  1  0.309784  0.371975  0.113032  1
  Rb  Rb3  1  0.809784  0.128025  0.886968  1
  Bi  Bi4  1  0.637490  0.372918  0.349740  1
  Bi  Bi5  1  0.137490  0.127082  0.650260  1
  Bi  Bi6  1  0.362510  0.627082  0.650260  1
  Bi  Bi7  1  0.862510  0.872918  0.349740  1
  P  P8  1  0.608550  0.016798  0.229342  1
  P  P9  1  0.108550  0.483202  0.770658  1
  P  P10  1  0.391450  0.983202  0.770658  1
  P  P11  1  0.891450  0.516798  0.229342  1
  P  P12  1  0.532904  0.301728  0.677121  1
  P  P13  1  0.032904  0.198272  0.322879  1
  P  P14  1  0.467096  0.698272  0.322879  1
  P  P15  1  0.967096  0.801728  0.677121  1
  S  S16  1  0.812819  0.845349  0.651081  1
  S  S17  1  0.312819  0.654651  0.348919  1
  S  S18  1  0.187181  0.154651  0.348919  1
  S  S19  1  0.687181  0.345349  0.651081  1
  S  S20  1  0.710427  0.887879  0.128101  1
  S  S21  1  0.210427  0.612121  0.871899  1
  S  S22  1  0.289573  0.112121  0.871899  1
  S  S23  1  0.789573  0.387879  0.128101  1
  S  S24  1  0.966807  0.071804  0.175920  1
  S  S25  1  0.466807  0.428196  0.824080  1
  S  S26  1  0.033193  0.928196  0.824080  1
  S  S27  1  0.533193  0.571804  0.175920  1
  S  S28  1  0.825445  0.569670  0.411858  1
  S  S29  1  0.325445  0.930330  0.588142  1
  S  S30  1  0.174555  0.430330  0.588142  1
  S  S31  1  0.674555  0.069670  0.411858  1
  S  S32  1  0.051401  0.815307  0.500755  1
  S  S33  1  0.551401  0.684693  0.499245  1
  S  S34  1  0.948599  0.184693  0.499245  1
  S  S35  1  0.448599  0.315307  0.500755  1
  S  S36  1  0.457452  0.917148  0.249185  1
  S  S37  1  0.957452  0.582852  0.750815  1
  S  S38  1  0.542548  0.082852  0.750815  1
  S  S39  1  0.042548  0.417148  0.249185  1
  S  S40  1  0.940493  0.701902  0.133016  1
  S  S41  1  0.440493  0.798098  0.866984  1
  S  S42  1  0.059507  0.298098  0.866984  1
  S  S43  1  0.559507  0.201902  0.133016  1
