# generated using pymatgen
data_Dy2Al4Ge2Rh
_symmetry_space_group_name_H-M   'P 1'
_cell_length_a   4.21165121
_cell_length_b   4.21169232
_cell_length_c   10.28892200
_cell_angle_alpha   101.87442591
_cell_angle_beta   101.87454350
_cell_angle_gamma   89.99810598
_symmetry_Int_Tables_number   1
_chemical_formula_structural   Dy2Al4Ge2Rh
_chemical_formula_sum   'Dy2 Al4 Ge2 Rh1'
_cell_volume   174.60864646
_cell_formula_units_Z   1
loop_
 _symmetry_equiv_pos_site_id
 _symmetry_equiv_pos_as_xyz
  1  'x, y, z'
loop_
 _atom_site_type_symbol
 _atom_site_label
 _atom_site_symmetry_multiplicity
 _atom_site_fract_x
 _atom_site_fract_y
 _atom_site_fract_z
 _atom_site_occupancy
  Dy  Dy0  1  0.184818  0.184817  0.369428  1
  Dy  Dy1  1  0.815165  0.815171  0.630568  1
  Al  Al2  1  0.569207  0.068771  0.137916  1
  Al  Al3  1  0.068772  0.569199  0.137915  1
  Al  Al4  1  0.931230  0.430813  0.862087  1
  Al  Al5  1  0.430820  0.931228  0.862086  1
  Ge  Ge6  1  0.664002  0.664005  0.328316  1
  Ge  Ge7  1  0.335987  0.335993  0.671687  1
  Rh  Rh8  1  0.000003  0.000008  0.999998  1
