# generated using pymatgen
data_Eu3Cr(BO3)3
_symmetry_space_group_name_H-M   'P 1'
_cell_length_a   7.61040052
_cell_length_b   7.61039974
_cell_length_c   7.61040100
_cell_angle_alpha   104.96734174
_cell_angle_beta   104.96734016
_cell_angle_gamma   104.96733208
_symmetry_Int_Tables_number   1
_chemical_formula_structural   Eu3Cr(BO3)3
_chemical_formula_sum   'Eu6 Cr2 B6 O18'
_cell_volume   385.63597555
_cell_formula_units_Z   2
loop_
 _symmetry_equiv_pos_site_id
 _symmetry_equiv_pos_as_xyz
  1  'x, y, z'
loop_
 _atom_site_type_symbol
 _atom_site_label
 _atom_site_symmetry_multiplicity
 _atom_site_fract_x
 _atom_site_fract_y
 _atom_site_fract_z
 _atom_site_occupancy
  Eu  Eu0  1  0.346990  0.736142  0.836536  1
  Eu  Eu1  1  0.836535  0.346991  0.736141  1
  Eu  Eu2  1  0.736141  0.836536  0.346991  1
  Eu  Eu3  1  0.653010  0.263858  0.163464  1
  Eu  Eu4  1  0.163465  0.653009  0.263859  1
  Eu  Eu5  1  0.263859  0.163464  0.653009  1
  Cr  Cr6  1  0.500001  0.500001  0.500001  1
  Cr  Cr7  1  0.000000  0.000000  0.000000  1
  B  B8  1  0.955705  0.706482  0.630212  1
  B  B9  1  0.630210  0.955705  0.706483  1
  B  B10  1  0.706482  0.630211  0.955705  1
  B  B11  1  0.044295  0.293518  0.369788  1
  B  B12  1  0.369790  0.044295  0.293517  1
  B  B13  1  0.293518  0.369789  0.044295  1
  O  O14  1  0.191772  0.444343  0.921880  1
  O  O15  1  0.921880  0.191773  0.444342  1
  O  O16  1  0.444343  0.921879  0.191772  1
  O  O17  1  0.808229  0.555658  0.078121  1
  O  O18  1  0.078122  0.808228  0.555659  1
  O  O19  1  0.555658  0.078122  0.808229  1
  O  O20  1  0.013425  0.725788  0.824688  1
  O  O21  1  0.824687  0.013426  0.725788  1
  O  O22  1  0.725788  0.824688  0.013425  1
  O  O23  1  0.986575  0.274212  0.175312  1
  O  O24  1  0.175313  0.986574  0.274212  1
  O  O25  1  0.274212  0.175312  0.986575  1
  O  O26  1  0.433426  0.499608  0.222681  1
  O  O27  1  0.222680  0.433427  0.499609  1
  O  O28  1  0.499608  0.222681  0.433427  1
  O  O29  1  0.566574  0.500392  0.777319  1
  O  O30  1  0.777319  0.566573  0.500392  1
  O  O31  1  0.500392  0.777319  0.566573  1
