# generated using pymatgen
data_Er10PPb6
_symmetry_space_group_name_H-M   'P 1'
_cell_length_a   6.57534600
_cell_length_b   9.07313362
_cell_length_c   9.07315201
_cell_angle_alpha   120.00135402
_cell_angle_beta   90.00047569
_cell_angle_gamma   89.99900850
_symmetry_Int_Tables_number   1
_chemical_formula_structural   Er10PPb6
_chemical_formula_sum   'Er10 P1 Pb6'
_cell_volume   468.76892114
_cell_formula_units_Z   1
loop_
 _symmetry_equiv_pos_site_id
 _symmetry_equiv_pos_as_xyz
  1  'x, y, z'
loop_
 _atom_site_type_symbol
 _atom_site_label
 _atom_site_symmetry_multiplicity
 _atom_site_fract_x
 _atom_site_fract_y
 _atom_site_fract_z
 _atom_site_occupancy
  Er  Er0  1  0.499996  0.333344  0.666686  1
  Er  Er1  1  0.500004  0.666655  0.333314  1
  Er  Er2  1  0.000001  0.666654  0.333328  1
  Er  Er3  1  0.999999  0.333347  0.666672  1
  Er  Er4  1  0.746828  0.242792  0.999989  1
  Er  Er5  1  0.746807  0.757182  0.757180  1
  Er  Er6  1  0.746816  0.999990  0.242802  1
  Er  Er7  1  0.253172  0.757208  0.000011  1
  Er  Er8  1  0.253193  0.242820  0.242820  1
  Er  Er9  1  0.253184  0.000011  0.757198  1
  P  P10  1  0.499999  0.000001  0.000000  1
  Pb  Pb11  1  0.750057  0.605245  0.000009  1
  Pb  Pb12  1  0.750058  0.394776  0.394770  1
  Pb  Pb13  1  0.750062  0.000003  0.605223  1
  Pb  Pb14  1  0.249943  0.394755  0.999991  1
  Pb  Pb15  1  0.249942  0.605224  0.605230  1
  Pb  Pb16  1  0.249938  0.999997  0.394777  1
