# generated using pymatgen
data_NpMn2Br9
_symmetry_space_group_name_H-M   'P 1'
_cell_length_a   6.91513135
_cell_length_b   6.90506132
_cell_length_c   21.01136000
_cell_angle_alpha   89.57531411
_cell_angle_beta   90.21203641
_cell_angle_gamma   119.95185742
_symmetry_Int_Tables_number   1
_chemical_formula_structural   NpMn2Br9
_chemical_formula_sum   'Np2 Mn4 Br18'
_cell_volume   869.26324714
_cell_formula_units_Z   2
loop_
 _symmetry_equiv_pos_site_id
 _symmetry_equiv_pos_as_xyz
  1  'x, y, z'
loop_
 _atom_site_type_symbol
 _atom_site_label
 _atom_site_symmetry_multiplicity
 _atom_site_fract_x
 _atom_site_fract_y
 _atom_site_fract_z
 _atom_site_occupancy
  Np  Np0  1  0.555641  0.444272  0.332566  1
  Np  Np1  1  0.555641  0.111370  0.667434  1
  Mn  Mn2  1  0.556155  0.778077  0.000000  1
  Mn  Mn3  1  0.221324  0.777172  0.331976  1
  Mn  Mn4  1  0.221324  0.444152  0.668024  1
  Mn  Mn5  1  0.888987  0.444493  0.000000  1
  Br  Br6  1  0.199528  0.476435  0.932490  1
  Br  Br7  1  0.530456  0.764536  0.257115  1
  Br  Br8  1  0.199528  0.723093  0.067510  1
  Br  Br9  1  0.238460  0.769273  0.592419  1
  Br  Br10  1  0.530456  0.765920  0.742885  1
  Br  Br11  1  0.238460  0.469186  0.407581  1
  Br  Br12  1  0.609799  0.133874  0.932371  1
  Br  Br13  1  0.898867  0.470336  0.257459  1
  Br  Br14  1  0.609799  0.475925  0.067629  1
  Br  Br15  1  0.529171  0.430767  0.592494  1
  Br  Br16  1  0.898867  0.428532  0.742541  1
  Br  Br17  1  0.529171  0.098404  0.407506  1
  Br  Br18  1  0.856486  0.132480  0.068202  1
  Br  Br19  1  0.898960  0.759274  0.407837  1
  Br  Br20  1  0.856486  0.724006  0.931798  1
  Br  Br21  1  0.238738  0.135894  0.743243  1
  Br  Br22  1  0.898960  0.139685  0.592163  1
  Br  Br23  1  0.238738  0.102842  0.256757  1
