# generated using pymatgen
data_La2Lu3Pt4
_symmetry_space_group_name_H-M   'P 1'
_cell_length_a   7.72487700
_cell_length_b   7.64155800
_cell_length_c   14.37363600
_cell_angle_alpha   90.00000000
_cell_angle_beta   90.00000000
_cell_angle_gamma   90.00000000
_symmetry_Int_Tables_number   1
_chemical_formula_structural   La2Lu3Pt4
_chemical_formula_sum   'La8 Lu12 Pt16'
_cell_volume   848.47710775
_cell_formula_units_Z   4
loop_
 _symmetry_equiv_pos_site_id
 _symmetry_equiv_pos_as_xyz
  1  'x, y, z'
loop_
 _atom_site_type_symbol
 _atom_site_label
 _atom_site_symmetry_multiplicity
 _atom_site_fract_x
 _atom_site_fract_y
 _atom_site_fract_z
 _atom_site_occupancy
  La  La0  1  0.015909  0.173506  0.402669  1
  La  La1  1  0.515840  0.326598  0.402729  1
  La  La2  1  0.484160  0.673402  0.902729  1
  La  La3  1  0.484160  0.673402  0.597271  1
  La  La4  1  0.984091  0.826494  0.597331  1
  La  La5  1  0.984091  0.826494  0.902669  1
  La  La6  1  0.515840  0.326598  0.097271  1
  La  La7  1  0.015909  0.173506  0.097331  1
  Lu  Lu8  1  0.331139  0.165072  0.622786  1
  Lu  Lu9  1  0.668861  0.834928  0.377214  1
  Lu  Lu10  1  0.663057  0.999982  0.750000  1
  Lu  Lu11  1  0.168830  0.665026  0.377253  1
  Lu  Lu12  1  0.831170  0.334974  0.877253  1
  Lu  Lu13  1  0.831170  0.334974  0.622747  1
  Lu  Lu14  1  0.836980  0.500034  0.250000  1
  Lu  Lu15  1  0.336943  0.000018  0.250000  1
  Lu  Lu16  1  0.331139  0.165072  0.877214  1
  Lu  Lu17  1  0.168830  0.665026  0.122747  1
  Lu  Lu18  1  0.668861  0.834928  0.122786  1
  Lu  Lu19  1  0.163020  0.499966  0.750000  1
  Pt  Pt20  1  0.296146  0.865029  0.750000  1
  Pt  Pt21  1  0.465358  0.633085  0.250000  1
  Pt  Pt22  1  0.034663  0.133069  0.750000  1
  Pt  Pt23  1  0.534642  0.366915  0.750000  1
  Pt  Pt24  1  0.166346  0.460156  0.546145  1
  Pt  Pt25  1  0.965337  0.866931  0.250000  1
  Pt  Pt26  1  0.703854  0.134971  0.250000  1
  Pt  Pt27  1  0.833654  0.539844  0.046145  1
  Pt  Pt28  1  0.333682  0.960124  0.046144  1
  Pt  Pt29  1  0.166346  0.460156  0.953855  1
  Pt  Pt30  1  0.666318  0.039876  0.546144  1
  Pt  Pt31  1  0.333682  0.960124  0.453856  1
  Pt  Pt32  1  0.833654  0.539844  0.453855  1
  Pt  Pt33  1  0.796147  0.634950  0.750000  1
  Pt  Pt34  1  0.203853  0.365050  0.250000  1
  Pt  Pt35  1  0.666318  0.039876  0.953856  1
