# generated using pymatgen
data_Ba2HoErF10
_symmetry_space_group_name_H-M   'P 1'
_cell_length_a   8.44460642
_cell_length_b   8.44460623
_cell_length_c   5.93801323
_cell_angle_alpha   89.28403757
_cell_angle_beta   89.28403551
_cell_angle_gamma   149.32389151
_symmetry_Int_Tables_number   1
_chemical_formula_structural   Ba2HoErF10
_chemical_formula_sum   'Ba2 Ho1 Er1 F10'
_cell_volume   215.79529006
_cell_formula_units_Z   1
loop_
 _symmetry_equiv_pos_site_id
 _symmetry_equiv_pos_as_xyz
  1  'x, y, z'
loop_
 _atom_site_type_symbol
 _atom_site_label
 _atom_site_symmetry_multiplicity
 _atom_site_fract_x
 _atom_site_fract_y
 _atom_site_fract_z
 _atom_site_occupancy
  Ba  Ba0  1  0.327784  0.672216  0.750000  1
  Ba  Ba1  1  0.672250  0.327750  0.250000  1
  Ho  Ho2  1  0.073190  0.926810  0.750000  1
  Er  Er3  1  0.926836  0.073164  0.250000  1
  F  F4  1  0.741119  0.809359  0.590825  1
  F  F5  1  0.809044  0.741787  0.092381  1
  F  F6  1  0.805481  0.170348  0.013775  1
  F  F7  1  0.616876  0.383124  0.750000  1
  F  F8  1  0.829652  0.194519  0.486225  1
  F  F9  1  0.170707  0.805115  0.512968  1
  F  F10  1  0.383321  0.616679  0.250000  1
  F  F11  1  0.194885  0.829293  0.987032  1
  F  F12  1  0.190641  0.258881  0.909175  1
  F  F13  1  0.258213  0.190956  0.407619  1
