# generated using pymatgen
data_LuTa2Nb3C5
_symmetry_space_group_name_H-M   'P 1'
_cell_length_a   5.58702986
_cell_length_b   5.53648617
_cell_length_c   5.60121364
_cell_angle_alpha   79.28298368
_cell_angle_beta   80.52012114
_cell_angle_gamma   119.57268542
_symmetry_Int_Tables_number   1
_chemical_formula_structural   LuTa2Nb3C5
_chemical_formula_sum   'Lu1 Ta2 Nb3 C5'
_cell_volume   141.23503733
_cell_formula_units_Z   1
loop_
 _symmetry_equiv_pos_site_id
 _symmetry_equiv_pos_as_xyz
  1  'x, y, z'
loop_
 _atom_site_type_symbol
 _atom_site_label
 _atom_site_symmetry_multiplicity
 _atom_site_fract_x
 _atom_site_fract_y
 _atom_site_fract_z
 _atom_site_occupancy
  Lu  Lu0  1  0.077953  0.410524  0.761903  1
  Ta  Ta1  1  0.736882  0.734192  0.724057  1
  Ta  Ta2  1  0.272046  0.279275  0.266564  1
  Nb  Nb3  1  0.548601  0.919495  0.258786  1
  Nb  Nb4  1  0.917014  0.562810  0.252581  1
  Nb  Nb5  1  0.441873  0.080395  0.746632  1
  C  C6  1  0.509084  0.504712  0.491915  1
  C  C7  1  0.655377  0.337048  0.004322  1
  C  C8  1  0.343985  0.671521  0.002187  1
  C  C9  1  0.832685  0.160115  0.493623  1
  C  C10  1  0.164501  0.839913  0.497430  1
