# generated using pymatgen
data_Ba2VRuF14
_symmetry_space_group_name_H-M   'P 1'
_cell_length_a   4.90278204
_cell_length_b   7.70699455
_cell_length_c   7.99489174
_cell_angle_alpha   106.47329795
_cell_angle_beta   101.16201017
_cell_angle_gamma   90.90715323
_symmetry_Int_Tables_number   1
_chemical_formula_structural   Ba2VRuF14
_chemical_formula_sum   'Ba2 V1 Ru1 F14'
_cell_volume   283.40825299
_cell_formula_units_Z   1
loop_
 _symmetry_equiv_pos_site_id
 _symmetry_equiv_pos_as_xyz
  1  'x, y, z'
loop_
 _atom_site_type_symbol
 _atom_site_label
 _atom_site_symmetry_multiplicity
 _atom_site_fract_x
 _atom_site_fract_y
 _atom_site_fract_z
 _atom_site_occupancy
  Ba  Ba0  1  0.173573  0.341230  0.787837  1
  Ba  Ba1  1  0.825382  0.656657  0.211623  1
  V  V2  1  0.353172  0.185785  0.290956  1
  Ru  Ru3  1  0.647020  0.813911  0.708489  1
  F  F4  1  0.142821  0.180089  0.076788  1
  F  F5  1  0.429239  0.792722  0.477497  1
  F  F6  1  0.563087  0.207823  0.512803  1
  F  F7  1  0.488264  0.030890  0.809581  1
  F  F8  1  0.507839  0.978819  0.197688  1
  F  F9  1  0.365404  0.674043  0.754212  1
  F  F10  1  0.866850  0.822436  0.933522  1
  F  F11  1  0.283503  0.579814  0.097297  1
  F  F12  1  0.085077  0.050456  0.337918  1
  F  F13  1  0.192187  0.390005  0.395797  1
  F  F14  1  0.716636  0.419905  0.902393  1
  F  F15  1  0.811007  0.599677  0.599045  1
  F  F16  1  0.623059  0.321304  0.249165  1
  F  F17  1  0.925881  0.954435  0.657389  1
