# generated using pymatgen
data_K4TcMoP4
_symmetry_space_group_name_H-M   'P 1'
_cell_length_a   8.07837376
_cell_length_b   8.07837275
_cell_length_c   8.07837334
_cell_angle_alpha   136.16776870
_cell_angle_beta   127.36922172
_cell_angle_gamma   70.83317360
_symmetry_Int_Tables_number   1
_chemical_formula_structural   K4TcMoP4
_chemical_formula_sum   'K4 Tc1 Mo1 P4'
_cell_volume   284.36482379
_cell_formula_units_Z   1
loop_
 _symmetry_equiv_pos_site_id
 _symmetry_equiv_pos_as_xyz
  1  'x, y, z'
loop_
 _atom_site_type_symbol
 _atom_site_label
 _atom_site_symmetry_multiplicity
 _atom_site_fract_x
 _atom_site_fract_y
 _atom_site_fract_z
 _atom_site_occupancy
  K  K0  1  0.308156  0.150973  0.156379  1
  K  K1  1  0.691844  0.848223  0.842817  1
  K  K2  1  0.005407  0.349027  0.657183  1
  K  K3  1  0.994593  0.651777  0.343621  1
  Tc  Tc4  1  0.500000  0.750000  0.250000  1
  Mo  Mo5  1  0.500000  0.250000  0.750000  1
  P  P6  1  0.419369  0.599696  0.827586  1
  P  P7  1  0.227889  0.900304  0.319673  1
  P  P8  1  0.772111  0.091783  0.672414  1
  P  P9  1  0.580631  0.408217  0.180327  1
