# generated using pymatgen
data_YTmB6MoW
_symmetry_space_group_name_H-M   'P 1'
_cell_length_a   3.16228100
_cell_length_b   5.43641147
_cell_length_c   6.82110803
_cell_angle_alpha   78.08684828
_cell_angle_beta   90.00000000
_cell_angle_gamma   90.00000000
_symmetry_Int_Tables_number   1
_chemical_formula_structural   YTmB6MoW
_chemical_formula_sum   'Y1 Tm1 B6 Mo1 W1'
_cell_volume   114.73911742
_cell_formula_units_Z   1
loop_
 _symmetry_equiv_pos_site_id
 _symmetry_equiv_pos_as_xyz
  1  'x, y, z'
loop_
 _atom_site_type_symbol
 _atom_site_label
 _atom_site_symmetry_multiplicity
 _atom_site_fract_x
 _atom_site_fract_y
 _atom_site_fract_z
 _atom_site_occupancy
  Y  Y0  1  0.750000  0.826357  0.706661  1
  Tm  Tm1  1  0.250000  0.177936  0.288223  1
  B  B2  1  0.250000  0.578224  0.474274  1
  B  B3  1  0.750000  0.414640  0.523199  1
  B  B4  1  0.250000  0.587440  0.996829  1
  B  B5  1  0.750000  0.412670  0.006319  1
  B  B6  1  0.250000  0.917429  0.994506  1
  B  B7  1  0.750000  0.084037  0.008803  1
  Mo  Mo8  1  0.250000  0.312122  0.780023  1
  W  W9  1  0.750000  0.689146  0.221164  1
