# generated using pymatgen
data_Cs2Rb2PaTe6Rh
_symmetry_space_group_name_H-M   'P 1'
_cell_length_a   15.06813600
_cell_length_b   6.90178122
_cell_length_c   10.00620802
_cell_angle_alpha   70.47619503
_cell_angle_beta   90.00000000
_cell_angle_gamma   90.00000000
_symmetry_Int_Tables_number   1
_chemical_formula_structural   Cs2Rb2PaTe6Rh
_chemical_formula_sum   'Cs4 Rb4 Pa2 Te12 Rh2'
_cell_volume   980.78284196
_cell_formula_units_Z   2
loop_
 _symmetry_equiv_pos_site_id
 _symmetry_equiv_pos_as_xyz
  1  'x, y, z'
loop_
 _atom_site_type_symbol
 _atom_site_label
 _atom_site_symmetry_multiplicity
 _atom_site_fract_x
 _atom_site_fract_y
 _atom_site_fract_z
 _atom_site_occupancy
  Cs  Cs0  1  0.951743  0.672212  0.663990  1
  Cs  Cs1  1  0.451743  0.827788  0.336010  1
  Cs  Cs2  1  0.049559  0.333772  0.333038  1
  Cs  Cs3  1  0.549559  0.166228  0.666962  1
  Rb  Rb4  1  0.869081  0.077369  0.898170  1
  Rb  Rb5  1  0.369081  0.422631  0.101830  1
  Rb  Rb6  1  0.130115  0.925247  0.104326  1
  Rb  Rb7  1  0.630115  0.574753  0.895674  1
  Pa  Pa8  1  0.749425  0.639937  0.288676  1
  Pa  Pa9  1  0.249425  0.860063  0.711324  1
  Te  Te10  1  0.902242  0.923684  0.276678  1
  Te  Te11  1  0.402242  0.576316  0.723322  1
  Te  Te12  1  0.095935  0.132051  0.723970  1
  Te  Te13  1  0.595935  0.367949  0.276030  1
  Te  Te14  1  0.817169  0.257280  0.507440  1
  Te  Te15  1  0.317169  0.242720  0.492560  1
  Te  Te16  1  0.184489  0.685063  0.493542  1
  Te  Te17  1  0.684489  0.814937  0.506458  1
  Te  Te18  1  0.836842  0.467899  0.081289  1
  Te  Te19  1  0.336842  0.032101  0.918711  1
  Te  Te20  1  0.163017  0.481878  0.915578  1
  Te  Te21  1  0.663017  0.018122  0.084422  1
  Rh  Rh22  1  0.250385  0.354206  0.713455  1
  Rh  Rh23  1  0.750385  0.145794  0.286545  1
