# generated using pymatgen
data_DyTm8Lu11Sn16
_symmetry_space_group_name_H-M   'P 1'
_cell_length_a   7.92333180
_cell_length_b   8.04267082
_cell_length_c   15.20679541
_cell_angle_alpha   90.02901829
_cell_angle_beta   89.97435635
_cell_angle_gamma   90.03240720
_symmetry_Int_Tables_number   1
_chemical_formula_structural   DyTm8Lu11Sn16
_chemical_formula_sum   'Dy1 Tm8 Lu11 Sn16'
_cell_volume   969.04885154
_cell_formula_units_Z   1
loop_
 _symmetry_equiv_pos_site_id
 _symmetry_equiv_pos_as_xyz
  1  'x, y, z'
loop_
 _atom_site_type_symbol
 _atom_site_label
 _atom_site_symmetry_multiplicity
 _atom_site_fract_x
 _atom_site_fract_y
 _atom_site_fract_z
 _atom_site_occupancy
  Dy  Dy0  1  0.020359  0.178466  0.903871  1
  Tm  Tm1  1  0.866222  0.663281  0.877594  1
  Tm  Tm2  1  0.520701  0.321315  0.904197  1
  Tm  Tm3  1  0.020778  0.178740  0.595658  1
  Tm  Tm4  1  0.479107  0.678370  0.403963  1
  Tm  Tm5  1  0.978685  0.822327  0.097269  1
  Tm  Tm6  1  0.480486  0.677976  0.096146  1
  Tm  Tm7  1  0.979298  0.821764  0.403537  1
  Tm  Tm8  1  0.519931  0.321269  0.595316  1
  Lu  Lu9  1  0.364873  0.837489  0.876193  1
  Lu  Lu10  1  0.865356  0.661889  0.623053  1
  Lu  Lu11  1  0.634730  0.161462  0.376631  1
  Lu  Lu12  1  0.134994  0.338138  0.123773  1
  Lu  Lu13  1  0.633748  0.161783  0.124545  1
  Lu  Lu14  1  0.134520  0.337621  0.376588  1
  Lu  Lu15  1  0.366109  0.838142  0.622788  1
  Lu  Lu16  1  0.196823  0.504599  0.749690  1
  Lu  Lu17  1  0.696182  0.995713  0.749300  1
  Lu  Lu18  1  0.803581  0.495332  0.250396  1
  Lu  Lu19  1  0.303213  0.004302  0.249994  1
  Sn  Sn20  1  0.296141  0.038455  0.041552  1
  Sn  Sn21  1  0.795776  0.461070  0.458492  1
  Sn  Sn22  1  0.705051  0.960894  0.540966  1
  Sn  Sn23  1  0.206994  0.538517  0.959067  1
  Sn  Sn24  1  0.701757  0.962726  0.958876  1
  Sn  Sn25  1  0.203730  0.539158  0.541125  1
  Sn  Sn26  1  0.295531  0.038807  0.458507  1
  Sn  Sn27  1  0.795819  0.459989  0.042377  1
  Sn  Sn28  1  0.562040  0.619661  0.749329  1
  Sn  Sn29  1  0.062306  0.880686  0.749261  1
  Sn  Sn30  1  0.438054  0.380318  0.250645  1
  Sn  Sn31  1  0.937934  0.119831  0.250113  1
  Sn  Sn32  1  0.331549  0.150576  0.749539  1
  Sn  Sn33  1  0.830360  0.350173  0.749267  1
  Sn  Sn34  1  0.668441  0.848833  0.250229  1
  Sn  Sn35  1  0.168820  0.650327  0.250153  1
