# generated using pymatgen
data_KTmSiS4
_symmetry_space_group_name_H-M   'P 1'
_cell_length_a   6.60485600
_cell_length_b   6.35526609
_cell_length_c   8.66273650
_cell_angle_alpha   72.32439240
_cell_angle_beta   90.00000000
_cell_angle_gamma   90.00000000
_symmetry_Int_Tables_number   1
_chemical_formula_structural   KTmSiS4
_chemical_formula_sum   'K2 Tm2 Si2 S8'
_cell_volume   346.45733906
_cell_formula_units_Z   2
loop_
 _symmetry_equiv_pos_site_id
 _symmetry_equiv_pos_as_xyz
  1  'x, y, z'
loop_
 _atom_site_type_symbol
 _atom_site_label
 _atom_site_symmetry_multiplicity
 _atom_site_fract_x
 _atom_site_fract_y
 _atom_site_fract_z
 _atom_site_occupancy
  K  K0  1  0.978282  0.729629  0.064893  1
  K  K1  1  0.478282  0.270371  0.935107  1
  Tm  Tm2  1  0.500112  0.230720  0.450687  1
  Tm  Tm3  1  0.000112  0.769280  0.549313  1
  Si  Si4  1  0.462582  0.780190  0.327393  1
  Si  Si5  1  0.962582  0.219810  0.672607  1
  S  S6  1  0.464029  0.580566  0.172248  1
  S  S7  1  0.229507  0.024375  0.282466  1
  S  S8  1  0.728674  0.980551  0.302319  1
  S  S9  1  0.903814  0.425742  0.432093  1
  S  S10  1  0.403814  0.574258  0.567907  1
  S  S11  1  0.228674  0.019449  0.697681  1
  S  S12  1  0.729507  0.975625  0.717534  1
  S  S13  1  0.964029  0.419434  0.827752  1
