# generated using pymatgen
data_Pr3Nd5(TcO6)4
_symmetry_space_group_name_H-M   'P 1'
_cell_length_a   10.21160545
_cell_length_b   10.21980557
_cell_length_c   5.61342782
_cell_angle_alpha   75.29747708
_cell_angle_beta   75.35696938
_cell_angle_gamma   69.27154123
_symmetry_Int_Tables_number   1
_chemical_formula_structural   Pr3Nd5(TcO6)4
_chemical_formula_sum   'Pr3 Nd5 Tc4 O24'
_cell_volume   521.28957710
_cell_formula_units_Z   1
loop_
 _symmetry_equiv_pos_site_id
 _symmetry_equiv_pos_as_xyz
  1  'x, y, z'
loop_
 _atom_site_type_symbol
 _atom_site_label
 _atom_site_symmetry_multiplicity
 _atom_site_fract_x
 _atom_site_fract_y
 _atom_site_fract_z
 _atom_site_occupancy
  Pr  Pr0  1  0.287513  0.058983  0.125516  1
  Pr  Pr1  1  0.059039  0.286982  0.625770  1
  Pr  Pr2  1  0.939928  0.713172  0.373857  1
  Nd  Nd3  1  0.629467  0.370338  0.750178  1
  Nd  Nd4  1  0.370557  0.629582  0.250043  1
  Nd  Nd5  1  0.110144  0.889563  0.749605  1
  Nd  Nd6  1  0.888917  0.110510  0.249872  1
  Nd  Nd7  1  0.713586  0.940765  0.872522  1
  Tc  Tc8  1  0.505724  0.800166  0.554971  1
  Tc  Tc9  1  0.495132  0.199770  0.445437  1
  Tc  Tc10  1  0.200042  0.494941  0.944506  1
  Tc  Tc11  1  0.799571  0.505622  0.055136  1
  O  O12  1  0.689306  0.162352  0.588837  1
  O  O13  1  0.311312  0.836786  0.412997  1
  O  O14  1  0.836653  0.311348  0.913572  1
  O  O15  1  0.163057  0.689066  0.086825  1
  O  O16  1  0.388155  0.822649  0.854897  1
  O  O17  1  0.612147  0.177573  0.145114  1
  O  O18  1  0.177541  0.612130  0.643981  1
  O  O19  1  0.822149  0.388358  0.355910  1
  O  O20  1  0.676487  0.786401  0.631106  1
  O  O21  1  0.323708  0.213892  0.371833  1
  O  O22  1  0.214641  0.323473  0.870908  1
  O  O23  1  0.785157  0.677277  0.127554  1
  O  O24  1  0.473777  0.070443  0.731728  1
  O  O25  1  0.528845  0.927697  0.266747  1
  O  O26  1  0.928565  0.527375  0.768867  1
  O  O27  1  0.071281  0.472787  0.230954  1
  O  O28  1  0.539782  0.617459  0.523921  1
  O  O29  1  0.461296  0.382492  0.476069  1
  O  O30  1  0.382795  0.460833  0.976118  1
  O  O31  1  0.616926  0.539303  0.024085  1
  O  O32  1  0.888887  0.925567  0.074370  1
  O  O33  1  0.109314  0.074504  0.925305  1
  O  O34  1  0.074744  0.109338  0.424947  1
  O  O35  1  0.923854  0.890501  0.575940  1
