# generated using pymatgen
data_Sr21Tl(Ga6Bi)2
_symmetry_space_group_name_H-M   'P 1'
_cell_length_a   11.99954489
_cell_length_b   11.99954529
_cell_length_c   12.05565300
_cell_angle_alpha   59.84521250
_cell_angle_beta   59.84521140
_cell_angle_gamma   59.80703247
_symmetry_Int_Tables_number   1
_chemical_formula_structural   Sr21Tl(Ga6Bi)2
_chemical_formula_sum   'Sr21 Tl1 Ga12 Bi2'
_cell_volume   1222.78713498
_cell_formula_units_Z   1
loop_
 _symmetry_equiv_pos_site_id
 _symmetry_equiv_pos_as_xyz
  1  'x, y, z'
loop_
 _atom_site_type_symbol
 _atom_site_label
 _atom_site_symmetry_multiplicity
 _atom_site_fract_x
 _atom_site_fract_y
 _atom_site_fract_z
 _atom_site_occupancy
  Sr  Sr0  1  0.995357  0.004643  0.000000  1
  Sr  Sr1  1  0.128707  0.135905  0.127635  1
  Sr  Sr2  1  0.394880  0.875302  0.864908  1
  Sr  Sr3  1  0.869881  0.391656  0.869231  1
  Sr  Sr4  1  0.864095  0.871293  0.392246  1
  Sr  Sr5  1  0.124698  0.605120  0.135092  1
  Sr  Sr6  1  0.128707  0.135905  0.607754  1
  Sr  Sr7  1  0.608344  0.130119  0.130769  1
  Sr  Sr8  1  0.864095  0.871293  0.872365  1
  Sr  Sr9  1  0.505147  0.825098  0.494042  1
  Sr  Sr10  1  0.823753  0.499210  0.500570  1
  Sr  Sr11  1  0.505147  0.825098  0.175712  1
  Sr  Sr12  1  0.174902  0.494853  0.824288  1
  Sr  Sr13  1  0.823753  0.499210  0.176468  1
  Sr  Sr14  1  0.506766  0.493234  0.824829  1
  Sr  Sr15  1  0.173938  0.826062  0.500000  1
  Sr  Sr16  1  0.500790  0.176247  0.823532  1
  Sr  Sr17  1  0.506766  0.493234  0.175171  1
  Sr  Sr18  1  0.822519  0.177481  0.500000  1
  Sr  Sr19  1  0.174902  0.494853  0.505958  1
  Sr  Sr20  1  0.500790  0.176247  0.499430  1
  Tl  Tl21  1  0.500955  0.499045  0.500000  1
  Ga  Ga22  1  0.788188  0.211812  0.212825  1
  Ga  Ga23  1  0.785382  0.786057  0.214281  1
  Ga  Ga24  1  0.213943  0.214618  0.785719  1
  Ga  Ga25  1  0.788188  0.211812  0.787175  1
  Ga  Ga26  1  0.306796  0.307393  0.306198  1
  Ga  Ga27  1  0.920678  0.694993  0.692165  1
  Ga  Ga28  1  0.694438  0.922267  0.691648  1
  Ga  Ga29  1  0.692607  0.693205  0.920387  1
  Ga  Ga30  1  0.305007  0.079322  0.307835  1
  Ga  Ga31  1  0.306795  0.307393  0.079613  1
  Ga  Ga32  1  0.077733  0.305562  0.308352  1
  Ga  Ga33  1  0.692607  0.693205  0.693801  1
  Bi  Bi34  1  0.214372  0.785628  0.211356  1
  Bi  Bi35  1  0.214372  0.785628  0.788644  1
