# generated using pymatgen
data_Y15Er(C2Cl3)4
_symmetry_space_group_name_H-M   'P 1'
_cell_length_a   3.66794000
_cell_length_b   10.53070476
_cell_length_c   19.74543939
_cell_angle_alpha   90.04318637
_cell_angle_beta   90.00000000
_cell_angle_gamma   90.00000000
_symmetry_Int_Tables_number   1
_chemical_formula_structural   Y15Er(C2Cl3)4
_chemical_formula_sum   'Y15 Er1 C8 Cl12'
_cell_volume   762.68699090
_cell_formula_units_Z   1
loop_
 _symmetry_equiv_pos_site_id
 _symmetry_equiv_pos_as_xyz
  1  'x, y, z'
loop_
 _atom_site_type_symbol
 _atom_site_label
 _atom_site_symmetry_multiplicity
 _atom_site_fract_x
 _atom_site_fract_y
 _atom_site_fract_z
 _atom_site_occupancy
  Y  Y0  1  0.250000  0.139374  0.573677  1
  Y  Y1  1  0.250000  0.638477  0.926199  1
  Y  Y2  1  0.750000  0.861465  0.426573  1
  Y  Y3  1  0.750000  0.361435  0.073355  1
  Y  Y4  1  0.250000  0.637131  0.755733  1
  Y  Y5  1  0.250000  0.136471  0.743850  1
  Y  Y6  1  0.750000  0.363484  0.243800  1
  Y  Y7  1  0.750000  0.862831  0.256207  1
  Y  Y8  1  0.250000  0.100913  0.332024  1
  Y  Y9  1  0.250000  0.601230  0.167908  1
  Y  Y10  1  0.750000  0.898553  0.667756  1
  Y  Y11  1  0.750000  0.399260  0.831415  1
  Y  Y12  1  0.250000  0.125238  0.164659  1
  Y  Y13  1  0.250000  0.624968  0.335373  1
  Y  Y14  1  0.750000  0.875058  0.835209  1
  Er  Er15  1  0.750000  0.373259  0.665486  1
  C  C16  1  0.250000  0.864775  0.348152  1
  C  C17  1  0.250000  0.364367  0.151792  1
  C  C18  1  0.750000  0.137267  0.652088  1
  C  C19  1  0.750000  0.634949  0.847698  1
  C  C20  1  0.250000  0.386679  0.749021  1
  C  C21  1  0.250000  0.887437  0.749594  1
  C  C22  1  0.750000  0.612546  0.249802  1
  C  C23  1  0.750000  0.112740  0.250160  1
  Cl  Cl24  1  0.250000  0.377333  0.952595  1
  Cl  Cl25  1  0.250000  0.877754  0.547333  1
  Cl  Cl26  1  0.750000  0.622639  0.047129  1
  Cl  Cl27  1  0.750000  0.123111  0.453063  1
  Cl  Cl28  1  0.250000  0.887728  0.944325  1
  Cl  Cl29  1  0.250000  0.389091  0.557885  1
  Cl  Cl30  1  0.750000  0.111998  0.055473  1
  Cl  Cl31  1  0.750000  0.612113  0.444561  1
  Cl  Cl32  1  0.250000  0.361220  0.354077  1
  Cl  Cl33  1  0.250000  0.861317  0.146001  1
  Cl  Cl34  1  0.750000  0.636651  0.645974  1
  Cl  Cl35  1  0.750000  0.139139  0.854053  1
