# generated using pymatgen
data_PaNi5H7
_symmetry_space_group_name_H-M   'P 1'
_cell_length_a   5.27273400
_cell_length_b   5.27273351
_cell_length_c   8.53110300
_cell_angle_alpha   89.99888076
_cell_angle_beta   90.00111924
_cell_angle_gamma   120.00810906
_symmetry_Int_Tables_number   1
_chemical_formula_structural   PaNi5H7
_chemical_formula_sum   'Pa2 Ni10 H14'
_cell_volume   205.38655436
_cell_formula_units_Z   2
loop_
 _symmetry_equiv_pos_site_id
 _symmetry_equiv_pos_as_xyz
  1  'x, y, z'
loop_
 _atom_site_type_symbol
 _atom_site_label
 _atom_site_symmetry_multiplicity
 _atom_site_fract_x
 _atom_site_fract_y
 _atom_site_fract_z
 _atom_site_occupancy
  Pa  Pa0  1  0.000022  0.000001  0.020001  1
  Pa  Pa1  1  0.000023  0.000019  0.519410  1
  Ni  Ni2  1  0.333306  0.666651  0.498404  1
  Ni  Ni3  1  0.666759  0.333397  0.998009  1
  Ni  Ni4  1  0.493394  0.506506  0.258928  1
  Ni  Ni5  1  0.506395  0.493582  0.758888  1
  Ni  Ni6  1  0.493394  0.986957  0.258947  1
  Ni  Ni7  1  0.012958  0.506481  0.258909  1
  Ni  Ni8  1  0.987269  0.493622  0.758887  1
  Ni  Ni9  1  0.506431  0.012713  0.758896  1
  Ni  Ni10  1  0.333307  0.666617  0.000575  1
  Ni  Ni11  1  0.666652  0.333368  0.500527  1
  H  H12  1  0.133915  0.866062  0.271353  1
  H  H13  1  0.865795  0.134180  0.771510  1
  H  H14  1  0.133896  0.267917  0.271351  1
  H  H15  1  0.732128  0.866110  0.271352  1
  H  H16  1  0.268440  0.134189  0.771506  1
  H  H17  1  0.865819  0.731588  0.771503  1
  H  H18  1  0.501699  0.498358  0.066370  1
  H  H19  1  0.498462  0.501595  0.566392  1
  H  H20  1  0.501720  0.003317  0.066391  1
  H  H21  1  0.996724  0.498334  0.066346  1
  H  H22  1  0.003104  0.501581  0.566428  1
  H  H23  1  0.498447  0.996904  0.566377  1
  H  H24  1  0.333332  0.666580  0.809448  1
  H  H25  1  0.666599  0.333363  0.309489  1
