# generated using pymatgen
data_Sc6Ti4Al12Os6Rh
_symmetry_space_group_name_H-M   'P 1'
_cell_length_a   8.83234686
_cell_length_b   8.83234666
_cell_length_c   8.83234700
_cell_angle_alpha   60.00000246
_cell_angle_beta   60.00000321
_cell_angle_gamma   60.00000140
_symmetry_Int_Tables_number   1
_chemical_formula_structural   Sc6Ti4Al12Os6Rh
_chemical_formula_sum   'Sc6 Ti4 Al12 Os6 Rh1'
_cell_volume   487.20683299
_cell_formula_units_Z   1
loop_
 _symmetry_equiv_pos_site_id
 _symmetry_equiv_pos_as_xyz
  1  'x, y, z'
loop_
 _atom_site_type_symbol
 _atom_site_label
 _atom_site_symmetry_multiplicity
 _atom_site_fract_x
 _atom_site_fract_y
 _atom_site_fract_z
 _atom_site_occupancy
  Sc  Sc0  1  0.710420  0.289580  0.289580  1
  Sc  Sc1  1  0.710420  0.289580  0.710420  1
  Sc  Sc2  1  0.710420  0.710420  0.289580  1
  Sc  Sc3  1  0.289580  0.710420  0.710420  1
  Sc  Sc4  1  0.289580  0.710420  0.289580  1
  Sc  Sc5  1  0.289580  0.289580  0.710420  1
  Ti  Ti6  1  0.638893  0.120369  0.120369  1
  Ti  Ti7  1  0.120369  0.638893  0.120369  1
  Ti  Ti8  1  0.120369  0.120369  0.638893  1
  Ti  Ti9  1  0.120369  0.120369  0.120369  1
  Al  Al10  1  0.360731  0.879757  0.879757  1
  Al  Al11  1  0.879757  0.360731  0.879757  1
  Al  Al12  1  0.879757  0.879757  0.360731  1
  Al  Al13  1  0.879757  0.879757  0.879757  1
  Al  Al14  1  0.995445  0.334852  0.334852  1
  Al  Al15  1  0.334852  0.995445  0.334852  1
  Al  Al16  1  0.334852  0.334852  0.995445  1
  Al  Al17  1  0.334852  0.334852  0.334852  1
  Al  Al18  1  0.005571  0.664809  0.664809  1
  Al  Al19  1  0.664809  0.005571  0.664809  1
  Al  Al20  1  0.664809  0.664809  0.005571  1
  Al  Al21  1  0.664809  0.664809  0.664809  1
  Os  Os22  1  0.498478  0.001522  0.001522  1
  Os  Os23  1  0.498478  0.001522  0.498478  1
  Os  Os24  1  0.498478  0.498478  0.001522  1
  Os  Os25  1  0.001522  0.498478  0.498478  1
  Os  Os26  1  0.001522  0.498478  0.001522  1
  Os  Os27  1  0.001522  0.001522  0.498478  1
  Rh  Rh28  1  0.000000  0.000000  0.000000  1
