# generated using pymatgen
data_YbCeSm2(Pt2O7)2
_symmetry_space_group_name_H-M   'P 1'
_cell_length_a   7.31392907
_cell_length_b   7.37380350
_cell_length_c   7.37380453
_cell_angle_alpha   59.85693644
_cell_angle_beta   59.57228754
_cell_angle_gamma   59.57229217
_symmetry_Int_Tables_number   1
_chemical_formula_structural   YbCeSm2(Pt2O7)2
_chemical_formula_sum   'Yb1 Ce1 Sm2 Pt4 O14'
_cell_volume   279.07132915
_cell_formula_units_Z   1
loop_
 _symmetry_equiv_pos_site_id
 _symmetry_equiv_pos_as_xyz
  1  'x, y, z'
loop_
 _atom_site_type_symbol
 _atom_site_label
 _atom_site_symmetry_multiplicity
 _atom_site_fract_x
 _atom_site_fract_y
 _atom_site_fract_z
 _atom_site_occupancy
  Yb  Yb0  1  0.625000  0.125000  0.125000  1
  Ce  Ce1  1  0.125000  0.125000  0.125000  1
  Sm  Sm2  1  0.125000  0.625000  0.125000  1
  Sm  Sm3  1  0.125000  0.125000  0.625000  1
  Pt  Pt4  1  0.625000  0.625000  0.125000  1
  Pt  Pt5  1  0.625000  0.625000  0.625000  1
  Pt  Pt6  1  0.625000  0.125000  0.625000  1
  Pt  Pt7  1  0.125000  0.625000  0.625000  1
  O  O8  1  0.715390  0.287322  0.287322  1
  O  O9  1  0.714104  0.286223  0.712551  1
  O  O10  1  0.005931  0.004989  0.004989  1
  O  O11  1  0.285024  0.714958  0.287692  1
  O  O12  1  0.714104  0.712551  0.286223  1
  O  O13  1  0.966385  0.535420  0.535420  1
  O  O14  1  0.283615  0.714580  0.714580  1
  O  O15  1  0.244069  0.245011  0.245011  1
  O  O16  1  0.964976  0.535042  0.962308  1
  O  O17  1  0.535896  0.963777  0.537449  1
  O  O18  1  0.535896  0.537449  0.963777  1
  O  O19  1  0.964976  0.962308  0.535042  1
  O  O20  1  0.534610  0.962678  0.962678  1
  O  O21  1  0.285024  0.287692  0.714958  1
