# generated using pymatgen
data_La2Sc3Pt4
_symmetry_space_group_name_H-M   'P 1'
_cell_length_a   7.50601300
_cell_length_b   7.59220300
_cell_length_c   14.26756200
_cell_angle_alpha   90.00000000
_cell_angle_beta   90.00000000
_cell_angle_gamma   90.00000000
_symmetry_Int_Tables_number   1
_chemical_formula_structural   La2Sc3Pt4
_chemical_formula_sum   'La8 Sc12 Pt16'
_cell_volume   813.06804419
_cell_formula_units_Z   4
loop_
 _symmetry_equiv_pos_site_id
 _symmetry_equiv_pos_as_xyz
  1  'x, y, z'
loop_
 _atom_site_type_symbol
 _atom_site_label
 _atom_site_symmetry_multiplicity
 _atom_site_fract_x
 _atom_site_fract_y
 _atom_site_fract_z
 _atom_site_occupancy
  La  La0  1  0.012818  0.175549  0.097794  1
  La  La1  1  0.512818  0.324451  0.402206  1
  La  La2  1  0.487182  0.675549  0.902206  1
  La  La3  1  0.987182  0.824451  0.597794  1
  La  La4  1  0.987182  0.824451  0.902206  1
  La  La5  1  0.487182  0.675549  0.597794  1
  La  La6  1  0.512818  0.324451  0.097794  1
  La  La7  1  0.012818  0.175549  0.402206  1
  Sc  Sc8  1  0.855617  0.663543  0.126913  1
  Sc  Sc9  1  0.355617  0.836457  0.373087  1
  Sc  Sc10  1  0.644383  0.163543  0.873087  1
  Sc  Sc11  1  0.144383  0.336457  0.626913  1
  Sc  Sc12  1  0.144383  0.336457  0.873087  1
  Sc  Sc13  1  0.644383  0.163543  0.626913  1
  Sc  Sc14  1  0.355617  0.836457  0.126913  1
  Sc  Sc15  1  0.855617  0.663543  0.373087  1
  Sc  Sc16  1  0.690336  0.990823  0.250000  1
  Sc  Sc17  1  0.190336  0.509177  0.250000  1
  Sc  Sc18  1  0.809664  0.490823  0.750000  1
  Sc  Sc19  1  0.309664  0.009177  0.750000  1
  Pt  Pt20  1  0.054805  0.863576  0.250000  1
  Pt  Pt21  1  0.554805  0.636424  0.250000  1
  Pt  Pt22  1  0.445195  0.363576  0.750000  1
  Pt  Pt23  1  0.945195  0.136424  0.750000  1
  Pt  Pt24  1  0.819660  0.365413  0.250000  1
  Pt  Pt25  1  0.319660  0.134587  0.250000  1
  Pt  Pt26  1  0.680340  0.865413  0.750000  1
  Pt  Pt27  1  0.180340  0.634587  0.750000  1
  Pt  Pt28  1  0.822505  0.450662  0.955210  1
  Pt  Pt29  1  0.322505  0.049338  0.544790  1
  Pt  Pt30  1  0.677495  0.950662  0.044790  1
  Pt  Pt31  1  0.177495  0.549338  0.455210  1
  Pt  Pt32  1  0.177495  0.549338  0.044790  1
  Pt  Pt33  1  0.677495  0.950662  0.455210  1
  Pt  Pt34  1  0.322505  0.049338  0.955210  1
  Pt  Pt35  1  0.822505  0.450662  0.544790  1
