# generated using pymatgen
data_Hf10CuSiSnSb5
_symmetry_space_group_name_H-M   'P 1'
_cell_length_a   8.57942994
_cell_length_b   8.57943140
_cell_length_c   5.77775035
_cell_angle_alpha   90.02003383
_cell_angle_beta   90.02003114
_cell_angle_gamma   120.07602152
_symmetry_Int_Tables_number   1
_chemical_formula_structural   Hf10CuSiSnSb5
_chemical_formula_sum   'Hf10 Cu1 Si1 Sn1 Sb5'
_cell_volume   368.02137025
_cell_formula_units_Z   1
loop_
 _symmetry_equiv_pos_site_id
 _symmetry_equiv_pos_as_xyz
  1  'x, y, z'
loop_
 _atom_site_type_symbol
 _atom_site_label
 _atom_site_symmetry_multiplicity
 _atom_site_fract_x
 _atom_site_fract_y
 _atom_site_fract_z
 _atom_site_occupancy
  Hf  Hf0  1  0.667144  0.333397  0.999518  1
  Hf  Hf1  1  0.333397  0.667144  0.999518  1
  Hf  Hf2  1  0.333423  0.666858  0.500671  1
  Hf  Hf3  1  0.666858  0.333423  0.500671  1
  Hf  Hf4  1  0.737239  0.737239  0.748965  1
  Hf  Hf5  1  0.263935  0.999950  0.749079  1
  Hf  Hf6  1  0.999950  0.263935  0.749079  1
  Hf  Hf7  1  0.261587  0.261587  0.250602  1
  Hf  Hf8  1  0.737508  0.999406  0.251423  1
  Hf  Hf9  1  0.999406  0.737508  0.251423  1
  Cu  Cu10  1  0.000787  0.000787  0.997513  1
  Si  Si11  1  0.000573  0.000573  0.502013  1
  Sn  Sn12  1  0.388504  0.388504  0.751780  1
  Sb  Sb13  1  0.610525  0.000067  0.752115  1
  Sb  Sb14  1  0.000067  0.610525  0.752115  1
  Sb  Sb15  1  0.608387  0.608387  0.247750  1
  Sb  Sb16  1  0.390242  0.000468  0.247881  1
  Sb  Sb17  1  0.000468  0.390242  0.247881  1
