# generated using pymatgen
data_Yb10CuNi3Au2
_symmetry_space_group_name_H-M   'P 1'
_cell_length_a   8.92304195
_cell_length_b   8.92304193
_cell_length_c   8.88114300
_cell_angle_alpha   129.74008706
_cell_angle_beta   129.74008696
_cell_angle_gamma   74.18048746
_symmetry_Int_Tables_number   1
_chemical_formula_structural   Yb10CuNi3Au2
_chemical_formula_sum   'Yb10 Cu1 Ni3 Au2'
_cell_volume   406.88563009
_cell_formula_units_Z   1
loop_
 _symmetry_equiv_pos_site_id
 _symmetry_equiv_pos_as_xyz
  1  'x, y, z'
loop_
 _atom_site_type_symbol
 _atom_site_label
 _atom_site_symmetry_multiplicity
 _atom_site_fract_x
 _atom_site_fract_y
 _atom_site_fract_z
 _atom_site_occupancy
  Yb  Yb0  1  0.501490  0.502712  0.004202  1
  Yb  Yb1  1  0.997288  0.998510  0.995798  1
  Yb  Yb2  1  0.543101  0.036901  0.849170  1
  Yb  Yb3  1  0.193935  0.687732  0.150830  1
  Yb  Yb4  1  0.030295  0.198906  0.500000  1
  Yb  Yb5  1  0.693876  0.537637  0.500000  1
  Yb  Yb6  1  0.463099  0.956899  0.150830  1
  Yb  Yb7  1  0.812268  0.306065  0.849170  1
  Yb  Yb8  1  0.962363  0.806124  0.500000  1
  Yb  Yb9  1  0.301094  0.469705  0.500000  1
  Cu  Cu10  1  0.385225  0.114775  0.500000  1
  Ni  Ni11  1  0.114214  0.615370  0.729584  1
  Ni  Ni12  1  0.884630  0.385786  0.270416  1
  Ni  Ni13  1  0.615542  0.884458  0.500000  1
  Au  Au14  1  0.250792  0.249208  0.000000  1
  Au  Au15  1  0.750792  0.749208  0.000000  1
