# generated using pymatgen
data_Ho5Er5(RuRh)2
_symmetry_space_group_name_H-M   'P 1'
_cell_length_a   6.33889444
_cell_length_b   7.21953021
_cell_length_c   8.44793046
_cell_angle_alpha   96.79035717
_cell_angle_beta   111.95300609
_cell_angle_gamma   89.99273924
_symmetry_Int_Tables_number   1
_chemical_formula_structural   Ho5Er5(RuRh)2
_chemical_formula_sum   'Ho5 Er5 Ru2 Rh2'
_cell_volume   355.65372777
_cell_formula_units_Z   1
loop_
 _symmetry_equiv_pos_site_id
 _symmetry_equiv_pos_as_xyz
  1  'x, y, z'
loop_
 _atom_site_type_symbol
 _atom_site_label
 _atom_site_symmetry_multiplicity
 _atom_site_fract_x
 _atom_site_fract_y
 _atom_site_fract_z
 _atom_site_occupancy
  Ho  Ho0  1  0.792463  0.582157  0.811711  1
  Ho  Ho1  1  0.980574  0.917863  0.188364  1
  Ho  Ho2  1  0.209841  0.414611  0.185639  1
  Ho  Ho3  1  0.023751  0.085254  0.814215  1
  Ho  Ho4  1  0.207231  0.684244  0.565325  1
  Er  Er5  1  0.641865  0.816342  0.434344  1
  Er  Er6  1  0.792316  0.312343  0.436775  1
  Er  Er7  1  0.355618  0.187314  0.563341  1
  Er  Er8  1  0.420260  0.749949  0.000090  1
  Er  Er9  1  0.577649  0.250027  0.999981  1
  Ru  Ru10  1  0.397621  0.074993  0.220515  1
  Ru  Ru11  1  0.177246  0.424979  0.779247  1
  Rh  Rh12  1  0.601501  0.923752  0.778865  1
  Rh  Rh13  1  0.822066  0.576172  0.221588  1
