# generated using pymatgen
data_TbEr7In3Ir
_symmetry_space_group_name_H-M   'P 1'
_cell_length_a   10.34512915
_cell_length_b   10.34512911
_cell_length_c   7.03465528
_cell_angle_alpha   90.01554011
_cell_angle_beta   89.98445819
_cell_angle_gamma   119.97065833
_symmetry_Int_Tables_number   1
_chemical_formula_structural   TbEr7In3Ir
_chemical_formula_sum   'Tb2 Er14 In6 Ir2'
_cell_volume   652.18918550
_cell_formula_units_Z   2
loop_
 _symmetry_equiv_pos_site_id
 _symmetry_equiv_pos_as_xyz
  1  'x, y, z'
loop_
 _atom_site_type_symbol
 _atom_site_label
 _atom_site_symmetry_multiplicity
 _atom_site_fract_x
 _atom_site_fract_y
 _atom_site_fract_z
 _atom_site_occupancy
  Tb  Tb0  1  0.532597  0.065349  0.792651  1
  Tb  Tb1  1  0.934651  0.467403  0.792651  1
  Er  Er2  1  0.533320  0.466680  0.793150  1
  Er  Er3  1  0.466032  0.932075  0.293034  1
  Er  Er4  1  0.067925  0.533968  0.293034  1
  Er  Er5  1  0.466293  0.533707  0.293263  1
  Er  Er6  1  0.823000  0.646803  0.498232  1
  Er  Er7  1  0.353197  0.177000  0.498232  1
  Er  Er8  1  0.823412  0.176588  0.497663  1
  Er  Er9  1  0.177212  0.353256  0.999463  1
  Er  Er10  1  0.646744  0.822788  0.999463  1
  Er  Er11  1  0.176362  0.823638  0.000068  1
  Er  Er12  1  0.666352  0.333648  0.175167  1
  Er  Er13  1  0.333682  0.666318  0.674758  1
  Er  Er14  1  0.000000  0.000000  0.778463  1
  Er  Er15  1  0.999893  0.000107  0.278780  1
  In  In16  1  0.836923  0.674493  0.040258  1
  In  In17  1  0.325507  0.163077  0.040258  1
  In  In18  1  0.837628  0.162372  0.040535  1
  In  In19  1  0.162834  0.325787  0.540059  1
  In  In20  1  0.674213  0.837166  0.540059  1
  In  In21  1  0.162905  0.837095  0.539874  1
  Ir  Ir22  1  0.665998  0.334002  0.567928  1
  Ir  Ir23  1  0.333324  0.666676  0.068864  1
