# generated using pymatgen
data_Yb5Th3(B6Os)4
_symmetry_space_group_name_H-M   'P 1'
_cell_length_a   3.72518900
_cell_length_b   9.17059840
_cell_length_c   11.56346610
_cell_angle_alpha   90.17255663
_cell_angle_beta   90.00000000
_cell_angle_gamma   90.00000000
_symmetry_Int_Tables_number   1
_chemical_formula_structural   Yb5Th3(B6Os)4
_chemical_formula_sum   'Yb5 Th3 B24 Os4'
_cell_volume   395.03179236
_cell_formula_units_Z   1
loop_
 _symmetry_equiv_pos_site_id
 _symmetry_equiv_pos_as_xyz
  1  'x, y, z'
loop_
 _atom_site_type_symbol
 _atom_site_label
 _atom_site_symmetry_multiplicity
 _atom_site_fract_x
 _atom_site_fract_y
 _atom_site_fract_z
 _atom_site_occupancy
  Yb  Yb0  1  0.000000  0.177618  0.912314  1
  Yb  Yb1  1  0.000000  0.945045  0.372664  1
  Yb  Yb2  1  0.000000  0.056973  0.629991  1
  Yb  Yb3  1  0.000000  0.440938  0.126921  1
  Yb  Yb4  1  0.000000  0.555675  0.871936  1
  Th  Th5  1  0.000000  0.318585  0.414052  1
  Th  Th6  1  0.000000  0.680071  0.588341  1
  Th  Th7  1  0.000000  0.822643  0.084437  1
  B  B8  1  0.500000  0.556563  0.429183  1
  B  B9  1  0.500000  0.443820  0.570865  1
  B  B10  1  0.500000  0.056987  0.067868  1
  B  B11  1  0.500000  0.946070  0.929846  1
  B  B12  1  0.500000  0.751241  0.417578  1
  B  B13  1  0.500000  0.249286  0.584245  1
  B  B14  1  0.500000  0.249706  0.080410  1
  B  B15  1  0.500000  0.750937  0.916902  1
  B  B16  1  0.500000  0.789901  0.267198  1
  B  B17  1  0.500000  0.209062  0.734964  1
  B  B18  1  0.500000  0.289188  0.231403  1
  B  B19  1  0.500000  0.710040  0.767942  1
  B  B20  1  0.500000  0.628988  0.185190  1
  B  B21  1  0.500000  0.369316  0.815394  1
  B  B22  1  0.500000  0.129559  0.313905  1
  B  B23  1  0.500000  0.871230  0.687049  1
  B  B24  1  0.500000  0.985905  0.212906  1
  B  B25  1  0.500000  0.017398  0.787096  1
  B  B26  1  0.500000  0.484831  0.284836  1
  B  B27  1  0.500000  0.514353  0.715052  1
  B  B28  1  0.500000  0.597175  0.027142  1
  B  B29  1  0.500000  0.400805  0.972159  1
  B  B30  1  0.500000  0.101039  0.472553  1
  B  B31  1  0.500000  0.898840  0.528497  1
  Os  Os32  1  0.000000  0.638597  0.319666  1
  Os  Os33  1  0.000000  0.362321  0.679705  1
  Os  Os34  1  0.000000  0.138994  0.179424  1
  Os  Os35  1  0.000000  0.860300  0.820366  1
