# generated using pymatgen
data_Na3Ca3GaP4
_symmetry_space_group_name_H-M   'P 1'
_cell_length_a   9.21131100
_cell_length_b   9.21130960
_cell_length_c   7.04077500
_cell_angle_alpha   90.00000000
_cell_angle_beta   90.00000000
_cell_angle_gamma   120.00000144
_symmetry_Int_Tables_number   1
_chemical_formula_structural   Na3Ca3GaP4
_chemical_formula_sum   'Na6 Ca6 Ga2 P8'
_cell_volume   517.36127287
_cell_formula_units_Z   2
loop_
 _symmetry_equiv_pos_site_id
 _symmetry_equiv_pos_as_xyz
  1  'x, y, z'
loop_
 _atom_site_type_symbol
 _atom_site_label
 _atom_site_symmetry_multiplicity
 _atom_site_fract_x
 _atom_site_fract_y
 _atom_site_fract_z
 _atom_site_occupancy
  Na  Na0  1  0.137154  0.862846  0.173036  1
  Na  Na1  1  0.274308  0.137154  0.673036  1
  Na  Na2  1  0.862846  0.725692  0.673036  1
  Na  Na3  1  0.137154  0.274308  0.173036  1
  Na  Na4  1  0.725692  0.862846  0.173036  1
  Na  Na5  1  0.862846  0.137154  0.673036  1
  Ca  Ca6  1  0.474986  0.949972  0.500260  1
  Ca  Ca7  1  0.525014  0.050028  0.000260  1
  Ca  Ca8  1  0.949972  0.474986  0.000260  1
  Ca  Ca9  1  0.474986  0.525014  0.500260  1
  Ca  Ca10  1  0.525014  0.474986  0.000260  1
  Ca  Ca11  1  0.050028  0.525014  0.500260  1
  Ga  Ga12  1  0.333333  0.666667  0.877692  1
  Ga  Ga13  1  0.666667  0.333333  0.377692  1
  P  P14  1  0.190991  0.809009  0.771476  1
  P  P15  1  0.381981  0.190991  0.271476  1
  P  P16  1  0.809009  0.618019  0.271476  1
  P  P17  1  0.190991  0.381981  0.771476  1
  P  P18  1  0.618019  0.809009  0.771476  1
  P  P19  1  0.809009  0.190991  0.271476  1
  P  P20  1  0.333333  0.666667  0.228674  1
  P  P21  1  0.666667  0.333333  0.728674  1
