# generated using pymatgen
data_Y5(TmSe4)3
_symmetry_space_group_name_H-M   'P 1'
_cell_length_a   7.08078153
_cell_length_b   7.07885411
_cell_length_c   12.89573212
_cell_angle_alpha   100.67055085
_cell_angle_beta   100.68907642
_cell_angle_gamma   108.96512585
_symmetry_Int_Tables_number   1
_chemical_formula_structural   Y5(TmSe4)3
_chemical_formula_sum   'Y5 Tm3 Se12'
_cell_volume   579.35913617
_cell_formula_units_Z   1
loop_
 _symmetry_equiv_pos_site_id
 _symmetry_equiv_pos_as_xyz
  1  'x, y, z'
loop_
 _atom_site_type_symbol
 _atom_site_label
 _atom_site_symmetry_multiplicity
 _atom_site_fract_x
 _atom_site_fract_y
 _atom_site_fract_z
 _atom_site_occupancy
  Y  Y0  1  0.746792  0.746805  0.493579  1
  Y  Y1  1  0.251950  0.251961  0.503909  1
  Y  Y2  1  0.833741  0.333731  0.667554  1
  Y  Y3  1  0.916482  0.916496  0.832993  1
  Y  Y4  1  0.498047  0.998048  0.996121  1
  Tm  Tm5  1  0.002931  0.502942  0.005865  1
  Tm  Tm6  1  0.083549  0.083534  0.167099  1
  Tm  Tm7  1  0.665841  0.165834  0.331621  1
  Se  Se8  1  0.241217  0.245365  0.002162  1
  Se  Se9  1  0.760852  0.756793  0.002169  1
  Se  Se10  1  0.830230  0.320737  0.163274  1
  Se  Se11  1  0.333092  0.842556  0.163324  1
  Se  Se12  1  0.414681  0.404416  0.335302  1
  Se  Se13  1  0.920792  0.930964  0.335330  1
  Se  Se14  1  0.507606  0.007328  0.497802  1
  Se  Se15  1  0.990139  0.490424  0.497886  1
  Se  Se16  1  0.072321  0.076211  0.662564  1
  Se  Se17  1  0.590203  0.586303  0.662461  1
  Se  Se18  1  0.680885  0.177332  0.839472  1
  Se  Se19  1  0.158610  0.662186  0.839458  1
