# generated using pymatgen
data_Y3Ho(GaRu)4
_symmetry_space_group_name_H-M   'P 1'
_cell_length_a   7.17783341
_cell_length_b   4.50398600
_cell_length_c   7.16071051
_cell_angle_alpha   90.00000000
_cell_angle_beta   89.90515145
_cell_angle_gamma   90.00000000
_symmetry_Int_Tables_number   1
_chemical_formula_structural   Y3Ho(GaRu)4
_chemical_formula_sum   'Y3 Ho1 Ga4 Ru4'
_cell_volume   231.49729864
_cell_formula_units_Z   1
loop_
 _symmetry_equiv_pos_site_id
 _symmetry_equiv_pos_as_xyz
  1  'x, y, z'
loop_
 _atom_site_type_symbol
 _atom_site_label
 _atom_site_symmetry_multiplicity
 _atom_site_fract_x
 _atom_site_fract_y
 _atom_site_fract_z
 _atom_site_occupancy
  Y  Y0  1  0.516097  0.749999  0.303221  1
  Y  Y1  1  0.484202  0.249999  0.696359  1
  Y  Y2  1  0.984318  0.249999  0.804696  1
  Ho  Ho3  1  0.017156  0.749999  0.198697  1
  Ga  Ga4  1  0.303172  0.249999  0.104063  1
  Ga  Ga5  1  0.803141  0.249999  0.395349  1
  Ga  Ga6  1  0.196986  0.749999  0.603910  1
  Ga  Ga7  1  0.696778  0.749999  0.895946  1
  Ru  Ru8  1  0.661482  0.249999  0.065206  1
  Ru  Ru9  1  0.160149  0.249999  0.433207  1
  Ru  Ru10  1  0.839660  0.749999  0.563945  1
  Ru  Ru11  1  0.336853  0.749999  0.935401  1
