# generated using pymatgen
data_Dy2Sc3Co19Si11P
_symmetry_space_group_name_H-M   'P 1'
_cell_length_a   12.08352833
_cell_length_b   12.12402018
_cell_length_c   3.68674300
_cell_angle_alpha   90.00000000
_cell_angle_beta   90.00000000
_cell_angle_gamma   120.11090208
_symmetry_Int_Tables_number   1
_chemical_formula_structural   Dy2Sc3Co19Si11P
_chemical_formula_sum   'Dy2 Sc3 Co19 Si11 P1'
_cell_volume   467.22652651
_cell_formula_units_Z   1
loop_
 _symmetry_equiv_pos_site_id
 _symmetry_equiv_pos_as_xyz
  1  'x, y, z'
loop_
 _atom_site_type_symbol
 _atom_site_label
 _atom_site_symmetry_multiplicity
 _atom_site_fract_x
 _atom_site_fract_y
 _atom_site_fract_z
 _atom_site_occupancy
  Dy  Dy0  1  0.667247  0.333462  0.000000  1
  Dy  Dy1  1  0.332753  0.666217  0.000000  1
  Sc  Sc2  1  0.184464  0.185154  0.500000  1
  Sc  Sc3  1  0.815536  0.000690  0.500000  1
  Sc  Sc4  1  0.000000  0.814214  0.500000  1
  Co  Co5  1  0.557298  0.557721  0.000000  1
  Co  Co6  1  0.442702  0.000423  0.000000  1
  Co  Co7  1  0.000000  0.442780  0.000000  1
  Co  Co8  1  0.825045  0.194934  0.000000  1
  Co  Co9  1  0.804744  0.626391  0.000000  1
  Co  Co10  1  0.373244  0.178180  0.000000  1
  Co  Co11  1  0.195256  0.821647  0.000000  1
  Co  Co12  1  0.626756  0.804936  0.000000  1
  Co  Co13  1  0.174955  0.369891  0.000000  1
  Co  Co14  1  0.646846  0.123332  0.500000  1
  Co  Co15  1  0.877240  0.522279  0.500000  1
  Co  Co16  1  0.476883  0.354454  0.500000  1
  Co  Co17  1  0.122760  0.645039  0.500000  1
  Co  Co18  1  0.523117  0.877572  0.500000  1
  Co  Co19  1  0.353154  0.476487  0.500000  1
  Co  Co20  1  0.722607  0.722387  0.500000  1
  Co  Co21  1  0.277393  0.999780  0.500000  1
  Co  Co22  1  0.000000  0.274292  0.500000  1
  Co  Co23  1  0.000000  0.005866  0.000000  1
  Si  Si24  1  0.366508  0.366722  0.000000  1
  Si  Si25  1  0.633492  0.000216  0.000000  1
  Si  Si26  1  0.000000  0.633156  0.000000  1
  Si  Si27  1  0.842891  0.319247  0.500000  1
  Si  Si28  1  0.681237  0.523315  0.500000  1
  Si  Si29  1  0.477082  0.158322  0.500000  1
  Si  Si30  1  0.318763  0.842078  0.500000  1
  Si  Si31  1  0.522918  0.681240  0.500000  1
  Si  Si32  1  0.157109  0.476357  0.500000  1
  Si  Si33  1  0.822428  0.821715  0.000000  1
  Si  Si34  1  0.177572  0.999287  0.000000  1
  P  P35  1  0.000000  0.180218  0.000000  1
