# generated using pymatgen
data_Np6AsSe7
_symmetry_space_group_name_H-M   'P 1'
_cell_length_a   7.56987566
_cell_length_b   7.55238206
_cell_length_c   7.55823603
_cell_angle_alpha   109.46799781
_cell_angle_beta   109.46801997
_cell_angle_gamma   109.45492093
_symmetry_Int_Tables_number   1
_chemical_formula_structural   Np6AsSe7
_chemical_formula_sum   'Np6 As1 Se7'
_cell_volume   332.73078376
_cell_formula_units_Z   1
loop_
 _symmetry_equiv_pos_site_id
 _symmetry_equiv_pos_as_xyz
  1  'x, y, z'
loop_
 _atom_site_type_symbol
 _atom_site_label
 _atom_site_symmetry_multiplicity
 _atom_site_fract_x
 _atom_site_fract_y
 _atom_site_fract_z
 _atom_site_occupancy
  Np  Np0  1  0.249191  0.132431  0.879598  1
  Np  Np1  1  0.124691  0.869826  0.246773  1
  Np  Np2  1  0.755472  0.376841  0.630069  1
  Np  Np3  1  0.876495  0.252078  0.121976  1
  Np  Np4  1  0.618745  0.748206  0.369927  1
  Np  Np5  1  0.369842  0.620744  0.752287  1
  As  As6  1  0.156348  0.500180  0.000531  1
  Se  Se7  1  0.350423  0.348088  0.350999  1
  Se  Se8  1  0.652047  0.500432  0.999970  1
  Se  Se9  1  0.499480  0.998998  0.652169  1
  Se  Se10  1  0.500991  0.001526  0.151323  1
  Se  Se11  1  0.000542  0.653841  0.500817  1
  Se  Se12  1  0.846365  0.847481  0.846206  1
  Se  Se13  1  0.999368  0.149327  0.497352  1
