# generated using pymatgen
data_Pr17Dy(PaRh8)2
_symmetry_space_group_name_H-M   'P 1'
_cell_length_a   7.69642803
_cell_length_b   7.68880167
_cell_length_c   14.98825400
_cell_angle_alpha   90.29464736
_cell_angle_beta   89.99465488
_cell_angle_gamma   89.99954312
_symmetry_Int_Tables_number   1
_chemical_formula_structural   Pr17Dy(PaRh8)2
_chemical_formula_sum   'Pr17 Dy1 Pa2 Rh16'
_cell_volume   886.93781373
_cell_formula_units_Z   1
loop_
 _symmetry_equiv_pos_site_id
 _symmetry_equiv_pos_as_xyz
  1  'x, y, z'
loop_
 _atom_site_type_symbol
 _atom_site_label
 _atom_site_symmetry_multiplicity
 _atom_site_fract_x
 _atom_site_fract_y
 _atom_site_fract_z
 _atom_site_occupancy
  Pr  Pr0  1  0.338258  0.837449  0.120919  1
  Pr  Pr1  1  0.835256  0.666559  0.378929  1
  Pr  Pr2  1  0.336650  0.835742  0.378897  1
  Pr  Pr3  1  0.833667  0.668139  0.121191  1
  Pr  Pr4  1  0.662412  0.164859  0.879797  1
  Pr  Pr5  1  0.162121  0.334664  0.620180  1
  Pr  Pr6  1  0.515652  0.682038  0.593842  1
  Pr  Pr7  1  0.016249  0.817628  0.905998  1
  Pr  Pr8  1  0.490389  0.315330  0.097727  1
  Pr  Pr9  1  0.986180  0.181526  0.401881  1
  Pr  Pr10  1  0.486619  0.317785  0.406559  1
  Pr  Pr11  1  0.983562  0.178862  0.093432  1
  Pr  Pr12  1  0.511078  0.678169  0.907973  1
  Pr  Pr13  1  0.011663  0.821062  0.592156  1
  Pr  Pr14  1  0.820938  0.516255  0.748918  1
  Pr  Pr15  1  0.320784  0.983629  0.751222  1
  Pr  Pr16  1  0.174838  0.490525  0.249545  1
  Dy  Dy17  1  0.674615  0.010452  0.249142  1
  Pa  Pa18  1  0.659168  0.157509  0.624543  1
  Pa  Pa19  1  0.159369  0.342569  0.875764  1
  Rh  Rh20  1  0.692604  0.978467  0.475845  1
  Rh  Rh21  1  0.192468  0.521300  0.022818  1
  Rh  Rh22  1  0.296542  0.070976  0.955779  1
  Rh  Rh23  1  0.796506  0.428799  0.543831  1
  Rh  Rh24  1  0.343549  0.033518  0.549842  1
  Rh  Rh25  1  0.843042  0.466680  0.950496  1
  Rh  Rh26  1  0.666271  0.970245  0.045889  1
  Rh  Rh27  1  0.165690  0.531349  0.456866  1
  Rh  Rh28  1  0.467301  0.366151  0.744721  1
  Rh  Rh29  1  0.966949  0.134459  0.755491  1
  Rh  Rh30  1  0.540430  0.607395  0.251444  1
  Rh  Rh31  1  0.033830  0.899074  0.248386  1
  Rh  Rh32  1  0.705163  0.886912  0.737485  1
  Rh  Rh33  1  0.205062  0.613330  0.762612  1
  Rh  Rh34  1  0.307812  0.139789  0.250552  1
  Rh  Rh35  1  0.797315  0.350810  0.249327  1
