# generated using pymatgen
data_Yb2DyY(Ga2Ag)4
_symmetry_space_group_name_H-M   'P 1'
_cell_length_a   4.34031800
_cell_length_b   6.98039315
_cell_length_c   10.38342492
_cell_angle_alpha   90.04223336
_cell_angle_beta   90.00000000
_cell_angle_gamma   90.00000000
_symmetry_Int_Tables_number   1
_chemical_formula_structural   Yb2DyY(Ga2Ag)4
_chemical_formula_sum   'Yb2 Dy1 Y1 Ga8 Ag4'
_cell_volume   314.58784797
_cell_formula_units_Z   1
loop_
 _symmetry_equiv_pos_site_id
 _symmetry_equiv_pos_as_xyz
  1  'x, y, z'
loop_
 _atom_site_type_symbol
 _atom_site_label
 _atom_site_symmetry_multiplicity
 _atom_site_fract_x
 _atom_site_fract_y
 _atom_site_fract_z
 _atom_site_occupancy
  Yb  Yb0  1  0.750000  0.224496  0.173215  1
  Yb  Yb1  1  0.750000  0.725212  0.327050  1
  Dy  Dy2  1  0.250000  0.277831  0.671438  1
  Y  Y3  1  0.250000  0.778550  0.828404  1
  Ga  Ga4  1  0.250000  0.702486  0.534563  1
  Ga  Ga5  1  0.750000  0.298145  0.465562  1
  Ga  Ga6  1  0.750000  0.796089  0.034820  1
  Ga  Ga7  1  0.250000  0.202120  0.965521  1
  Ga  Ga8  1  0.250000  0.926769  0.149474  1
  Ga  Ga9  1  0.750000  0.074730  0.845509  1
  Ga  Ga10  1  0.750000  0.573814  0.654369  1
  Ga  Ga11  1  0.250000  0.427750  0.350455  1
  Ag  Ag12  1  0.250000  0.538789  0.100492  1
  Ag  Ag13  1  0.750000  0.456172  0.901128  1
  Ag  Ag14  1  0.750000  0.956604  0.598334  1
  Ag  Ag15  1  0.250000  0.040445  0.399667  1
