# generated using pymatgen
data_HoTm5TiAl23Ru8
_symmetry_space_group_name_H-M   'P 1'
_cell_length_a   8.80023942
_cell_length_b   8.80023954
_cell_length_c   9.53010000
_cell_angle_alpha   90.00276870
_cell_angle_beta   89.99723019
_cell_angle_gamma   119.96470725
_symmetry_Int_Tables_number   1
_chemical_formula_structural   HoTm5TiAl23Ru8
_chemical_formula_sum   'Ho1 Tm5 Ti1 Al23 Ru8'
_cell_volume   639.39820097
_cell_formula_units_Z   1
loop_
 _symmetry_equiv_pos_site_id
 _symmetry_equiv_pos_as_xyz
  1  'x, y, z'
loop_
 _atom_site_type_symbol
 _atom_site_label
 _atom_site_symmetry_multiplicity
 _atom_site_fract_x
 _atom_site_fract_y
 _atom_site_fract_z
 _atom_site_occupancy
  Ho  Ho0  1  0.806941  0.193059  0.749062  1
  Tm  Tm1  1  0.194915  0.390208  0.249164  1
  Tm  Tm2  1  0.805939  0.611717  0.748832  1
  Tm  Tm3  1  0.609792  0.805085  0.249164  1
  Tm  Tm4  1  0.388283  0.194061  0.748832  1
  Tm  Tm5  1  0.194894  0.805106  0.249229  1
  Ti  Ti6  1  0.333203  0.666797  0.996471  1
  Al  Al7  1  0.666628  0.333372  0.982542  1
  Al  Al8  1  0.666705  0.333295  0.515086  1
  Al  Al9  1  0.333349  0.666651  0.481761  1
  Al  Al10  1  0.161954  0.323167  0.577474  1
  Al  Al11  1  0.838338  0.676820  0.421670  1
  Al  Al12  1  0.676833  0.838046  0.577474  1
  Al  Al13  1  0.837636  0.675448  0.079075  1
  Al  Al14  1  0.323180  0.161662  0.421670  1
  Al  Al15  1  0.159116  0.317560  0.923029  1
  Al  Al16  1  0.161386  0.838614  0.577556  1
  Al  Al17  1  0.324552  0.162364  0.079075  1
  Al  Al18  1  0.838242  0.161758  0.421268  1
  Al  Al19  1  0.682440  0.840884  0.923029  1
  Al  Al20  1  0.837554  0.162446  0.079438  1
  Al  Al21  1  0.158575  0.841425  0.922916  1
  Al  Al22  1  0.561238  0.122995  0.252657  1
  Al  Al23  1  0.439862  0.880226  0.750600  1
  Al  Al24  1  0.877005  0.438762  0.252657  1
  Al  Al25  1  0.119774  0.560138  0.750600  1
  Al  Al26  1  0.561371  0.438629  0.252714  1
  Al  Al27  1  0.440422  0.559578  0.750725  1
  Al  Al28  1  0.999821  0.000179  0.249063  1
  Al  Al29  1  0.000890  0.999110  0.748800  1
  Ru  Ru30  1  0.498185  0.996909  0.003150  1
  Ru  Ru31  1  0.003091  0.501815  0.003150  1
  Ru  Ru32  1  0.499345  0.999535  0.503575  1
  Ru  Ru33  1  0.498553  0.501447  0.002971  1
  Ru  Ru34  1  0.000465  0.500655  0.503575  1
  Ru  Ru35  1  0.499949  0.500051  0.503702  1
  Ru  Ru36  1  0.999780  0.000220  0.999604  1
  Ru  Ru37  1  0.999794  0.000206  0.498636  1
