# generated using pymatgen
data_Li8La4ErSc3Sn8
_symmetry_space_group_name_H-M   'P 1'
_cell_length_a   9.39553982
_cell_length_b   9.39548912
_cell_length_c   7.51985706
_cell_angle_alpha   90.01216467
_cell_angle_beta   89.98742664
_cell_angle_gamma   119.95416704
_symmetry_Int_Tables_number   1
_chemical_formula_structural   Li8La4ErSc3Sn8
_chemical_formula_sum   'Li8 La4 Er1 Sc3 Sn8'
_cell_volume   575.15079617
_cell_formula_units_Z   1
loop_
 _symmetry_equiv_pos_site_id
 _symmetry_equiv_pos_as_xyz
  1  'x, y, z'
loop_
 _atom_site_type_symbol
 _atom_site_label
 _atom_site_symmetry_multiplicity
 _atom_site_fract_x
 _atom_site_fract_y
 _atom_site_fract_z
 _atom_site_occupancy
  Li  Li0  1  0.163159  0.330803  0.313742  1
  Li  Li1  1  0.166054  0.833954  0.323411  1
  Li  Li2  1  0.669182  0.836799  0.313793  1
  Li  Li3  1  0.668192  0.331825  0.338768  1
  Li  Li4  1  0.835900  0.666834  0.674338  1
  Li  Li5  1  0.333176  0.164082  0.674353  1
  Li  Li6  1  0.832165  0.167879  0.673378  1
  Li  Li7  1  0.332342  0.667651  0.736434  1
  La  La8  1  0.000906  0.999075  0.000466  1
  La  La9  1  0.503282  0.007470  0.003092  1
  La  La10  1  0.503637  0.496386  0.002962  1
  La  La11  1  0.992529  0.496724  0.003097  1
  Er  Er12  1  0.494683  0.505306  0.502479  1
  Sc  Sc13  1  0.999268  0.000748  0.500976  1
  Sc  Sc14  1  0.495782  0.989540  0.502473  1
  Sc  Sc15  1  0.010452  0.504217  0.502471  1
  Sn  Sn16  1  0.331939  0.668079  0.257878  1
  Sn  Sn17  1  0.835062  0.666735  0.274576  1
  Sn  Sn18  1  0.333255  0.164918  0.274584  1
  Sn  Sn19  1  0.832744  0.167330  0.276532  1
  Sn  Sn20  1  0.667370  0.332598  0.727128  1
  Sn  Sn21  1  0.162773  0.330373  0.729340  1
  Sn  Sn22  1  0.166518  0.833444  0.722439  1
  Sn  Sn23  1  0.669629  0.837233  0.729271  1
