# generated using pymatgen
data_LaEr2RuO7
_symmetry_space_group_name_H-M   'P 1'
_cell_length_a   6.43887825
_cell_length_b   6.43887748
_cell_length_c   7.50760400
_cell_angle_alpha   90.00000000
_cell_angle_beta   90.00000000
_cell_angle_gamma   109.70816373
_symmetry_Int_Tables_number   1
_chemical_formula_structural   LaEr2RuO7
_chemical_formula_sum   'La2 Er4 Ru2 O14'
_cell_volume   293.02610209
_cell_formula_units_Z   2
loop_
 _symmetry_equiv_pos_site_id
 _symmetry_equiv_pos_as_xyz
  1  'x, y, z'
loop_
 _atom_site_type_symbol
 _atom_site_label
 _atom_site_symmetry_multiplicity
 _atom_site_fract_x
 _atom_site_fract_y
 _atom_site_fract_z
 _atom_site_occupancy
  La  La0  1  0.000000  0.000000  0.500000  1
  La  La1  1  0.000000  0.000000  0.000000  1
  Er  Er2  1  0.484214  0.934467  0.750000  1
  Er  Er3  1  0.515786  0.065533  0.250000  1
  Er  Er4  1  0.934467  0.484214  0.750000  1
  Er  Er5  1  0.065533  0.515786  0.250000  1
  Ru  Ru6  1  0.500000  0.500000  0.500000  1
  Ru  Ru7  1  0.500000  0.500000  0.000000  1
  O  O8  1  0.591020  0.591020  0.750000  1
  O  O9  1  0.408980  0.408980  0.250000  1
  O  O10  1  0.835956  0.121842  0.750000  1
  O  O11  1  0.164044  0.878158  0.250000  1
  O  O12  1  0.121842  0.835956  0.750000  1
  O  O13  1  0.878158  0.164044  0.250000  1
  O  O14  1  0.442996  0.181435  0.963664  1
  O  O15  1  0.557004  0.818565  0.463664  1
  O  O16  1  0.181435  0.442996  0.963664  1
  O  O17  1  0.818565  0.557004  0.463664  1
  O  O18  1  0.442996  0.181435  0.536336  1
  O  O19  1  0.557004  0.818565  0.036336  1
  O  O20  1  0.818565  0.557004  0.036336  1
  O  O21  1  0.181435  0.442996  0.536336  1
