# generated using pymatgen
data_Pr4DyP12Ru15Rh4
_symmetry_space_group_name_H-M   'P 1'
_cell_length_a   12.69453403
_cell_length_b   12.66472804
_cell_length_c   4.00933900
_cell_angle_alpha   90.00000000
_cell_angle_beta   90.00000000
_cell_angle_gamma   120.18606421
_symmetry_Int_Tables_number   1
_chemical_formula_structural   Pr4DyP12Ru15Rh4
_chemical_formula_sum   'Pr4 Dy1 P12 Ru15 Rh4'
_cell_volume   557.18411180
_cell_formula_units_Z   1
loop_
 _symmetry_equiv_pos_site_id
 _symmetry_equiv_pos_as_xyz
  1  'x, y, z'
loop_
 _atom_site_type_symbol
 _atom_site_label
 _atom_site_symmetry_multiplicity
 _atom_site_fract_x
 _atom_site_fract_y
 _atom_site_fract_z
 _atom_site_occupancy
  Pr  Pr0  1  0.665893  0.333338  0.000000  1
  Pr  Pr1  1  0.334275  0.667707  0.000000  1
  Pr  Pr2  1  0.815563  0.000118  0.500000  1
  Pr  Pr3  1  0.183338  0.183614  0.500000  1
  Dy  Dy4  1  0.000630  0.815850  0.500000  1
  P  P5  1  0.625015  0.994012  0.000000  1
  P  P6  1  0.368366  0.374475  0.000000  1
  P  P7  1  0.001486  0.633347  0.000000  1
  P  P8  1  0.694242  0.525657  0.500000  1
  P  P9  1  0.831628  0.307068  0.500000  1
  P  P10  1  0.309810  0.833312  0.500000  1
  P  P11  1  0.525325  0.694036  0.500000  1
  P  P12  1  0.183583  0.996937  0.000000  1
  P  P13  1  0.816039  0.812951  0.000000  1
  P  P14  1  0.997969  0.185573  0.000000  1
  P  P15  1  0.472594  0.167400  0.500000  1
  P  P16  1  0.172598  0.475326  0.500000  1
  Ru  Ru17  1  0.622051  0.801793  0.000000  1
  Ru  Ru18  1  0.180763  0.378961  0.000000  1
  Ru  Ru19  1  0.377097  0.183942  0.000000  1
  Ru  Ru20  1  0.194097  0.815596  0.000000  1
  Ru  Ru21  1  0.808411  0.623027  0.000000  1
  Ru  Ru22  1  0.367048  0.489758  0.500000  1
  Ru  Ru23  1  0.512039  0.877125  0.500000  1
  Ru  Ru24  1  0.999326  0.997225  0.000000  1
  Ru  Ru25  1  0.717712  0.715231  0.500000  1
  Ru  Ru26  1  0.998910  0.285630  0.500000  1
  Ru  Ru27  1  0.448118  0.002791  0.000000  1
  Ru  Ru28  1  0.554961  0.550440  0.000000  1
  Ru  Ru29  1  0.997592  0.448712  0.000000  1
  Ru  Ru30  1  0.814103  0.194019  0.000000  1
  Ru  Ru31  1  0.282319  0.998276  0.500000  1
  Rh  Rh32  1  0.873337  0.509259  0.500000  1
  Rh  Rh33  1  0.492600  0.364979  0.500000  1
  Rh  Rh34  1  0.633741  0.128242  0.500000  1
  Rh  Rh35  1  0.127422  0.634270  0.500000  1
