# generated using pymatgen
data_RbLaTiS4
_symmetry_space_group_name_H-M   'P 1'
_cell_length_a   6.89994550
_cell_length_b   6.86493700
_cell_length_c   9.18720265
_cell_angle_alpha   90.00000000
_cell_angle_beta   107.88009641
_cell_angle_gamma   90.00000000
_symmetry_Int_Tables_number   1
_chemical_formula_structural   RbLaTiS4
_chemical_formula_sum   'Rb2 La2 Ti2 S8'
_cell_volume   414.15803515
_cell_formula_units_Z   2
loop_
 _symmetry_equiv_pos_site_id
 _symmetry_equiv_pos_as_xyz
  1  'x, y, z'
loop_
 _atom_site_type_symbol
 _atom_site_label
 _atom_site_symmetry_multiplicity
 _atom_site_fract_x
 _atom_site_fract_y
 _atom_site_fract_z
 _atom_site_occupancy
  Rb  Rb0  1  0.278675  0.017668  0.067502  1
  Rb  Rb1  1  0.721326  0.517667  0.932499  1
  La  La2  1  0.773366  0.492973  0.449002  1
  La  La3  1  0.226634  0.992974  0.550999  1
  Ti  Ti4  1  0.221092  0.524196  0.322164  1
  Ti  Ti5  1  0.778909  0.024195  0.677837  1
  S  S6  1  0.424595  0.524367  0.172077  1
  S  S7  1  0.986228  0.763553  0.283405  1
  S  S8  1  0.017185  0.257681  0.302151  1
  S  S9  1  0.577030  0.080401  0.438134  1
  S  S10  1  0.422970  0.580400  0.561866  1
  S  S11  1  0.982815  0.757680  0.697850  1
  S  S12  1  0.013772  0.263554  0.716595  1
  S  S13  1  0.575404  0.024368  0.827924  1
