# generated using pymatgen
data_Dy5Er11Cd4(IrPt)2
_symmetry_space_group_name_H-M   'P 1'
_cell_length_a   9.59637995
_cell_length_b   9.59179899
_cell_length_c   9.56125305
_cell_angle_alpha   60.02005954
_cell_angle_beta   59.98919520
_cell_angle_gamma   60.18262619
_symmetry_Int_Tables_number   1
_chemical_formula_structural   Dy5Er11Cd4(IrPt)2
_chemical_formula_sum   'Dy5 Er11 Cd4 Ir2 Pt2'
_cell_volume   623.20874806
_cell_formula_units_Z   1
loop_
 _symmetry_equiv_pos_site_id
 _symmetry_equiv_pos_as_xyz
  1  'x, y, z'
loop_
 _atom_site_type_symbol
 _atom_site_label
 _atom_site_symmetry_multiplicity
 _atom_site_fract_x
 _atom_site_fract_y
 _atom_site_fract_z
 _atom_site_occupancy
  Dy  Dy0  1  0.813233  0.188051  0.187682  1
  Dy  Dy1  1  0.815382  0.187455  0.811594  1
  Dy  Dy2  1  0.188041  0.813333  0.187051  1
  Dy  Dy3  1  0.813836  0.813304  0.186980  1
  Dy  Dy4  1  0.187748  0.187105  0.811546  1
  Er  Er5  1  0.599616  0.599868  0.596104  1
  Er  Er6  1  0.601120  0.601521  0.201299  1
  Er  Er7  1  0.605760  0.194675  0.600920  1
  Er  Er8  1  0.194369  0.606083  0.600908  1
  Er  Er9  1  0.056569  0.440621  0.440060  1
  Er  Er10  1  0.438419  0.057594  0.063267  1
  Er  Er11  1  0.440204  0.056643  0.440365  1
  Er  Er12  1  0.057804  0.438759  0.063048  1
  Er  Er13  1  0.440468  0.441198  0.058589  1
  Er  Er14  1  0.061729  0.061426  0.437443  1
  Er  Er15  1  0.188360  0.814681  0.811234  1
  Cd  Cd16  1  0.831277  0.831099  0.831491  1
  Cd  Cd17  1  0.831238  0.831263  0.505729  1
  Cd  Cd18  1  0.830812  0.505725  0.831713  1
  Cd  Cd19  1  0.505492  0.830905  0.831745  1
  Ir  Ir20  1  0.390746  0.823862  0.392808  1
  Ir  Ir21  1  0.823899  0.390839  0.392592  1
  Pt  Pt22  1  0.391956  0.392025  0.394171  1
  Pt  Pt23  1  0.391921  0.391965  0.821663  1
