# generated using pymatgen
data_Ba4La7TmSe16
_symmetry_space_group_name_H-M   'P 1'
_cell_length_a   4.39698300
_cell_length_b   13.09469330
_cell_length_c   15.71185608
_cell_angle_alpha   90.58320853
_cell_angle_beta   90.00000000
_cell_angle_gamma   90.00000000
_symmetry_Int_Tables_number   1
_chemical_formula_structural   Ba4La7TmSe16
_chemical_formula_sum   'Ba4 La7 Tm1 Se16'
_cell_volume   904.59693306
_cell_formula_units_Z   1
loop_
 _symmetry_equiv_pos_site_id
 _symmetry_equiv_pos_as_xyz
  1  'x, y, z'
loop_
 _atom_site_type_symbol
 _atom_site_label
 _atom_site_symmetry_multiplicity
 _atom_site_fract_x
 _atom_site_fract_y
 _atom_site_fract_z
 _atom_site_occupancy
  Ba  Ba0  1  0.250000  0.242969  0.338917  1
  Ba  Ba1  1  0.250000  0.744247  0.158581  1
  Ba  Ba2  1  0.750000  0.759420  0.666398  1
  Ba  Ba3  1  0.750000  0.254783  0.839921  1
  La  La4  1  0.250000  0.079401  0.603861  1
  La  La5  1  0.250000  0.584250  0.899808  1
  La  La6  1  0.750000  0.918368  0.396928  1
  La  La7  1  0.750000  0.416636  0.103106  1
  La  La8  1  0.250000  0.573103  0.390903  1
  La  La9  1  0.250000  0.068401  0.105081  1
  La  La10  1  0.750000  0.429448  0.609820  1
  Tm  Tm11  1  0.750000  0.936744  0.887631  1
  Se  Se12  1  0.250000  0.078337  0.915447  1
  Se  Se13  1  0.250000  0.584257  0.581199  1
  Se  Se14  1  0.750000  0.914857  0.066330  1
  Se  Se15  1  0.750000  0.417394  0.420426  1
  Se  Se16  1  0.250000  0.292805  0.679578  1
  Se  Se17  1  0.250000  0.802734  0.833326  1
  Se  Se18  1  0.750000  0.707085  0.319658  1
  Se  Se19  1  0.750000  0.203956  0.177356  1
  Se  Se20  1  0.250000  0.368783  0.974028  1
  Se  Se21  1  0.250000  0.867240  0.524673  1
  Se  Se22  1  0.750000  0.627886  0.028274  1
  Se  Se23  1  0.750000  0.130915  0.477134  1
  Se  Se24  1  0.250000  0.475370  0.218345  1
  Se  Se25  1  0.250000  0.975119  0.279708  1
  Se  Se26  1  0.750000  0.527292  0.783376  1
  Se  Se27  1  0.750000  0.018198  0.720185  1
