# generated using pymatgen
data_DyHf2Fe9
_symmetry_space_group_name_H-M   'P 1'
_cell_length_a   4.98490666
_cell_length_b   4.98490609
_cell_length_c   8.45051789
_cell_angle_alpha   72.84566023
_cell_angle_beta   72.84566121
_cell_angle_gamma   59.99999827
_symmetry_Int_Tables_number   1
_chemical_formula_structural   DyHf2Fe9
_chemical_formula_sum   'Dy1 Hf2 Fe9'
_cell_volume   170.98429090
_cell_formula_units_Z   1
loop_
 _symmetry_equiv_pos_site_id
 _symmetry_equiv_pos_as_xyz
  1  'x, y, z'
loop_
 _atom_site_type_symbol
 _atom_site_label
 _atom_site_symmetry_multiplicity
 _atom_site_fract_x
 _atom_site_fract_y
 _atom_site_fract_z
 _atom_site_occupancy
  Dy  Dy0  1  0.000000  0.000000  0.000000  1
  Hf  Hf1  1  0.142786  0.142786  0.571643  1
  Hf  Hf2  1  0.857214  0.857214  0.428357  1
  Fe  Fe3  1  0.082048  0.586717  0.744518  1
  Fe  Fe4  1  0.586717  0.586717  0.744518  1
  Fe  Fe5  1  0.586717  0.082048  0.744518  1
  Fe  Fe6  1  0.917952  0.413283  0.255482  1
  Fe  Fe7  1  0.413283  0.413283  0.255482  1
  Fe  Fe8  1  0.413283  0.917952  0.255482  1
  Fe  Fe9  1  0.332996  0.332996  0.001011  1
  Fe  Fe10  1  0.667003  0.667003  0.998989  1
  Fe  Fe11  1  0.500000  0.500000  0.500000  1
