# generated using pymatgen
data_LiTb2Nd17Ir12
_symmetry_space_group_name_H-M   'P 1'
_cell_length_a   11.23653600
_cell_length_b   11.23653600
_cell_length_c   6.45499700
_cell_angle_alpha   90.00000000
_cell_angle_beta   90.00000000
_cell_angle_gamma   90.00000000
_symmetry_Int_Tables_number   1
_chemical_formula_structural   LiTb2Nd17Ir12
_chemical_formula_sum   'Li1 Tb2 Nd17 Ir12'
_cell_volume   815.00625118
_cell_formula_units_Z   1
loop_
 _symmetry_equiv_pos_site_id
 _symmetry_equiv_pos_as_xyz
  1  'x, y, z'
loop_
 _atom_site_type_symbol
 _atom_site_label
 _atom_site_symmetry_multiplicity
 _atom_site_fract_x
 _atom_site_fract_y
 _atom_site_fract_z
 _atom_site_occupancy
  Li  Li0  1  0.000000  0.000000  0.500000  1
  Tb  Tb1  1  0.500000  0.500000  0.000000  1
  Tb  Tb2  1  0.500000  0.500000  0.500000  1
  Nd  Nd3  1  0.278271  0.083569  0.384011  1
  Nd  Nd4  1  0.291627  0.911394  0.882572  1
  Nd  Nd5  1  0.708373  0.088606  0.882572  1
  Nd  Nd6  1  0.721729  0.916431  0.384011  1
  Nd  Nd7  1  0.589889  0.789952  0.883258  1
  Nd  Nd8  1  0.585572  0.209514  0.380922  1
  Nd  Nd9  1  0.414428  0.790486  0.380922  1
  Nd  Nd10  1  0.410111  0.210048  0.883258  1
  Nd  Nd11  1  0.209514  0.414428  0.619078  1
  Nd  Nd12  1  0.210048  0.589889  0.116742  1
  Nd  Nd13  1  0.789952  0.410111  0.116742  1
  Nd  Nd14  1  0.790486  0.585572  0.619078  1
  Nd  Nd15  1  0.911394  0.708373  0.117428  1
  Nd  Nd16  1  0.916431  0.278271  0.615989  1
  Nd  Nd17  1  0.083569  0.721729  0.615989  1
  Nd  Nd18  1  0.088606  0.291627  0.117428  1
  Nd  Nd19  1  0.000000  0.000000  0.000000  1
  Ir  Ir20  1  0.845469  0.156088  0.243229  1
  Ir  Ir21  1  0.843912  0.845469  0.756771  1
  Ir  Ir22  1  0.156088  0.154531  0.756771  1
  Ir  Ir23  1  0.154531  0.843912  0.243229  1
  Ir  Ir24  1  0.650157  0.349711  0.747312  1
  Ir  Ir25  1  0.650289  0.650157  0.252688  1
  Ir  Ir26  1  0.349711  0.349843  0.252688  1
  Ir  Ir27  1  0.349843  0.650289  0.747312  1
  Ir  Ir28  1  0.500000  0.000000  0.121978  1
  Ir  Ir29  1  0.500000  0.000000  0.613642  1
  Ir  Ir30  1  0.000000  0.500000  0.878022  1
  Ir  Ir31  1  0.000000  0.500000  0.386358  1
