# generated using pymatgen
data_Rb4Sr2HfAs4
_symmetry_space_group_name_H-M   'P 1'
_cell_length_a   10.77917575
_cell_length_b   10.77917449
_cell_length_c   7.92759409
_cell_angle_alpha   87.80181331
_cell_angle_beta   87.80180984
_cell_angle_gamma   119.38478713
_symmetry_Int_Tables_number   1
_chemical_formula_structural   Rb4Sr2HfAs4
_chemical_formula_sum   'Rb8 Sr4 Hf2 As8'
_cell_volume   800.28387058
_cell_formula_units_Z   2
loop_
 _symmetry_equiv_pos_site_id
 _symmetry_equiv_pos_as_xyz
  1  'x, y, z'
loop_
 _atom_site_type_symbol
 _atom_site_label
 _atom_site_symmetry_multiplicity
 _atom_site_fract_x
 _atom_site_fract_y
 _atom_site_fract_z
 _atom_site_occupancy
  Rb  Rb0  1  0.476016  0.943309  0.387355  1
  Rb  Rb1  1  0.943309  0.476016  0.887355  1
  Rb  Rb2  1  0.866142  0.719980  0.164066  1
  Rb  Rb3  1  0.265688  0.126603  0.231787  1
  Rb  Rb4  1  0.856320  0.140397  0.190979  1
  Rb  Rb5  1  0.126603  0.265688  0.731787  1
  Rb  Rb6  1  0.719980  0.866142  0.664066  1
  Rb  Rb7  1  0.140397  0.856320  0.690979  1
  Sr  Sr8  1  0.076323  0.533191  0.394113  1
  Sr  Sr9  1  0.473402  0.530490  0.377555  1
  Sr  Sr10  1  0.533191  0.076323  0.894113  1
  Sr  Sr11  1  0.530490  0.473402  0.877555  1
  Hf  Hf12  1  0.664209  0.337043  0.490662  1
  Hf  Hf13  1  0.337043  0.664209  0.990662  1
  As  As14  1  0.636397  0.327952  0.160758  1
  As  As15  1  0.327952  0.636397  0.660758  1
  As  As16  1  0.213866  0.407001  0.139455  1
  As  As17  1  0.600109  0.790760  0.077297  1
  As  As18  1  0.212500  0.802418  0.100004  1
  As  As19  1  0.790760  0.600109  0.577297  1
  As  As20  1  0.407001  0.213866  0.639455  1
  As  As21  1  0.802418  0.212500  0.600004  1
