# generated using pymatgen
data_Er2USn3Ir2Ru
_symmetry_space_group_name_H-M   'P 1'
_cell_length_a   7.59627500
_cell_length_b   7.52546807
_cell_length_c   3.82739400
_cell_angle_alpha   90.00000000
_cell_angle_beta   90.00000000
_cell_angle_gamma   120.31173308
_symmetry_Int_Tables_number   1
_chemical_formula_structural   Er2USn3Ir2Ru
_chemical_formula_sum   'Er2 U1 Sn3 Ir2 Ru1'
_cell_volume   188.88400920
_cell_formula_units_Z   1
loop_
 _symmetry_equiv_pos_site_id
 _symmetry_equiv_pos_as_xyz
  1  'x, y, z'
loop_
 _atom_site_type_symbol
 _atom_site_label
 _atom_site_symmetry_multiplicity
 _atom_site_fract_x
 _atom_site_fract_y
 _atom_site_fract_z
 _atom_site_occupancy
  Er  Er0  1  0.999434  0.405061  0.500000  1
  Er  Er1  1  0.594373  0.594939  0.500000  1
  U  U2  1  0.410614  0.000000  0.500000  1
  Sn  Sn3  1  0.986023  0.726497  0.000000  1
  Sn  Sn4  1  0.259526  0.273503  0.000000  1
  Sn  Sn5  1  0.754325  0.000000  0.000000  1
  Ir  Ir6  1  0.337498  0.697037  0.000000  1
  Ir  Ir7  1  0.640462  0.302963  0.000000  1
  Ru  Ru8  1  0.017745  0.000000  0.500000  1
