# generated using pymatgen
data_TmHfReB6
_symmetry_space_group_name_H-M   'P 1'
_cell_length_a   3.58603600
_cell_length_b   8.97065700
_cell_length_c   11.34272200
_cell_angle_alpha   90.00000000
_cell_angle_beta   90.00000000
_cell_angle_gamma   90.00000000
_symmetry_Int_Tables_number   1
_chemical_formula_structural   TmHfReB6
_chemical_formula_sum   'Tm4 Hf4 Re4 B24'
_cell_volume   364.88514633
_cell_formula_units_Z   4
loop_
 _symmetry_equiv_pos_site_id
 _symmetry_equiv_pos_as_xyz
  1  'x, y, z'
loop_
 _atom_site_type_symbol
 _atom_site_label
 _atom_site_symmetry_multiplicity
 _atom_site_fract_x
 _atom_site_fract_y
 _atom_site_fract_z
 _atom_site_occupancy
  Tm  Tm0  1  0.000000  0.321000  0.413259  1
  Tm  Tm1  1  0.000000  0.679000  0.586741  1
  Tm  Tm2  1  0.000000  0.821000  0.086741  1
  Tm  Tm3  1  0.000000  0.179000  0.913259  1
  Hf  Hf4  1  0.000000  0.944709  0.373400  1
  Hf  Hf5  1  0.000000  0.055291  0.626600  1
  Hf  Hf6  1  0.000000  0.444709  0.126600  1
  Hf  Hf7  1  0.000000  0.555291  0.873400  1
  Re  Re8  1  0.000000  0.640709  0.318465  1
  Re  Re9  1  0.000000  0.359291  0.681535  1
  Re  Re10  1  0.000000  0.140709  0.181535  1
  Re  Re11  1  0.000000  0.859291  0.818465  1
  B  B12  1  0.500000  0.553447  0.433637  1
  B  B13  1  0.500000  0.446553  0.566363  1
  B  B14  1  0.500000  0.053447  0.066363  1
  B  B15  1  0.500000  0.946553  0.933637  1
  B  B16  1  0.500000  0.752453  0.419205  1
  B  B17  1  0.500000  0.247547  0.580795  1
  B  B18  1  0.500000  0.252453  0.080795  1
  B  B19  1  0.500000  0.747547  0.919205  1
  B  B20  1  0.500000  0.794760  0.264900  1
  B  B21  1  0.500000  0.205240  0.735100  1
  B  B22  1  0.500000  0.294760  0.235100  1
  B  B23  1  0.500000  0.705240  0.764900  1
  B  B24  1  0.500000  0.629901  0.183251  1
  B  B25  1  0.500000  0.370099  0.816749  1
  B  B26  1  0.500000  0.129901  0.316749  1
  B  B27  1  0.500000  0.870099  0.683251  1
  B  B28  1  0.500000  0.980973  0.212897  1
  B  B29  1  0.500000  0.019027  0.787103  1
  B  B30  1  0.500000  0.480973  0.287103  1
  B  B31  1  0.500000  0.519027  0.712897  1
  B  B32  1  0.500000  0.600755  0.027367  1
  B  B33  1  0.500000  0.399245  0.972633  1
  B  B34  1  0.500000  0.100755  0.472633  1
  B  B35  1  0.500000  0.899245  0.527367  1
