# generated using pymatgen
data_IrRu5
_symmetry_space_group_name_H-M   'P 1'
_cell_length_a   4.74688200
_cell_length_b   4.74688165
_cell_length_c   4.31700700
_cell_angle_alpha   90.00000000
_cell_angle_beta   90.00000000
_cell_angle_gamma   120.00000242
_symmetry_Int_Tables_number   1
_chemical_formula_structural   IrRu5
_chemical_formula_sum   'Ir1 Ru5'
_cell_volume   84.24229974
_cell_formula_units_Z   1
loop_
 _symmetry_equiv_pos_site_id
 _symmetry_equiv_pos_as_xyz
  1  'x, y, z'
loop_
 _atom_site_type_symbol
 _atom_site_label
 _atom_site_symmetry_multiplicity
 _atom_site_fract_x
 _atom_site_fract_y
 _atom_site_fract_z
 _atom_site_occupancy
  Ir  Ir0  1  0.000000  0.000000  0.000000  1
  Ru  Ru1  1  0.666667  0.333334  0.000000  1
  Ru  Ru2  1  0.333333  0.666666  0.000000  1
  Ru  Ru3  1  0.666203  0.000000  0.500000  1
  Ru  Ru4  1  0.333797  0.333798  0.500000  1
  Ru  Ru5  1  0.000000  0.666202  0.500000  1
