# generated using pymatgen
data_Nd4Ho3Er(ReB6)4
_symmetry_space_group_name_H-M   'P 1'
_cell_length_a   3.72425300
_cell_length_b   9.24189600
_cell_length_c   11.70143800
_cell_angle_alpha   90.00194153
_cell_angle_beta   90.00000000
_cell_angle_gamma   90.00000000
_symmetry_Int_Tables_number   1
_chemical_formula_structural   Nd4Ho3Er(ReB6)4
_chemical_formula_sum   'Nd4 Ho3 Er1 Re4 B24'
_cell_volume   402.75365381
_cell_formula_units_Z   1
loop_
 _symmetry_equiv_pos_site_id
 _symmetry_equiv_pos_as_xyz
  1  'x, y, z'
loop_
 _atom_site_type_symbol
 _atom_site_label
 _atom_site_symmetry_multiplicity
 _atom_site_fract_x
 _atom_site_fract_y
 _atom_site_fract_z
 _atom_site_occupancy
  Nd  Nd0  1  0.000000  0.322707  0.414475  1
  Nd  Nd1  1  0.000000  0.677374  0.585690  1
  Nd  Nd2  1  0.000000  0.822436  0.085552  1
  Nd  Nd3  1  0.000000  0.177420  0.914399  1
  Ho  Ho4  1  0.000000  0.942627  0.369427  1
  Ho  Ho5  1  0.000000  0.057433  0.630721  1
  Ho  Ho6  1  0.000000  0.442648  0.130281  1
  Er  Er7  1  0.000000  0.557450  0.869254  1
  Re  Re8  1  0.000000  0.639211  0.318955  1
  Re  Re9  1  0.000000  0.361104  0.681101  1
  Re  Re10  1  0.000000  0.139258  0.180865  1
  Re  Re11  1  0.000000  0.860410  0.819185  1
  B  B12  1  0.500000  0.554904  0.430325  1
  B  B13  1  0.500000  0.445213  0.569792  1
  B  B14  1  0.500000  0.054776  0.069596  1
  B  B15  1  0.500000  0.944830  0.930357  1
  B  B16  1  0.500000  0.749541  0.415458  1
  B  B17  1  0.500000  0.250590  0.584662  1
  B  B18  1  0.500000  0.249492  0.084450  1
  B  B19  1  0.500000  0.749913  0.915540  1
  B  B20  1  0.500000  0.791174  0.265691  1
  B  B21  1  0.500000  0.209033  0.734400  1
  B  B22  1  0.500000  0.291211  0.234204  1
  B  B23  1  0.500000  0.708468  0.765812  1
  B  B24  1  0.500000  0.629272  0.186036  1
  B  B25  1  0.500000  0.371054  0.814120  1
  B  B26  1  0.500000  0.129325  0.313861  1
  B  B27  1  0.500000  0.870583  0.686249  1
  B  B28  1  0.500000  0.983610  0.213151  1
  B  B29  1  0.500000  0.016196  0.786961  1
  B  B30  1  0.500000  0.483602  0.286770  1
  B  B31  1  0.500000  0.516654  0.713393  1
  B  B32  1  0.500000  0.595982  0.026060  1
  B  B33  1  0.500000  0.404418  0.973071  1
  B  B34  1  0.500000  0.096068  0.473543  1
  B  B35  1  0.500000  0.904015  0.526593  1
