# generated using pymatgen
data_Hf6Zn15Cu8P
_symmetry_space_group_name_H-M   'P 1'
_cell_length_a   8.57809509
_cell_length_b   8.57809513
_cell_length_c   8.57809500
_cell_angle_alpha   59.99999666
_cell_angle_beta   59.99999649
_cell_angle_gamma   59.99999560
_symmetry_Int_Tables_number   1
_chemical_formula_structural   Hf6Zn15Cu8P
_chemical_formula_sum   'Hf6 Zn15 Cu8 P1'
_cell_volume   446.33149277
_cell_formula_units_Z   1
loop_
 _symmetry_equiv_pos_site_id
 _symmetry_equiv_pos_as_xyz
  1  'x, y, z'
loop_
 _atom_site_type_symbol
 _atom_site_label
 _atom_site_symmetry_multiplicity
 _atom_site_fract_x
 _atom_site_fract_y
 _atom_site_fract_z
 _atom_site_occupancy
  Hf  Hf0  1  0.712539  0.287461  0.287461  1
  Hf  Hf1  1  0.287461  0.712539  0.712539  1
  Hf  Hf2  1  0.287461  0.712539  0.287461  1
  Hf  Hf3  1  0.712539  0.287461  0.712539  1
  Hf  Hf4  1  0.287461  0.287461  0.712539  1
  Hf  Hf5  1  0.712539  0.712539  0.287461  1
  Zn  Zn6  1  0.500000  0.000000  0.000000  1
  Zn  Zn7  1  0.000000  0.500000  0.500000  1
  Zn  Zn8  1  0.000000  0.500000  0.000000  1
  Zn  Zn9  1  0.500000  0.000000  0.500000  1
  Zn  Zn10  1  0.000000  0.000000  0.500000  1
  Zn  Zn11  1  0.500000  0.500000  0.000000  1
  Zn  Zn12  1  0.331527  0.331527  0.331527  1
  Zn  Zn13  1  0.668473  0.668473  0.668473  1
  Zn  Zn14  1  0.331527  0.331527  0.005419  1
  Zn  Zn15  1  0.331527  0.005419  0.331527  1
  Zn  Zn16  1  0.668473  0.668473  0.994581  1
  Zn  Zn17  1  0.668473  0.994581  0.668473  1
  Zn  Zn18  1  0.005419  0.331527  0.331527  1
  Zn  Zn19  1  0.994581  0.668473  0.668473  1
  Zn  Zn20  1  0.000000  0.000000  0.000000  1
  Cu  Cu21  1  0.119158  0.119158  0.119158  1
  Cu  Cu22  1  0.880842  0.880842  0.880842  1
  Cu  Cu23  1  0.119158  0.119158  0.642528  1
  Cu  Cu24  1  0.119158  0.642528  0.119158  1
  Cu  Cu25  1  0.880842  0.880842  0.357472  1
  Cu  Cu26  1  0.880842  0.357472  0.880842  1
  Cu  Cu27  1  0.642528  0.119158  0.119158  1
  Cu  Cu28  1  0.357472  0.880842  0.880842  1
  P  P29  1  0.500000  0.500000  0.500000  1
