# generated using pymatgen
data_Ho2Lu3Co18ReP12
_symmetry_space_group_name_H-M   'P 1'
_cell_length_a   11.93063201
_cell_length_b   11.93063367
_cell_length_c   3.66530100
_cell_angle_alpha   90.00000000
_cell_angle_beta   90.00000000
_cell_angle_gamma   119.70769587
_symmetry_Int_Tables_number   1
_chemical_formula_structural   Ho2Lu3Co18ReP12
_chemical_formula_sum   'Ho2 Lu3 Co18 Re1 P12'
_cell_volume   453.14679265
_cell_formula_units_Z   1
loop_
 _symmetry_equiv_pos_site_id
 _symmetry_equiv_pos_as_xyz
  1  'x, y, z'
loop_
 _atom_site_type_symbol
 _atom_site_label
 _atom_site_symmetry_multiplicity
 _atom_site_fract_x
 _atom_site_fract_y
 _atom_site_fract_z
 _atom_site_occupancy
  Ho  Ho0  1  0.666576  0.334880  0.000000  1
  Ho  Ho1  1  0.334880  0.666576  0.000000  1
  Lu  Lu2  1  0.816540  0.816540  0.500000  1
  Lu  Lu3  1  0.186540  0.000167  0.500000  1
  Lu  Lu4  1  0.000167  0.186540  0.500000  1
  Co  Co5  1  0.875428  0.357320  0.500000  1
  Co  Co6  1  0.643743  0.518414  0.500000  1
  Co  Co7  1  0.484030  0.127555  0.500000  1
  Co  Co8  1  0.357320  0.875428  0.500000  1
  Co  Co9  1  0.518414  0.643743  0.500000  1
  Co  Co10  1  0.127555  0.484030  0.500000  1
  Co  Co11  1  0.551747  0.001157  0.000000  1
  Co  Co12  1  0.001157  0.551747  0.000000  1
  Co  Co13  1  0.801279  0.177850  0.000000  1
  Co  Co14  1  0.823523  0.624146  0.000000  1
  Co  Co15  1  0.372474  0.194781  0.000000  1
  Co  Co16  1  0.177850  0.801279  0.000000  1
  Co  Co17  1  0.624146  0.823523  0.000000  1
  Co  Co18  1  0.194781  0.372474  0.000000  1
  Co  Co19  1  0.280419  0.280419  0.500000  1
  Co  Co20  1  0.715714  0.000407  0.500000  1
  Co  Co21  1  0.000407  0.715714  0.500000  1
  Co  Co22  1  0.997335  0.997335  0.000000  1
  Re  Re23  1  0.446433  0.446433  0.000000  1
  P  P24  1  0.685754  0.166287  0.500000  1
  P  P25  1  0.836024  0.520201  0.500000  1
  P  P26  1  0.479241  0.314372  0.500000  1
  P  P27  1  0.166287  0.685754  0.500000  1
  P  P28  1  0.520201  0.836024  0.500000  1
  P  P29  1  0.314372  0.479241  0.500000  1
  P  P30  1  0.174735  0.174735  0.000000  1
  P  P31  1  0.820666  0.000205  0.000000  1
  P  P32  1  0.000205  0.820666  0.000000  1
  P  P33  1  0.640085  0.640085  0.000000  1
  P  P34  1  0.365063  0.998910  0.000000  1
  P  P35  1  0.998910  0.365063  0.000000  1
