# generated using pymatgen
data_Dy16Zn2InHgRh4
_symmetry_space_group_name_H-M   'P 1'
_cell_length_a   9.56929809
_cell_length_b   9.56929699
_cell_length_c   9.56633551
_cell_angle_alpha   59.86328563
_cell_angle_beta   59.86328816
_cell_angle_gamma   59.92391958
_symmetry_Int_Tables_number   1
_chemical_formula_structural   Dy16Zn2InHgRh4
_chemical_formula_sum   'Dy16 Zn2 In1 Hg1 Rh4'
_cell_volume   617.79003655
_cell_formula_units_Z   1
loop_
 _symmetry_equiv_pos_site_id
 _symmetry_equiv_pos_as_xyz
  1  'x, y, z'
loop_
 _atom_site_type_symbol
 _atom_site_label
 _atom_site_symmetry_multiplicity
 _atom_site_fract_x
 _atom_site_fract_y
 _atom_site_fract_z
 _atom_site_occupancy
  Dy  Dy0  1  0.691100  0.310287  0.308749  1
  Dy  Dy1  1  0.690989  0.690989  0.309105  1
  Dy  Dy2  1  0.310287  0.691100  0.308749  1
  Dy  Dy3  1  0.935161  0.935161  0.561446  1
  Dy  Dy4  1  0.147039  0.147039  0.556365  1
  Dy  Dy5  1  0.559997  0.936885  0.565399  1
  Dy  Dy6  1  0.149540  0.149540  0.148654  1
  Dy  Dy7  1  0.308935  0.308935  0.691600  1
  Dy  Dy8  1  0.936885  0.559997  0.565399  1
  Dy  Dy9  1  0.562735  0.562735  0.937071  1
  Dy  Dy10  1  0.558723  0.934455  0.935132  1
  Dy  Dy11  1  0.934455  0.558723  0.935132  1
  Dy  Dy12  1  0.147659  0.555316  0.146392  1
  Dy  Dy13  1  0.309841  0.691201  0.690888  1
  Dy  Dy14  1  0.691201  0.309841  0.690888  1
  Dy  Dy15  1  0.555316  0.147659  0.146392  1
  Zn  Zn16  1  0.246520  0.921546  0.917928  1
  Zn  Zn17  1  0.921546  0.246520  0.917928  1
  In  In18  1  0.922919  0.922919  0.919416  1
  Hg  Hg19  1  0.919492  0.919492  0.249513  1
  Rh  Rh20  1  0.357010  0.357010  0.357085  1
  Rh  Rh21  1  0.929009  0.356760  0.356561  1
  Rh  Rh22  1  0.356880  0.356880  0.927646  1
  Rh  Rh23  1  0.356760  0.929009  0.356561  1
