# generated using pymatgen
data_Rb4Al3InI16
_symmetry_space_group_name_H-M   'P 1'
_cell_length_a   8.45792140
_cell_length_b   8.90381712
_cell_length_c   17.07366765
_cell_angle_alpha   85.36658542
_cell_angle_beta   90.20507265
_cell_angle_gamma   89.92969415
_symmetry_Int_Tables_number   1
_chemical_formula_structural   Rb4Al3InI16
_chemical_formula_sum   'Rb4 Al3 In1 I16'
_cell_volume   1281.56839720
_cell_formula_units_Z   1
loop_
 _symmetry_equiv_pos_site_id
 _symmetry_equiv_pos_as_xyz
  1  'x, y, z'
loop_
 _atom_site_type_symbol
 _atom_site_label
 _atom_site_symmetry_multiplicity
 _atom_site_fract_x
 _atom_site_fract_y
 _atom_site_fract_z
 _atom_site_occupancy
  Rb  Rb0  1  0.501875  0.256696  0.639261  1
  Rb  Rb1  1  0.000803  0.743117  0.860128  1
  Rb  Rb2  1  0.498989  0.743050  0.359623  1
  Rb  Rb3  1  0.997831  0.257513  0.141047  1
  Al  Al4  1  0.357822  0.246015  0.360716  1
  Al  Al5  1  0.857929  0.754180  0.139079  1
  Al  Al6  1  0.642348  0.753909  0.639220  1
  In  In7  1  0.141848  0.243701  0.861656  1
  I  I8  1  0.850068  0.137565  0.910559  1
  I  I9  1  0.370854  0.854141  0.591773  1
  I  I10  1  0.129545  0.855438  0.092945  1
  I  I11  1  0.629932  0.145858  0.407403  1
  I  I12  1  0.390903  0.406114  0.229370  1
  I  I13  1  0.891057  0.594286  0.270616  1
  I  I14  1  0.609835  0.593856  0.770748  1
  I  I15  1  0.108364  0.417990  0.721085  1
  I  I16  1  0.662110  0.969171  0.158718  1
  I  I17  1  0.162280  0.030541  0.341477  1
  I  I18  1  0.351714  0.013637  0.839564  1
  I  I19  1  0.838212  0.969336  0.658300  1
  I  I20  1  0.244616  0.414288  0.462847  1
  I  I21  1  0.744387  0.585758  0.036728  1
  I  I22  1  0.755304  0.586064  0.536728  1
  I  I23  1  0.261375  0.427775  0.970411  1
