# generated using pymatgen
data_EuCo(Sb4Ru)3
_symmetry_space_group_name_H-M   'P 1'
_cell_length_a   8.08142259
_cell_length_b   8.08142319
_cell_length_c   8.08142150
_cell_angle_alpha   109.35170526
_cell_angle_beta   109.35170953
_cell_angle_gamma   109.35170387
_symmetry_Int_Tables_number   1
_chemical_formula_structural   EuCo(Sb4Ru)3
_chemical_formula_sum   'Eu1 Co1 Sb12 Ru3'
_cell_volume   408.08296910
_cell_formula_units_Z   1
loop_
 _symmetry_equiv_pos_site_id
 _symmetry_equiv_pos_as_xyz
  1  'x, y, z'
loop_
 _atom_site_type_symbol
 _atom_site_label
 _atom_site_symmetry_multiplicity
 _atom_site_fract_x
 _atom_site_fract_y
 _atom_site_fract_z
 _atom_site_occupancy
  Eu  Eu0  1  0.000000  0.000000  0.000000  1
  Co  Co1  1  0.500000  0.500000  0.500000  1
  Sb  Sb2  1  0.658100  0.835791  0.503077  1
  Sb  Sb3  1  0.341900  0.164209  0.496923  1
  Sb  Sb4  1  0.841782  0.182630  0.340361  1
  Sb  Sb5  1  0.817370  0.659639  0.158218  1
  Sb  Sb6  1  0.835791  0.503077  0.658100  1
  Sb  Sb7  1  0.182630  0.340361  0.841782  1
  Sb  Sb8  1  0.158218  0.817370  0.659639  1
  Sb  Sb9  1  0.503077  0.658100  0.835791  1
  Sb  Sb10  1  0.496923  0.341900  0.164209  1
  Sb  Sb11  1  0.164209  0.496923  0.341900  1
  Sb  Sb12  1  0.340361  0.841782  0.182630  1
  Sb  Sb13  1  0.659639  0.158218  0.817370  1
  Ru  Ru14  1  0.000000  0.000000  0.500000  1
  Ru  Ru15  1  0.500000  0.000000  0.000000  1
  Ru  Ru16  1  0.000000  0.500000  0.000000  1
