# generated using pymatgen
data_Ac2InAu2
_symmetry_space_group_name_H-M   'P 1'
_cell_length_a   8.52650000
_cell_length_b   8.52650000
_cell_length_c   4.09792900
_cell_angle_alpha   90.00000000
_cell_angle_beta   90.00000000
_cell_angle_gamma   90.00000000
_symmetry_Int_Tables_number   1
_chemical_formula_structural   Ac2InAu2
_chemical_formula_sum   'Ac4 In2 Au4'
_cell_volume   297.92436504
_cell_formula_units_Z   2
loop_
 _symmetry_equiv_pos_site_id
 _symmetry_equiv_pos_as_xyz
  1  'x, y, z'
loop_
 _atom_site_type_symbol
 _atom_site_label
 _atom_site_symmetry_multiplicity
 _atom_site_fract_x
 _atom_site_fract_y
 _atom_site_fract_z
 _atom_site_occupancy
  Ac  Ac0  1  0.326622  0.173377  0.500000  1
  Ac  Ac1  1  0.826623  0.326622  0.500000  1
  Ac  Ac2  1  0.173377  0.673378  0.500000  1
  Ac  Ac3  1  0.673378  0.826623  0.500000  1
  In  In4  1  0.000000  0.000000  0.000000  1
  In  In5  1  0.500001  0.500001  0.000000  1
  Au  Au6  1  0.626057  0.126056  0.000000  1
  Au  Au7  1  0.126056  0.373943  0.000000  1
  Au  Au8  1  0.873944  0.626057  0.000000  1
  Au  Au9  1  0.373943  0.873944  0.000000  1
