# generated using pymatgen
data_TbYEr8(In2Pd)4
_symmetry_space_group_name_H-M   'P 1'
_cell_length_a   3.60133700
_cell_length_b   8.13911226
_cell_length_c   18.22731658
_cell_angle_alpha   90.02886321
_cell_angle_beta   90.00000000
_cell_angle_gamma   90.00000000
_symmetry_Int_Tables_number   1
_chemical_formula_structural   TbYEr8(In2Pd)4
_chemical_formula_sum   'Tb1 Y1 Er8 In8 Pd4'
_cell_volume   534.27331460
_cell_formula_units_Z   1
loop_
 _symmetry_equiv_pos_site_id
 _symmetry_equiv_pos_as_xyz
  1  'x, y, z'
loop_
 _atom_site_type_symbol
 _atom_site_label
 _atom_site_symmetry_multiplicity
 _atom_site_fract_x
 _atom_site_fract_y
 _atom_site_fract_z
 _atom_site_occupancy
  Tb  Tb0  1  0.000000  0.500000  0.500000  1
  Y  Y1  1  0.000000  0.000000  0.000000  1
  Er  Er2  1  0.000000  0.739123  0.281069  1
  Er  Er3  1  0.000000  0.260877  0.718931  1
  Er  Er4  1  0.000000  0.760836  0.781014  1
  Er  Er5  1  0.000000  0.239164  0.218986  1
  Er  Er6  1  0.000000  0.616944  0.083971  1
  Er  Er7  1  0.000000  0.383056  0.916029  1
  Er  Er8  1  0.000000  0.882703  0.583899  1
  Er  Er9  1  0.000000  0.117297  0.416101  1
  In  In10  1  0.500000  0.706933  0.932618  1
  In  In11  1  0.500000  0.293067  0.067382  1
  In  In12  1  0.500000  0.793270  0.432552  1
  In  In13  1  0.500000  0.206730  0.567448  1
  In  In14  1  0.500000  0.581690  0.650769  1
  In  In15  1  0.500000  0.418310  0.349231  1
  In  In16  1  0.500000  0.918483  0.150607  1
  In  In17  1  0.500000  0.081517  0.849393  1
  Pd  Pd18  1  0.500000  0.523359  0.195937  1
  Pd  Pd19  1  0.500000  0.476641  0.804063  1
  Pd  Pd20  1  0.500000  0.976594  0.696047  1
  Pd  Pd21  1  0.500000  0.023406  0.303953  1
