# generated using pymatgen
data_Hf6Co15Si7Pt
_symmetry_space_group_name_H-M   'P 1'
_cell_length_a   8.04878897
_cell_length_b   8.04878892
_cell_length_c   8.07136276
_cell_angle_alpha   60.09247577
_cell_angle_beta   60.09247836
_cell_angle_gamma   60.00000484
_symmetry_Int_Tables_number   1
_chemical_formula_structural   Hf6Co15Si7Pt
_chemical_formula_sum   'Hf6 Co15 Si7 Pt1'
_cell_volume   370.25301585
_cell_formula_units_Z   1
loop_
 _symmetry_equiv_pos_site_id
 _symmetry_equiv_pos_as_xyz
  1  'x, y, z'
loop_
 _atom_site_type_symbol
 _atom_site_label
 _atom_site_symmetry_multiplicity
 _atom_site_fract_x
 _atom_site_fract_y
 _atom_site_fract_z
 _atom_site_occupancy
  Hf  Hf0  1  0.205180  0.797210  0.792431  1
  Hf  Hf1  1  0.798567  0.798567  0.204102  1
  Hf  Hf2  1  0.798567  0.198763  0.204102  1
  Hf  Hf3  1  0.205180  0.205180  0.792431  1
  Hf  Hf4  1  0.797210  0.205180  0.792431  1
  Hf  Hf5  1  0.198763  0.798567  0.204102  1
  Co  Co6  1  0.170953  0.484989  0.173106  1
  Co  Co7  1  0.858944  0.378287  0.384481  1
  Co  Co8  1  0.506682  0.832911  0.827495  1
  Co  Co9  1  0.484989  0.170953  0.173106  1
  Co  Co10  1  0.830596  0.830596  0.508211  1
  Co  Co11  1  0.172764  0.172764  0.481708  1
  Co  Co12  1  0.140015  0.619854  0.620277  1
  Co  Co13  1  0.170953  0.170953  0.173106  1
  Co  Co14  1  0.378985  0.378985  0.863045  1
  Co  Co15  1  0.619854  0.619854  0.620277  1
  Co  Co16  1  0.378287  0.858944  0.384481  1
  Co  Co17  1  0.378287  0.378287  0.384481  1
  Co  Co18  1  0.832911  0.832911  0.827495  1
  Co  Co19  1  0.619854  0.140015  0.620277  1
  Co  Co20  1  0.832911  0.506682  0.827495  1
  Si  Si21  1  0.501284  0.999443  0.499831  1
  Si  Si22  1  0.498766  0.498766  0.991329  1
  Si  Si23  1  0.493820  0.493820  0.518539  1
  Si  Si24  1  0.999443  0.999443  0.499831  1
  Si  Si25  1  0.011138  0.498766  0.991329  1
  Si  Si26  1  0.999443  0.501284  0.499831  1
  Si  Si27  1  0.498766  0.011138  0.991329  1
  Pt  Pt28  1  0.616887  0.616887  0.149340  1
