# generated using pymatgen
data_Y3Tm13MgIn3Rh4
_symmetry_space_group_name_H-M   'P 1'
_cell_length_a   9.59351183
_cell_length_b   9.58027578
_cell_length_c   9.59127764
_cell_angle_alpha   60.01037308
_cell_angle_beta   59.97911643
_cell_angle_gamma   59.97711128
_symmetry_Int_Tables_number   1
_chemical_formula_structural   Y3Tm13MgIn3Rh4
_chemical_formula_sum   'Y3 Tm13 Mg1 In3 Rh4'
_cell_volume   623.17117264
_cell_formula_units_Z   1
loop_
 _symmetry_equiv_pos_site_id
 _symmetry_equiv_pos_as_xyz
  1  'x, y, z'
loop_
 _atom_site_type_symbol
 _atom_site_label
 _atom_site_symmetry_multiplicity
 _atom_site_fract_x
 _atom_site_fract_y
 _atom_site_fract_z
 _atom_site_occupancy
  Y  Y0  1  0.060855  0.060620  0.438899  1
  Y  Y1  1  0.435825  0.065624  0.434584  1
  Y  Y2  1  0.061992  0.438610  0.061092  1
  Tm  Tm3  1  0.046935  0.649902  0.650357  1
  Tm  Tm4  1  0.436701  0.436689  0.063011  1
  Tm  Tm5  1  0.649969  0.046530  0.650688  1
  Tm  Tm6  1  0.187343  0.812060  0.186851  1
  Tm  Tm7  1  0.186899  0.186969  0.812875  1
  Tm  Tm8  1  0.809923  0.810015  0.190446  1
  Tm  Tm9  1  0.440217  0.060202  0.059462  1
  Tm  Tm10  1  0.812373  0.187174  0.186621  1
  Tm  Tm11  1  0.062709  0.437969  0.436875  1
  Tm  Tm12  1  0.809421  0.190479  0.810710  1
  Tm  Tm13  1  0.190414  0.809531  0.810794  1
  Tm  Tm14  1  0.649875  0.650185  0.046940  1
  Tm  Tm15  1  0.651891  0.651914  0.652195  1
  Mg  Mg16  1  0.422700  0.423013  0.422850  1
  In  In17  1  0.747764  0.418164  0.418061  1
  In  In18  1  0.418348  0.747669  0.417346  1
  In  In19  1  0.418249  0.417174  0.748500  1
  Rh  Rh20  1  0.859008  0.857515  0.425963  1
  Rh  Rh21  1  0.856461  0.857488  0.857590  1
  Rh  Rh22  1  0.426177  0.857994  0.859391  1
  Rh  Rh23  1  0.857951  0.426511  0.857901  1
