# generated using pymatgen
data_NaYb2IO6
_symmetry_space_group_name_H-M   'P 1'
_cell_length_a   5.50156874
_cell_length_b   5.81747800
_cell_length_c   7.93429488
_cell_angle_alpha   90.00000000
_cell_angle_beta   91.37551724
_cell_angle_gamma   90.00000000
_symmetry_Int_Tables_number   1
_chemical_formula_structural   NaYb2IO6
_chemical_formula_sum   'Na2 Yb4 I2 O12'
_cell_volume   253.86595633
_cell_formula_units_Z   2
loop_
 _symmetry_equiv_pos_site_id
 _symmetry_equiv_pos_as_xyz
  1  'x, y, z'
loop_
 _atom_site_type_symbol
 _atom_site_label
 _atom_site_symmetry_multiplicity
 _atom_site_fract_x
 _atom_site_fract_y
 _atom_site_fract_z
 _atom_site_occupancy
  Na  Na0  1  0.500000  0.500000  0.000000  1
  Na  Na1  1  0.000000  0.000000  0.500000  1
  Yb  Yb2  1  0.477983  0.938137  0.757177  1
  Yb  Yb3  1  0.022017  0.438137  0.742823  1
  Yb  Yb4  1  0.522017  0.061863  0.242823  1
  Yb  Yb5  1  0.977983  0.561863  0.257177  1
  I  I6  1  0.500000  0.500000  0.500000  1
  I  I7  1  0.000000  0.000000  0.000000  1
  O  O8  1  0.336674  0.231614  0.577049  1
  O  O9  1  0.163326  0.731614  0.922951  1
  O  O10  1  0.663326  0.768386  0.422951  1
  O  O11  1  0.836674  0.268386  0.077049  1
  O  O12  1  0.621515  0.560629  0.721629  1
  O  O13  1  0.878485  0.060629  0.778371  1
  O  O14  1  0.378485  0.439371  0.278371  1
  O  O15  1  0.121515  0.939371  0.221629  1
  O  O16  1  0.218642  0.674368  0.548093  1
  O  O17  1  0.281358  0.174368  0.951907  1
  O  O18  1  0.781358  0.325632  0.451907  1
  O  O19  1  0.718642  0.825632  0.048093  1
