# generated using pymatgen
data_NaGa(PtO3)2
_symmetry_space_group_name_H-M   'P 1'
_cell_length_a   5.27882550
_cell_length_b   5.28205326
_cell_length_c   5.91996400
_cell_angle_alpha   72.89317529
_cell_angle_beta   98.48126613
_cell_angle_gamma   119.99905210
_symmetry_Int_Tables_number   1
_chemical_formula_structural   NaGa(PtO3)2
_chemical_formula_sum   'Na1 Ga1 Pt2 O6'
_cell_volume   136.62865979
_cell_formula_units_Z   1
loop_
 _symmetry_equiv_pos_site_id
 _symmetry_equiv_pos_as_xyz
  1  'x, y, z'
loop_
 _atom_site_type_symbol
 _atom_site_label
 _atom_site_symmetry_multiplicity
 _atom_site_fract_x
 _atom_site_fract_y
 _atom_site_fract_z
 _atom_site_occupancy
  Na  Na0  1  0.330558  0.165295  0.500016  1
  Ga  Ga1  1  0.996002  0.997994  0.999991  1
  Pt  Pt2  1  0.668559  0.334268  0.000006  1
  Pt  Pt3  1  0.333915  0.666966  0.999996  1
  O  O4  1  0.333902  0.943428  0.180518  1
  O  O5  1  0.003414  0.270700  0.180948  1
  O  O6  1  0.665268  0.604464  0.183004  1
  O  O7  1  0.664995  0.060630  0.817029  1
  O  O8  1  0.333631  0.390368  0.819449  1
  O  O9  1  0.003092  0.732555  0.819042  1
