# generated using pymatgen
data_Sr4CuSi6Ni
_symmetry_space_group_name_H-M   'P 1'
_cell_length_a   8.50271305
_cell_length_b   8.20213049
_cell_length_c   6.22647578
_cell_angle_alpha   70.70663235
_cell_angle_beta   65.57082707
_cell_angle_gamma   43.72252690
_symmetry_Int_Tables_number   1
_chemical_formula_structural   Sr4CuSi6Ni
_chemical_formula_sum   'Sr4 Cu1 Si6 Ni1'
_cell_volume   272.91719333
_cell_formula_units_Z   1
loop_
 _symmetry_equiv_pos_site_id
 _symmetry_equiv_pos_as_xyz
  1  'x, y, z'
loop_
 _atom_site_type_symbol
 _atom_site_label
 _atom_site_symmetry_multiplicity
 _atom_site_fract_x
 _atom_site_fract_y
 _atom_site_fract_z
 _atom_site_occupancy
  Sr  Sr0  1  0.749121  0.749121  0.750879  1
  Sr  Sr1  1  0.752417  0.249508  0.750492  1
  Sr  Sr2  1  0.249121  0.249121  0.250879  1
  Sr  Sr3  1  0.249508  0.752417  0.247583  1
  Cu  Cu4  1  0.333654  0.333654  0.666346  1
  Si  Si5  1  0.827283  0.344290  0.172717  1
  Si  Si6  1  0.666342  0.167301  0.333658  1
  Si  Si7  1  0.167301  0.666342  0.832699  1
  Si  Si8  1  0.344290  0.827283  0.655710  1
  Si  Si9  1  0.166779  0.166779  0.833221  1
  Si  Si10  1  0.827948  0.827948  0.172052  1
  Ni  Ni11  1  0.666236  0.666236  0.333764  1
