# generated using pymatgen
data_Sc5Mn3(Si3Ir4)4
_symmetry_space_group_name_H-M   'P 1'
_cell_length_a   12.76282300
_cell_length_b   12.76282330
_cell_length_c   3.91852800
_cell_angle_alpha   90.00000000
_cell_angle_beta   90.00000000
_cell_angle_gamma   120.00000181
_symmetry_Int_Tables_number   1
_chemical_formula_structural   Sc5Mn3(Si3Ir4)4
_chemical_formula_sum   'Sc5 Mn3 Si12 Ir16'
_cell_volume   552.77332972
_cell_formula_units_Z   1
loop_
 _symmetry_equiv_pos_site_id
 _symmetry_equiv_pos_as_xyz
  1  'x, y, z'
loop_
 _atom_site_type_symbol
 _atom_site_label
 _atom_site_symmetry_multiplicity
 _atom_site_fract_x
 _atom_site_fract_y
 _atom_site_fract_z
 _atom_site_occupancy
  Sc  Sc0  1  0.333333  0.666667  0.000000  1
  Sc  Sc1  1  0.666667  0.333333  0.000000  1
  Sc  Sc2  1  0.815065  0.000000  0.500000  1
  Sc  Sc3  1  0.000000  0.815065  0.500000  1
  Sc  Sc4  1  0.184935  0.184935  0.500000  1
  Mn  Mn5  1  0.443246  0.000000  0.000000  1
  Mn  Mn6  1  0.000000  0.443246  0.000000  1
  Mn  Mn7  1  0.556754  0.556754  0.000000  1
  Si  Si8  1  0.180155  0.000000  0.000000  1
  Si  Si9  1  0.000000  0.180155  0.000000  1
  Si  Si10  1  0.819845  0.819845  0.000000  1
  Si  Si11  1  0.174022  0.483506  0.500000  1
  Si  Si12  1  0.516494  0.690515  0.500000  1
  Si  Si13  1  0.309485  0.825978  0.500000  1
  Si  Si14  1  0.690515  0.516494  0.500000  1
  Si  Si15  1  0.825978  0.309485  0.500000  1
  Si  Si16  1  0.483506  0.174022  0.500000  1
  Si  Si17  1  0.634531  0.000000  0.000000  1
  Si  Si18  1  0.000000  0.634531  0.000000  1
  Si  Si19  1  0.365469  0.365469  0.000000  1
  Ir  Ir20  1  0.364339  0.489449  0.500000  1
  Ir  Ir21  1  0.510551  0.874891  0.500000  1
  Ir  Ir22  1  0.125109  0.635661  0.500000  1
  Ir  Ir23  1  0.874891  0.510551  0.500000  1
  Ir  Ir24  1  0.635661  0.125109  0.500000  1
  Ir  Ir25  1  0.489449  0.364339  0.500000  1
  Ir  Ir26  1  0.182030  0.374894  0.000000  1
  Ir  Ir27  1  0.625106  0.807137  0.000000  1
  Ir  Ir28  1  0.192863  0.817970  0.000000  1
  Ir  Ir29  1  0.807137  0.625106  0.000000  1
  Ir  Ir30  1  0.817970  0.192863  0.000000  1
  Ir  Ir31  1  0.374894  0.182030  0.000000  1
  Ir  Ir32  1  0.282680  0.000000  0.500000  1
  Ir  Ir33  1  0.000000  0.282680  0.500000  1
  Ir  Ir34  1  0.717320  0.717320  0.500000  1
  Ir  Ir35  1  0.000000  0.000000  0.000000  1
