# generated using pymatgen
data_TbGa3NiHg
_symmetry_space_group_name_H-M   'P 1'
_cell_length_a   4.17178666
_cell_length_b   6.58416400
_cell_length_c   8.17713680
_cell_angle_alpha   90.00000000
_cell_angle_beta   104.77884172
_cell_angle_gamma   90.00000000
_symmetry_Int_Tables_number   1
_chemical_formula_structural   TbGa3NiHg
_chemical_formula_sum   'Tb2 Ga6 Ni2 Hg2'
_cell_volume   217.17682731
_cell_formula_units_Z   2
loop_
 _symmetry_equiv_pos_site_id
 _symmetry_equiv_pos_as_xyz
  1  'x, y, z'
loop_
 _atom_site_type_symbol
 _atom_site_label
 _atom_site_symmetry_multiplicity
 _atom_site_fract_x
 _atom_site_fract_y
 _atom_site_fract_z
 _atom_site_occupancy
  Tb  Tb0  1  0.875661  0.750000  0.751321  1
  Tb  Tb1  1  0.124339  0.250000  0.248679  1
  Ga  Ga2  1  0.073212  0.750000  0.146424  1
  Ga  Ga3  1  0.926788  0.250000  0.853576  1
  Ga  Ga4  1  0.688497  0.550237  0.376994  1
  Ga  Ga5  1  0.311503  0.449763  0.623006  1
  Ga  Ga6  1  0.688497  0.949763  0.376994  1
  Ga  Ga7  1  0.311503  0.050237  0.623006  1
  Ni  Ni8  1  0.222844  0.750000  0.445688  1
  Ni  Ni9  1  0.777156  0.250000  0.554312  1
  Hg  Hg10  1  0.500000  0.500000  0.000000  1
  Hg  Hg11  1  0.500000  0.000000  0.000000  1
