# generated using pymatgen
data_Nd2Mn2Co5(NiP2)3
_symmetry_space_group_name_H-M   'P 1'
_cell_length_a   3.73252200
_cell_length_b   10.47916600
_cell_length_c   11.96005800
_cell_angle_alpha   90.00000000
_cell_angle_beta   90.00000000
_cell_angle_gamma   90.00000000
_symmetry_Int_Tables_number   1
_chemical_formula_structural   Nd2Mn2Co5(NiP2)3
_chemical_formula_sum   'Nd4 Mn4 Co10 Ni6 P12'
_cell_volume   467.80233153
_cell_formula_units_Z   2
loop_
 _symmetry_equiv_pos_site_id
 _symmetry_equiv_pos_as_xyz
  1  'x, y, z'
loop_
 _atom_site_type_symbol
 _atom_site_label
 _atom_site_symmetry_multiplicity
 _atom_site_fract_x
 _atom_site_fract_y
 _atom_site_fract_z
 _atom_site_occupancy
  Nd  Nd0  1  0.250000  0.582591  0.703317  1
  Nd  Nd1  1  0.250000  0.917409  0.203317  1
  Nd  Nd2  1  0.750000  0.418460  0.297253  1
  Nd  Nd3  1  0.750000  0.081540  0.797253  1
  Mn  Mn4  1  0.250000  0.706602  0.986425  1
  Mn  Mn5  1  0.250000  0.793398  0.486425  1
  Mn  Mn6  1  0.750000  0.292517  0.012376  1
  Mn  Mn7  1  0.750000  0.207483  0.512376  1
  Co  Co8  1  0.750000  0.777400  0.824135  1
  Co  Co9  1  0.750000  0.722600  0.324135  1
  Co  Co10  1  0.250000  0.881419  0.696924  1
  Co  Co11  1  0.250000  0.618581  0.196924  1
  Co  Co12  1  0.750000  0.117863  0.303123  1
  Co  Co13  1  0.750000  0.382137  0.803123  1
  Co  Co14  1  0.250000  0.468250  0.933384  1
  Co  Co15  1  0.250000  0.031750  0.433384  1
  Co  Co16  1  0.750000  0.532993  0.066716  1
  Co  Co17  1  0.750000  0.967007  0.566716  1
  Ni  Ni18  1  0.250000  0.406163  0.490247  1
  Ni  Ni19  1  0.250000  0.093837  0.990247  1
  Ni  Ni20  1  0.750000  0.593070  0.509745  1
  Ni  Ni21  1  0.750000  0.906930  0.009745  1
  Ni  Ni22  1  0.250000  0.223042  0.176723  1
  Ni  Ni23  1  0.250000  0.276958  0.676723  1
  P  P24  1  0.250000  0.423420  0.110801  1
  P  P25  1  0.250000  0.076580  0.610801  1
  P  P26  1  0.750000  0.580410  0.888884  1
  P  P27  1  0.750000  0.919590  0.388884  1
  P  P28  1  0.250000  0.276268  0.867628  1
  P  P29  1  0.250000  0.223732  0.367628  1
  P  P30  1  0.750000  0.724471  0.134590  1
  P  P31  1  0.750000  0.775529  0.634590  1
  P  P32  1  0.250000  0.608841  0.388916  1
  P  P33  1  0.250000  0.891159  0.888916  1
  P  P34  1  0.750000  0.395627  0.608811  1
  P  P35  1  0.750000  0.104373  0.108811  1
