# generated using pymatgen
data_TbYbY18(Cd3Ru)2
_symmetry_space_group_name_H-M   'P 1'
_cell_length_a   9.65439203
_cell_length_b   9.65439023
_cell_length_c   9.85374589
_cell_angle_alpha   90.04209976
_cell_angle_beta   89.95789807
_cell_angle_gamma   119.96813298
_symmetry_Int_Tables_number   1
_chemical_formula_structural   TbYbY18(Cd3Ru)2
_chemical_formula_sum   'Tb1 Yb1 Y18 Cd6 Ru2'
_cell_volume   795.64800961
_cell_formula_units_Z   1
loop_
 _symmetry_equiv_pos_site_id
 _symmetry_equiv_pos_as_xyz
  1  'x, y, z'
loop_
 _atom_site_type_symbol
 _atom_site_label
 _atom_site_symmetry_multiplicity
 _atom_site_fract_x
 _atom_site_fract_y
 _atom_site_fract_z
 _atom_site_occupancy
  Tb  Tb0  1  0.210715  0.789285  0.439124  1
  Yb  Yb1  1  0.000032  0.999968  0.499946  1
  Y  Y2  1  0.000025  0.999975  0.000027  1
  Y  Y3  1  0.210510  0.420949  0.439730  1
  Y  Y4  1  0.579051  0.789490  0.439730  1
  Y  Y5  1  0.789480  0.210520  0.560328  1
  Y  Y6  1  0.789423  0.578825  0.560374  1
  Y  Y7  1  0.421175  0.210577  0.560374  1
  Y  Y8  1  0.789847  0.210153  0.940344  1
  Y  Y9  1  0.789880  0.579733  0.940342  1
  Y  Y10  1  0.420267  0.210120  0.940342  1
  Y  Y11  1  0.210076  0.789924  0.059611  1
  Y  Y12  1  0.210186  0.420259  0.059606  1
  Y  Y13  1  0.579741  0.789814  0.059606  1
  Y  Y14  1  0.541640  0.458360  0.250938  1
  Y  Y15  1  0.541661  0.083293  0.250969  1
  Y  Y16  1  0.916707  0.458339  0.250969  1
  Y  Y17  1  0.458368  0.541632  0.749070  1
  Y  Y18  1  0.458421  0.916727  0.749035  1
  Y  Y19  1  0.083273  0.541579  0.749035  1
  Cd  Cd20  1  0.884928  0.115072  0.250288  1
  Cd  Cd21  1  0.884907  0.769870  0.250212  1
  Cd  Cd22  1  0.230130  0.115093  0.250212  1
  Cd  Cd23  1  0.115033  0.884967  0.749894  1
  Cd  Cd24  1  0.115048  0.230142  0.749748  1
  Cd  Cd25  1  0.769858  0.884952  0.749748  1
  Ru  Ru26  1  0.332960  0.667040  0.250713  1
  Ru  Ru27  1  0.666659  0.333341  0.749685  1
