# generated using pymatgen
data_Li3YAs6Ir7
_symmetry_space_group_name_H-M   'P 1'
_cell_length_a   6.95533387
_cell_length_b   7.10257365
_cell_length_c   7.10257167
_cell_angle_alpha   109.88733774
_cell_angle_beta   109.05181849
_cell_angle_gamma   109.05182720
_symmetry_Int_Tables_number   1
_chemical_formula_structural   Li3YAs6Ir7
_chemical_formula_sum   'Li3 Y1 As6 Ir7'
_cell_volume   271.48712145
_cell_formula_units_Z   1
loop_
 _symmetry_equiv_pos_site_id
 _symmetry_equiv_pos_as_xyz
  1  'x, y, z'
loop_
 _atom_site_type_symbol
 _atom_site_label
 _atom_site_symmetry_multiplicity
 _atom_site_fract_x
 _atom_site_fract_y
 _atom_site_fract_z
 _atom_site_occupancy
  Li  Li0  1  0.000000  0.000000  0.500000  1
  Li  Li1  1  0.000000  0.500000  0.000000  1
  Li  Li2  1  0.500000  0.500000  0.500000  1
  Y  Y3  1  0.500000  0.000000  0.000000  1
  As  As4  1  0.694024  0.679629  0.000000  1
  As  As5  1  0.305976  0.320371  0.000000  1
  As  As6  1  0.985606  0.679629  0.679629  1
  As  As7  1  0.014394  0.320371  0.320371  1
  As  As8  1  0.694024  0.000000  0.679629  1
  As  As9  1  0.305976  0.000000  0.320371  1
  Ir  Ir10  1  0.000000  0.000000  0.000000  1
  Ir  Ir11  1  0.247309  0.494618  0.747309  1
  Ir  Ir12  1  0.752691  0.252691  0.505382  1
  Ir  Ir13  1  0.500000  0.252691  0.747309  1
  Ir  Ir14  1  0.500000  0.747309  0.252691  1
  Ir  Ir15  1  0.752691  0.505382  0.252691  1
  Ir  Ir16  1  0.247309  0.747309  0.494618  1
