# generated using pymatgen
data_Li8Dy6Y2Sn5Sb3
_symmetry_space_group_name_H-M   'P 1'
_cell_length_a   9.38973304
_cell_length_b   9.38854571
_cell_length_c   7.21408601
_cell_angle_alpha   89.99999467
_cell_angle_beta   90.00589577
_cell_angle_gamma   119.99582115
_symmetry_Int_Tables_number   1
_chemical_formula_structural   Li8Dy6Y2Sn5Sb3
_chemical_formula_sum   'Li8 Dy6 Y2 Sn5 Sb3'
_cell_volume   550.78461479
_cell_formula_units_Z   1
loop_
 _symmetry_equiv_pos_site_id
 _symmetry_equiv_pos_as_xyz
  1  'x, y, z'
loop_
 _atom_site_type_symbol
 _atom_site_label
 _atom_site_symmetry_multiplicity
 _atom_site_fract_x
 _atom_site_fract_y
 _atom_site_fract_z
 _atom_site_occupancy
  Li  Li0  1  0.166814  0.333625  0.283242  1
  Li  Li1  1  0.166814  0.833189  0.283242  1
  Li  Li2  1  0.666335  0.833167  0.283193  1
  Li  Li3  1  0.833047  0.666106  0.785652  1
  Li  Li4  1  0.833047  0.166940  0.785652  1
  Li  Li5  1  0.333898  0.166948  0.785751  1
  Li  Li6  1  0.333341  0.666671  0.678455  1
  Li  Li7  1  0.666614  0.333306  0.182664  1
  Dy  Dy8  1  0.976587  0.488293  0.490438  1
  Dy  Dy9  1  0.490398  0.980796  0.995509  1
  Dy  Dy10  1  0.490398  0.509603  0.995509  1
  Dy  Dy11  1  0.019113  0.509557  0.995532  1
  Dy  Dy12  1  0.999914  0.999957  0.497600  1
  Dy  Dy13  1  0.000013  0.000006  0.003939  1
  Y  Y14  1  0.511728  0.023494  0.490574  1
  Y  Y15  1  0.511728  0.488232  0.490574  1
  Sn  Sn16  1  0.833654  0.667062  0.232454  1
  Sn  Sn17  1  0.833654  0.166593  0.232454  1
  Sn  Sn18  1  0.332933  0.166467  0.232140  1
  Sn  Sn19  1  0.333263  0.666632  0.257271  1
  Sn  Sn20  1  0.666895  0.333447  0.758354  1
  Sb  Sb21  1  0.166532  0.333269  0.733896  1
  Sb  Sb22  1  0.166532  0.833263  0.733896  1
  Sb  Sb23  1  0.666752  0.833376  0.734007  1
