# generated using pymatgen
data_Dy8Zr11Si16Rh
_symmetry_space_group_name_H-M   'P 1'
_cell_length_a   7.32252891
_cell_length_b   7.32252937
_cell_length_c   13.36275264
_cell_angle_alpha   89.80473434
_cell_angle_beta   90.19526734
_cell_angle_gamma   89.86958415
_symmetry_Int_Tables_number   1
_chemical_formula_structural   Dy8Zr11Si16Rh
_chemical_formula_sum   'Dy8 Zr11 Si16 Rh1'
_cell_volume   716.49302292
_cell_formula_units_Z   1
loop_
 _symmetry_equiv_pos_site_id
 _symmetry_equiv_pos_as_xyz
  1  'x, y, z'
loop_
 _atom_site_type_symbol
 _atom_site_label
 _atom_site_symmetry_multiplicity
 _atom_site_fract_x
 _atom_site_fract_y
 _atom_site_fract_z
 _atom_site_occupancy
  Dy  Dy0  1  0.994659  0.653873  0.036393  1
  Dy  Dy1  1  0.001609  0.351379  0.534208  1
  Dy  Dy2  1  0.653873  0.994659  0.963607  1
  Dy  Dy3  1  0.151507  0.505838  0.783610  1
  Dy  Dy4  1  0.847246  0.498282  0.290616  1
  Dy  Dy5  1  0.505838  0.151507  0.216390  1
  Dy  Dy6  1  0.498282  0.847246  0.709384  1
  Dy  Dy7  1  0.351379  0.001609  0.465792  1
  Zr  Zr8  1  0.355570  0.503358  0.378741  1
  Zr  Zr9  1  0.856434  0.996388  0.377080  1
  Zr  Zr10  1  0.002048  0.144431  0.126349  1
  Zr  Zr11  1  0.996388  0.856434  0.622920  1
  Zr  Zr12  1  0.503358  0.355570  0.621259  1
  Zr  Zr13  1  0.144431  0.002048  0.873651  1
  Zr  Zr14  1  0.821730  0.177629  0.747758  1
  Zr  Zr15  1  0.177629  0.821730  0.252242  1
  Zr  Zr16  1  0.323740  0.323740  0.000000  1
  Zr  Zr17  1  0.497843  0.643471  0.127769  1
  Zr  Zr18  1  0.643471  0.497843  0.872231  1
  Si  Si19  1  0.056196  0.708632  0.438325  1
  Si  Si20  1  0.947023  0.296458  0.936085  1
  Si  Si21  1  0.708632  0.056196  0.561675  1
  Si  Si22  1  0.203668  0.447349  0.187440  1
  Si  Si23  1  0.791448  0.560074  0.680904  1
  Si  Si24  1  0.447349  0.203668  0.812560  1
  Si  Si25  1  0.560074  0.791448  0.319096  1
  Si  Si26  1  0.296458  0.947023  0.063915  1
  Si  Si27  1  0.794483  0.856322  0.185513  1
  Si  Si28  1  0.289473  0.638352  0.568098  1
  Si  Si29  1  0.707351  0.359165  0.066940  1
  Si  Si30  1  0.638352  0.289473  0.431902  1
  Si  Si31  1  0.359165  0.707351  0.933060  1
  Si  Si32  1  0.142321  0.206256  0.318450  1
  Si  Si33  1  0.206256  0.142321  0.681550  1
  Si  Si34  1  0.856322  0.794483  0.814487  1
  Rh  Rh35  1  0.668394  0.668394  0.500000  1
