# generated using pymatgen
data_Mg5Si8P4Ir19
_symmetry_space_group_name_H-M   'P 1'
_cell_length_a   12.77147505
_cell_length_b   12.73664151
_cell_length_c   3.88311400
_cell_angle_alpha   90.00000000
_cell_angle_beta   90.00000000
_cell_angle_gamma   120.01743047
_symmetry_Int_Tables_number   1
_chemical_formula_structural   Mg5Si8P4Ir19
_chemical_formula_sum   'Mg5 Si8 P4 Ir19'
_cell_volume   546.92836810
_cell_formula_units_Z   1
loop_
 _symmetry_equiv_pos_site_id
 _symmetry_equiv_pos_as_xyz
  1  'x, y, z'
loop_
 _atom_site_type_symbol
 _atom_site_label
 _atom_site_symmetry_multiplicity
 _atom_site_fract_x
 _atom_site_fract_y
 _atom_site_fract_z
 _atom_site_occupancy
  Mg  Mg0  1  0.667357  0.333060  0.000000  1
  Mg  Mg1  1  0.334683  0.671998  0.000000  1
  Mg  Mg2  1  0.816724  0.815868  0.500000  1
  Mg  Mg3  1  0.183358  0.000473  0.500000  1
  Mg  Mg4  1  0.996371  0.178233  0.500000  1
  Si  Si5  1  0.683978  0.163355  0.500000  1
  Si  Si6  1  0.836722  0.520386  0.500000  1
  Si  Si7  1  0.480263  0.315774  0.500000  1
  Si  Si8  1  0.165537  0.685821  0.500000  1
  Si  Si9  1  0.518093  0.832212  0.500000  1
  Si  Si10  1  0.635275  0.633534  0.000000  1
  Si  Si11  1  0.366468  0.000182  0.000000  1
  Si  Si12  1  0.999619  0.365139  0.000000  1
  P  P13  1  0.309044  0.481727  0.500000  1
  P  P14  1  0.177417  0.178108  0.000000  1
  P  P15  1  0.822695  0.997993  0.000000  1
  P  P16  1  0.002845  0.826145  0.000000  1
  Ir  Ir17  1  0.811889  0.179148  0.000000  1
  Ir  Ir18  1  0.820760  0.632333  0.000000  1
  Ir  Ir19  1  0.367312  0.188135  0.000000  1
  Ir  Ir20  1  0.181774  0.810569  0.000000  1
  Ir  Ir21  1  0.626491  0.814876  0.000000  1
  Ir  Ir22  1  0.195128  0.377045  0.000000  1
  Ir  Ir23  1  0.453426  0.445454  0.000000  1
  Ir  Ir24  1  0.553346  0.001394  0.000000  1
  Ir  Ir25  1  0.999494  0.551662  0.000000  1
  Ir  Ir26  1  0.277876  0.282819  0.500000  1
  Ir  Ir27  1  0.721658  0.996788  0.500000  1
  Ir  Ir28  1  0.000991  0.724661  0.500000  1
  Ir  Ir29  1  0.868095  0.356496  0.500000  1
  Ir  Ir30  1  0.644481  0.511175  0.500000  1
  Ir  Ir31  1  0.488647  0.131937  0.500000  1
  Ir  Ir32  1  0.358855  0.869195  0.500000  1
  Ir  Ir33  1  0.501527  0.634979  0.500000  1
  Ir  Ir34  1  0.130586  0.489120  0.500000  1
  Ir  Ir35  1  0.001215  0.002207  0.000000  1
