# generated using pymatgen
data_La8Y8MgCo4Hg3
_symmetry_space_group_name_H-M   'P 1'
_cell_length_a   9.71663197
_cell_length_b   9.75797192
_cell_length_c   9.81855800
_cell_angle_alpha   59.79440525
_cell_angle_beta   59.65239439
_cell_angle_gamma   60.32458706
_symmetry_Int_Tables_number   1
_chemical_formula_structural   La8Y8MgCo4Hg3
_chemical_formula_sum   'La8 Y8 Mg1 Co4 Hg3'
_cell_volume   657.08759578
_cell_formula_units_Z   1
loop_
 _symmetry_equiv_pos_site_id
 _symmetry_equiv_pos_as_xyz
  1  'x, y, z'
loop_
 _atom_site_type_symbol
 _atom_site_label
 _atom_site_symmetry_multiplicity
 _atom_site_fract_x
 _atom_site_fract_y
 _atom_site_fract_z
 _atom_site_occupancy
  La  La0  1  0.344526  0.343418  0.348652  1
  La  La1  1  0.344526  0.343418  0.963405  1
  La  La2  1  0.352033  0.961980  0.342993  1
  La  La3  1  0.953036  0.355018  0.345972  1
  La  La4  1  0.811331  0.189319  0.188859  1
  La  La5  1  0.183668  0.814306  0.814488  1
  La  La6  1  0.183668  0.814306  0.187538  1
  La  La7  1  0.811331  0.189319  0.810492  1
  Y  Y8  1  0.192772  0.192709  0.807260  1
  Y  Y9  1  0.801286  0.804089  0.197313  1
  Y  Y10  1  0.932768  0.566992  0.568991  1
  Y  Y11  1  0.566645  0.931713  0.932855  1
  Y  Y12  1  0.566645  0.931713  0.568787  1
  Y  Y13  1  0.932768  0.566992  0.931251  1
  Y  Y14  1  0.560261  0.562922  0.938409  1
  Y  Y15  1  0.937956  0.939364  0.561340  1
  Mg  Mg16  1  0.286390  0.567646  0.572982  1
  Co  Co17  1  0.133825  0.136985  0.147198  1
  Co  Co18  1  0.133825  0.136985  0.581992  1
  Co  Co19  1  0.145274  0.582943  0.135891  1
  Co  Co20  1  0.577087  0.146711  0.138100  1
  Hg  Hg21  1  0.584378  0.590138  0.585893  1
  Hg  Hg22  1  0.584378  0.590138  0.239593  1
  Hg  Hg23  1  0.579623  0.240881  0.589748  1
