# generated using pymatgen
data_Er6Sc8Al8Os7
_symmetry_space_group_name_H-M   'P 1'
_cell_length_a   9.25180871
_cell_length_b   9.25180996
_cell_length_c   9.25180900
_cell_angle_alpha   59.99999984
_cell_angle_beta   59.99999538
_cell_angle_gamma   59.99999519
_symmetry_Int_Tables_number   1
_chemical_formula_structural   Er6Sc8Al8Os7
_chemical_formula_sum   'Er6 Sc8 Al8 Os7'
_cell_volume   559.97027892
_cell_formula_units_Z   1
loop_
 _symmetry_equiv_pos_site_id
 _symmetry_equiv_pos_as_xyz
  1  'x, y, z'
loop_
 _atom_site_type_symbol
 _atom_site_label
 _atom_site_symmetry_multiplicity
 _atom_site_fract_x
 _atom_site_fract_y
 _atom_site_fract_z
 _atom_site_occupancy
  Er  Er0  1  0.695599  0.695599  0.304401  1
  Er  Er1  1  0.304401  0.695599  0.304401  1
  Er  Er2  1  0.695599  0.304401  0.304401  1
  Er  Er3  1  0.304401  0.304401  0.695599  1
  Er  Er4  1  0.695599  0.304401  0.695599  1
  Er  Er5  1  0.304401  0.695599  0.695599  1
  Sc  Sc6  1  0.876866  0.876866  0.369403  1
  Sc  Sc7  1  0.876866  0.369403  0.876866  1
  Sc  Sc8  1  0.369403  0.876866  0.876866  1
  Sc  Sc9  1  0.876866  0.876866  0.876866  1
  Sc  Sc10  1  0.123134  0.123134  0.630597  1
  Sc  Sc11  1  0.123134  0.630597  0.123134  1
  Sc  Sc12  1  0.630597  0.123134  0.123134  1
  Sc  Sc13  1  0.123134  0.123134  0.123134  1
  Al  Al14  1  0.668359  0.668359  0.994925  1
  Al  Al15  1  0.668359  0.994925  0.668359  1
  Al  Al16  1  0.994925  0.668359  0.668359  1
  Al  Al17  1  0.668359  0.668359  0.668359  1
  Al  Al18  1  0.331641  0.331641  0.005075  1
  Al  Al19  1  0.331641  0.005075  0.331641  1
  Al  Al20  1  0.005075  0.331641  0.331641  1
  Al  Al21  1  0.331641  0.331641  0.331641  1
  Os  Os22  1  0.000000  0.000000  0.000000  1
  Os  Os23  1  0.000000  0.000000  0.500000  1
  Os  Os24  1  0.500000  0.000000  0.500000  1
  Os  Os25  1  0.000000  0.500000  0.500000  1
  Os  Os26  1  0.500000  0.500000  0.000000  1
  Os  Os27  1  0.000000  0.500000  0.000000  1
  Os  Os28  1  0.500000  0.000000  0.000000  1
