# generated using pymatgen
data_Tm4Hf3WF28
_symmetry_space_group_name_H-M   'P 1'
_cell_length_a   5.66863665
_cell_length_b   8.98434123
_cell_length_c   12.07917000
_cell_angle_alpha   62.44778433
_cell_angle_beta   89.94464118
_cell_angle_gamma   89.97236543
_symmetry_Int_Tables_number   1
_chemical_formula_structural   Tm4Hf3WF28
_chemical_formula_sum   'Tm4 Hf3 W1 F28'
_cell_volume   545.41164854
_cell_formula_units_Z   1
loop_
 _symmetry_equiv_pos_site_id
 _symmetry_equiv_pos_as_xyz
  1  'x, y, z'
loop_
 _atom_site_type_symbol
 _atom_site_label
 _atom_site_symmetry_multiplicity
 _atom_site_fract_x
 _atom_site_fract_y
 _atom_site_fract_z
 _atom_site_occupancy
  Tm  Tm0  1  0.756965  0.815551  0.765786  1
  Tm  Tm1  1  0.255473  0.184063  0.732922  1
  Tm  Tm2  1  0.241926  0.183955  0.236463  1
  Tm  Tm3  1  0.743507  0.817387  0.265986  1
  Hf  Hf4  1  0.755767  0.273904  0.955595  1
  Hf  Hf5  1  0.256788  0.725105  0.544914  1
  Hf  Hf6  1  0.244365  0.725800  0.045337  1
  W  W7  1  0.741979  0.273048  0.455692  1
  F  F8  1  0.465796  0.710994  0.921131  1
  F  F9  1  0.952496  0.293003  0.583395  1
  F  F10  1  0.531424  0.288399  0.078399  1
  F  F11  1  0.036616  0.711643  0.420169  1
  F  F12  1  0.440145  0.275824  0.546721  1
  F  F13  1  0.953427  0.723858  0.948590  1
  F  F14  1  0.548809  0.719996  0.450036  1
  F  F15  1  0.044782  0.276851  0.052957  1
  F  F16  1  0.771335  0.525120  0.859451  1
  F  F17  1  0.269313  0.473856  0.640645  1
  F  F18  1  0.227982  0.475021  0.141721  1
  F  F19  1  0.733650  0.524166  0.356377  1
  F  F20  1  0.758451  0.023566  0.059505  1
  F  F21  1  0.260817  0.975297  0.443116  1
  F  F22  1  0.243294  0.975772  0.939938  1
  F  F23  1  0.739157  0.022923  0.553335  1
  F  F24  1  0.985049  0.733790  0.649067  1
  F  F25  1  0.488533  0.265112  0.849362  1
  F  F26  1  0.030708  0.268279  0.357677  1
  F  F27  1  0.515131  0.735040  0.149328  1
  F  F28  1  0.033556  0.749498  0.171961  1
  F  F29  1  0.538122  0.253278  0.324083  1
  F  F30  1  0.971490  0.251729  0.830068  1
  F  F31  1  0.468148  0.745711  0.672806  1
  F  F32  1  0.428738  0.974231  0.236277  1
  F  F33  1  0.927654  0.026127  0.267940  1
  F  F34  1  0.569868  0.026410  0.761767  1
  F  F35  1  0.068740  0.975697  0.731481  1
