# generated using pymatgen
data_Lu8Tl3Rh
_symmetry_space_group_name_H-M   'P 1'
_cell_length_a   10.19830100
_cell_length_b   10.19830147
_cell_length_c   6.97918700
_cell_angle_alpha   90.00000000
_cell_angle_beta   90.00000000
_cell_angle_gamma   120.00000171
_symmetry_Int_Tables_number   1
_chemical_formula_structural   Lu8Tl3Rh
_chemical_formula_sum   'Lu16 Tl6 Rh2'
_cell_volume   628.62425098
_cell_formula_units_Z   2
loop_
 _symmetry_equiv_pos_site_id
 _symmetry_equiv_pos_as_xyz
  1  'x, y, z'
loop_
 _atom_site_type_symbol
 _atom_site_label
 _atom_site_symmetry_multiplicity
 _atom_site_fract_x
 _atom_site_fract_y
 _atom_site_fract_z
 _atom_site_occupancy
  Lu  Lu0  1  0.535456  0.070912  0.526178  1
  Lu  Lu1  1  0.929088  0.464544  0.526178  1
  Lu  Lu2  1  0.535456  0.464544  0.526178  1
  Lu  Lu3  1  0.464544  0.929088  0.026178  1
  Lu  Lu4  1  0.070912  0.535456  0.026178  1
  Lu  Lu5  1  0.464544  0.535456  0.026178  1
  Lu  Lu6  1  0.176782  0.353564  0.725049  1
  Lu  Lu7  1  0.646436  0.823218  0.725049  1
  Lu  Lu8  1  0.176782  0.823218  0.725049  1
  Lu  Lu9  1  0.823218  0.646436  0.225049  1
  Lu  Lu10  1  0.353564  0.176782  0.225049  1
  Lu  Lu11  1  0.823218  0.176782  0.225049  1
  Lu  Lu12  1  0.666667  0.333333  0.904254  1
  Lu  Lu13  1  0.333333  0.666667  0.404254  1
  Lu  Lu14  1  0.000000  0.000000  0.505957  1
  Lu  Lu15  1  0.000000  0.000000  0.005957  1
  Tl  Tl16  1  0.837633  0.675263  0.773554  1
  Tl  Tl17  1  0.324737  0.162367  0.773554  1
  Tl  Tl18  1  0.837633  0.162367  0.773554  1
  Tl  Tl19  1  0.162367  0.324737  0.273554  1
  Tl  Tl20  1  0.675263  0.837633  0.273554  1
  Tl  Tl21  1  0.162367  0.837633  0.273554  1
  Rh  Rh22  1  0.666667  0.333333  0.293284  1
  Rh  Rh23  1  0.333333  0.666667  0.793284  1
