# generated using pymatgen
data_Nb2TcP2Rh
_symmetry_space_group_name_H-M   'P 1'
_cell_length_a   3.75430500
_cell_length_b   6.40332000
_cell_length_c   7.27651900
_cell_angle_alpha   90.00000000
_cell_angle_beta   90.00000000
_cell_angle_gamma   90.00000000
_symmetry_Int_Tables_number   1
_chemical_formula_structural   Nb2TcP2Rh
_chemical_formula_sum   'Nb4 Tc2 P4 Rh2'
_cell_volume   174.92763531
_cell_formula_units_Z   2
loop_
 _symmetry_equiv_pos_site_id
 _symmetry_equiv_pos_as_xyz
  1  'x, y, z'
loop_
 _atom_site_type_symbol
 _atom_site_label
 _atom_site_symmetry_multiplicity
 _atom_site_fract_x
 _atom_site_fract_y
 _atom_site_fract_z
 _atom_site_occupancy
  Nb  Nb0  1  0.250000  0.027352  0.826965  1
  Nb  Nb1  1  0.250000  0.527352  0.673035  1
  Nb  Nb2  1  0.750000  0.975154  0.170171  1
  Nb  Nb3  1  0.750000  0.475154  0.329829  1
  Tc  Tc4  1  0.250000  0.140911  0.442170  1
  Tc  Tc5  1  0.250000  0.640911  0.057830  1
  P  P6  1  0.250000  0.770833  0.369394  1
  P  P7  1  0.250000  0.270833  0.130606  1
  P  P8  1  0.750000  0.236237  0.622146  1
  P  P9  1  0.750000  0.736237  0.877854  1
  Rh  Rh10  1  0.750000  0.849513  0.564877  1
  Rh  Rh11  1  0.750000  0.349513  0.935123  1
