# generated using pymatgen
data_Sc8Ti8ReGe16Mo3
_symmetry_space_group_name_H-M   'P 1'
_cell_length_a   6.75556270
_cell_length_b   6.91315123
_cell_length_c   13.12323900
_cell_angle_alpha   90.00000000
_cell_angle_beta   90.00000000
_cell_angle_gamma   90.04870126
_symmetry_Int_Tables_number   1
_chemical_formula_structural   Sc8Ti8ReGe16Mo3
_chemical_formula_sum   'Sc8 Ti8 Re1 Ge16 Mo3'
_cell_volume   612.88426017
_cell_formula_units_Z   1
loop_
 _symmetry_equiv_pos_site_id
 _symmetry_equiv_pos_as_xyz
  1  'x, y, z'
loop_
 _atom_site_type_symbol
 _atom_site_label
 _atom_site_symmetry_multiplicity
 _atom_site_fract_x
 _atom_site_fract_y
 _atom_site_fract_z
 _atom_site_occupancy
  Sc  Sc0  1  0.492851  0.677415  0.594010  1
  Sc  Sc1  1  0.993937  0.824689  0.906013  1
  Sc  Sc2  1  0.506934  0.322793  0.094428  1
  Sc  Sc3  1  0.006103  0.176943  0.405054  1
  Sc  Sc4  1  0.506934  0.322793  0.405572  1
  Sc  Sc5  1  0.006103  0.176943  0.094946  1
  Sc  Sc6  1  0.492851  0.677415  0.905990  1
  Sc  Sc7  1  0.993937  0.824689  0.593987  1
  Ti  Ti8  1  0.659664  0.167194  0.627450  1
  Ti  Ti9  1  0.161385  0.331814  0.872652  1
  Ti  Ti10  1  0.339545  0.831554  0.127605  1
  Ti  Ti11  1  0.840227  0.667626  0.373383  1
  Ti  Ti12  1  0.339545  0.831554  0.372395  1
  Ti  Ti13  1  0.840227  0.667626  0.126617  1
  Ti  Ti14  1  0.659664  0.167194  0.872550  1
  Ti  Ti15  1  0.161385  0.331814  0.627348  1
  Re  Re16  1  0.836296  0.488598  0.750000  1
  Ge  Ge17  1  0.679812  0.961688  0.458388  1
  Ge  Ge18  1  0.179554  0.537609  0.041001  1
  Ge  Ge19  1  0.320524  0.038358  0.959537  1
  Ge  Ge20  1  0.820394  0.461437  0.542487  1
  Ge  Ge21  1  0.320524  0.038358  0.540463  1
  Ge  Ge22  1  0.820394  0.461437  0.957513  1
  Ge  Ge23  1  0.679812  0.961688  0.041612  1
  Ge  Ge24  1  0.179554  0.537609  0.458999  1
  Ge  Ge25  1  0.464404  0.385209  0.750000  1
  Ge  Ge26  1  0.962205  0.117146  0.750000  1
  Ge  Ge27  1  0.538014  0.616529  0.250000  1
  Ge  Ge28  1  0.036526  0.883552  0.250000  1
  Ge  Ge29  1  0.693885  0.850514  0.750000  1
  Ge  Ge30  1  0.192403  0.647203  0.750000  1
  Ge  Ge31  1  0.305851  0.147638  0.250000  1
  Ge  Ge32  1  0.805605  0.353245  0.250000  1
  Mo  Mo33  1  0.335111  0.011628  0.750000  1
  Mo  Mo34  1  0.164282  0.511124  0.250000  1
  Mo  Mo35  1  0.663558  0.989380  0.250000  1
