# generated using pymatgen
data_Li2Ta3NbN6
_symmetry_space_group_name_H-M   'P 1'
_cell_length_a   5.24234510
_cell_length_b   5.24234447
_cell_length_c   10.33499800
_cell_angle_alpha   90.00000000
_cell_angle_beta   90.00000000
_cell_angle_gamma   120.10254348
_symmetry_Int_Tables_number   1
_chemical_formula_structural   Li2Ta3NbN6
_chemical_formula_sum   'Li4 Ta6 Nb2 N12'
_cell_volume   245.72113186
_cell_formula_units_Z   2
loop_
 _symmetry_equiv_pos_site_id
 _symmetry_equiv_pos_as_xyz
  1  'x, y, z'
loop_
 _atom_site_type_symbol
 _atom_site_label
 _atom_site_symmetry_multiplicity
 _atom_site_fract_x
 _atom_site_fract_y
 _atom_site_fract_z
 _atom_site_occupancy
  Li  Li0  1  0.333296  0.666704  0.000000  1
  Li  Li1  1  0.333296  0.666704  0.500000  1
  Li  Li2  1  0.666818  0.333182  0.500000  1
  Li  Li3  1  0.666818  0.333182  0.000000  1
  Ta  Ta4  1  0.352939  0.351889  0.750000  1
  Ta  Ta5  1  0.998765  0.001235  0.500000  1
  Ta  Ta6  1  0.998765  0.001235  0.000000  1
  Ta  Ta7  1  0.648111  0.647061  0.250000  1
  Ta  Ta8  1  0.351615  0.999063  0.250000  1
  Ta  Ta9  1  0.000937  0.648385  0.750000  1
  Nb  Nb10  1  0.000149  0.351459  0.250000  1
  Nb  Nb11  1  0.648541  0.999851  0.750000  1
  N  N12  1  0.679166  0.675215  0.623822  1
  N  N13  1  0.679166  0.675215  0.876178  1
  N  N14  1  0.324785  0.320834  0.123822  1
  N  N15  1  0.324785  0.320834  0.376178  1
  N  N16  1  0.317444  0.000017  0.875506  1
  N  N17  1  0.317444  0.000017  0.624494  1
  N  N18  1  0.999983  0.682556  0.375506  1
  N  N19  1  0.999983  0.682556  0.124494  1
  N  N20  1  0.674612  0.996014  0.123688  1
  N  N21  1  0.674612  0.996014  0.376312  1
  N  N22  1  0.003986  0.325388  0.876312  1
  N  N23  1  0.003986  0.325388  0.623688  1
