# generated using pymatgen
data_Ac2Sn4Pd3
_symmetry_space_group_name_H-M   'P 1'
_cell_length_a   4.72336900
_cell_length_b   11.61512100
_cell_length_c   16.61607400
_cell_angle_alpha   90.00000000
_cell_angle_beta   90.00000000
_cell_angle_gamma   90.00000000
_symmetry_Int_Tables_number   1
_chemical_formula_structural   Ac2Sn4Pd3
_chemical_formula_sum   'Ac8 Sn16 Pd12'
_cell_volume   911.59940074
_cell_formula_units_Z   4
loop_
 _symmetry_equiv_pos_site_id
 _symmetry_equiv_pos_as_xyz
  1  'x, y, z'
loop_
 _atom_site_type_symbol
 _atom_site_label
 _atom_site_symmetry_multiplicity
 _atom_site_fract_x
 _atom_site_fract_y
 _atom_site_fract_z
 _atom_site_occupancy
  Ac  Ac0  1  0.250000  0.742756  0.505638  1
  Ac  Ac1  1  0.250000  0.757244  0.005638  1
  Ac  Ac2  1  0.750000  0.257244  0.494362  1
  Ac  Ac3  1  0.750000  0.242756  0.994362  1
  Ac  Ac4  1  0.250000  0.592119  0.753578  1
  Ac  Ac5  1  0.250000  0.907881  0.253578  1
  Ac  Ac6  1  0.750000  0.407881  0.246422  1
  Ac  Ac7  1  0.750000  0.092119  0.746422  1
  Sn  Sn8  1  0.250000  0.286127  0.656783  1
  Sn  Sn9  1  0.250000  0.213873  0.156783  1
  Sn  Sn10  1  0.750000  0.713873  0.343217  1
  Sn  Sn11  1  0.750000  0.786127  0.843217  1
  Sn  Sn12  1  0.250000  0.882492  0.716971  1
  Sn  Sn13  1  0.250000  0.617508  0.216971  1
  Sn  Sn14  1  0.750000  0.117508  0.283029  1
  Sn  Sn15  1  0.750000  0.382492  0.783029  1
  Sn  Sn16  1  0.250000  0.053480  0.891870  1
  Sn  Sn17  1  0.250000  0.446520  0.391870  1
  Sn  Sn18  1  0.750000  0.946520  0.108130  1
  Sn  Sn19  1  0.750000  0.553480  0.608130  1
  Sn  Sn20  1  0.250000  0.452963  0.936642  1
  Sn  Sn21  1  0.250000  0.047037  0.436642  1
  Sn  Sn22  1  0.750000  0.547037  0.063358  1
  Sn  Sn23  1  0.750000  0.952963  0.563358  1
  Pd  Pd24  1  0.250000  0.465642  0.554509  1
  Pd  Pd25  1  0.250000  0.034358  0.054509  1
  Pd  Pd26  1  0.750000  0.534358  0.445491  1
  Pd  Pd27  1  0.750000  0.965642  0.945491  1
  Pd  Pd28  1  0.250000  0.063954  0.600093  1
  Pd  Pd29  1  0.250000  0.436046  0.100093  1
  Pd  Pd30  1  0.750000  0.936046  0.399907  1
  Pd  Pd31  1  0.750000  0.563954  0.899907  1
  Pd  Pd32  1  0.250000  0.276532  0.825798  1
  Pd  Pd33  1  0.250000  0.223468  0.325798  1
  Pd  Pd34  1  0.750000  0.723468  0.174202  1
  Pd  Pd35  1  0.750000  0.776532  0.674202  1
