# generated using pymatgen
data_Ac2TbY(Zn5Si)2
_symmetry_space_group_name_H-M   'P 1'
_cell_length_a   8.41768540
_cell_length_b   8.41768678
_cell_length_c   8.93569500
_cell_angle_alpha   90.00000000
_cell_angle_beta   90.00000000
_cell_angle_gamma   149.22116299
_symmetry_Int_Tables_number   1
_chemical_formula_structural   Ac2TbY(Zn5Si)2
_chemical_formula_sum   'Ac2 Tb1 Y1 Zn10 Si2'
_cell_volume   324.00439406
_cell_formula_units_Z   1
loop_
 _symmetry_equiv_pos_site_id
 _symmetry_equiv_pos_as_xyz
  1  'x, y, z'
loop_
 _atom_site_type_symbol
 _atom_site_label
 _atom_site_symmetry_multiplicity
 _atom_site_fract_x
 _atom_site_fract_y
 _atom_site_fract_z
 _atom_site_occupancy
  Ac  Ac0  1  0.999938  0.000062  0.499733  1
  Ac  Ac1  1  0.999938  0.000062  0.000267  1
  Tb  Tb2  1  0.204435  0.795565  0.250000  1
  Y  Y3  1  0.795453  0.204547  0.750000  1
  Zn  Zn4  1  0.810816  0.189184  0.390540  1
  Zn  Zn5  1  0.189030  0.810970  0.609350  1
  Zn  Zn6  1  0.810816  0.189184  0.109460  1
  Zn  Zn7  1  0.189030  0.810970  0.890650  1
  Zn  Zn8  1  0.655276  0.344724  0.476534  1
  Zn  Zn9  1  0.344985  0.655015  0.523046  1
  Zn  Zn10  1  0.655276  0.344724  0.023466  1
  Zn  Zn11  1  0.344985  0.655015  0.976954  1
  Zn  Zn12  1  0.404583  0.595417  0.250000  1
  Zn  Zn13  1  0.595520  0.404480  0.750000  1
  Si  Si14  1  0.564516  0.435484  0.250000  1
  Si  Si15  1  0.435404  0.564596  0.750000  1
