# generated using pymatgen
data_La4Y16Si15Au
_symmetry_space_group_name_H-M   'P 1'
_cell_length_a   7.53810547
_cell_length_b   7.78631643
_cell_length_c   14.83760624
_cell_angle_alpha   90.11306920
_cell_angle_beta   89.31042536
_cell_angle_gamma   89.85805312
_symmetry_Int_Tables_number   1
_chemical_formula_structural   La4Y16Si15Au
_chemical_formula_sum   'La4 Y16 Si15 Au1'
_cell_volume   870.81207303
_cell_formula_units_Z   1
loop_
 _symmetry_equiv_pos_site_id
 _symmetry_equiv_pos_as_xyz
  1  'x, y, z'
loop_
 _atom_site_type_symbol
 _atom_site_label
 _atom_site_symmetry_multiplicity
 _atom_site_fract_x
 _atom_site_fract_y
 _atom_site_fract_z
 _atom_site_occupancy
  La  La0  1  0.229357  0.679151  0.153769  1
  La  La1  1  0.735328  0.821448  0.847688  1
  La  La2  1  0.266879  0.326941  0.654386  1
  La  La3  1  0.769900  0.178707  0.344839  1
  Y  Y4  1  0.919833  0.675374  0.624983  1
  Y  Y5  1  0.427995  0.822004  0.373146  1
  Y  Y6  1  0.571438  0.323610  0.125417  1
  Y  Y7  1  0.075947  0.172655  0.875649  1
  Y  Y8  1  0.577639  0.320683  0.872926  1
  Y  Y9  1  0.074328  0.180269  0.128545  1
  Y  Y10  1  0.926962  0.679690  0.370917  1
  Y  Y11  1  0.425325  0.822046  0.628891  1
  Y  Y12  1  0.090758  0.008557  0.501230  1
  Y  Y13  1  0.589647  0.489226  0.499074  1
  Y  Y14  1  0.408371  0.990226  0.999755  1
  Y  Y15  1  0.907178  0.506891  0.998357  1
  Y  Y16  1  0.275665  0.318276  0.351998  1
  Y  Y17  1  0.766860  0.181866  0.646301  1
  Y  Y18  1  0.232266  0.678534  0.854619  1
  Y  Y19  1  0.724668  0.816672  0.147703  1
  Si  Si20  1  0.598513  0.535757  0.286783  1
  Si  Si21  1  0.403087  0.036546  0.212807  1
  Si  Si22  1  0.907147  0.463280  0.788324  1
  Si  Si23  1  0.405274  0.026954  0.793475  1
  Si  Si24  1  0.888636  0.476699  0.207148  1
  Si  Si25  1  0.111907  0.977303  0.291617  1
  Si  Si26  1  0.604887  0.526257  0.709868  1
  Si  Si27  1  0.975676  0.377916  0.497388  1
  Si  Si28  1  0.473865  0.123131  0.499343  1
  Si  Si29  1  0.525579  0.624006  0.999734  1
  Si  Si30  1  0.024794  0.874089  0.003288  1
  Si  Si31  1  0.217497  0.612465  0.497606  1
  Si  Si32  1  0.716590  0.889848  0.498633  1
  Si  Si33  1  0.279601  0.389084  0.000356  1
  Si  Si34  1  0.781102  0.108904  0.002796  1
  Au  Au35  1  0.089506  0.964933  0.710640  1
