# generated using pymatgen
data_Er4Zn3In2Ir
_symmetry_space_group_name_H-M   'P 1'
_cell_length_a   7.74452506
_cell_length_b   7.74452507
_cell_length_c   3.69289900
_cell_angle_alpha   90.00000000
_cell_angle_beta   90.00000000
_cell_angle_gamma   89.82341872
_symmetry_Int_Tables_number   1
_chemical_formula_structural   Er4Zn3In2Ir
_chemical_formula_sum   'Er4 Zn3 In2 Ir1'
_cell_volume   221.49042020
_cell_formula_units_Z   1
loop_
 _symmetry_equiv_pos_site_id
 _symmetry_equiv_pos_as_xyz
  1  'x, y, z'
loop_
 _atom_site_type_symbol
 _atom_site_label
 _atom_site_symmetry_multiplicity
 _atom_site_fract_x
 _atom_site_fract_y
 _atom_site_fract_z
 _atom_site_occupancy
  Er  Er0  1  0.670438  0.170438  0.500000  1
  Er  Er1  1  0.310887  0.810887  0.500000  1
  Er  Er2  1  0.177669  0.347340  0.500000  1
  Er  Er3  1  0.847340  0.677669  0.500000  1
  Zn  Zn4  1  0.877582  0.377582  0.000000  1
  Zn  Zn5  1  0.616479  0.874968  0.000000  1
  Zn  Zn6  1  0.374968  0.116479  0.000000  1
  In  In7  1  0.505062  0.500656  0.000000  1
  In  In8  1  0.000656  0.005062  0.000000  1
  Ir  Ir9  1  0.118918  0.618918  0.000000  1
