# generated using pymatgen
data_LiDyEr15In3Ir4
_symmetry_space_group_name_H-M   'P 1'
_cell_length_a   9.60960571
_cell_length_b   9.56441577
_cell_length_c   9.57689800
_cell_angle_alpha   59.95681924
_cell_angle_beta   60.11252803
_cell_angle_gamma   60.09535831
_symmetry_Int_Tables_number   1
_chemical_formula_structural   LiDyEr15In3Ir4
_chemical_formula_sum   'Li1 Dy1 Er15 In3 Ir4'
_cell_volume   623.17787522
_cell_formula_units_Z   1
loop_
 _symmetry_equiv_pos_site_id
 _symmetry_equiv_pos_as_xyz
  1  'x, y, z'
loop_
 _atom_site_type_symbol
 _atom_site_label
 _atom_site_symmetry_multiplicity
 _atom_site_fract_x
 _atom_site_fract_y
 _atom_site_fract_z
 _atom_site_occupancy
  Li  Li0  1  0.714880  0.429676  0.427722  1
  Dy  Dy1  1  0.059461  0.061586  0.439477  1
  Er  Er2  1  0.649724  0.044342  0.652968  1
  Er  Er3  1  0.192833  0.809167  0.190036  1
  Er  Er4  1  0.438875  0.061275  0.437942  1
  Er  Er5  1  0.193652  0.191370  0.807489  1
  Er  Er6  1  0.650377  0.652342  0.655754  1
  Er  Er7  1  0.051453  0.649691  0.649429  1
  Er  Er8  1  0.438875  0.061275  0.061908  1
  Er  Er9  1  0.650377  0.652342  0.041528  1
  Er  Er10  1  0.192833  0.809167  0.807963  1
  Er  Er11  1  0.812291  0.187995  0.812528  1
  Er  Er12  1  0.812291  0.187995  0.187185  1
  Er  Er13  1  0.811281  0.812034  0.188343  1
  Er  Er14  1  0.060009  0.439869  0.439183  1
  Er  Er15  1  0.435320  0.437359  0.063660  1
  Er  Er16  1  0.060009  0.439869  0.060940  1
  In  In17  1  0.421414  0.415699  0.747436  1
  In  In18  1  0.421458  0.746343  0.416100  1
  In  In19  1  0.421414  0.415699  0.415452  1
  Ir  Ir20  1  0.861956  0.856125  0.857728  1
  Ir  Ir21  1  0.423859  0.859312  0.858416  1
  Ir  Ir22  1  0.861956  0.856125  0.424194  1
  Ir  Ir23  1  0.863406  0.423348  0.856624  1
