# generated using pymatgen
data_CaTb19Sn16
_symmetry_space_group_name_H-M   'P 1'
_cell_length_a   8.06143501
_cell_length_b   8.21568701
_cell_length_c   15.58411300
_cell_angle_alpha   90.00000000
_cell_angle_beta   90.00000000
_cell_angle_gamma   89.99413022
_symmetry_Int_Tables_number   1
_chemical_formula_structural   CaTb19Sn16
_chemical_formula_sum   'Ca1 Tb19 Sn16'
_cell_volume   1032.13933468
_cell_formula_units_Z   1
loop_
 _symmetry_equiv_pos_site_id
 _symmetry_equiv_pos_as_xyz
  1  'x, y, z'
loop_
 _atom_site_type_symbol
 _atom_site_label
 _atom_site_symmetry_multiplicity
 _atom_site_fract_x
 _atom_site_fract_y
 _atom_site_fract_z
 _atom_site_occupancy
  Ca  Ca0  1  0.198565  0.502334  0.750000  1
  Tb  Tb1  1  0.367304  0.835226  0.879155  1
  Tb  Tb2  1  0.869221  0.664196  0.620914  1
  Tb  Tb3  1  0.632897  0.163232  0.378315  1
  Tb  Tb4  1  0.132552  0.335420  0.122145  1
  Tb  Tb5  1  0.632897  0.163232  0.121685  1
  Tb  Tb6  1  0.132552  0.335420  0.377855  1
  Tb  Tb7  1  0.367304  0.835226  0.620845  1
  Tb  Tb8  1  0.869221  0.664196  0.879086  1
  Tb  Tb9  1  0.519605  0.319813  0.903372  1
  Tb  Tb10  1  0.020028  0.181423  0.596911  1
  Tb  Tb11  1  0.479649  0.679590  0.401994  1
  Tb  Tb12  1  0.979981  0.819883  0.098198  1
  Tb  Tb13  1  0.479649  0.679590  0.098006  1
  Tb  Tb14  1  0.979981  0.819883  0.401802  1
  Tb  Tb15  1  0.519605  0.319813  0.596628  1
  Tb  Tb16  1  0.020028  0.181423  0.903089  1
  Tb  Tb17  1  0.697933  0.997511  0.750000  1
  Tb  Tb18  1  0.801212  0.497798  0.250000  1
  Tb  Tb19  1  0.301460  0.002512  0.250000  1
  Sn  Sn20  1  0.292165  0.034753  0.042051  1
  Sn  Sn21  1  0.792739  0.464471  0.458056  1
  Sn  Sn22  1  0.707763  0.965509  0.542225  1
  Sn  Sn23  1  0.207637  0.536482  0.960322  1
  Sn  Sn24  1  0.707763  0.965509  0.957775  1
  Sn  Sn25  1  0.207637  0.536482  0.539678  1
  Sn  Sn26  1  0.292165  0.034753  0.457949  1
  Sn  Sn27  1  0.792739  0.464471  0.041944  1
  Sn  Sn28  1  0.567636  0.617692  0.750000  1
  Sn  Sn29  1  0.065915  0.887189  0.750000  1
  Sn  Sn30  1  0.434753  0.381655  0.250000  1
  Sn  Sn31  1  0.934837  0.118297  0.250000  1
  Sn  Sn32  1  0.328630  0.141339  0.750000  1
  Sn  Sn33  1  0.822126  0.354243  0.750000  1
  Sn  Sn34  1  0.671930  0.853627  0.250000  1
  Sn  Sn35  1  0.171924  0.645803  0.250000  1
