# generated using pymatgen
data_Lu4Co16Ge7P5Ru4
_symmetry_space_group_name_H-M   'P 1'
_cell_length_a   3.73012100
_cell_length_b   10.56000413
_cell_length_c   12.00008231
_cell_angle_alpha   90.32801087
_cell_angle_beta   90.00000000
_cell_angle_gamma   90.00000000
_symmetry_Int_Tables_number   1
_chemical_formula_structural   Lu4Co16Ge7P5Ru4
_chemical_formula_sum   'Lu4 Co16 Ge7 P5 Ru4'
_cell_volume   472.67661436
_cell_formula_units_Z   1
loop_
 _symmetry_equiv_pos_site_id
 _symmetry_equiv_pos_as_xyz
  1  'x, y, z'
loop_
 _atom_site_type_symbol
 _atom_site_label
 _atom_site_symmetry_multiplicity
 _atom_site_fract_x
 _atom_site_fract_y
 _atom_site_fract_z
 _atom_site_occupancy
  Lu  Lu0  1  0.250000  0.586027  0.700685  1
  Lu  Lu1  1  0.250000  0.924681  0.198080  1
  Lu  Lu2  1  0.750000  0.424998  0.302123  1
  Lu  Lu3  1  0.750000  0.074426  0.800244  1
  Co  Co4  1  0.250000  0.418514  0.490201  1
  Co  Co5  1  0.250000  0.084262  0.986513  1
  Co  Co6  1  0.750000  0.593805  0.519236  1
  Co  Co7  1  0.750000  0.912192  0.008204  1
  Co  Co8  1  0.250000  0.202194  0.166981  1
  Co  Co9  1  0.250000  0.298081  0.667039  1
  Co  Co10  1  0.750000  0.791734  0.823434  1
  Co  Co11  1  0.750000  0.703043  0.334692  1
  Co  Co12  1  0.250000  0.882663  0.704126  1
  Co  Co13  1  0.250000  0.610946  0.208820  1
  Co  Co14  1  0.750000  0.109996  0.291309  1
  Co  Co15  1  0.750000  0.389563  0.791729  1
  Co  Co16  1  0.250000  0.466545  0.931166  1
  Co  Co17  1  0.250000  0.031863  0.430775  1
  Co  Co18  1  0.750000  0.531356  0.070443  1
  Co  Co19  1  0.750000  0.961539  0.571868  1
  Ge  Ge20  1  0.250000  0.411695  0.117194  1
  Ge  Ge21  1  0.250000  0.087405  0.616132  1
  Ge  Ge22  1  0.750000  0.585810  0.884720  1
  Ge  Ge23  1  0.750000  0.912555  0.383352  1
  Ge  Ge24  1  0.250000  0.266203  0.860525  1
  Ge  Ge25  1  0.250000  0.233046  0.362117  1
  Ge  Ge26  1  0.750000  0.732704  0.138965  1
  P  P27  1  0.750000  0.772336  0.637439  1
  P  P28  1  0.250000  0.598114  0.393478  1
  P  P29  1  0.250000  0.901060  0.890282  1
  P  P30  1  0.750000  0.406518  0.608486  1
  P  P31  1  0.750000  0.095696  0.105458  1
  Ru  Ru32  1  0.250000  0.714470  0.989548  1
  Ru  Ru33  1  0.250000  0.782857  0.497524  1
  Ru  Ru34  1  0.750000  0.283686  0.008061  1
  Ru  Ru35  1  0.750000  0.217419  0.509051  1
