# generated using pymatgen
data_Ba2Os7O18
_symmetry_space_group_name_H-M   'P 1'
_cell_length_a   6.85635360
_cell_length_b   7.36708554
_cell_length_c   7.54962418
_cell_angle_alpha   94.47534468
_cell_angle_beta   92.81789745
_cell_angle_gamma   114.99794559
_symmetry_Int_Tables_number   1
_chemical_formula_structural   Ba2Os7O18
_chemical_formula_sum   'Ba2 Os7 O18'
_cell_volume   343.13832319
_cell_formula_units_Z   1
loop_
 _symmetry_equiv_pos_site_id
 _symmetry_equiv_pos_as_xyz
  1  'x, y, z'
loop_
 _atom_site_type_symbol
 _atom_site_label
 _atom_site_symmetry_multiplicity
 _atom_site_fract_x
 _atom_site_fract_y
 _atom_site_fract_z
 _atom_site_occupancy
  Ba  Ba0  1  0.312979  0.683514  0.618575  1
  Ba  Ba1  1  0.687021  0.316486  0.381425  1
  Os  Os2  1  0.370156  0.280461  0.897712  1
  Os  Os3  1  0.790699  0.142063  0.814680  1
  Os  Os4  1  0.209301  0.857937  0.185320  1
  Os  Os5  1  0.629844  0.719539  0.102288  1
  Os  Os6  1  0.000000  0.000000  0.500000  1
  Os  Os7  1  0.807789  0.632850  0.820359  1
  Os  Os8  1  0.192211  0.367150  0.179641  1
  O  O9  1  0.915961  0.743421  0.598444  1
  O  O10  1  0.289911  0.141575  0.120978  1
  O  O11  1  0.332229  0.533809  0.974973  1
  O  O12  1  0.485501  0.551755  0.295890  1
  O  O13  1  0.508025  0.905597  0.174291  1
  O  O14  1  0.887546  0.413673  0.733730  1
  O  O15  1  0.710089  0.858425  0.879022  1
  O  O16  1  0.922346  0.236184  0.042427  1
  O  O17  1  0.667771  0.466191  0.025027  1
  O  O18  1  0.084039  0.256579  0.401556  1
  O  O19  1  0.086660  0.147211  0.748230  1
  O  O20  1  0.730762  0.018791  0.570476  1
  O  O21  1  0.112454  0.586327  0.266270  1
  O  O22  1  0.913340  0.852789  0.251770  1
  O  O23  1  0.077654  0.763816  0.957573  1
  O  O24  1  0.491975  0.094403  0.825709  1
  O  O25  1  0.269238  0.981209  0.429524  1
  O  O26  1  0.514499  0.448245  0.704110  1
