# generated using pymatgen
data_Nd5Si11GeIr19
_symmetry_space_group_name_H-M   'P 1'
_cell_length_a   12.95352800
_cell_length_b   12.95318948
_cell_length_c   4.03136400
_cell_angle_alpha   90.00000000
_cell_angle_beta   90.00000000
_cell_angle_gamma   119.99913438
_symmetry_Int_Tables_number   1
_chemical_formula_structural   Nd5Si11GeIr19
_chemical_formula_sum   'Nd5 Si11 Ge1 Ir19'
_cell_volume   585.80249862
_cell_formula_units_Z   1
loop_
 _symmetry_equiv_pos_site_id
 _symmetry_equiv_pos_as_xyz
  1  'x, y, z'
loop_
 _atom_site_type_symbol
 _atom_site_label
 _atom_site_symmetry_multiplicity
 _atom_site_fract_x
 _atom_site_fract_y
 _atom_site_fract_z
 _atom_site_occupancy
  Nd  Nd0  1  0.000000  0.813898  0.500000  1
  Nd  Nd1  1  0.187467  0.186455  0.500000  1
  Nd  Nd2  1  0.812533  0.998988  0.500000  1
  Nd  Nd3  1  0.334059  0.667414  0.000000  1
  Nd  Nd4  1  0.665941  0.333354  0.000000  1
  Si  Si5  1  0.815328  0.814521  0.000000  1
  Si  Si6  1  0.184672  0.999193  0.000000  1
  Si  Si7  1  0.520588  0.689180  0.500000  1
  Si  Si8  1  0.311313  0.831547  0.500000  1
  Si  Si9  1  0.169888  0.481279  0.500000  1
  Si  Si10  1  0.479412  0.168592  0.500000  1
  Si  Si11  1  0.688687  0.520234  0.500000  1
  Si  Si12  1  0.830112  0.311391  0.500000  1
  Si  Si13  1  0.000000  0.629592  0.000000  1
  Si  Si14  1  0.370783  0.370997  0.000000  1
  Si  Si15  1  0.629217  0.000214  0.000000  1
  Ge  Ge16  1  0.000000  0.180190  0.000000  1
  Ir  Ir17  1  0.000000  0.289227  0.500000  1
  Ir  Ir18  1  0.714997  0.714956  0.500000  1
  Ir  Ir19  1  0.285003  0.999958  0.500000  1
  Ir  Ir20  1  0.622030  0.804765  0.000000  1
  Ir  Ir21  1  0.195878  0.816982  0.000000  1
  Ir  Ir22  1  0.185126  0.381632  0.000000  1
  Ir  Ir23  1  0.377970  0.182735  0.000000  1
  Ir  Ir24  1  0.804122  0.621104  0.000000  1
  Ir  Ir25  1  0.814874  0.196506  0.000000  1
  Ir  Ir26  1  0.512624  0.874889  0.500000  1
  Ir  Ir27  1  0.125075  0.637915  0.500000  1
  Ir  Ir28  1  0.363602  0.488530  0.500000  1
  Ir  Ir29  1  0.487376  0.362264  0.500000  1
  Ir  Ir30  1  0.874925  0.512839  0.500000  1
  Ir  Ir31  1  0.636398  0.124927  0.500000  1
  Ir  Ir32  1  0.000000  0.993059  0.000000  1
  Ir  Ir33  1  0.000000  0.447293  0.000000  1
  Ir  Ir34  1  0.553253  0.553315  0.000000  1
  Ir  Ir35  1  0.446747  0.000062  0.000000  1
