# generated using pymatgen
data_Lu2Si3Ni
_symmetry_space_group_name_H-M   'P 1'
_cell_length_a   7.91273000
_cell_length_b   7.91272983
_cell_length_c   7.91777700
_cell_angle_alpha   90.00000000
_cell_angle_beta   90.00000000
_cell_angle_gamma   120.00000070
_symmetry_Int_Tables_number   1
_chemical_formula_structural   Lu2Si3Ni
_chemical_formula_sum   'Lu8 Si12 Ni4'
_cell_volume   429.32539595
_cell_formula_units_Z   4
loop_
 _symmetry_equiv_pos_site_id
 _symmetry_equiv_pos_as_xyz
  1  'x, y, z'
loop_
 _atom_site_type_symbol
 _atom_site_label
 _atom_site_symmetry_multiplicity
 _atom_site_fract_x
 _atom_site_fract_y
 _atom_site_fract_z
 _atom_site_occupancy
  Lu  Lu0  1  0.500997  0.001994  0.250000  1
  Lu  Lu1  1  0.499003  0.998006  0.750000  1
  Lu  Lu2  1  0.998006  0.499003  0.250000  1
  Lu  Lu3  1  0.001994  0.500997  0.750000  1
  Lu  Lu4  1  0.500997  0.499003  0.250000  1
  Lu  Lu5  1  0.499003  0.500997  0.750000  1
  Lu  Lu6  1  0.000000  0.000000  0.250000  1
  Lu  Lu7  1  0.000000  0.000000  0.750000  1
  Si  Si8  1  0.170868  0.341736  0.001109  1
  Si  Si9  1  0.829132  0.658264  0.998891  1
  Si  Si10  1  0.658264  0.829132  0.001109  1
  Si  Si11  1  0.829132  0.658264  0.501109  1
  Si  Si12  1  0.341736  0.170868  0.998891  1
  Si  Si13  1  0.170868  0.341736  0.498891  1
  Si  Si14  1  0.170868  0.829132  0.001109  1
  Si  Si15  1  0.341736  0.170868  0.501109  1
  Si  Si16  1  0.829132  0.170868  0.998891  1
  Si  Si17  1  0.658264  0.829132  0.498891  1
  Si  Si18  1  0.829132  0.170868  0.501109  1
  Si  Si19  1  0.170868  0.829132  0.498891  1
  Ni  Ni20  1  0.333333  0.666667  0.002513  1
  Ni  Ni21  1  0.666667  0.333333  0.997487  1
  Ni  Ni22  1  0.666667  0.333333  0.502513  1
  Ni  Ni23  1  0.333333  0.666667  0.497487  1
