# generated using pymatgen
data_Dy20Co3TcBi8
_symmetry_space_group_name_H-M   'P 1'
_cell_length_a   7.98893897
_cell_length_b   8.92163500
_cell_length_c   12.40113800
_cell_angle_alpha   90.00000000
_cell_angle_beta   90.18433494
_cell_angle_gamma   90.00000000
_symmetry_Int_Tables_number   1
_chemical_formula_structural   Dy20Co3TcBi8
_chemical_formula_sum   'Dy20 Co3 Tc1 Bi8'
_cell_volume   883.87906519
_cell_formula_units_Z   1
loop_
 _symmetry_equiv_pos_site_id
 _symmetry_equiv_pos_as_xyz
  1  'x, y, z'
loop_
 _atom_site_type_symbol
 _atom_site_label
 _atom_site_symmetry_multiplicity
 _atom_site_fract_x
 _atom_site_fract_y
 _atom_site_fract_z
 _atom_site_occupancy
  Dy  Dy0  1  0.845641  0.750000  0.798666  1
  Dy  Dy1  1  0.151965  0.250000  0.198369  1
  Dy  Dy2  1  0.347050  0.250000  0.700199  1
  Dy  Dy3  1  0.653339  0.750000  0.294426  1
  Dy  Dy4  1  0.379214  0.750000  0.693863  1
  Dy  Dy5  1  0.618883  0.250000  0.309521  1
  Dy  Dy6  1  0.880818  0.250000  0.810765  1
  Dy  Dy7  1  0.117763  0.750000  0.187517  1
  Dy  Dy8  1  0.948230  0.750000  0.504048  1
  Dy  Dy9  1  0.051909  0.250000  0.496263  1
  Dy  Dy10  1  0.451209  0.250000  0.996904  1
  Dy  Dy11  1  0.549575  0.750000  0.003067  1
  Dy  Dy12  1  0.677511  0.043191  0.564603  1
  Dy  Dy13  1  0.324417  0.966146  0.437282  1
  Dy  Dy14  1  0.175469  0.964887  0.936997  1
  Dy  Dy15  1  0.324417  0.533854  0.437282  1
  Dy  Dy16  1  0.823510  0.036973  0.063257  1
  Dy  Dy17  1  0.677511  0.456809  0.564603  1
  Dy  Dy18  1  0.823510  0.463027  0.063257  1
  Dy  Dy19  1  0.175469  0.535113  0.936997  1
  Co  Co20  1  0.429246  0.250000  0.489644  1
  Co  Co21  1  0.061183  0.250000  0.991554  1
  Co  Co22  1  0.936407  0.750000  0.007290  1
  Tc  Tc23  1  0.575540  0.750000  0.512346  1
  Bi  Bi24  1  0.571085  0.492046  0.827071  1
  Bi  Bi25  1  0.427811  0.507482  0.173043  1
  Bi  Bi26  1  0.071930  0.507609  0.674055  1
  Bi  Bi27  1  0.427811  0.992518  0.173043  1
  Bi  Bi28  1  0.929281  0.492089  0.326471  1
  Bi  Bi29  1  0.571085  0.007954  0.827071  1
  Bi  Bi30  1  0.929281  0.007911  0.326471  1
  Bi  Bi31  1  0.071930  0.992391  0.674055  1
