# generated using pymatgen
data_Er2NbIr3
_symmetry_space_group_name_H-M   'P 1'
_cell_length_a   5.25442654
_cell_length_b   5.25442620
_cell_length_c   5.25442624
_cell_angle_alpha   64.59533022
_cell_angle_beta   64.59533313
_cell_angle_gamma   64.59533731
_symmetry_Int_Tables_number   1
_chemical_formula_structural   Er2NbIr3
_chemical_formula_sum   'Er2 Nb1 Ir3'
_cell_volume   112.90945155
_cell_formula_units_Z   1
loop_
 _symmetry_equiv_pos_site_id
 _symmetry_equiv_pos_as_xyz
  1  'x, y, z'
loop_
 _atom_site_type_symbol
 _atom_site_label
 _atom_site_symmetry_multiplicity
 _atom_site_fract_x
 _atom_site_fract_y
 _atom_site_fract_z
 _atom_site_occupancy
  Er  Er0  1  0.251755  0.251755  0.251755  1
  Er  Er1  1  0.998245  0.998245  0.998245  1
  Nb  Nb2  1  0.625000  0.625000  0.625000  1
  Ir  Ir3  1  0.625000  0.125000  0.625000  1
  Ir  Ir4  1  0.625000  0.625000  0.125000  1
  Ir  Ir5  1  0.125000  0.625000  0.625000  1
