# generated using pymatgen
data_Ho13Tm3In4RuRh3
_symmetry_space_group_name_H-M   'P 1'
_cell_length_a   9.61088161
_cell_length_b   9.61648969
_cell_length_c   9.61907693
_cell_angle_alpha   59.90858880
_cell_angle_beta   59.94572366
_cell_angle_gamma   59.89820640
_symmetry_Int_Tables_number   1
_chemical_formula_structural   Ho13Tm3In4RuRh3
_chemical_formula_sum   'Ho13 Tm3 In4 Ru1 Rh3'
_cell_volume   627.45787279
_cell_formula_units_Z   1
loop_
 _symmetry_equiv_pos_site_id
 _symmetry_equiv_pos_as_xyz
  1  'x, y, z'
loop_
 _atom_site_type_symbol
 _atom_site_label
 _atom_site_symmetry_multiplicity
 _atom_site_fract_x
 _atom_site_fract_y
 _atom_site_fract_z
 _atom_site_occupancy
  Ho  Ho0  1  0.060161  0.059871  0.437622  1
  Ho  Ho1  1  0.441925  0.059821  0.437570  1
  Ho  Ho2  1  0.061744  0.438650  0.060916  1
  Ho  Ho3  1  0.047818  0.650659  0.649490  1
  Ho  Ho4  1  0.438396  0.438863  0.060733  1
  Ho  Ho5  1  0.650555  0.047577  0.649618  1
  Ho  Ho6  1  0.188695  0.809849  0.192112  1
  Ho  Ho7  1  0.190688  0.190278  0.809590  1
  Ho  Ho8  1  0.809649  0.809307  0.193155  1
  Ho  Ho9  1  0.438241  0.061677  0.061273  1
  Ho  Ho10  1  0.809853  0.188715  0.192499  1
  Ho  Ho11  1  0.060067  0.442076  0.437377  1
  Ho  Ho12  1  0.809666  0.191348  0.809130  1
  Tm  Tm13  1  0.191592  0.809414  0.809120  1
  Tm  Tm14  1  0.650126  0.650289  0.048314  1
  Tm  Tm15  1  0.651516  0.651894  0.650279  1
  In  In16  1  0.416955  0.417185  0.416959  1
  In  In17  1  0.749320  0.417098  0.416712  1
  In  In18  1  0.417040  0.749331  0.416813  1
  In  In19  1  0.417597  0.417678  0.747679  1
  Ru  Ru20  1  0.857475  0.857743  0.425787  1
  Rh  Rh21  1  0.858673  0.857881  0.859721  1
  Rh  Rh22  1  0.425017  0.857230  0.858723  1
  Rh  Rh23  1  0.857233  0.425569  0.858809  1
