# generated using pymatgen
data_Er3Tm(Ga2Ag)4
_symmetry_space_group_name_H-M   'P 1'
_cell_length_a   4.36393800
_cell_length_b   6.91567059
_cell_length_c   10.22553491
_cell_angle_alpha   90.02700112
_cell_angle_beta   90.00000000
_cell_angle_gamma   90.00000000
_symmetry_Int_Tables_number   1
_chemical_formula_structural   Er3Tm(Ga2Ag)4
_chemical_formula_sum   'Er3 Tm1 Ga8 Ag4'
_cell_volume   308.60208623
_cell_formula_units_Z   1
loop_
 _symmetry_equiv_pos_site_id
 _symmetry_equiv_pos_as_xyz
  1  'x, y, z'
loop_
 _atom_site_type_symbol
 _atom_site_label
 _atom_site_symmetry_multiplicity
 _atom_site_fract_x
 _atom_site_fract_y
 _atom_site_fract_z
 _atom_site_occupancy
  Er  Er0  1  0.250000  0.277877  0.675457  1
  Er  Er1  1  0.750000  0.222052  0.175057  1
  Er  Er2  1  0.750000  0.722315  0.325093  1
  Tm  Tm3  1  0.250000  0.777795  0.824952  1
  Ga  Ga4  1  0.250000  0.701652  0.536513  1
  Ga  Ga5  1  0.750000  0.299906  0.463713  1
  Ga  Ga6  1  0.750000  0.798405  0.036288  1
  Ga  Ga7  1  0.250000  0.199431  0.964025  1
  Ga  Ga8  1  0.250000  0.929438  0.155211  1
  Ga  Ga9  1  0.750000  0.068930  0.845552  1
  Ga  Ga10  1  0.750000  0.570575  0.654811  1
  Ga  Ga11  1  0.250000  0.430550  0.344841  1
  Ag  Ag12  1  0.250000  0.544882  0.095361  1
  Ag  Ag13  1  0.750000  0.454877  0.902963  1
  Ag  Ag14  1  0.750000  0.955541  0.596447  1
  Ag  Ag15  1  0.250000  0.045773  0.403715  1
