# generated using pymatgen
data_Pr8Lu12Si13Ir3
_symmetry_space_group_name_H-M   'P 1'
_cell_length_a   7.39261996
_cell_length_b   7.74557503
_cell_length_c   14.67218564
_cell_angle_alpha   90.09559437
_cell_angle_beta   89.92009720
_cell_angle_gamma   90.40286007
_symmetry_Int_Tables_number   1
_chemical_formula_structural   Pr8Lu12Si13Ir3
_chemical_formula_sum   'Pr8 Lu12 Si13 Ir3'
_cell_volume   840.10796842
_cell_formula_units_Z   1
loop_
 _symmetry_equiv_pos_site_id
 _symmetry_equiv_pos_as_xyz
  1  'x, y, z'
loop_
 _atom_site_type_symbol
 _atom_site_label
 _atom_site_symmetry_multiplicity
 _atom_site_fract_x
 _atom_site_fract_y
 _atom_site_fract_z
 _atom_site_occupancy
  Pr  Pr0  1  0.017111  0.184876  0.403339  1
  Pr  Pr1  1  0.509685  0.328763  0.404895  1
  Pr  Pr2  1  0.477958  0.682187  0.900989  1
  Pr  Pr3  1  0.481734  0.673817  0.597103  1
  Pr  Pr4  1  0.988929  0.820322  0.592711  1
  Pr  Pr5  1  0.984084  0.821918  0.902516  1
  Pr  Pr6  1  0.513881  0.324929  0.096494  1
  Pr  Pr7  1  0.016782  0.174128  0.096687  1
  Lu  Lu8  1  0.318392  0.186872  0.622225  1
  Lu  Lu9  1  0.668546  0.819710  0.374715  1
  Lu  Lu10  1  0.642943  0.984088  0.745816  1
  Lu  Lu11  1  0.181221  0.667946  0.376646  1
  Lu  Lu12  1  0.828952  0.319521  0.876976  1
  Lu  Lu13  1  0.834456  0.327462  0.622833  1
  Lu  Lu14  1  0.830570  0.498898  0.251594  1
  Lu  Lu15  1  0.351154  0.998267  0.251054  1
  Lu  Lu16  1  0.319567  0.172355  0.875162  1
  Lu  Lu17  1  0.185782  0.672897  0.126297  1
  Lu  Lu18  1  0.669840  0.817392  0.125901  1
  Lu  Lu19  1  0.166033  0.519731  0.743699  1
  Si  Si20  1  0.026356  0.109123  0.750140  1
  Si  Si21  1  0.538975  0.381815  0.754076  1
  Si  Si22  1  0.973368  0.891669  0.250604  1
  Si  Si23  1  0.728643  0.119569  0.249305  1
  Si  Si24  1  0.854270  0.530126  0.040671  1
  Si  Si25  1  0.351223  0.972831  0.039588  1
  Si  Si26  1  0.149922  0.465432  0.962745  1
  Si  Si27  1  0.648388  0.038272  0.538206  1
  Si  Si28  1  0.351456  0.973246  0.461897  1
  Si  Si29  1  0.845771  0.531889  0.459640  1
  Si  Si30  1  0.775431  0.610866  0.752527  1
  Si  Si31  1  0.223006  0.372196  0.248294  1
  Si  Si32  1  0.650862  0.035497  0.962845  1
  Ir  Ir33  1  0.276979  0.883582  0.751269  1
  Ir  Ir34  1  0.467916  0.616675  0.249124  1
  Ir  Ir35  1  0.149813  0.471134  0.541414  1
