# generated using pymatgen
data_DyErGa2IrPt
_symmetry_space_group_name_H-M   'P 1'
_cell_length_a   4.41215700
_cell_length_b   6.79342500
_cell_length_c   7.70525700
_cell_angle_alpha   90.00000000
_cell_angle_beta   90.00000000
_cell_angle_gamma   90.00000000
_symmetry_Int_Tables_number   1
_chemical_formula_structural   DyErGa2IrPt
_chemical_formula_sum   'Dy2 Er2 Ga4 Ir2 Pt2'
_cell_volume   230.95473556
_cell_formula_units_Z   2
loop_
 _symmetry_equiv_pos_site_id
 _symmetry_equiv_pos_as_xyz
  1  'x, y, z'
loop_
 _atom_site_type_symbol
 _atom_site_label
 _atom_site_symmetry_multiplicity
 _atom_site_fract_x
 _atom_site_fract_y
 _atom_site_fract_z
 _atom_site_occupancy
  Dy  Dy0  1  0.750000  0.021194  0.689540  1
  Dy  Dy1  1  0.750000  0.521194  0.810460  1
  Er  Er2  1  0.250000  0.985055  0.303955  1
  Er  Er3  1  0.250000  0.485055  0.196045  1
  Ga  Ga4  1  0.250000  0.332693  0.568323  1
  Ga  Ga5  1  0.250000  0.832693  0.931677  1
  Ga  Ga6  1  0.750000  0.661883  0.425185  1
  Ga  Ga7  1  0.750000  0.161883  0.074815  1
  Ir  Ir8  1  0.750000  0.771542  0.104952  1
  Ir  Ir9  1  0.750000  0.271542  0.395048  1
  Pt  Pt10  1  0.250000  0.227634  0.896375  1
  Pt  Pt11  1  0.250000  0.727634  0.603625  1
