# generated using pymatgen
data_Tb16CdHg3Ir3Pd
_symmetry_space_group_name_H-M   'P 1'
_cell_length_a   9.63464457
_cell_length_b   9.64133008
_cell_length_c   9.64132920
_cell_angle_alpha   60.38886458
_cell_angle_beta   60.38377963
_cell_angle_gamma   60.38378409
_symmetry_Int_Tables_number   1
_chemical_formula_structural   Tb16CdHg3Ir3Pd
_chemical_formula_sum   'Tb16 Cd1 Hg3 Ir3 Pd1'
_cell_volume   638.79928705
_cell_formula_units_Z   1
loop_
 _symmetry_equiv_pos_site_id
 _symmetry_equiv_pos_as_xyz
  1  'x, y, z'
loop_
 _atom_site_type_symbol
 _atom_site_label
 _atom_site_symmetry_multiplicity
 _atom_site_fract_x
 _atom_site_fract_y
 _atom_site_fract_z
 _atom_site_occupancy
  Tb  Tb0  1  0.598188  0.597871  0.597871  1
  Tb  Tb1  1  0.605515  0.604721  0.193842  1
  Tb  Tb2  1  0.605515  0.193842  0.604721  1
  Tb  Tb3  1  0.191417  0.605736  0.605736  1
  Tb  Tb4  1  0.053783  0.441331  0.441331  1
  Tb  Tb5  1  0.437902  0.060414  0.060414  1
  Tb  Tb6  1  0.439990  0.054606  0.440974  1
  Tb  Tb7  1  0.059707  0.438976  0.059797  1
  Tb  Tb8  1  0.439990  0.440974  0.054606  1
  Tb  Tb9  1  0.059707  0.059797  0.438976  1
  Tb  Tb10  1  0.188099  0.813047  0.813047  1
  Tb  Tb11  1  0.813941  0.187781  0.187781  1
  Tb  Tb12  1  0.812147  0.189417  0.812916  1
  Tb  Tb13  1  0.186748  0.814431  0.188322  1
  Tb  Tb14  1  0.812147  0.812916  0.189417  1
  Tb  Tb15  1  0.186748  0.188322  0.814431  1
  Cd  Cd16  1  0.508147  0.829920  0.829920  1
  Hg  Hg17  1  0.833824  0.835819  0.835819  1
  Hg  Hg18  1  0.833439  0.835756  0.493854  1
  Hg  Hg19  1  0.833439  0.493854  0.835756  1
  Ir  Ir20  1  0.391620  0.392058  0.822980  1
  Ir  Ir21  1  0.391620  0.822980  0.392058  1
  Ir  Ir22  1  0.823207  0.391948  0.391948  1
  Pd  Pd23  1  0.393161  0.393484  0.393484  1
