# generated using pymatgen
data_La3Ga4Se
_symmetry_space_group_name_H-M   'P 1'
_cell_length_a   8.25084335
_cell_length_b   8.25084268
_cell_length_c   8.25084292
_cell_angle_alpha   119.89171213
_cell_angle_beta   119.89171019
_cell_angle_gamma   90.18766131
_symmetry_Int_Tables_number   1
_chemical_formula_structural   La3Ga4Se
_chemical_formula_sum   'La6 Ga8 Se2'
_cell_volume   397.82101726
_cell_formula_units_Z   2
loop_
 _symmetry_equiv_pos_site_id
 _symmetry_equiv_pos_as_xyz
  1  'x, y, z'
loop_
 _atom_site_type_symbol
 _atom_site_label
 _atom_site_symmetry_multiplicity
 _atom_site_fract_x
 _atom_site_fract_y
 _atom_site_fract_z
 _atom_site_occupancy
  La  La0  1  0.663049  0.163049  0.826097  1
  La  La1  1  0.163049  0.336951  0.500000  1
  La  La2  1  0.836951  0.663049  0.500000  1
  La  La3  1  0.750000  0.750000  0.000000  1
  La  La4  1  0.336951  0.836951  0.173903  1
  La  La5  1  0.250000  0.250000  0.000000  1
  Ga  Ga6  1  0.941869  0.441869  0.783948  1
  Ga  Ga7  1  0.842079  0.058131  0.500000  1
  Ga  Ga8  1  0.342079  0.842079  0.783948  1
  Ga  Ga9  1  0.441869  0.657921  0.500000  1
  Ga  Ga10  1  0.558131  0.342079  0.500000  1
  Ga  Ga11  1  0.058131  0.558131  0.216052  1
  Ga  Ga12  1  0.157921  0.941869  0.500000  1
  Ga  Ga13  1  0.657921  0.157921  0.216052  1
  Se  Se14  1  0.500000  0.500000  0.000000  1
  Se  Se15  1  0.000000  0.000000  0.000000  1
