# generated using pymatgen
data_SrMn2Ni(P2O7)2
_symmetry_space_group_name_H-M   'P 1'
_cell_length_a   7.86770800
_cell_length_b   7.71993441
_cell_length_c   9.67709938
_cell_angle_alpha   67.95724703
_cell_angle_beta   90.00000000
_cell_angle_gamma   90.00000000
_symmetry_Int_Tables_number   1
_chemical_formula_structural   SrMn2Ni(P2O7)2
_chemical_formula_sum   'Sr2 Mn4 Ni2 P8 O28'
_cell_volume   544.80594155
_cell_formula_units_Z   2
loop_
 _symmetry_equiv_pos_site_id
 _symmetry_equiv_pos_as_xyz
  1  'x, y, z'
loop_
 _atom_site_type_symbol
 _atom_site_label
 _atom_site_symmetry_multiplicity
 _atom_site_fract_x
 _atom_site_fract_y
 _atom_site_fract_z
 _atom_site_occupancy
  Sr  Sr0  1  0.500000  0.500000  0.500000  1
  Sr  Sr1  1  0.000000  0.500000  0.000000  1
  Mn  Mn2  1  0.125183  0.809254  0.532427  1
  Mn  Mn3  1  0.625183  0.190746  0.967573  1
  Mn  Mn4  1  0.874817  0.190746  0.467573  1
  Mn  Mn5  1  0.374817  0.809254  0.032427  1
  Ni  Ni6  1  0.500000  0.000000  0.500000  1
  Ni  Ni7  1  0.000000  0.000000  0.000000  1
  P  P8  1  0.943401  0.390690  0.706086  1
  P  P9  1  0.443401  0.609310  0.793914  1
  P  P10  1  0.056599  0.609310  0.293914  1
  P  P11  1  0.556599  0.390690  0.206086  1
  P  P12  1  0.202044  0.115066  0.693462  1
  P  P13  1  0.702044  0.884934  0.806538  1
  P  P14  1  0.797956  0.884934  0.306538  1
  P  P15  1  0.297956  0.115066  0.193462  1
  O  O16  1  0.372870  0.157536  0.612952  1
  O  O17  1  0.872870  0.842464  0.887048  1
  O  O18  1  0.627130  0.842464  0.387048  1
  O  O19  1  0.127130  0.157536  0.112952  1
  O  O20  1  0.392339  0.737557  0.631447  1
  O  O21  1  0.892339  0.262443  0.868553  1
  O  O22  1  0.607661  0.262443  0.368553  1
  O  O23  1  0.107661  0.737557  0.131447  1
  O  O24  1  0.816570  0.375970  0.592153  1
  O  O25  1  0.316570  0.624030  0.907847  1
  O  O26  1  0.183430  0.624030  0.407847  1
  O  O27  1  0.683430  0.375970  0.092153  1
  O  O28  1  0.126636  0.319238  0.672861  1
  O  O29  1  0.626636  0.680762  0.827139  1
  O  O30  1  0.873364  0.680762  0.327139  1
  O  O31  1  0.373364  0.319238  0.172861  1
  O  O32  1  0.518038  0.586408  0.202509  1
  O  O33  1  0.018038  0.413592  0.297491  1
  O  O34  1  0.481962  0.413592  0.797491  1
  O  O35  1  0.981962  0.586408  0.702509  1
  O  O36  1  0.793963  0.990603  0.136787  1
  O  O37  1  0.293963  0.009397  0.363213  1
  O  O38  1  0.206037  0.009397  0.863213  1
  O  O39  1  0.706037  0.990603  0.636787  1
  O  O40  1  0.423353  0.029919  0.115090  1
  O  O41  1  0.923353  0.970081  0.384910  1
  O  O42  1  0.576647  0.970081  0.884910  1
  O  O43  1  0.076647  0.029919  0.615090  1
