# generated using pymatgen
data_Hf8In4FeCu5Ni2
_symmetry_space_group_name_H-M   'P 1'
_cell_length_a   7.17360358
_cell_length_b   7.19387420
_cell_length_c   6.76564676
_cell_angle_alpha   89.88267917
_cell_angle_beta   90.10347549
_cell_angle_gamma   89.71620787
_symmetry_Int_Tables_number   1
_chemical_formula_structural   Hf8In4FeCu5Ni2
_chemical_formula_sum   'Hf8 In4 Fe1 Cu5 Ni2'
_cell_volume   349.14238741
_cell_formula_units_Z   1
loop_
 _symmetry_equiv_pos_site_id
 _symmetry_equiv_pos_as_xyz
  1  'x, y, z'
loop_
 _atom_site_type_symbol
 _atom_site_label
 _atom_site_symmetry_multiplicity
 _atom_site_fract_x
 _atom_site_fract_y
 _atom_site_fract_z
 _atom_site_occupancy
  Hf  Hf0  1  0.184745  0.178207  0.985400  1
  Hf  Hf1  1  0.828038  0.820022  0.988568  1
  Hf  Hf2  1  0.306217  0.687541  0.510447  1
  Hf  Hf3  1  0.684980  0.307818  0.508853  1
  Hf  Hf4  1  0.645515  0.346718  0.994143  1
  Hf  Hf5  1  0.337006  0.655732  0.987588  1
  Hf  Hf6  1  0.857856  0.849690  0.514203  1
  Hf  Hf7  1  0.157252  0.148210  0.518786  1
  In  In8  1  0.502615  0.996565  0.249377  1
  In  In9  1  0.997602  0.497486  0.249651  1
  In  In10  1  0.999062  0.498347  0.752147  1
  In  In11  1  0.501285  0.998085  0.752515  1
  Fe  Fe12  1  0.124739  0.874885  0.769843  1
  Cu  Cu13  1  0.374031  0.376024  0.291285  1
  Cu  Cu14  1  0.624066  0.625007  0.289027  1
  Cu  Cu15  1  0.126654  0.877766  0.212267  1
  Cu  Cu16  1  0.876692  0.126904  0.211126  1
  Cu  Cu17  1  0.625205  0.624842  0.708689  1
  Ni  Ni18  1  0.378549  0.376914  0.716563  1
  Ni  Ni19  1  0.867890  0.133235  0.789520  1
