# generated using pymatgen
data_Dy8Ho2Sn3Pb5
_symmetry_space_group_name_H-M   'P 1'
_cell_length_a   8.14694300
_cell_length_b   15.59487100
_cell_length_c   8.22598800
_cell_angle_alpha   90.00000000
_cell_angle_beta   90.00000000
_cell_angle_gamma   90.00000000
_symmetry_Int_Tables_number   1
_chemical_formula_structural   Dy8Ho2Sn3Pb5
_chemical_formula_sum   'Dy16 Ho4 Sn6 Pb10'
_cell_volume   1045.11609511
_cell_formula_units_Z   2
loop_
 _symmetry_equiv_pos_site_id
 _symmetry_equiv_pos_as_xyz
  1  'x, y, z'
loop_
 _atom_site_type_symbol
 _atom_site_label
 _atom_site_symmetry_multiplicity
 _atom_site_fract_x
 _atom_site_fract_y
 _atom_site_fract_z
 _atom_site_occupancy
  Dy  Dy0  1  0.622167  0.623104  0.160008  1
  Dy  Dy1  1  0.122167  0.876896  0.339992  1
  Dy  Dy2  1  0.377639  0.122098  0.838617  1
  Dy  Dy3  1  0.877639  0.377902  0.661383  1
  Dy  Dy4  1  0.377639  0.377902  0.838617  1
  Dy  Dy5  1  0.877639  0.122098  0.661383  1
  Dy  Dy6  1  0.622167  0.876896  0.160008  1
  Dy  Dy7  1  0.122167  0.623104  0.339992  1
  Dy  Dy8  1  0.465463  0.603402  0.676426  1
  Dy  Dy9  1  0.965463  0.896598  0.823574  1
  Dy  Dy10  1  0.534197  0.100448  0.325205  1
  Dy  Dy11  1  0.034197  0.399552  0.174795  1
  Dy  Dy12  1  0.534197  0.399552  0.325205  1
  Dy  Dy13  1  0.034197  0.100448  0.174795  1
  Dy  Dy14  1  0.465463  0.896598  0.676426  1
  Dy  Dy15  1  0.965463  0.603402  0.823574  1
  Ho  Ho16  1  0.790385  0.750000  0.496786  1
  Ho  Ho17  1  0.290385  0.750000  0.003214  1
  Ho  Ho18  1  0.210105  0.250000  0.506958  1
  Ho  Ho19  1  0.710105  0.250000  0.993042  1
  Sn  Sn20  1  0.425635  0.750000  0.376463  1
  Sn  Sn21  1  0.925635  0.750000  0.123537  1
  Sn  Sn22  1  0.573762  0.250000  0.624653  1
  Sn  Sn23  1  0.073762  0.250000  0.875347  1
  Sn  Sn24  1  0.657584  0.750000  0.851380  1
  Sn  Sn25  1  0.157584  0.750000  0.648620  1
  Pb  Pb26  1  0.717887  0.458039  0.966763  1
  Pb  Pb27  1  0.217887  0.041961  0.533237  1
  Pb  Pb28  1  0.281933  0.957840  0.033535  1
  Pb  Pb29  1  0.781933  0.542160  0.466465  1
  Pb  Pb30  1  0.281933  0.542160  0.033535  1
  Pb  Pb31  1  0.781933  0.957840  0.466465  1
  Pb  Pb32  1  0.717887  0.041961  0.966763  1
  Pb  Pb33  1  0.217887  0.458039  0.533237  1
  Pb  Pb34  1  0.343955  0.250000  0.151265  1
  Pb  Pb35  1  0.843955  0.250000  0.348735  1
