# generated using pymatgen
data_Tm7LuCd2IrRu
_symmetry_space_group_name_H-M   'P 1'
_cell_length_a   9.49954216
_cell_length_b   9.49954176
_cell_length_c   9.53366700
_cell_angle_alpha   59.88109970
_cell_angle_beta   59.88110111
_cell_angle_gamma   59.71762370
_symmetry_Int_Tables_number   1
_chemical_formula_structural   Tm7LuCd2IrRu
_chemical_formula_sum   'Tm14 Lu2 Cd4 Ir2 Ru2'
_cell_volume   605.94807415
_cell_formula_units_Z   2
loop_
 _symmetry_equiv_pos_site_id
 _symmetry_equiv_pos_as_xyz
  1  'x, y, z'
loop_
 _atom_site_type_symbol
 _atom_site_label
 _atom_site_symmetry_multiplicity
 _atom_site_fract_x
 _atom_site_fract_y
 _atom_site_fract_z
 _atom_site_occupancy
  Tm  Tm0  1  0.596998  0.208276  0.597363  1
  Tm  Tm1  1  0.208276  0.596998  0.597363  1
  Tm  Tm2  1  0.061727  0.438224  0.440057  1
  Tm  Tm3  1  0.438224  0.061727  0.059992  1
  Tm  Tm4  1  0.438224  0.061727  0.440057  1
  Tm  Tm5  1  0.061727  0.438224  0.059992  1
  Tm  Tm6  1  0.438359  0.438359  0.061641  1
  Tm  Tm7  1  0.059544  0.059544  0.440456  1
  Tm  Tm8  1  0.188491  0.810004  0.812863  1
  Tm  Tm9  1  0.810004  0.188491  0.188643  1
  Tm  Tm10  1  0.810004  0.188491  0.812863  1
  Tm  Tm11  1  0.188491  0.810004  0.188643  1
  Tm  Tm12  1  0.811099  0.811099  0.188901  1
  Tm  Tm13  1  0.188210  0.188210  0.811790  1
  Lu  Lu14  1  0.598203  0.598203  0.597955  1
  Lu  Lu15  1  0.598203  0.598203  0.205640  1
  Cd  Cd16  1  0.830428  0.830428  0.830798  1
  Cd  Cd17  1  0.830428  0.830428  0.508345  1
  Cd  Cd18  1  0.830714  0.507280  0.831002  1
  Cd  Cd19  1  0.507280  0.830714  0.831002  1
  Ir  Ir20  1  0.394440  0.825883  0.389838  1
  Ir  Ir21  1  0.825883  0.394440  0.389838  1
  Ru  Ru22  1  0.392521  0.392521  0.387431  1
  Ru  Ru23  1  0.392521  0.392521  0.827527  1
