# generated using pymatgen
data_Sn4Hg(PO4)6
_symmetry_space_group_name_H-M   'P 1'
_cell_length_a   8.51764298
_cell_length_b   8.51808320
_cell_length_c   9.09760219
_cell_angle_alpha   62.09010199
_cell_angle_beta   117.91054530
_cell_angle_gamma   119.99602398
_symmetry_Int_Tables_number   1
_chemical_formula_structural   Sn4Hg(PO4)6
_chemical_formula_sum   'Sn4 Hg1 P6 O24'
_cell_volume   480.95674286
_cell_formula_units_Z   1
loop_
 _symmetry_equiv_pos_site_id
 _symmetry_equiv_pos_as_xyz
  1  'x, y, z'
loop_
 _atom_site_type_symbol
 _atom_site_label
 _atom_site_symmetry_multiplicity
 _atom_site_fract_x
 _atom_site_fract_y
 _atom_site_fract_z
 _atom_site_occupancy
  Sn  Sn0  1  0.351765  0.648242  0.055431  1
  Sn  Sn1  1  0.147604  0.852404  0.442787  1
  Sn  Sn2  1  0.852396  0.147596  0.557213  1
  Sn  Sn3  1  0.648235  0.351758  0.944569  1
  Hg  Hg4  1  0.000000  0.000000  0.000000  1
  P  P5  1  0.034926  0.248858  0.244609  1
  P  P6  1  0.458567  0.965160  0.244562  1
  P  P7  1  0.751106  0.541445  0.244559  1
  P  P8  1  0.248894  0.458554  0.755441  1
  P  P9  1  0.541433  0.034840  0.755438  1
  P  P10  1  0.965074  0.751142  0.755390  1
  O  O11  1  0.473407  0.158336  0.099574  1
  O  O12  1  0.784438  0.526606  0.099534  1
  O  O13  1  0.841746  0.215515  0.099591  1
  O  O14  1  0.483438  0.823791  0.205525  1
  O  O15  1  0.545857  0.516640  0.205567  1
  O  O16  1  0.176289  0.454104  0.205583  1
  O  O17  1  0.251907  0.884767  0.257302  1
  O  O18  1  0.890175  0.748096  0.257306  1
  O  O19  1  0.115249  0.109812  0.257321  1
  O  O20  1  0.804861  0.396265  0.423180  1
  O  O21  1  0.014630  0.195137  0.423216  1
  O  O22  1  0.603767  0.985405  0.423182  1
  O  O23  1  0.396233  0.014595  0.576817  1
  O  O24  1  0.985370  0.804863  0.576783  1
  O  O25  1  0.195140  0.603735  0.576821  1
  O  O26  1  0.884751  0.890189  0.742679  1
  O  O27  1  0.109825  0.251904  0.742693  1
  O  O28  1  0.748093  0.115232  0.742698  1
  O  O29  1  0.823710  0.545896  0.794417  1
  O  O30  1  0.454143  0.483361  0.794433  1
  O  O31  1  0.516562  0.176210  0.794475  1
  O  O32  1  0.158254  0.784485  0.900409  1
  O  O33  1  0.215561  0.473394  0.900465  1
  O  O34  1  0.526593  0.841664  0.900426  1
