# generated using pymatgen
data_SmBi(TeO4)2
_symmetry_space_group_name_H-M   'P 1'
_cell_length_a   7.07433441
_cell_length_b   7.07433414
_cell_length_c   10.33914447
_cell_angle_alpha   66.61641339
_cell_angle_beta   66.61641275
_cell_angle_gamma   47.10471649
_symmetry_Int_Tables_number   1
_chemical_formula_structural   SmBi(TeO4)2
_chemical_formula_sum   'Sm2 Bi2 Te4 O16'
_cell_volume   341.70221665
_cell_formula_units_Z   2
loop_
 _symmetry_equiv_pos_site_id
 _symmetry_equiv_pos_as_xyz
  1  'x, y, z'
loop_
 _atom_site_type_symbol
 _atom_site_label
 _atom_site_symmetry_multiplicity
 _atom_site_fract_x
 _atom_site_fract_y
 _atom_site_fract_z
 _atom_site_occupancy
  Sm  Sm0  1  0.056135  0.943865  0.500000  1
  Sm  Sm1  1  0.947556  0.052444  0.000000  1
  Bi  Bi2  1  0.674686  0.773876  0.901521  1
  Bi  Bi3  1  0.226124  0.325314  0.098479  1
  Te  Te4  1  0.506252  0.499669  0.749069  1
  Te  Te5  1  0.500331  0.493748  0.250931  1
  Te  Te6  1  0.362576  0.191030  0.625446  1
  Te  Te7  1  0.808970  0.637424  0.374554  1
  O  O8  1  0.792859  0.349855  0.590903  1
  O  O9  1  0.650145  0.207141  0.409097  1
  O  O10  1  0.198256  0.653399  0.903162  1
  O  O11  1  0.346601  0.801744  0.096838  1
  O  O12  1  0.722163  0.478835  0.834876  1
  O  O13  1  0.521165  0.277837  0.165124  1
  O  O14  1  0.290469  0.497872  0.663019  1
  O  O15  1  0.502128  0.709531  0.336981  1
  O  O16  1  0.910650  0.720708  0.161968  1
  O  O17  1  0.279292  0.089350  0.838032  1
  O  O18  1  0.077571  0.281061  0.346596  1
  O  O19  1  0.718939  0.922429  0.653404  1
  O  O20  1  0.152630  0.647734  0.370614  1
  O  O21  1  0.352266  0.847370  0.629386  1
  O  O22  1  0.843816  0.361782  0.123175  1
  O  O23  1  0.638218  0.156184  0.876825  1
