# generated using pymatgen
data_Sc8Be5Si11Tc12
_symmetry_space_group_name_H-M   'P 1'
_cell_length_a   6.46348946
_cell_length_b   6.56119197
_cell_length_c   12.32599438
_cell_angle_alpha   89.93821455
_cell_angle_beta   90.07656461
_cell_angle_gamma   90.06269878
_symmetry_Int_Tables_number   1
_chemical_formula_structural   Sc8Be5Si11Tc12
_chemical_formula_sum   'Sc8 Be5 Si11 Tc12'
_cell_volume   522.72209219
_cell_formula_units_Z   1
loop_
 _symmetry_equiv_pos_site_id
 _symmetry_equiv_pos_as_xyz
  1  'x, y, z'
loop_
 _atom_site_type_symbol
 _atom_site_label
 _atom_site_symmetry_multiplicity
 _atom_site_fract_x
 _atom_site_fract_y
 _atom_site_fract_z
 _atom_site_occupancy
  Sc  Sc0  1  0.493424  0.337147  0.096007  1
  Sc  Sc1  1  0.990737  0.157941  0.407714  1
  Sc  Sc2  1  0.510259  0.666650  0.593477  1
  Sc  Sc3  1  0.005967  0.837340  0.903354  1
  Sc  Sc4  1  0.507430  0.662695  0.903334  1
  Sc  Sc5  1  0.999161  0.845211  0.593449  1
  Sc  Sc6  1  0.495437  0.334874  0.408213  1
  Sc  Sc7  1  0.993190  0.162467  0.095526  1
  Be  Be8  1  0.653944  0.042358  0.546819  1
  Be  Be9  1  0.533004  0.360649  0.748197  1
  Be  Be10  1  0.032983  0.140393  0.749160  1
  Be  Be11  1  0.467621  0.637611  0.250579  1
  Be  Be12  1  0.967425  0.860269  0.249932  1
  Si  Si13  1  0.161536  0.456197  0.953069  1
  Si  Si14  1  0.338795  0.955931  0.046887  1
  Si  Si15  1  0.838748  0.542790  0.454289  1
  Si  Si16  1  0.350094  0.958427  0.455839  1
  Si  Si17  1  0.838670  0.544459  0.047108  1
  Si  Si18  1  0.661466  0.043465  0.951542  1
  Si  Si19  1  0.160169  0.458482  0.548364  1
  Si  Si20  1  0.801553  0.633813  0.747229  1
  Si  Si21  1  0.300737  0.866246  0.747599  1
  Si  Si22  1  0.198934  0.364992  0.252559  1
  Si  Si23  1  0.699088  0.133841  0.251613  1
  Tc  Tc24  1  0.824851  0.334011  0.624199  1
  Tc  Tc25  1  0.328212  0.159668  0.875903  1
  Tc  Tc26  1  0.172695  0.658603  0.124500  1
  Tc  Tc27  1  0.671768  0.834828  0.373200  1
  Tc  Tc28  1  0.172728  0.663030  0.376760  1
  Tc  Tc29  1  0.671740  0.840928  0.123466  1
  Tc  Tc30  1  0.827871  0.342021  0.876481  1
  Tc  Tc31  1  0.329365  0.162205  0.624344  1
  Tc  Tc32  1  0.667684  0.992168  0.748816  1
  Tc  Tc33  1  0.167031  0.509464  0.750195  1
  Tc  Tc34  1  0.332583  0.008904  0.250420  1
  Tc  Tc35  1  0.833100  0.489922  0.249857  1
