# generated using pymatgen
data_Yb3FeN3
_symmetry_space_group_name_H-M   'P 1'
_cell_length_a   7.10871800
_cell_length_b   7.10871854
_cell_length_c   4.91987400
_cell_angle_alpha   90.00000000
_cell_angle_beta   90.00000000
_cell_angle_gamma   119.99999749
_symmetry_Int_Tables_number   1
_chemical_formula_structural   Yb3FeN3
_chemical_formula_sum   'Yb6 Fe2 N6'
_cell_volume   215.31150107
_cell_formula_units_Z   2
loop_
 _symmetry_equiv_pos_site_id
 _symmetry_equiv_pos_as_xyz
  1  'x, y, z'
loop_
 _atom_site_type_symbol
 _atom_site_label
 _atom_site_symmetry_multiplicity
 _atom_site_fract_x
 _atom_site_fract_y
 _atom_site_fract_z
 _atom_site_occupancy
  Yb  Yb0  1  0.275277  0.914339  0.750000  1
  Yb  Yb1  1  0.639062  0.724723  0.750000  1
  Yb  Yb2  1  0.085661  0.360938  0.750000  1
  Yb  Yb3  1  0.724723  0.085661  0.250000  1
  Yb  Yb4  1  0.360938  0.275277  0.250000  1
  Yb  Yb5  1  0.914339  0.639062  0.250000  1
  Fe  Fe6  1  0.333333  0.666667  0.250000  1
  Fe  Fe7  1  0.666667  0.333333  0.750000  1
  N  N8  1  0.306048  0.898427  0.250000  1
  N  N9  1  0.592379  0.693952  0.250000  1
  N  N10  1  0.101573  0.407621  0.250000  1
  N  N11  1  0.693952  0.101573  0.750000  1
  N  N12  1  0.407621  0.306048  0.750000  1
  N  N13  1  0.898427  0.592379  0.750000  1
