# generated using pymatgen
data_YbCe3Nb2(B2Ru5)2
_symmetry_space_group_name_H-M   'P 1'
_cell_length_a   9.73017942
_cell_length_b   9.73017942
_cell_length_c   3.13148900
_cell_angle_alpha   90.00000000
_cell_angle_beta   90.00000000
_cell_angle_gamma   89.96635333
_symmetry_Int_Tables_number   1
_chemical_formula_structural   YbCe3Nb2(B2Ru5)2
_chemical_formula_sum   'Yb1 Ce3 Nb2 B4 Ru10'
_cell_volume   296.47802753
_cell_formula_units_Z   1
loop_
 _symmetry_equiv_pos_site_id
 _symmetry_equiv_pos_as_xyz
  1  'x, y, z'
loop_
 _atom_site_type_symbol
 _atom_site_label
 _atom_site_symmetry_multiplicity
 _atom_site_fract_x
 _atom_site_fract_y
 _atom_site_fract_z
 _atom_site_occupancy
  Yb  Yb0  1  0.824389  0.675611  0.000000  1
  Ce  Ce1  1  0.173334  0.326666  0.000000  1
  Ce  Ce2  1  0.324774  0.823566  0.000000  1
  Ce  Ce3  1  0.676434  0.175226  0.000000  1
  Nb  Nb4  1  0.505495  0.502826  0.000000  1
  Nb  Nb5  1  0.997174  0.994505  0.000000  1
  B  B6  1  0.624386  0.875614  0.000000  1
  B  B7  1  0.378923  0.121077  0.000000  1
  B  B8  1  0.117879  0.620884  0.000000  1
  B  B9  1  0.879116  0.382121  0.000000  1
  Ru  Ru10  1  0.567552  0.720917  0.500000  1
  Ru  Ru11  1  0.428048  0.281863  0.500000  1
  Ru  Ru12  1  0.074018  0.779901  0.500000  1
  Ru  Ru13  1  0.929680  0.217831  0.500000  1
  Ru  Ru14  1  0.282169  0.570320  0.500000  1
  Ru  Ru15  1  0.720099  0.425982  0.500000  1
  Ru  Ru16  1  0.218137  0.071952  0.500000  1
  Ru  Ru17  1  0.779083  0.932448  0.500000  1
  Ru  Ru18  1  0.498796  0.001204  0.500000  1
  Ru  Ru19  1  0.000513  0.499487  0.500000  1
