# generated using pymatgen
data_SrZnIr4(PbO7)2
_symmetry_space_group_name_H-M   'P 1'
_cell_length_a   7.35900178
_cell_length_b   7.23731540
_cell_length_c   7.36075011
_cell_angle_alpha   59.78148822
_cell_angle_beta   60.00785721
_cell_angle_gamma   59.44223630
_symmetry_Int_Tables_number   1
_chemical_formula_structural   SrZnIr4(PbO7)2
_chemical_formula_sum   'Sr1 Zn1 Ir4 Pb2 O14'
_cell_volume   275.58044750
_cell_formula_units_Z   1
loop_
 _symmetry_equiv_pos_site_id
 _symmetry_equiv_pos_as_xyz
  1  'x, y, z'
loop_
 _atom_site_type_symbol
 _atom_site_label
 _atom_site_symmetry_multiplicity
 _atom_site_fract_x
 _atom_site_fract_y
 _atom_site_fract_z
 _atom_site_occupancy
  Sr  Sr0  1  0.125000  0.125000  0.625000  1
  Zn  Zn1  1  0.125000  0.625000  0.125000  1
  Ir  Ir2  1  0.125000  0.625000  0.625000  1
  Ir  Ir3  1  0.625000  0.125000  0.625000  1
  Ir  Ir4  1  0.625000  0.625000  0.125000  1
  Ir  Ir5  1  0.625000  0.625000  0.625000  1
  Pb  Pb6  1  0.625000  0.125000  0.125000  1
  Pb  Pb7  1  0.125000  0.125000  0.125000  1
  O  O8  1  0.687117  0.707575  0.300953  1
  O  O9  1  0.298443  0.295280  0.711540  1
  O  O10  1  0.694737  0.295280  0.711540  1
  O  O11  1  0.304355  0.707575  0.300953  1
  O  O12  1  0.303265  0.687878  0.705591  1
  O  O13  1  0.705669  0.293146  0.295515  1
  O  O14  1  0.562883  0.542425  0.949047  1
  O  O15  1  0.951557  0.954720  0.538460  1
  O  O16  1  0.555263  0.954720  0.538460  1
  O  O17  1  0.945645  0.542425  0.949047  1
  O  O18  1  0.946735  0.562122  0.544409  1
  O  O19  1  0.544331  0.956854  0.954485  1
  O  O20  1  0.238541  0.303005  0.219914  1
  O  O21  1  0.011459  0.946995  0.030086  1
