# generated using pymatgen
data_Cs2IF7
_symmetry_space_group_name_H-M   'P 1'
_cell_length_a   8.21568911
_cell_length_b   8.21569031
_cell_length_c   9.55472986
_cell_angle_alpha   56.95897243
_cell_angle_beta   56.95896393
_cell_angle_gamma   52.28092402
_symmetry_Int_Tables_number   1
_chemical_formula_structural   Cs2IF7
_chemical_formula_sum   'Cs4 I2 F14'
_cell_volume   405.27204517
_cell_formula_units_Z   2
loop_
 _symmetry_equiv_pos_site_id
 _symmetry_equiv_pos_as_xyz
  1  'x, y, z'
loop_
 _atom_site_type_symbol
 _atom_site_label
 _atom_site_symmetry_multiplicity
 _atom_site_fract_x
 _atom_site_fract_y
 _atom_site_fract_z
 _atom_site_occupancy
  Cs  Cs0  1  0.859127  0.794430  0.595795  1
  Cs  Cs1  1  0.205570  0.140873  0.904205  1
  Cs  Cs2  1  0.140873  0.205570  0.404205  1
  Cs  Cs3  1  0.794430  0.859127  0.095795  1
  I  I4  1  0.445540  0.554460  0.750000  1
  I  I5  1  0.554460  0.445540  0.250000  1
  F  F6  1  0.549173  0.298542  0.137734  1
  F  F7  1  0.701458  0.450827  0.362266  1
  F  F8  1  0.450827  0.701458  0.862266  1
  F  F9  1  0.298542  0.549173  0.637734  1
  F  F10  1  0.578976  0.211554  0.804623  1
  F  F11  1  0.788446  0.421024  0.695377  1
  F  F12  1  0.421024  0.788446  0.195377  1
  F  F13  1  0.211554  0.578976  0.304623  1
  F  F14  1  0.534452  0.767745  0.511143  1
  F  F15  1  0.232255  0.465548  0.988857  1
  F  F16  1  0.465548  0.232255  0.488857  1
  F  F17  1  0.767745  0.534452  0.011143  1
  F  F18  1  0.161543  0.838457  0.750000  1
  F  F19  1  0.838457  0.161543  0.250000  1
