# generated using pymatgen
data_Lu3In3Ag2Hg
_symmetry_space_group_name_H-M   'P 1'
_cell_length_a   7.74455500
_cell_length_b   7.74455529
_cell_length_c   4.03104300
_cell_angle_alpha   90.00000000
_cell_angle_beta   90.00000000
_cell_angle_gamma   119.99999447
_symmetry_Int_Tables_number   1
_chemical_formula_structural   Lu3In3Ag2Hg
_chemical_formula_sum   'Lu3 In3 Ag2 Hg1'
_cell_volume   209.38281778
_cell_formula_units_Z   1
loop_
 _symmetry_equiv_pos_site_id
 _symmetry_equiv_pos_as_xyz
  1  'x, y, z'
loop_
 _atom_site_type_symbol
 _atom_site_label
 _atom_site_symmetry_multiplicity
 _atom_site_fract_x
 _atom_site_fract_y
 _atom_site_fract_z
 _atom_site_occupancy
  Lu  Lu0  1  0.402478  0.998413  0.500000  1
  Lu  Lu1  1  0.001587  0.404065  0.500000  1
  Lu  Lu2  1  0.595935  0.597522  0.500000  1
  In  In3  1  0.735371  0.991588  0.000000  1
  In  In4  1  0.008412  0.743783  0.000000  1
  In  In5  1  0.256217  0.264629  0.000000  1
  Ag  Ag6  1  0.333333  0.666667  0.000000  1
  Ag  Ag7  1  0.000000  0.000000  0.500000  1
  Hg  Hg8  1  0.666667  0.333333  0.000000  1
