# generated using pymatgen
data_Zr14CuPd19
_symmetry_space_group_name_H-M   'P 1'
_cell_length_a   8.17798397
_cell_length_b   8.17798417
_cell_length_c   9.71670265
_cell_angle_alpha   90.27447854
_cell_angle_beta   90.27448057
_cell_angle_gamma   107.10090287
_symmetry_Int_Tables_number   1
_chemical_formula_structural   Zr14CuPd19
_chemical_formula_sum   'Zr14 Cu1 Pd19'
_cell_volume   621.09647040
_cell_formula_units_Z   1
loop_
 _symmetry_equiv_pos_site_id
 _symmetry_equiv_pos_as_xyz
  1  'x, y, z'
loop_
 _atom_site_type_symbol
 _atom_site_label
 _atom_site_symmetry_multiplicity
 _atom_site_fract_x
 _atom_site_fract_y
 _atom_site_fract_z
 _atom_site_occupancy
  Zr  Zr0  1  0.690646  0.308393  0.499483  1
  Zr  Zr1  1  0.194818  0.810155  0.998456  1
  Zr  Zr2  1  0.503730  0.000846  0.749540  1
  Zr  Zr3  1  0.999277  0.495932  0.250718  1
  Zr  Zr4  1  0.000846  0.503730  0.749540  1
  Zr  Zr5  1  0.495931  0.999276  0.250718  1
  Zr  Zr6  1  0.816235  0.816235  0.813265  1
  Zr  Zr7  1  0.185929  0.185929  0.184331  1
  Zr  Zr8  1  0.312539  0.312539  0.687148  1
  Zr  Zr9  1  0.685043  0.685043  0.314493  1
  Zr  Zr10  1  0.999049  0.999049  0.500419  1
  Zr  Zr11  1  0.498293  0.498293  0.002291  1
  Zr  Zr12  1  0.308393  0.690646  0.499483  1
  Zr  Zr13  1  0.810155  0.194818  0.998456  1
  Cu  Cu14  1  0.895844  0.895844  0.103268  1
  Pd  Pd15  1  0.357971  0.649282  0.793637  1
  Pd  Pd16  1  0.350113  0.646787  0.207882  1
  Pd  Pd17  1  0.859249  0.151620  0.707053  1
  Pd  Pd18  1  0.850609  0.132706  0.287618  1
  Pd  Pd19  1  0.151620  0.859249  0.707053  1
  Pd  Pd20  1  0.132706  0.850609  0.287618  1
  Pd  Pd21  1  0.649282  0.357971  0.793637  1
  Pd  Pd22  1  0.646787  0.350113  0.207882  1
  Pd  Pd23  1  0.645437  0.938103  0.501890  1
  Pd  Pd24  1  0.061695  0.352479  0.496417  1
  Pd  Pd25  1  0.144504  0.439533  0.996240  1
  Pd  Pd26  1  0.572240  0.853897  0.006988  1
  Pd  Pd27  1  0.938103  0.645437  0.501890  1
  Pd  Pd28  1  0.352479  0.061695  0.496417  1
  Pd  Pd29  1  0.439533  0.144504  0.996240  1
  Pd  Pd30  1  0.853897  0.572240  0.006988  1
  Pd  Pd31  1  0.604929  0.604929  0.604255  1
  Pd  Pd32  1  0.395104  0.395104  0.394295  1
  Pd  Pd33  1  0.097014  0.097014  0.904391  1
