# generated using pymatgen
data_Dy16In4TcPt3
_symmetry_space_group_name_H-M   'P 1'
_cell_length_a   9.71144253
_cell_length_b   9.71129954
_cell_length_c   9.71139164
_cell_angle_alpha   59.87260563
_cell_angle_beta   59.87116817
_cell_angle_gamma   59.87267636
_symmetry_Int_Tables_number   1
_chemical_formula_structural   Dy16In4TcPt3
_chemical_formula_sum   'Dy16 In4 Tc1 Pt3'
_cell_volume   645.75212689
_cell_formula_units_Z   1
loop_
 _symmetry_equiv_pos_site_id
 _symmetry_equiv_pos_as_xyz
  1  'x, y, z'
loop_
 _atom_site_type_symbol
 _atom_site_label
 _atom_site_symmetry_multiplicity
 _atom_site_fract_x
 _atom_site_fract_y
 _atom_site_fract_z
 _atom_site_occupancy
  Dy  Dy0  1  0.600684  0.600711  0.600682  1
  Dy  Dy1  1  0.598965  0.598993  0.200222  1
  Dy  Dy2  1  0.599011  0.200153  0.599008  1
  Dy  Dy3  1  0.200213  0.599000  0.598968  1
  Dy  Dy4  1  0.063807  0.439525  0.439474  1
  Dy  Dy5  1  0.441104  0.058474  0.058476  1
  Dy  Dy6  1  0.439515  0.063802  0.439506  1
  Dy  Dy7  1  0.058493  0.441095  0.058492  1
  Dy  Dy8  1  0.439481  0.439523  0.063807  1
  Dy  Dy9  1  0.058473  0.058472  0.441103  1
  Dy  Dy10  1  0.186854  0.813307  0.813307  1
  Dy  Dy11  1  0.804847  0.190599  0.190662  1
  Dy  Dy12  1  0.813297  0.186839  0.813294  1
  Dy  Dy13  1  0.190615  0.804882  0.190618  1
  Dy  Dy14  1  0.813309  0.813306  0.186855  1
  Dy  Dy15  1  0.190658  0.190603  0.804852  1
  In  In16  1  0.833005  0.833055  0.833007  1
  In  In17  1  0.832524  0.832509  0.501763  1
  In  In18  1  0.832505  0.501803  0.832510  1
  In  In19  1  0.501759  0.832509  0.832525  1
  Tc  Tc20  1  0.391879  0.391854  0.391871  1
  Pt  Pt21  1  0.392606  0.392574  0.823826  1
  Pt  Pt22  1  0.392574  0.823843  0.392573  1
  Pt  Pt23  1  0.823826  0.392571  0.392603  1
