# generated using pymatgen
data_Tm2Lu2Al24IrPt8
_symmetry_space_group_name_H-M   'P 1'
_cell_length_a   7.50302402
_cell_length_b   7.52925581
_cell_length_c   13.12513025
_cell_angle_alpha   84.67593819
_cell_angle_beta   79.14582486
_cell_angle_gamma   59.90026465
_symmetry_Int_Tables_number   1
_chemical_formula_structural   Tm2Lu2Al24IrPt8
_chemical_formula_sum   'Tm2 Lu2 Al24 Ir1 Pt8'
_cell_volume   630.00566213
_cell_formula_units_Z   1
loop_
 _symmetry_equiv_pos_site_id
 _symmetry_equiv_pos_as_xyz
  1  'x, y, z'
loop_
 _atom_site_type_symbol
 _atom_site_label
 _atom_site_symmetry_multiplicity
 _atom_site_fract_x
 _atom_site_fract_y
 _atom_site_fract_z
 _atom_site_occupancy
  Tm  Tm0  1  0.393561  0.169158  0.808140  1
  Tm  Tm1  1  0.606439  0.830842  0.191860  1
  Lu  Lu2  1  0.734550  0.498655  0.807984  1
  Lu  Lu3  1  0.265450  0.501345  0.192016  1
  Al  Al4  1  0.686186  0.830739  0.944671  1
  Al  Al5  1  0.313814  0.169261  0.055329  1
  Al  Al6  1  0.146521  0.832023  0.561909  1
  Al  Al7  1  0.853479  0.167977  0.438091  1
  Al  Al8  1  0.479878  0.166582  0.559052  1
  Al  Al9  1  0.520122  0.833418  0.440948  1
  Al  Al10  1  0.218199  0.165303  0.326844  1
  Al  Al11  1  0.781801  0.834697  0.673156  1
  Al  Al12  1  0.436391  0.506852  0.673032  1
  Al  Al13  1  0.563609  0.493148  0.326968  1
  Al  Al14  1  0.108744  0.160429  0.671136  1
  Al  Al15  1  0.891256  0.839571  0.328864  1
  Al  Al16  1  0.350855  0.498622  0.944939  1
  Al  Al17  1  0.649145  0.501378  0.055061  1
  Al  Al18  1  0.015618  0.172114  0.952858  1
  Al  Al19  1  0.984382  0.827886  0.047142  1
  Al  Al20  1  0.186592  0.499585  0.441040  1
  Al  Al21  1  0.813408  0.500415  0.558960  1
  Al  Al22  1  0.733371  0.163974  0.182777  1
  Al  Al23  1  0.266629  0.836026  0.817223  1
  Al  Al24  1  0.060956  0.629104  0.817614  1
  Al  Al25  1  0.939044  0.370896  0.182386  1
  Al  Al26  1  0.854863  0.042548  0.816600  1
  Al  Al27  1  0.145137  0.957452  0.183400  1
  Ir  Ir28  1  0.000000  0.500000  0.000000  1
  Pt  Pt29  1  0.119526  0.491445  0.639428  1
  Pt  Pt30  1  0.880474  0.508555  0.360572  1
  Pt  Pt31  1  0.657192  0.171436  0.999711  1
  Pt  Pt32  1  0.342808  0.828564  0.000289  1
  Pt  Pt33  1  0.537178  0.167010  0.361004  1
  Pt  Pt34  1  0.462822  0.832990  0.638996  1
  Pt  Pt35  1  0.778006  0.175589  0.637625  1
  Pt  Pt36  1  0.221994  0.824411  0.362375  1
