# generated using pymatgen
data_La9Th(Mg2Ru3)2
_symmetry_space_group_name_H-M   'P 1'
_cell_length_a   8.67799486
_cell_length_b   8.79597239
_cell_length_c   8.79597273
_cell_angle_alpha   109.74132287
_cell_angle_beta   109.19974811
_cell_angle_gamma   109.19974398
_symmetry_Int_Tables_number   1
_chemical_formula_structural   La9Th(Mg2Ru3)2
_chemical_formula_sum   'La9 Th1 Mg4 Ru6'
_cell_volume   518.57231933
_cell_formula_units_Z   1
loop_
 _symmetry_equiv_pos_site_id
 _symmetry_equiv_pos_as_xyz
  1  'x, y, z'
loop_
 _atom_site_type_symbol
 _atom_site_label
 _atom_site_symmetry_multiplicity
 _atom_site_fract_x
 _atom_site_fract_y
 _atom_site_fract_z
 _atom_site_occupancy
  La  La0  1  0.253765  0.318662  0.069479  1
  La  La1  1  0.707873  0.713511  0.210981  1
  La  La2  1  0.184286  0.930521  0.249183  1
  La  La3  1  0.994361  0.497470  0.286490  1
  La  La4  1  0.750153  0.181785  0.425673  1
  La  La5  1  0.496893  0.789021  0.502532  1
  La  La6  1  0.935103  0.750817  0.681338  1
  La  La7  1  0.324480  0.574327  0.756112  1
  La  La8  1  0.568368  0.243888  0.818214  1
  Th  Th9  1  0.799975  0.000000  0.000000  1
  Mg  Mg10  1  0.409592  0.000000  0.000000  1
  Mg  Mg11  1  0.498473  0.406687  0.499674  1
  Mg  Mg12  1  0.091785  0.092987  0.593313  1
  Mg  Mg13  1  0.998798  0.500326  0.907013  1
  Ru  Ru14  1  0.383669  0.751620  0.133817  1
  Ru  Ru15  1  0.632049  0.382197  0.248380  1
  Ru  Ru16  1  0.101261  0.232386  0.350870  1
  Ru  Ru17  1  0.249852  0.866183  0.617804  1
  Ru  Ru18  1  0.868875  0.118484  0.767614  1
  Ru  Ru19  1  0.750391  0.649130  0.881516  1
