# generated using pymatgen
data_Sc22TcIr5Os2
_symmetry_space_group_name_H-M   'P 1'
_cell_length_a   9.48330417
_cell_length_b   9.49147691
_cell_length_c   9.48330453
_cell_angle_alpha   59.97148365
_cell_angle_beta   60.06997683
_cell_angle_gamma   59.97148804
_symmetry_Int_Tables_number   1
_chemical_formula_structural   Sc22TcIr5Os2
_chemical_formula_sum   'Sc22 Tc1 Ir5 Os2'
_cell_volume   603.64250850
_cell_formula_units_Z   1
loop_
 _symmetry_equiv_pos_site_id
 _symmetry_equiv_pos_as_xyz
  1  'x, y, z'
loop_
 _atom_site_type_symbol
 _atom_site_label
 _atom_site_symmetry_multiplicity
 _atom_site_fract_x
 _atom_site_fract_y
 _atom_site_fract_z
 _atom_site_occupancy
  Sc  Sc0  1  0.844444  0.842456  0.844444  1
  Sc  Sc1  1  0.530677  0.156480  0.156362  1
  Sc  Sc2  1  0.156362  0.156480  0.530677  1
  Sc  Sc3  1  0.155556  0.531344  0.155556  1
  Sc  Sc4  1  0.843638  0.843520  0.469323  1
  Sc  Sc5  1  0.844444  0.468656  0.844444  1
  Sc  Sc6  1  0.469323  0.843520  0.843638  1
  Sc  Sc7  1  0.155556  0.157544  0.155556  1
  Sc  Sc8  1  0.196755  0.803245  0.196755  1
  Sc  Sc9  1  0.196593  0.802192  0.803407  1
  Sc  Sc10  1  0.803407  0.197808  0.196593  1
  Sc  Sc11  1  0.803407  0.802192  0.196593  1
  Sc  Sc12  1  0.196593  0.197808  0.803407  1
  Sc  Sc13  1  0.803245  0.196755  0.803245  1
  Sc  Sc14  1  0.383216  0.383437  0.383216  1
  Sc  Sc15  1  0.149770  0.615851  0.618528  1
  Sc  Sc16  1  0.616784  0.149871  0.616784  1
  Sc  Sc17  1  0.618528  0.615851  0.149770  1
  Sc  Sc18  1  0.383216  0.850129  0.383216  1
  Sc  Sc19  1  0.381472  0.384149  0.850230  1
  Sc  Sc20  1  0.850230  0.384149  0.381472  1
  Sc  Sc21  1  0.616784  0.616563  0.616784  1
  Tc  Tc22  1  0.000000  0.000000  0.000000  1
  Ir  Ir23  1  0.500000  0.500000  0.000000  1
  Ir  Ir24  1  0.000000  0.000000  0.500000  1
  Ir  Ir25  1  0.500000  0.000000  0.500000  1
  Ir  Ir26  1  0.000000  0.500000  0.500000  1
  Ir  Ir27  1  0.500000  0.000000  0.000000  1
  Os  Os28  1  0.000000  0.500000  0.000000  1
  Os  Os29  1  0.500000  0.500000  0.500000  1
