# generated using pymatgen
data_PrP12Os3Rh
_symmetry_space_group_name_H-M   'P 1'
_cell_length_a   7.03978343
_cell_length_b   7.03978344
_cell_length_c   7.03978302
_cell_angle_alpha   109.44036261
_cell_angle_beta   109.44036097
_cell_angle_gamma   109.44035827
_symmetry_Int_Tables_number   1
_chemical_formula_structural   PrP12Os3Rh
_chemical_formula_sum   'Pr1 P12 Os3 Rh1'
_cell_volume   268.87548017
_cell_formula_units_Z   1
loop_
 _symmetry_equiv_pos_site_id
 _symmetry_equiv_pos_as_xyz
  1  'x, y, z'
loop_
 _atom_site_type_symbol
 _atom_site_label
 _atom_site_symmetry_multiplicity
 _atom_site_fract_x
 _atom_site_fract_y
 _atom_site_fract_z
 _atom_site_occupancy
  Pr  Pr0  1  0.000000  0.000000  0.000000  1
  P  P1  1  0.355219  0.212206  0.856548  1
  P  P2  1  0.644781  0.787794  0.143452  1
  P  P3  1  0.645424  0.501397  0.859504  1
  P  P4  1  0.354576  0.498603  0.140496  1
  P  P5  1  0.212206  0.856548  0.355219  1
  P  P6  1  0.787794  0.143452  0.644781  1
  P  P7  1  0.501397  0.859504  0.645424  1
  P  P8  1  0.498603  0.140496  0.354576  1
  P  P9  1  0.856548  0.355219  0.212206  1
  P  P10  1  0.143452  0.644781  0.787794  1
  P  P11  1  0.859504  0.645424  0.501397  1
  P  P12  1  0.140496  0.354576  0.498603  1
  Os  Os13  1  0.000000  0.000000  0.500000  1
  Os  Os14  1  0.500000  0.000000  0.000000  1
  Os  Os15  1  0.000000  0.500000  0.000000  1
  Rh  Rh16  1  0.500000  0.500000  0.500000  1
