# generated using pymatgen
data_K2RbAgSn4
_symmetry_space_group_name_H-M   'P 1'
_cell_length_a   6.79946900
_cell_length_b   6.99893000
_cell_length_c   12.81542600
_cell_angle_alpha   90.00000000
_cell_angle_beta   90.00000000
_cell_angle_gamma   90.00000000
_symmetry_Int_Tables_number   1
_chemical_formula_structural   K2RbAgSn4
_chemical_formula_sum   'K4 Rb2 Ag2 Sn8'
_cell_volume   609.87340490
_cell_formula_units_Z   2
loop_
 _symmetry_equiv_pos_site_id
 _symmetry_equiv_pos_as_xyz
  1  'x, y, z'
loop_
 _atom_site_type_symbol
 _atom_site_label
 _atom_site_symmetry_multiplicity
 _atom_site_fract_x
 _atom_site_fract_y
 _atom_site_fract_z
 _atom_site_occupancy
  K  K0  1  0.828576  0.500000  0.746719  1
  K  K1  1  0.828576  0.500000  0.253281  1
  K  K2  1  0.171424  0.000000  0.753281  1
  K  K3  1  0.171424  0.000000  0.246719  1
  Rb  Rb4  1  0.557910  0.000000  0.000000  1
  Rb  Rb5  1  0.442090  0.500000  0.500000  1
  Ag  Ag6  1  0.688406  0.500000  0.000000  1
  Ag  Ag7  1  0.311594  0.000000  0.500000  1
  Sn  Sn8  1  0.329347  0.500000  0.878605  1
  Sn  Sn9  1  0.329347  0.500000  0.121395  1
  Sn  Sn10  1  0.042390  0.269617  0.000000  1
  Sn  Sn11  1  0.042390  0.730383  0.000000  1
  Sn  Sn12  1  0.957610  0.769617  0.500000  1
  Sn  Sn13  1  0.957610  0.230383  0.500000  1
  Sn  Sn14  1  0.670653  0.000000  0.378605  1
  Sn  Sn15  1  0.670653  0.000000  0.621395  1
