# generated using pymatgen
data_SmNp3Ga12Pd
_symmetry_space_group_name_H-M   'P 1'
_cell_length_a   7.49589203
_cell_length_b   7.51911495
_cell_length_c   7.49589243
_cell_angle_alpha   109.53399193
_cell_angle_beta   109.40837921
_cell_angle_gamma   109.53399889
_symmetry_Int_Tables_number   1
_chemical_formula_structural   SmNp3Ga12Pd
_chemical_formula_sum   'Sm1 Np3 Ga12 Pd1'
_cell_volume   324.97834504
_cell_formula_units_Z   1
loop_
 _symmetry_equiv_pos_site_id
 _symmetry_equiv_pos_as_xyz
  1  'x, y, z'
loop_
 _atom_site_type_symbol
 _atom_site_label
 _atom_site_symmetry_multiplicity
 _atom_site_fract_x
 _atom_site_fract_y
 _atom_site_fract_z
 _atom_site_occupancy
  Sm  Sm0  1  0.000000  0.500000  0.000000  1
  Np  Np1  1  0.500000  0.000000  0.000000  1
  Np  Np2  1  0.000000  0.000000  0.500000  1
  Np  Np3  1  0.500000  0.500000  0.500000  1
  Ga  Ga4  1  0.296264  0.002750  0.296264  1
  Ga  Ga5  1  0.498082  0.249041  0.749041  1
  Ga  Ga6  1  0.000000  0.706487  0.703736  1
  Ga  Ga7  1  0.703736  0.997250  0.703736  1
  Ga  Ga8  1  0.749041  0.500000  0.250959  1
  Ga  Ga9  1  0.250959  0.750959  0.501918  1
  Ga  Ga10  1  0.749041  0.249041  0.498082  1
  Ga  Ga11  1  0.703736  0.706487  0.000000  1
  Ga  Ga12  1  0.250959  0.500000  0.749041  1
  Ga  Ga13  1  0.501918  0.750959  0.250959  1
  Ga  Ga14  1  0.296264  0.293513  0.000000  1
  Ga  Ga15  1  0.000000  0.293513  0.296264  1
  Pd  Pd16  1  0.000000  0.000000  0.000000  1
