# generated using pymatgen
data_DyEr5Co16(P6Os)2
_symmetry_space_group_name_H-M   'P 1'
_cell_length_a   3.69499700
_cell_length_b   10.45314400
_cell_length_c   12.18748000
_cell_angle_alpha   90.00000000
_cell_angle_beta   90.00000000
_cell_angle_gamma   90.00000000
_symmetry_Int_Tables_number   1
_chemical_formula_structural   DyEr5Co16(P6Os)2
_chemical_formula_sum   'Dy1 Er5 Co16 P12 Os2'
_cell_volume   470.73331911
_cell_formula_units_Z   1
loop_
 _symmetry_equiv_pos_site_id
 _symmetry_equiv_pos_as_xyz
  1  'x, y, z'
loop_
 _atom_site_type_symbol
 _atom_site_label
 _atom_site_symmetry_multiplicity
 _atom_site_fract_x
 _atom_site_fract_y
 _atom_site_fract_z
 _atom_site_occupancy
  Dy  Dy0  1  0.500000  0.000000  0.474912  1
  Er  Er1  1  0.000000  0.500000  0.524994  1
  Er  Er2  1  0.500000  0.817367  0.207083  1
  Er  Er3  1  0.500000  0.182633  0.207083  1
  Er  Er4  1  0.000000  0.682262  0.792758  1
  Er  Er5  1  0.000000  0.317738  0.792758  1
  Co  Co6  1  0.500000  0.500000  0.703464  1
  Co  Co7  1  0.000000  0.000000  0.296003  1
  Co  Co8  1  0.000000  0.500000  0.986637  1
  Co  Co9  1  0.500000  0.000000  0.013248  1
  Co  Co10  1  0.500000  0.332592  0.989676  1
  Co  Co11  1  0.500000  0.667408  0.989676  1
  Co  Co12  1  0.000000  0.167585  0.010361  1
  Co  Co13  1  0.000000  0.832415  0.010361  1
  Co  Co14  1  0.500000  0.298000  0.431208  1
  Co  Co15  1  0.500000  0.702000  0.431208  1
  Co  Co16  1  0.000000  0.203164  0.568859  1
  Co  Co17  1  0.000000  0.796836  0.568859  1
  Co  Co18  1  0.500000  0.878771  0.708577  1
  Co  Co19  1  0.500000  0.121229  0.708577  1
  Co  Co20  1  0.000000  0.620927  0.291618  1
  Co  Co21  1  0.000000  0.379073  0.291618  1
  P  P22  1  0.500000  0.500000  0.880146  1
  P  P23  1  0.000000  0.000000  0.119647  1
  P  P24  1  0.500000  0.500000  0.351591  1
  P  P25  1  0.000000  0.000000  0.649098  1
  P  P26  1  0.500000  0.312643  0.616393  1
  P  P27  1  0.500000  0.687357  0.616393  1
  P  P28  1  0.000000  0.188155  0.383307  1
  P  P29  1  0.000000  0.811845  0.383307  1
  P  P30  1  0.500000  0.845962  0.892469  1
  P  P31  1  0.500000  0.154038  0.892469  1
  P  P32  1  0.000000  0.653788  0.107610  1
  P  P33  1  0.000000  0.346212  0.107610  1
  Os  Os34  1  0.500000  0.500000  0.159155  1
  Os  Os35  1  0.000000  0.000000  0.841267  1
