# generated using pymatgen
data_AlHgIrS4
_symmetry_space_group_name_H-M   'P 1'
_cell_length_a   7.31602024
_cell_length_b   7.31602094
_cell_length_c   7.40928100
_cell_angle_alpha   59.57741216
_cell_angle_beta   59.57740892
_cell_angle_gamma   59.44313396
_symmetry_Int_Tables_number   1
_chemical_formula_structural   AlHgIrS4
_chemical_formula_sum   'Al2 Hg2 Ir2 S8'
_cell_volume   277.44027369
_cell_formula_units_Z   2
loop_
 _symmetry_equiv_pos_site_id
 _symmetry_equiv_pos_as_xyz
  1  'x, y, z'
loop_
 _atom_site_type_symbol
 _atom_site_label
 _atom_site_symmetry_multiplicity
 _atom_site_fract_x
 _atom_site_fract_y
 _atom_site_fract_z
 _atom_site_occupancy
  Al  Al0  1  0.125000  0.625000  0.625000  1
  Al  Al1  1  0.625000  0.125000  0.625000  1
  Hg  Hg2  1  0.252377  0.252377  0.247623  1
  Hg  Hg3  1  0.997623  0.997623  0.002377  1
  Ir  Ir4  1  0.625000  0.625000  0.125000  1
  Ir  Ir5  1  0.625000  0.625000  0.625000  1
  S  S6  1  0.818589  0.398313  0.391549  1
  S  S7  1  0.398313  0.818589  0.391549  1
  S  S8  1  0.393353  0.393353  0.825894  1
  S  S9  1  0.393353  0.393353  0.387401  1
  S  S10  1  0.431411  0.851687  0.858451  1
  S  S11  1  0.851687  0.431411  0.858451  1
  S  S12  1  0.856647  0.856647  0.424106  1
  S  S13  1  0.856647  0.856647  0.862599  1
