# generated using pymatgen
data_Cs4BaV2O8
_symmetry_space_group_name_H-M   'P 1'
_cell_length_a   8.55612030
_cell_length_b   8.95341832
_cell_length_c   10.72987651
_cell_angle_alpha   114.65914356
_cell_angle_beta   113.49727126
_cell_angle_gamma   89.99999558
_symmetry_Int_Tables_number   1
_chemical_formula_structural   Cs4BaV2O8
_chemical_formula_sum   'Cs8 Ba2 V4 O16'
_cell_volume   671.29143004
_cell_formula_units_Z   2
loop_
 _symmetry_equiv_pos_site_id
 _symmetry_equiv_pos_as_xyz
  1  'x, y, z'
loop_
 _atom_site_type_symbol
 _atom_site_label
 _atom_site_symmetry_multiplicity
 _atom_site_fract_x
 _atom_site_fract_y
 _atom_site_fract_z
 _atom_site_occupancy
  Cs  Cs0  1  0.727976  0.080212  0.160423  1
  Cs  Cs1  1  0.432449  0.580212  0.160423  1
  Cs  Cs2  1  0.254869  0.504869  0.509736  1
  Cs  Cs3  1  0.254869  0.004868  0.509736  1
  Cs  Cs4  1  0.745131  0.995132  0.490264  1
  Cs  Cs5  1  0.745131  0.495131  0.490264  1
  Cs  Cs6  1  0.567552  0.419788  0.839577  1
  Cs  Cs7  1  0.272024  0.919788  0.839577  1
  Ba  Ba8  1  0.000000  0.250000  0.000000  1
  Ba  Ba9  1  0.000000  0.750000  0.000000  1
  V  V10  1  0.324774  0.124461  0.248922  1
  V  V11  1  0.924148  0.624461  0.248922  1
  V  V12  1  0.075852  0.375539  0.751079  1
  V  V13  1  0.675226  0.875539  0.751079  1
  O  O14  1  0.362997  0.244009  0.166860  1
  O  O15  1  0.803861  0.422851  0.166860  1
  O  O16  1  0.803861  0.744010  0.166860  1
  O  O17  1  0.362997  0.922851  0.166860  1
  O  O18  1  0.099057  0.098693  0.197386  1
  O  O19  1  0.098329  0.598693  0.197386  1
  O  O20  1  0.451626  0.222979  0.445959  1
  O  O21  1  0.994333  0.722979  0.445959  1
  O  O22  1  0.005667  0.277021  0.554042  1
  O  O23  1  0.548376  0.777021  0.554042  1
  O  O24  1  0.901671  0.401307  0.802614  1
  O  O25  1  0.900943  0.901307  0.802614  1
  O  O26  1  0.637001  0.077149  0.833139  1
  O  O27  1  0.196138  0.255991  0.833139  1
  O  O28  1  0.196138  0.577149  0.833139  1
  O  O29  1  0.637001  0.755991  0.833139  1
