# generated using pymatgen
data_YbEuSc3Si7Pt9
_symmetry_space_group_name_H-M   'P 1'
_cell_length_a   10.12921700
_cell_length_b   10.12921791
_cell_length_c   3.93324900
_cell_angle_alpha   90.00000000
_cell_angle_beta   90.00000000
_cell_angle_gamma   120.00000031
_symmetry_Int_Tables_number   1
_chemical_formula_structural   YbEuSc3Si7Pt9
_chemical_formula_sum   'Yb1 Eu1 Sc3 Si7 Pt9'
_cell_volume   349.48928120
_cell_formula_units_Z   1
loop_
 _symmetry_equiv_pos_site_id
 _symmetry_equiv_pos_as_xyz
  1  'x, y, z'
loop_
 _atom_site_type_symbol
 _atom_site_label
 _atom_site_symmetry_multiplicity
 _atom_site_fract_x
 _atom_site_fract_y
 _atom_site_fract_z
 _atom_site_occupancy
  Yb  Yb0  1  0.000000  0.000000  0.000000  1
  Eu  Eu1  1  0.333333  0.666667  0.500000  1
  Sc  Sc2  1  0.893373  0.457548  0.500000  1
  Sc  Sc3  1  0.564173  0.106627  0.500000  1
  Sc  Sc4  1  0.542452  0.435827  0.500000  1
  Si  Si5  1  0.245199  0.198045  0.500000  1
  Si  Si6  1  0.801955  0.047154  0.500000  1
  Si  Si7  1  0.952846  0.754801  0.500000  1
  Si  Si8  1  0.556426  0.646241  0.000000  1
  Si  Si9  1  0.353759  0.910184  0.000000  1
  Si  Si10  1  0.089816  0.443574  0.000000  1
  Si  Si11  1  0.666667  0.333333  0.000000  1
  Pt  Pt12  1  0.220236  0.940460  0.500000  1
  Pt  Pt13  1  0.059540  0.279777  0.500000  1
  Pt  Pt14  1  0.720223  0.779764  0.500000  1
  Pt  Pt15  1  0.310907  0.405495  0.000000  1
  Pt  Pt16  1  0.594505  0.905412  0.000000  1
  Pt  Pt17  1  0.094588  0.689093  0.000000  1
  Pt  Pt18  1  0.387949  0.173779  0.000000  1
  Pt  Pt19  1  0.826221  0.214170  0.000000  1
  Pt  Pt20  1  0.785830  0.612051  0.000000  1
