# generated using pymatgen
data_Y7HoMg2(SiB4)4
_symmetry_space_group_name_H-M   'P 1'
_cell_length_a   7.17495105
_cell_length_b   7.17495105
_cell_length_c   7.85997805
_cell_angle_alpha   90.00872766
_cell_angle_beta   89.99115015
_cell_angle_gamma   90.01079677
_symmetry_Int_Tables_number   1
_chemical_formula_structural   Y7HoMg2(SiB4)4
_chemical_formula_sum   'Y7 Ho1 Mg2 Si4 B16'
_cell_volume   404.63104485
_cell_formula_units_Z   1
loop_
 _symmetry_equiv_pos_site_id
 _symmetry_equiv_pos_as_xyz
  1  'x, y, z'
loop_
 _atom_site_type_symbol
 _atom_site_label
 _atom_site_symmetry_multiplicity
 _atom_site_fract_x
 _atom_site_fract_y
 _atom_site_fract_z
 _atom_site_occupancy
  Y  Y0  1  0.683049  0.183243  0.233635  1
  Y  Y1  1  0.316876  0.816841  0.766339  1
  Y  Y2  1  0.316765  0.816952  0.233635  1
  Y  Y3  1  0.816956  0.683045  0.233811  1
  Y  Y4  1  0.816854  0.683148  0.766198  1
  Y  Y5  1  0.683154  0.183127  0.766341  1
  Y  Y6  1  0.183210  0.316792  0.766137  1
  Ho  Ho7  1  0.183239  0.316765  0.232424  1
  Mg  Mg8  1  0.000171  0.000258  0.499770  1
  Mg  Mg9  1  0.499724  0.499815  0.499764  1
  Si  Si10  1  0.115387  0.614703  0.499557  1
  Si  Si11  1  0.885298  0.384614  0.499556  1
  Si  Si12  1  0.384368  0.115632  0.499380  1
  Si  Si13  1  0.615116  0.884885  0.499994  1
  B  B14  1  0.173518  0.040128  0.000263  1
  B  B15  1  0.826668  0.960279  0.000048  1
  B  B16  1  0.960467  0.173500  0.000288  1
  B  B17  1  0.326501  0.539535  0.000288  1
  B  B18  1  0.039948  0.826750  0.000158  1
  B  B19  1  0.673250  0.460054  0.000157  1
  B  B20  1  0.539722  0.673333  0.000048  1
  B  B21  1  0.459873  0.326484  0.000263  1
  B  B22  1  0.089812  0.589590  0.000453  1
  B  B23  1  0.910410  0.410191  0.000452  1
  B  B24  1  0.410153  0.089846  0.000219  1
  B  B25  1  0.589692  0.910309  0.000073  1
  B  B26  1  0.000300  0.000475  0.161851  1
  B  B27  1  0.000014  0.000017  0.838525  1
  B  B28  1  0.499982  0.499987  0.838524  1
  B  B29  1  0.499525  0.499702  0.161851  1
