# generated using pymatgen
data_La12Ni3OsI12
_symmetry_space_group_name_H-M   'P 1'
_cell_length_a   10.94680559
_cell_length_b   10.85469368
_cell_length_c   10.85469391
_cell_angle_alpha   109.29868342
_cell_angle_beta   109.64321783
_cell_angle_gamma   109.64321079
_symmetry_Int_Tables_number   1
_chemical_formula_structural   La12Ni3OsI12
_chemical_formula_sum   'La12 Ni3 Os1 I12'
_cell_volume   990.77354028
_cell_formula_units_Z   1
loop_
 _symmetry_equiv_pos_site_id
 _symmetry_equiv_pos_as_xyz
  1  'x, y, z'
loop_
 _atom_site_type_symbol
 _atom_site_label
 _atom_site_symmetry_multiplicity
 _atom_site_fract_x
 _atom_site_fract_y
 _atom_site_fract_z
 _atom_site_occupancy
  La  La0  1  0.459779  0.483102  0.228321  1
  La  La1  1  0.750000  0.227868  0.272132  1
  La  La2  1  0.750000  0.022822  0.477178  1
  La  La3  1  0.227178  0.454355  0.477178  1
  La  La4  1  0.268541  0.745219  0.228321  1
  La  La5  1  0.040221  0.271679  0.016898  1
  La  La6  1  0.022132  0.044266  0.272132  1
  La  La7  1  0.476678  0.745219  0.016898  1
  La  La8  1  0.477868  0.227868  0.455734  1
  La  La9  1  0.023322  0.483102  0.754781  1
  La  La10  1  0.272822  0.022822  0.045645  1
  La  La11  1  0.231459  0.271679  0.754781  1
  Ni  Ni12  1  0.250000  0.250304  0.249696  1
  Ni  Ni13  1  0.499696  0.999393  0.249696  1
  Ni  Ni14  1  0.000304  0.250304  0.500607  1
  Os  Os15  1  0.250000  0.500000  0.000000  1
  I  I16  1  0.250000  0.761392  0.738608  1
  I  I17  1  0.521663  0.509198  0.758853  1
  I  I18  1  0.978337  0.741147  0.990802  1
  I  I19  1  0.737191  0.249656  0.758853  1
  I  I20  1  0.988608  0.977216  0.738608  1
  I  I21  1  0.250000  0.990001  0.509999  1
  I  I22  1  0.759999  0.519998  0.509999  1
  I  I23  1  0.512465  0.249656  0.990802  1
  I  I24  1  0.762809  0.741147  0.250344  1
  I  I25  1  0.740001  0.990001  0.980002  1
  I  I26  1  0.987535  0.509198  0.250344  1
  I  I27  1  0.511392  0.761392  0.522784  1
