# generated using pymatgen
data_Zr8Co16(SiP3)3
_symmetry_space_group_name_H-M   'P 1'
_cell_length_a   12.16445611
_cell_length_b   12.17141969
_cell_length_c   3.67771800
_cell_angle_alpha   90.00000000
_cell_angle_beta   90.00000000
_cell_angle_gamma   120.02319098
_symmetry_Int_Tables_number   1
_chemical_formula_structural   Zr8Co16(SiP3)3
_chemical_formula_sum   'Zr8 Co16 Si3 P9'
_cell_volume   471.45631147
_cell_formula_units_Z   1
loop_
 _symmetry_equiv_pos_site_id
 _symmetry_equiv_pos_as_xyz
  1  'x, y, z'
loop_
 _atom_site_type_symbol
 _atom_site_label
 _atom_site_symmetry_multiplicity
 _atom_site_fract_x
 _atom_site_fract_y
 _atom_site_fract_z
 _atom_site_occupancy
  Zr  Zr0  1  0.823905  0.824611  0.500000  1
  Zr  Zr1  1  0.443535  0.442790  0.000000  1
  Zr  Zr2  1  0.997594  0.173248  0.500000  1
  Zr  Zr3  1  0.553807  0.999718  0.000000  1
  Zr  Zr4  1  0.333763  0.666601  0.000000  1
  Zr  Zr5  1  0.667394  0.333590  0.000000  1
  Zr  Zr6  1  0.000585  0.556867  0.000000  1
  Zr  Zr7  1  0.175774  0.998671  0.500000  1
  Co  Co8  1  0.627520  0.825381  0.000000  1
  Co  Co9  1  0.375415  0.194108  0.000000  1
  Co  Co10  1  0.001961  0.723027  0.500000  1
  Co  Co11  1  0.282381  0.280577  0.500000  1
  Co  Co12  1  0.872152  0.354224  0.500000  1
  Co  Co13  1  0.720862  0.000057  0.500000  1
  Co  Co14  1  0.825452  0.628253  0.000000  1
  Co  Co15  1  0.178297  0.806568  0.000000  1
  Co  Co16  1  0.353126  0.872921  0.500000  1
  Co  Co17  1  0.127571  0.483107  0.500000  1
  Co  Co18  1  0.645956  0.517779  0.500000  1
  Co  Co19  1  0.996004  0.995615  0.000000  1
  Co  Co20  1  0.518365  0.646116  0.500000  1
  Co  Co21  1  0.480639  0.126399  0.500000  1
  Co  Co22  1  0.198296  0.376182  0.000000  1
  Co  Co23  1  0.801791  0.174680  0.000000  1
  Si  Si24  1  0.999925  0.344719  0.000000  1
  Si  Si25  1  0.175615  0.176080  0.000000  1
  Si  Si26  1  0.654641  0.655041  0.000000  1
  P  P27  1  0.826328  0.518354  0.500000  1
  P  P28  1  0.691494  0.173910  0.500000  1
  P  P29  1  0.823320  0.999999  0.000000  1
  P  P30  1  0.517916  0.826054  0.500000  1
  P  P31  1  0.174272  0.691655  0.500000  1
  P  P32  1  0.344823  0.000304  0.000000  1
  P  P33  1  0.482126  0.307746  0.500000  1
  P  P34  1  0.999807  0.823590  0.000000  1
  P  P35  1  0.307590  0.481459  0.500000  1
