# generated using pymatgen
data_Li8Nd8Si5Sb3
_symmetry_space_group_name_H-M   'P 1'
_cell_length_a   9.13518700
_cell_length_b   9.13518724
_cell_length_c   7.50916100
_cell_angle_alpha   90.00000000
_cell_angle_beta   90.00000000
_cell_angle_gamma   120.00000275
_symmetry_Int_Tables_number   1
_chemical_formula_structural   Li8Nd8Si5Sb3
_chemical_formula_sum   'Li8 Nd8 Si5 Sb3'
_cell_volume   542.69638775
_cell_formula_units_Z   1
loop_
 _symmetry_equiv_pos_site_id
 _symmetry_equiv_pos_as_xyz
  1  'x, y, z'
loop_
 _atom_site_type_symbol
 _atom_site_label
 _atom_site_symmetry_multiplicity
 _atom_site_fract_x
 _atom_site_fract_y
 _atom_site_fract_z
 _atom_site_occupancy
  Li  Li0  1  0.168336  0.336673  0.276674  1
  Li  Li1  1  0.168336  0.831664  0.276674  1
  Li  Li2  1  0.663327  0.831664  0.276674  1
  Li  Li3  1  0.828301  0.656603  0.785495  1
  Li  Li4  1  0.828301  0.171699  0.785495  1
  Li  Li5  1  0.343397  0.171699  0.785495  1
  Li  Li6  1  0.333333  0.666667  0.664458  1
  Li  Li7  1  0.666667  0.333333  0.178593  1
  Nd  Nd8  1  0.516735  0.033471  0.488328  1
  Nd  Nd9  1  0.516735  0.483265  0.488328  1
  Nd  Nd10  1  0.966529  0.483265  0.488328  1
  Nd  Nd11  1  0.492519  0.985037  0.006369  1
  Nd  Nd12  1  0.492519  0.507481  0.006369  1
  Nd  Nd13  1  0.014963  0.507481  0.006369  1
  Nd  Nd14  1  0.000000  0.000000  0.486939  1
  Nd  Nd15  1  0.000000  0.000000  0.012725  1
  Si  Si16  1  0.833341  0.666681  0.234145  1
  Si  Si17  1  0.833341  0.166659  0.234145  1
  Si  Si18  1  0.333319  0.166659  0.234145  1
  Si  Si19  1  0.333333  0.666667  0.259249  1
  Si  Si20  1  0.666667  0.333333  0.760274  1
  Sb  Sb21  1  0.166688  0.333375  0.735567  1
  Sb  Sb22  1  0.166688  0.833312  0.735567  1
  Sb  Sb23  1  0.666625  0.833312  0.735567  1
