# generated using pymatgen
data_Ho2Ga10Os3
_symmetry_space_group_name_H-M   'P 1'
_cell_length_a   8.92187400
_cell_length_b   8.92187400
_cell_length_c   6.39289000
_cell_angle_alpha   90.00000000
_cell_angle_beta   90.00000000
_cell_angle_gamma   90.00000000
_symmetry_Int_Tables_number   1
_chemical_formula_structural   Ho2Ga10Os3
_chemical_formula_sum   'Ho4 Ga20 Os6'
_cell_volume   508.87299347
_cell_formula_units_Z   2
loop_
 _symmetry_equiv_pos_site_id
 _symmetry_equiv_pos_as_xyz
  1  'x, y, z'
loop_
 _atom_site_type_symbol
 _atom_site_label
 _atom_site_symmetry_multiplicity
 _atom_site_fract_x
 _atom_site_fract_y
 _atom_site_fract_z
 _atom_site_occupancy
  Ho  Ho0  1  0.183279  0.316721  0.000000  1
  Ho  Ho1  1  0.683279  0.183279  0.000000  1
  Ho  Ho2  1  0.816721  0.683279  0.000000  1
  Ho  Ho3  1  0.316721  0.816721  0.000000  1
  Ga  Ga4  1  0.500000  0.000000  0.283460  1
  Ga  Ga5  1  0.500000  0.000000  0.716540  1
  Ga  Ga6  1  0.293087  0.561255  0.707331  1
  Ga  Ga7  1  0.000000  0.500000  0.283460  1
  Ga  Ga8  1  0.000000  0.500000  0.716540  1
  Ga  Ga9  1  0.061255  0.793087  0.707331  1
  Ga  Ga10  1  0.206913  0.061255  0.292669  1
  Ga  Ga11  1  0.061255  0.793087  0.292669  1
  Ga  Ga12  1  0.706913  0.438745  0.707331  1
  Ga  Ga13  1  0.206913  0.061255  0.707331  1
  Ga  Ga14  1  0.938745  0.206913  0.707331  1
  Ga  Ga15  1  0.706913  0.438745  0.292669  1
  Ga  Ga16  1  0.561255  0.706913  0.292669  1
  Ga  Ga17  1  0.938745  0.206913  0.292669  1
  Ga  Ga18  1  0.561255  0.706913  0.707331  1
  Ga  Ga19  1  0.793087  0.938745  0.292669  1
  Ga  Ga20  1  0.438745  0.293087  0.707331  1
  Ga  Ga21  1  0.793087  0.938745  0.707331  1
  Ga  Ga22  1  0.438745  0.293087  0.292669  1
  Ga  Ga23  1  0.293087  0.561255  0.292669  1
  Os  Os24  1  0.178219  0.321781  0.500000  1
  Os  Os25  1  0.321781  0.821781  0.500000  1
  Os  Os26  1  0.821781  0.678219  0.500000  1
  Os  Os27  1  0.000000  0.000000  0.000000  1
  Os  Os28  1  0.678219  0.178219  0.500000  1
  Os  Os29  1  0.500000  0.500000  0.000000  1
