# generated using pymatgen
data_Sm2ReRu3
_symmetry_space_group_name_H-M   'P 1'
_cell_length_a   5.20320071
_cell_length_b   5.20320109
_cell_length_c   5.20320043
_cell_angle_alpha   66.10865544
_cell_angle_beta   66.10864730
_cell_angle_gamma   66.10864748
_symmetry_Int_Tables_number   1
_chemical_formula_structural   Sm2ReRu3
_chemical_formula_sum   'Sm2 Re1 Ru3'
_cell_volume   112.76290488
_cell_formula_units_Z   1
loop_
 _symmetry_equiv_pos_site_id
 _symmetry_equiv_pos_as_xyz
  1  'x, y, z'
loop_
 _atom_site_type_symbol
 _atom_site_label
 _atom_site_symmetry_multiplicity
 _atom_site_fract_x
 _atom_site_fract_y
 _atom_site_fract_z
 _atom_site_occupancy
  Sm  Sm0  1  0.627238  0.627238  0.627238  1
  Sm  Sm1  1  0.372762  0.372762  0.372762  1
  Re  Re2  1  0.000000  0.000000  0.000000  1
  Ru  Ru3  1  0.000000  0.500000  0.000000  1
  Ru  Ru4  1  0.500000  0.000000  0.000000  1
  Ru  Ru5  1  0.000000  0.000000  0.500000  1
