# generated using pymatgen
data_Tb2ErPa(Al8Pt3)3
_symmetry_space_group_name_H-M   'P 1'
_cell_length_a   7.55432275
_cell_length_b   7.56382987
_cell_length_c   13.14045457
_cell_angle_alpha   84.51294418
_cell_angle_beta   78.95342892
_cell_angle_gamma   59.91363561
_symmetry_Int_Tables_number   1
_chemical_formula_structural   Tb2ErPa(Al8Pt3)3
_chemical_formula_sum   'Tb2 Er1 Pa1 Al24 Pt9'
_cell_volume   637.64279055
_cell_formula_units_Z   1
loop_
 _symmetry_equiv_pos_site_id
 _symmetry_equiv_pos_as_xyz
  1  'x, y, z'
loop_
 _atom_site_type_symbol
 _atom_site_label
 _atom_site_symmetry_multiplicity
 _atom_site_fract_x
 _atom_site_fract_y
 _atom_site_fract_z
 _atom_site_occupancy
  Tb  Tb0  1  0.733565  0.498729  0.808233  1
  Tb  Tb1  1  0.266616  0.501230  0.191967  1
  Er  Er2  1  0.605750  0.831653  0.192963  1
  Pa  Pa3  1  0.395561  0.168155  0.804289  1
  Al  Al4  1  0.684254  0.833429  0.944986  1
  Al  Al5  1  0.315761  0.165688  0.055448  1
  Al  Al6  1  0.146660  0.832840  0.560968  1
  Al  Al7  1  0.854417  0.167235  0.437879  1
  Al  Al8  1  0.481108  0.166557  0.557837  1
  Al  Al9  1  0.519750  0.832093  0.440908  1
  Al  Al10  1  0.217466  0.165237  0.330876  1
  Al  Al11  1  0.786071  0.831799  0.668915  1
  Al  Al12  1  0.437767  0.509532  0.669236  1
  Al  Al13  1  0.562137  0.493749  0.329965  1
  Al  Al14  1  0.107670  0.159615  0.667649  1
  Al  Al15  1  0.889654  0.839757  0.331282  1
  Al  Al16  1  0.352396  0.500069  0.944366  1
  Al  Al17  1  0.647219  0.500969  0.056400  1
  Al  Al18  1  0.014894  0.167577  0.953808  1
  Al  Al19  1  0.983542  0.832767  0.047651  1
  Al  Al20  1  0.185657  0.500491  0.441011  1
  Al  Al21  1  0.813545  0.500389  0.558604  1
  Al  Al22  1  0.734862  0.163025  0.183663  1
  Al  Al23  1  0.263075  0.838436  0.817147  1
  Al  Al24  1  0.063150  0.631458  0.815864  1
  Al  Al25  1  0.938187  0.369317  0.184838  1
  Al  Al26  1  0.855800  0.039435  0.816687  1
  Al  Al27  1  0.145086  0.958779  0.184059  1
  Pt  Pt28  1  0.121247  0.490387  0.640053  1
  Pt  Pt29  1  0.879064  0.508292  0.361570  1
  Pt  Pt30  1  0.656597  0.171904  0.999158  1
  Pt  Pt31  1  0.343456  0.828369  0.999276  1
  Pt  Pt32  1  0.537559  0.166217  0.361822  1
  Pt  Pt33  1  0.462133  0.834462  0.639897  1
  Pt  Pt34  1  0.777540  0.175113  0.638760  1
  Pt  Pt35  1  0.220849  0.825230  0.362797  1
  Pt  Pt36  1  0.999936  0.500017  0.999172  1
