# generated using pymatgen
data_Li8PrEr4Th3Sn8
_symmetry_space_group_name_H-M   'P 1'
_cell_length_a   9.46521141
_cell_length_b   9.46596679
_cell_length_c   7.41292130
_cell_angle_alpha   90.00092781
_cell_angle_beta   90.01256155
_cell_angle_gamma   120.01245428
_symmetry_Int_Tables_number   1
_chemical_formula_structural   Li8PrEr4Th3Sn8
_chemical_formula_sum   'Li8 Pr1 Er4 Th3 Sn8'
_cell_volume   575.12306423
_cell_formula_units_Z   1
loop_
 _symmetry_equiv_pos_site_id
 _symmetry_equiv_pos_as_xyz
  1  'x, y, z'
loop_
 _atom_site_type_symbol
 _atom_site_label
 _atom_site_symmetry_multiplicity
 _atom_site_fract_x
 _atom_site_fract_y
 _atom_site_fract_z
 _atom_site_occupancy
  Li  Li0  1  0.166462  0.333021  0.262751  1
  Li  Li1  1  0.166500  0.833435  0.263115  1
  Li  Li2  1  0.667629  0.833767  0.287319  1
  Li  Li3  1  0.667069  0.333548  0.325208  1
  Li  Li4  1  0.832610  0.665353  0.695486  1
  Li  Li5  1  0.334709  0.167443  0.698773  1
  Li  Li6  1  0.832759  0.167310  0.695461  1
  Li  Li7  1  0.332139  0.666084  0.789000  1
  Pr  Pr8  1  0.985261  0.492646  0.002993  1
  Er  Er9  1  0.003281  0.001609  0.498964  1
  Er  Er10  1  0.489550  0.983823  0.504296  1
  Er  Er11  1  0.017991  0.508985  0.503315  1
  Er  Er12  1  0.489506  0.505733  0.504275  1
  Th  Th13  1  0.996582  0.998219  0.000278  1
  Th  Th14  1  0.508253  0.012986  0.003325  1
  Th  Th15  1  0.508288  0.495282  0.003234  1
  Sn  Sn16  1  0.335557  0.667856  0.239848  1
  Sn  Sn17  1  0.832976  0.666847  0.269450  1
  Sn  Sn18  1  0.334473  0.167266  0.267801  1
  Sn  Sn19  1  0.832886  0.166067  0.269814  1
  Sn  Sn20  1  0.665583  0.332789  0.733236  1
  Sn  Sn21  1  0.166848  0.332356  0.749157  1
  Sn  Sn22  1  0.166947  0.834524  0.748769  1
  Sn  Sn23  1  0.666142  0.833052  0.742119  1
