# generated using pymatgen
data_Hf12Co6Re5Os
_symmetry_space_group_name_H-M   'P 1'
_cell_length_a   4.53491600
_cell_length_b   6.46069800
_cell_length_c   13.64866900
_cell_angle_alpha   90.00000000
_cell_angle_beta   90.00096706
_cell_angle_gamma   90.00000000
_symmetry_Int_Tables_number   1
_chemical_formula_structural   Hf12Co6Re5Os
_chemical_formula_sum   'Hf12 Co6 Re5 Os1'
_cell_volume   399.88856865
_cell_formula_units_Z   1
loop_
 _symmetry_equiv_pos_site_id
 _symmetry_equiv_pos_as_xyz
  1  'x, y, z'
loop_
 _atom_site_type_symbol
 _atom_site_label
 _atom_site_symmetry_multiplicity
 _atom_site_fract_x
 _atom_site_fract_y
 _atom_site_fract_z
 _atom_site_occupancy
  Hf  Hf0  1  0.499999  0.250606  0.000000  1
  Hf  Hf1  1  0.499999  0.749395  0.000000  1
  Hf  Hf2  1  0.000039  0.249774  0.166857  1
  Hf  Hf3  1  0.000039  0.750226  0.166857  1
  Hf  Hf4  1  0.500078  0.250428  0.333323  1
  Hf  Hf5  1  0.500078  0.749573  0.333323  1
  Hf  Hf6  1  0.000000  0.249443  0.500000  1
  Hf  Hf7  1  0.000000  0.750558  0.500000  1
  Hf  Hf8  1  0.499922  0.250428  0.666677  1
  Hf  Hf9  1  0.499922  0.749573  0.666677  1
  Hf  Hf10  1  0.999959  0.249774  0.833143  1
  Hf  Hf11  1  0.999959  0.750226  0.833143  1
  Co  Co12  1  0.000000  0.500000  0.000000  1
  Co  Co13  1  0.500058  0.000000  0.165314  1
  Co  Co14  1  0.000059  0.500000  0.332351  1
  Co  Co15  1  0.499999  0.000000  0.500000  1
  Co  Co16  1  0.999941  0.500000  0.667649  1
  Co  Co17  1  0.499942  0.000000  0.834686  1
  Re  Re18  1  0.500172  0.500000  0.165824  1
  Re  Re19  1  0.999866  0.000000  0.332795  1
  Re  Re20  1  0.499999  0.500000  0.500000  1
  Re  Re21  1  0.000134  0.000000  0.667205  1
  Re  Re22  1  0.499828  0.500000  0.834176  1
  Os  Os23  1  0.000000  0.000000  0.000000  1
