# generated using pymatgen
data_Hf4CuRe
_symmetry_space_group_name_H-M   'P 1'
_cell_length_a   8.70352496
_cell_length_b   8.70352516
_cell_length_c   8.70352600
_cell_angle_alpha   60.00000442
_cell_angle_beta   60.00000367
_cell_angle_gamma   60.00000540
_symmetry_Int_Tables_number   1
_chemical_formula_structural   Hf4CuRe
_chemical_formula_sum   'Hf16 Cu4 Re4'
_cell_volume   466.19825767
_cell_formula_units_Z   4
loop_
 _symmetry_equiv_pos_site_id
 _symmetry_equiv_pos_as_xyz
  1  'x, y, z'
loop_
 _atom_site_type_symbol
 _atom_site_label
 _atom_site_symmetry_multiplicity
 _atom_site_fract_x
 _atom_site_fract_y
 _atom_site_fract_z
 _atom_site_occupancy
  Hf  Hf0  1  0.668409  0.110530  0.110530  1
  Hf  Hf1  1  0.110530  0.668409  0.110530  1
  Hf  Hf2  1  0.110530  0.110530  0.668409  1
  Hf  Hf3  1  0.110530  0.110530  0.110530  1
  Hf  Hf4  1  0.316020  0.316020  0.683980  1
  Hf  Hf5  1  0.683980  0.683980  0.316020  1
  Hf  Hf6  1  0.316020  0.683980  0.316020  1
  Hf  Hf7  1  0.683980  0.316020  0.683980  1
  Hf  Hf8  1  0.683980  0.316020  0.316020  1
  Hf  Hf9  1  0.316020  0.683980  0.683980  1
  Hf  Hf10  1  0.955149  0.955149  0.544851  1
  Hf  Hf11  1  0.544851  0.544851  0.955149  1
  Hf  Hf12  1  0.955149  0.544851  0.955149  1
  Hf  Hf13  1  0.544851  0.955149  0.544851  1
  Hf  Hf14  1  0.544851  0.955149  0.955149  1
  Hf  Hf15  1  0.955149  0.544851  0.544851  1
  Cu  Cu16  1  0.316802  0.894399  0.894399  1
  Cu  Cu17  1  0.894399  0.316802  0.894399  1
  Cu  Cu18  1  0.894399  0.894399  0.316802  1
  Cu  Cu19  1  0.894399  0.894399  0.894399  1
  Re  Re20  1  0.997648  0.334117  0.334117  1
  Re  Re21  1  0.334117  0.997648  0.334117  1
  Re  Re22  1  0.334117  0.334117  0.997648  1
  Re  Re23  1  0.334117  0.334117  0.334117  1
