# generated using pymatgen
data_Dy2Lu4CoTe2
_symmetry_space_group_name_H-M   'P 1'
_cell_length_a   8.30141842
_cell_length_b   8.13559840
_cell_length_c   3.89945200
_cell_angle_alpha   90.00000000
_cell_angle_beta   90.00000000
_cell_angle_gamma   119.34140206
_symmetry_Int_Tables_number   1
_chemical_formula_structural   Dy2Lu4CoTe2
_chemical_formula_sum   'Dy2 Lu4 Co1 Te2'
_cell_volume   229.57263094
_cell_formula_units_Z   1
loop_
 _symmetry_equiv_pos_site_id
 _symmetry_equiv_pos_as_xyz
  1  'x, y, z'
loop_
 _atom_site_type_symbol
 _atom_site_label
 _atom_site_symmetry_multiplicity
 _atom_site_fract_x
 _atom_site_fract_y
 _atom_site_fract_z
 _atom_site_occupancy
  Dy  Dy0  1  0.599644  0.599668  0.500000  1
  Dy  Dy1  1  0.400356  0.000024  0.500000  1
  Lu  Lu2  1  0.000000  0.381164  0.500000  1
  Lu  Lu3  1  0.000000  0.769563  0.000000  1
  Lu  Lu4  1  0.236719  0.229074  0.000000  1
  Lu  Lu5  1  0.763281  0.992355  0.000000  1
  Co  Co6  1  0.000000  0.033436  0.500000  1
  Te  Te7  1  0.327923  0.661320  0.000000  1
  Te  Te8  1  0.672077  0.333396  0.000000  1
