# generated using pymatgen
data_PaCoH2N
_symmetry_space_group_name_H-M   'P 1'
_cell_length_a   6.07742715
_cell_length_b   6.07742766
_cell_length_c   4.49993400
_cell_angle_alpha   90.00000000
_cell_angle_beta   90.00000000
_cell_angle_gamma   142.09993270
_symmetry_Int_Tables_number   1
_chemical_formula_structural   PaCoH2N
_chemical_formula_sum   'Pa2 Co2 H4 N2'
_cell_volume   102.09780631
_cell_formula_units_Z   2
loop_
 _symmetry_equiv_pos_site_id
 _symmetry_equiv_pos_as_xyz
  1  'x, y, z'
loop_
 _atom_site_type_symbol
 _atom_site_label
 _atom_site_symmetry_multiplicity
 _atom_site_fract_x
 _atom_site_fract_y
 _atom_site_fract_z
 _atom_site_occupancy
  Pa  Pa0  1  0.620208  0.379792  0.250000  1
  Pa  Pa1  1  0.379792  0.620208  0.750000  1
  Co  Co2  1  0.092136  0.907864  0.750000  1
  Co  Co3  1  0.907864  0.092136  0.250000  1
  H  H4  1  0.187406  0.812594  0.479801  1
  H  H5  1  0.187406  0.812594  0.020199  1
  H  H6  1  0.812594  0.187406  0.979801  1
  H  H7  1  0.812594  0.187406  0.520199  1
  N  N8  1  0.570724  0.429276  0.750000  1
  N  N9  1  0.429276  0.570724  0.250000  1
