# generated using pymatgen
data_LiPm4(RhO4)3
_symmetry_space_group_name_H-M   'P 1'
_cell_length_a   5.38198699
_cell_length_b   5.85019742
_cell_length_c   7.77294400
_cell_angle_alpha   89.74701502
_cell_angle_beta   89.90762599
_cell_angle_gamma   89.54100200
_symmetry_Int_Tables_number   1
_chemical_formula_structural   LiPm4(RhO4)3
_chemical_formula_sum   'Li1 Pm4 Rh3 O12'
_cell_volume   244.72593433
_cell_formula_units_Z   1
loop_
 _symmetry_equiv_pos_site_id
 _symmetry_equiv_pos_as_xyz
  1  'x, y, z'
loop_
 _atom_site_type_symbol
 _atom_site_label
 _atom_site_symmetry_multiplicity
 _atom_site_fract_x
 _atom_site_fract_y
 _atom_site_fract_z
 _atom_site_occupancy
  Li  Li0  1  0.500000  0.000000  0.000000  1
  Pm  Pm1  1  0.978634  0.071220  0.236442  1
  Pm  Pm2  1  0.525608  0.584598  0.235777  1
  Pm  Pm3  1  0.474393  0.415401  0.764223  1
  Pm  Pm4  1  0.021368  0.928781  0.763558  1
  Rh  Rh5  1  0.000000  0.500000  0.000000  1
  Rh  Rh6  1  0.500000  0.000000  0.500000  1
  Rh  Rh7  1  0.000000  0.500000  0.500000  1
  O  O8  1  0.693289  0.311566  0.046401  1
  O  O9  1  0.819585  0.799423  0.048998  1
  O  O10  1  0.114843  0.459936  0.250281  1
  O  O11  1  0.396095  0.968325  0.255133  1
  O  O12  1  0.686250  0.304048  0.439527  1
  O  O13  1  0.813902  0.804111  0.439872  1
  O  O14  1  0.186098  0.195889  0.560129  1
  O  O15  1  0.313750  0.695953  0.560474  1
  O  O16  1  0.603905  0.031674  0.744867  1
  O  O17  1  0.885157  0.540063  0.749719  1
  O  O18  1  0.180415  0.200577  0.951002  1
  O  O19  1  0.306711  0.688435  0.953599  1
