# generated using pymatgen
data_CsMnP2S7
_symmetry_space_group_name_H-M   'P 1'
_cell_length_a   6.57859822
_cell_length_b   6.57859906
_cell_length_c   7.07652329
_cell_angle_alpha   85.67403691
_cell_angle_beta   85.67403488
_cell_angle_gamma   97.31026141
_symmetry_Int_Tables_number   1
_chemical_formula_structural   CsMnP2S7
_chemical_formula_sum   'Cs1 Mn1 P2 S7'
_cell_volume   301.78127509
_cell_formula_units_Z   1
loop_
 _symmetry_equiv_pos_site_id
 _symmetry_equiv_pos_as_xyz
  1  'x, y, z'
loop_
 _atom_site_type_symbol
 _atom_site_label
 _atom_site_symmetry_multiplicity
 _atom_site_fract_x
 _atom_site_fract_y
 _atom_site_fract_z
 _atom_site_occupancy
  Cs  Cs0  1  0.103048  0.896952  0.000000  1
  Mn  Mn1  1  0.511749  0.488251  0.500000  1
  P  P2  1  0.659783  0.941902  0.569622  1
  P  P3  1  0.058098  0.340217  0.430378  1
  S  S4  1  0.643046  0.679629  0.749169  1
  S  S5  1  0.320371  0.356954  0.250831  1
  S  S6  1  0.526381  0.841987  0.339271  1
  S  S7  1  0.158013  0.473619  0.660729  1
  S  S8  1  0.549966  0.167801  0.706745  1
  S  S9  1  0.832199  0.450034  0.293255  1
  S  S10  1  0.987698  0.012302  0.500000  1
