# generated using pymatgen
data_Dy10Ho2GaNi4Sn
_symmetry_space_group_name_H-M   'P 1'
_cell_length_a   8.38034931
_cell_length_b   8.37931045
_cell_length_c   8.38034750
_cell_angle_alpha   112.79112896
_cell_angle_beta   109.66809194
_cell_angle_gamma   106.02987871
_symmetry_Int_Tables_number   1
_chemical_formula_structural   Dy10Ho2GaNi4Sn
_chemical_formula_sum   'Dy10 Ho2 Ga1 Ni4 Sn1'
_cell_volume   451.40931069
_cell_formula_units_Z   1
loop_
 _symmetry_equiv_pos_site_id
 _symmetry_equiv_pos_as_xyz
  1  'x, y, z'
loop_
 _atom_site_type_symbol
 _atom_site_label
 _atom_site_symmetry_multiplicity
 _atom_site_fract_x
 _atom_site_fract_y
 _atom_site_fract_z
 _atom_site_occupancy
  Dy  Dy0  1  0.427536  0.229413  0.197751  1
  Dy  Dy1  1  0.572464  0.770587  0.802249  1
  Dy  Dy2  1  0.031662  0.229413  0.801878  1
  Dy  Dy3  1  0.968338  0.770587  0.198122  1
  Dy  Dy4  1  0.180420  0.286384  0.467200  1
  Dy  Dy5  1  0.819580  0.713616  0.532800  1
  Dy  Dy6  1  0.180817  0.713616  0.894037  1
  Dy  Dy7  1  0.819183  0.286384  0.105963  1
  Dy  Dy8  1  0.322869  0.631924  0.309055  1
  Dy  Dy9  1  0.677131  0.368076  0.690945  1
  Ho  Ho10  1  0.322855  0.013600  0.690744  1
  Ho  Ho11  1  0.677145  0.986400  0.309256  1
  Ga  Ga12  1  0.000000  0.000000  0.000000  1
  Ni  Ni13  1  0.351686  0.000000  0.351686  1
  Ni  Ni14  1  0.648314  0.000000  0.648314  1
  Ni  Ni15  1  0.122023  0.622196  0.500173  1
  Ni  Ni16  1  0.877977  0.377804  0.499827  1
  Sn  Sn17  1  0.500000  0.500000  0.000000  1
