# generated using pymatgen
data_Tm6Lu2Sc12Si15Se
_symmetry_space_group_name_H-M   'P 1'
_cell_length_a   7.11251635
_cell_length_b   7.30569890
_cell_length_c   13.88873790
_cell_angle_alpha   89.85056010
_cell_angle_beta   88.08686799
_cell_angle_gamma   90.05469581
_symmetry_Int_Tables_number   1
_chemical_formula_structural   Tm6Lu2Sc12Si15Se
_chemical_formula_sum   'Tm6 Lu2 Sc12 Si15 Se1'
_cell_volume   721.28013052
_cell_formula_units_Z   1
loop_
 _symmetry_equiv_pos_site_id
 _symmetry_equiv_pos_as_xyz
  1  'x, y, z'
loop_
 _atom_site_type_symbol
 _atom_site_label
 _atom_site_symmetry_multiplicity
 _atom_site_fract_x
 _atom_site_fract_y
 _atom_site_fract_z
 _atom_site_occupancy
  Tm  Tm0  1  0.490118  0.677077  0.903040  1
  Tm  Tm1  1  0.999383  0.825570  0.596400  1
  Tm  Tm2  1  0.510189  0.323823  0.097007  1
  Tm  Tm3  1  0.994763  0.174124  0.401835  1
  Tm  Tm4  1  0.500118  0.316317  0.400894  1
  Tm  Tm5  1  0.509984  0.683102  0.598902  1
  Lu  Lu6  1  0.010479  0.176882  0.097135  1
  Lu  Lu7  1  0.989942  0.824248  0.902552  1
  Sc  Sc8  1  0.169258  0.501580  0.752501  1
  Sc  Sc9  1  0.830377  0.497972  0.253103  1
  Sc  Sc10  1  0.328955  0.001292  0.251683  1
  Sc  Sc11  1  0.671079  0.998486  0.748896  1
  Sc  Sc12  1  0.351509  0.165917  0.626362  1
  Sc  Sc13  1  0.649967  0.829525  0.374684  1
  Sc  Sc14  1  0.148938  0.669903  0.377261  1
  Sc  Sc15  1  0.665412  0.823132  0.125196  1
  Sc  Sc16  1  0.845884  0.331759  0.621682  1
  Sc  Sc17  1  0.333732  0.176210  0.874045  1
  Sc  Sc18  1  0.834963  0.323637  0.874096  1
  Sc  Sc19  1  0.165135  0.676832  0.125243  1
  Si  Si20  1  0.042262  0.116829  0.748653  1
  Si  Si21  1  0.956915  0.884092  0.249503  1
  Si  Si22  1  0.455269  0.614335  0.249772  1
  Si  Si23  1  0.543063  0.386025  0.749422  1
  Si  Si24  1  0.293295  0.868020  0.750677  1
  Si  Si25  1  0.707034  0.129021  0.247996  1
  Si  Si26  1  0.205721  0.370242  0.249534  1
  Si  Si27  1  0.797122  0.630930  0.750501  1
  Si  Si28  1  0.799616  0.539197  0.457432  1
  Si  Si29  1  0.314192  0.960650  0.460362  1
  Si  Si30  1  0.841663  0.534534  0.039191  1
  Si  Si31  1  0.683283  0.039824  0.540565  1
  Si  Si32  1  0.157655  0.466491  0.960429  1
  Si  Si33  1  0.658134  0.034710  0.959738  1
  Si  Si34  1  0.341232  0.966516  0.039951  1
  Se  Se35  1  0.203362  0.461195  0.543752  1
