# generated using pymatgen
data_Li4Nd4Pd3Pt
_symmetry_space_group_name_H-M   'P 1'
_cell_length_a   4.10933800
_cell_length_b   7.29533540
_cell_length_c   8.69202042
_cell_angle_alpha   89.53067316
_cell_angle_beta   90.00000000
_cell_angle_gamma   90.00000000
_symmetry_Int_Tables_number   1
_chemical_formula_structural   Li4Nd4Pd3Pt
_chemical_formula_sum   'Li4 Nd4 Pd3 Pt1'
_cell_volume   260.56932939
_cell_formula_units_Z   1
loop_
 _symmetry_equiv_pos_site_id
 _symmetry_equiv_pos_as_xyz
  1  'x, y, z'
loop_
 _atom_site_type_symbol
 _atom_site_label
 _atom_site_symmetry_multiplicity
 _atom_site_fract_x
 _atom_site_fract_y
 _atom_site_fract_z
 _atom_site_occupancy
  Li  Li0  1  0.250000  0.124453  0.055996  1
  Li  Li1  1  0.250000  0.620686  0.446446  1
  Li  Li2  1  0.750000  0.876355  0.944512  1
  Li  Li3  1  0.750000  0.375576  0.552897  1
  Nd  Nd4  1  0.250000  0.053408  0.680976  1
  Nd  Nd5  1  0.250000  0.550295  0.817194  1
  Nd  Nd6  1  0.750000  0.953699  0.316564  1
  Nd  Nd7  1  0.750000  0.446429  0.187282  1
  Pd  Pd8  1  0.250000  0.744369  0.120977  1
  Pd  Pd9  1  0.750000  0.755800  0.623516  1
  Pd  Pd10  1  0.750000  0.255062  0.877363  1
  Pt  Pt11  1  0.250000  0.243868  0.376277  1
