# generated using pymatgen
data_Mn3V9Si3As
_symmetry_space_group_name_H-M   'P 1'
_cell_length_a   4.62965994
_cell_length_b   4.63776894
_cell_length_c   9.25580100
_cell_angle_alpha   90.00000000
_cell_angle_beta   90.00000000
_cell_angle_gamma   90.10484265
_symmetry_Int_Tables_number   1
_chemical_formula_structural   Mn3V9Si3As
_chemical_formula_sum   'Mn3 V9 Si3 As1'
_cell_volume   198.73368313
_cell_formula_units_Z   1
loop_
 _symmetry_equiv_pos_site_id
 _symmetry_equiv_pos_as_xyz
  1  'x, y, z'
loop_
 _atom_site_type_symbol
 _atom_site_label
 _atom_site_symmetry_multiplicity
 _atom_site_fract_x
 _atom_site_fract_y
 _atom_site_fract_z
 _atom_site_occupancy
  Mn  Mn0  1  0.499642  0.247608  0.745327  1
  Mn  Mn1  1  0.499642  0.247608  0.254673  1
  Mn  Mn2  1  0.747631  0.998416  0.500000  1
  V  V3  1  0.000658  0.500282  0.128908  1
  V  V4  1  0.999413  0.500046  0.622720  1
  V  V5  1  0.753574  0.000774  0.000000  1
  V  V6  1  0.000658  0.500282  0.871092  1
  V  V7  1  0.999413  0.500046  0.377280  1
  V  V8  1  0.499282  0.753846  0.746016  1
  V  V9  1  0.499282  0.753846  0.253984  1
  V  V10  1  0.248372  0.999805  0.000000  1
  V  V11  1  0.254068  0.998988  0.500000  1
  Si  Si12  1  0.500957  0.497400  0.500000  1
  Si  Si13  1  0.998752  0.000060  0.748046  1
  Si  Si14  1  0.998752  0.000060  0.251954  1
  As  As15  1  0.499903  0.500935  0.000000  1
