# generated using pymatgen
data_Y3HoHf4F28
_symmetry_space_group_name_H-M   'P 1'
_cell_length_a   5.66458509
_cell_length_b   9.02345930
_cell_length_c   12.17388468
_cell_angle_alpha   62.47099946
_cell_angle_beta   89.99864901
_cell_angle_gamma   90.00566318
_symmetry_Int_Tables_number   1
_chemical_formula_structural   Y3HoHf4F28
_chemical_formula_sum   'Y3 Ho1 Hf4 F28'
_cell_volume   551.80390599
_cell_formula_units_Z   1
loop_
 _symmetry_equiv_pos_site_id
 _symmetry_equiv_pos_as_xyz
  1  'x, y, z'
loop_
 _atom_site_type_symbol
 _atom_site_label
 _atom_site_symmetry_multiplicity
 _atom_site_fract_x
 _atom_site_fract_y
 _atom_site_fract_z
 _atom_site_occupancy
  Y  Y0  1  0.756231  0.814649  0.764840  1
  Y  Y1  1  0.256286  0.185027  0.735101  1
  Y  Y2  1  0.244056  0.184467  0.235153  1
  Ho  Ho3  1  0.743571  0.814926  0.264818  1
  Hf  Hf4  1  0.756258  0.273172  0.957240  1
  Hf  Hf5  1  0.256247  0.726125  0.542319  1
  Hf  Hf6  1  0.243304  0.726157  0.043988  1
  Hf  Hf7  1  0.743576  0.274756  0.456437  1
  F  F8  1  0.454704  0.709512  0.918399  1
  F  F9  1  0.954343  0.291173  0.582252  1
  F  F10  1  0.545431  0.290573  0.082569  1
  F  F11  1  0.043633  0.709859  0.417030  1
  F  F12  1  0.446097  0.275199  0.547662  1
  F  F13  1  0.946675  0.725278  0.952212  1
  F  F14  1  0.553312  0.725807  0.450421  1
  F  F15  1  0.053849  0.274490  0.048141  1
  F  F16  1  0.777351  0.522982  0.861442  1
  F  F17  1  0.278142  0.476546  0.638514  1
  F  F18  1  0.222840  0.476483  0.139501  1
  F  F19  1  0.723375  0.524654  0.360558  1
  F  F20  1  0.759008  0.024126  0.058585  1
  F  F21  1  0.259334  0.975204  0.442352  1
  F  F22  1  0.240731  0.975128  0.942857  1
  F  F23  1  0.740941  0.025612  0.557344  1
  F  F24  1  0.977755  0.731223  0.642476  1
  F  F25  1  0.477119  0.268470  0.857466  1
  F  F26  1  0.021980  0.268530  0.356748  1
  F  F27  1  0.521273  0.732129  0.144268  1
  F  F28  1  0.040132  0.748090  0.172442  1
  F  F29  1  0.542503  0.252967  0.327496  1
  F  F30  1  0.957172  0.251964  0.828003  1
  F  F31  1  0.458075  0.747522  0.671363  1
  F  F32  1  0.424243  0.970008  0.232920  1
  F  F33  1  0.922096  0.027398  0.267104  1
  F  F34  1  0.579166  0.029618  0.767482  1
  F  F35  1  0.079197  0.970180  0.732496  1
