# generated using pymatgen
data_ErTm3Fe8(PIr)12
_symmetry_space_group_name_H-M   'P 1'
_cell_length_a   3.84538900
_cell_length_b   10.49157200
_cell_length_c   12.29511300
_cell_angle_alpha   89.99904956
_cell_angle_beta   90.00000000
_cell_angle_gamma   90.00000000
_symmetry_Int_Tables_number   1
_chemical_formula_structural   ErTm3Fe8(PIr)12
_chemical_formula_sum   'Er1 Tm3 Fe8 P12 Ir12'
_cell_volume   496.03619739
_cell_formula_units_Z   1
loop_
 _symmetry_equiv_pos_site_id
 _symmetry_equiv_pos_as_xyz
  1  'x, y, z'
loop_
 _atom_site_type_symbol
 _atom_site_label
 _atom_site_symmetry_multiplicity
 _atom_site_fract_x
 _atom_site_fract_y
 _atom_site_fract_z
 _atom_site_occupancy
  Er  Er0  1  0.250000  0.578927  0.712837  1
  Tm  Tm1  1  0.250000  0.921072  0.212874  1
  Tm  Tm2  1  0.750000  0.421083  0.287119  1
  Tm  Tm3  1  0.750000  0.078911  0.787120  1
  Fe  Fe4  1  0.250000  0.875137  0.697568  1
  Fe  Fe5  1  0.250000  0.624957  0.197575  1
  Fe  Fe6  1  0.750000  0.124960  0.302415  1
  Fe  Fe7  1  0.750000  0.374844  0.802521  1
  Fe  Fe8  1  0.250000  0.457334  0.935938  1
  Fe  Fe9  1  0.250000  0.042611  0.435855  1
  Fe  Fe10  1  0.750000  0.542645  0.064185  1
  Fe  Fe11  1  0.750000  0.957361  0.564163  1
  P  P12  1  0.250000  0.441711  0.112411  1
  P  P13  1  0.250000  0.058269  0.612384  1
  P  P14  1  0.750000  0.558280  0.887844  1
  P  P15  1  0.750000  0.941683  0.387624  1
  P  P16  1  0.250000  0.271107  0.862891  1
  P  P17  1  0.250000  0.228910  0.362907  1
  P  P18  1  0.750000  0.728896  0.137083  1
  P  P19  1  0.750000  0.771312  0.637028  1
  P  P20  1  0.250000  0.599787  0.376559  1
  P  P21  1  0.250000  0.900175  0.876511  1
  P  P22  1  0.750000  0.400001  0.623360  1
  P  P23  1  0.750000  0.099783  0.123474  1
  Ir  Ir24  1  0.250000  0.718717  0.990566  1
  Ir  Ir25  1  0.250000  0.781290  0.490576  1
  Ir  Ir26  1  0.750000  0.281276  0.009394  1
  Ir  Ir27  1  0.750000  0.218703  0.509413  1
  Ir  Ir28  1  0.250000  0.409574  0.473834  1
  Ir  Ir29  1  0.250000  0.090414  0.973843  1
  Ir  Ir30  1  0.750000  0.590470  0.525769  1
  Ir  Ir31  1  0.750000  0.909542  0.026141  1
  Ir  Ir32  1  0.250000  0.232626  0.173645  1
  Ir  Ir33  1  0.250000  0.267342  0.673642  1
  Ir  Ir34  1  0.750000  0.767652  0.826522  1
  Ir  Ir35  1  0.750000  0.732639  0.326408  1
