# generated using pymatgen
data_Ca5Yb2Pr13Sn16
_symmetry_space_group_name_H-M   'P 1'
_cell_length_a   8.08149926
_cell_length_b   8.55894371
_cell_length_c   16.17680901
_cell_angle_alpha   90.02149888
_cell_angle_beta   89.98342947
_cell_angle_gamma   89.98809113
_symmetry_Int_Tables_number   1
_chemical_formula_structural   Ca5Yb2Pr13Sn16
_chemical_formula_sum   'Ca5 Yb2 Pr13 Sn16'
_cell_volume   1118.93512677
_cell_formula_units_Z   1
loop_
 _symmetry_equiv_pos_site_id
 _symmetry_equiv_pos_as_xyz
  1  'x, y, z'
loop_
 _atom_site_type_symbol
 _atom_site_label
 _atom_site_symmetry_multiplicity
 _atom_site_fract_x
 _atom_site_fract_y
 _atom_site_fract_z
 _atom_site_occupancy
  Ca  Ca0  1  0.669508  0.169572  0.377309  1
  Ca  Ca1  1  0.163011  0.498683  0.749893  1
  Ca  Ca2  1  0.662077  0.002349  0.749866  1
  Ca  Ca3  1  0.836708  0.502514  0.251567  1
  Ca  Ca4  1  0.337556  0.994685  0.250887  1
  Yb  Yb5  1  0.330386  0.829261  0.876853  1
  Yb  Yb6  1  0.832201  0.670796  0.622744  1
  Pr  Pr7  1  0.166097  0.325773  0.123388  1
  Pr  Pr8  1  0.666468  0.172311  0.124330  1
  Pr  Pr9  1  0.165941  0.326710  0.375846  1
  Pr  Pr10  1  0.335419  0.827176  0.624726  1
  Pr  Pr11  1  0.834887  0.674732  0.874676  1
  Pr  Pr12  1  0.490605  0.315801  0.904393  1
  Pr  Pr13  1  0.991108  0.187337  0.596413  1
  Pr  Pr14  1  0.510591  0.685151  0.404545  1
  Pr  Pr15  1  0.008404  0.814651  0.095514  1
  Pr  Pr16  1  0.508885  0.683456  0.095752  1
  Pr  Pr17  1  0.005753  0.815996  0.405011  1
  Pr  Pr18  1  0.493362  0.315863  0.595017  1
  Pr  Pr19  1  0.990115  0.185577  0.902854  1
  Sn  Sn20  1  0.327689  0.033326  0.038506  1
  Sn  Sn21  1  0.827662  0.466051  0.461328  1
  Sn  Sn22  1  0.673914  0.965406  0.539877  1
  Sn  Sn23  1  0.173758  0.535820  0.960926  1
  Sn  Sn24  1  0.671212  0.963033  0.961737  1
  Sn  Sn25  1  0.173348  0.537798  0.537879  1
  Sn  Sn26  1  0.328411  0.036175  0.462220  1
  Sn  Sn27  1  0.825532  0.463349  0.036791  1
  Sn  Sn28  1  0.533219  0.604203  0.750063  1
  Sn  Sn29  1  0.032643  0.898519  0.749558  1
  Sn  Sn30  1  0.468233  0.397545  0.249592  1
  Sn  Sn31  1  0.967964  0.103125  0.250685  1
  Sn  Sn32  1  0.288869  0.141632  0.749617  1
  Sn  Sn33  1  0.788085  0.359707  0.750482  1
  Sn  Sn34  1  0.710223  0.857102  0.249193  1
  Sn  Sn35  1  0.210159  0.638811  0.249962  1
