# generated using pymatgen
data_TbSm3Bi3Sb3Rh7
_symmetry_space_group_name_H-M   'P 1'
_cell_length_a   7.82156167
_cell_length_b   7.76450864
_cell_length_c   7.76450639
_cell_angle_alpha   109.30066615
_cell_angle_beta   109.57638940
_cell_angle_gamma   109.57638130
_symmetry_Int_Tables_number   1
_chemical_formula_structural   TbSm3Bi3Sb3Rh7
_chemical_formula_sum   'Tb1 Sm3 Bi3 Sb3 Rh7'
_cell_volume   362.81357850
_cell_formula_units_Z   1
loop_
 _symmetry_equiv_pos_site_id
 _symmetry_equiv_pos_as_xyz
  1  'x, y, z'
loop_
 _atom_site_type_symbol
 _atom_site_label
 _atom_site_symmetry_multiplicity
 _atom_site_fract_x
 _atom_site_fract_y
 _atom_site_fract_z
 _atom_site_occupancy
  Tb  Tb0  1  0.489644  0.485479  0.485479  1
  Sm  Sm1  1  0.466363  0.999933  0.999933  1
  Sm  Sm2  1  0.003412  0.513065  0.000178  1
  Sm  Sm3  1  0.003412  0.000178  0.513065  1
  Bi  Bi4  1  0.989438  0.300172  0.300172  1
  Bi  Bi5  1  0.687846  0.998165  0.699976  1
  Bi  Bi6  1  0.687846  0.699976  0.998165  1
  Sb  Sb7  1  0.987652  0.662732  0.662732  1
  Sb  Sb8  1  0.326175  0.001285  0.337499  1
  Sb  Sb9  1  0.326175  0.337499  0.001285  1
  Rh  Rh10  1  0.069918  0.000481  0.000481  1
  Rh  Rh11  1  0.495954  0.752150  0.255200  1
  Rh  Rh12  1  0.742065  0.501229  0.247988  1
  Rh  Rh13  1  0.243039  0.745418  0.499051  1
  Rh  Rh14  1  0.243039  0.499051  0.745418  1
  Rh  Rh15  1  0.495954  0.255200  0.752150  1
  Rh  Rh16  1  0.742065  0.247988  0.501229  1
