# generated using pymatgen
data_DyEr2Th(Ga3Ir)6
_symmetry_space_group_name_H-M   'P 1'
_cell_length_a   7.60547626
_cell_length_b   7.61355928
_cell_length_c   9.48821700
_cell_angle_alpha   90.00000000
_cell_angle_beta   90.00000000
_cell_angle_gamma   119.75845457
_symmetry_Int_Tables_number   1
_chemical_formula_structural   DyEr2Th(Ga3Ir)6
_chemical_formula_sum   'Dy1 Er2 Th1 Ga18 Ir6'
_cell_volume   476.95928998
_cell_formula_units_Z   1
loop_
 _symmetry_equiv_pos_site_id
 _symmetry_equiv_pos_as_xyz
  1  'x, y, z'
loop_
 _atom_site_type_symbol
 _atom_site_label
 _atom_site_symmetry_multiplicity
 _atom_site_fract_x
 _atom_site_fract_y
 _atom_site_fract_z
 _atom_site_occupancy
  Dy  Dy0  1  0.330594  0.003319  0.250000  1
  Er  Er1  1  0.003433  0.331129  0.250000  1
  Er  Er2  1  0.670042  0.996435  0.750000  1
  Th  Th3  1  0.996212  0.668709  0.750000  1
  Ga  Ga4  1  0.130073  0.132328  0.750000  1
  Ga  Ga5  1  0.872395  0.874316  0.250000  1
  Ga  Ga6  1  0.998723  0.328561  0.577641  1
  Ga  Ga7  1  0.000921  0.664990  0.414003  1
  Ga  Ga8  1  0.000921  0.664990  0.085997  1
  Ga  Ga9  1  0.340769  0.004282  0.922118  1
  Ga  Ga10  1  0.998723  0.328561  0.922359  1
  Ga  Ga11  1  0.665866  0.002089  0.081149  1
  Ga  Ga12  1  0.665866  0.002089  0.418851  1
  Ga  Ga13  1  0.340769  0.004282  0.577882  1
  Ga  Ga14  1  0.330987  0.331297  0.068103  1
  Ga  Ga15  1  0.662902  0.668297  0.937260  1
  Ga  Ga16  1  0.662902  0.668297  0.562740  1
  Ga  Ga17  1  0.330987  0.331297  0.431897  1
  Ga  Ga18  1  0.342453  0.546036  0.750000  1
  Ga  Ga19  1  0.659317  0.452272  0.250000  1
  Ga  Ga20  1  0.541437  0.336512  0.750000  1
  Ga  Ga21  1  0.452633  0.660674  0.250000  1
  Ir  Ir22  1  0.673674  0.331114  0.500685  1
  Ir  Ir23  1  0.326474  0.670841  0.500581  1
  Ir  Ir24  1  0.326474  0.670841  0.999419  1
  Ir  Ir25  1  0.673674  0.331114  0.999315  1
  Ir  Ir26  1  0.000394  0.997663  0.500834  1
  Ir  Ir27  1  0.000394  0.997663  0.999166  1
