# generated using pymatgen
data_Tb2YCd3Sn2Au
_symmetry_space_group_name_H-M   'P 1'
_cell_length_a   7.48220300
_cell_length_b   7.47695969
_cell_length_c   4.57592700
_cell_angle_alpha   90.00000000
_cell_angle_beta   90.00000000
_cell_angle_gamma   120.02319587
_symmetry_Int_Tables_number   1
_chemical_formula_structural   Tb2YCd3Sn2Au
_chemical_formula_sum   'Tb2 Y1 Cd3 Sn2 Au1'
_cell_volume   221.64742341
_cell_formula_units_Z   1
loop_
 _symmetry_equiv_pos_site_id
 _symmetry_equiv_pos_as_xyz
  1  'x, y, z'
loop_
 _atom_site_type_symbol
 _atom_site_label
 _atom_site_symmetry_multiplicity
 _atom_site_fract_x
 _atom_site_fract_y
 _atom_site_fract_z
 _atom_site_occupancy
  Tb  Tb0  1  0.000004  0.593413  0.000000  1
  Tb  Tb1  1  0.406591  0.406587  0.000000  1
  Y  Y2  1  0.593322  0.000000  0.000000  1
  Cd  Cd3  1  0.238960  0.000000  0.500000  1
  Cd  Cd4  1  0.999962  0.238841  0.500000  1
  Cd  Cd5  1  0.761121  0.761159  0.500000  1
  Sn  Sn6  1  0.333364  0.666775  0.500000  1
  Sn  Sn7  1  0.666590  0.333225  0.500000  1
  Au  Au8  1  0.000087  0.000000  0.000000  1
