# generated using pymatgen
data_TbLu2Hf(NiP)4
_symmetry_space_group_name_H-M   'P 1'
_cell_length_a   3.85735400
_cell_length_b   3.85735352
_cell_length_c   14.84113700
_cell_angle_alpha   90.00000000
_cell_angle_beta   90.00000000
_cell_angle_gamma   120.00000412
_symmetry_Int_Tables_number   1
_chemical_formula_structural   TbLu2Hf(NiP)4
_chemical_formula_sum   'Tb1 Lu2 Hf1 Ni4 P4'
_cell_volume   191.23911613
_cell_formula_units_Z   1
loop_
 _symmetry_equiv_pos_site_id
 _symmetry_equiv_pos_as_xyz
  1  'x, y, z'
loop_
 _atom_site_type_symbol
 _atom_site_label
 _atom_site_symmetry_multiplicity
 _atom_site_fract_x
 _atom_site_fract_y
 _atom_site_fract_z
 _atom_site_occupancy
  Tb  Tb0  1  0.000000  0.000000  0.494988  1
  Lu  Lu1  1  0.000000  0.000000  0.753743  1
  Lu  Lu2  1  0.000000  0.000000  0.004288  1
  Hf  Hf3  1  0.000000  0.000000  0.246668  1
  Ni  Ni4  1  0.333333  0.666667  0.147817  1
  Ni  Ni5  1  0.666667  0.333333  0.874992  1
  Ni  Ni6  1  0.666667  0.333333  0.633216  1
  Ni  Ni7  1  0.333333  0.666667  0.344439  1
  P  P8  1  0.333333  0.666667  0.623857  1
  P  P9  1  0.666667  0.333333  0.370952  1
  P  P10  1  0.666667  0.333333  0.122328  1
  P  P11  1  0.333333  0.666667  0.882710  1
