# generated using pymatgen
data_Dy3Y5Cd2OsPt
_symmetry_space_group_name_H-M   'P 1'
_cell_length_a   9.67766141
_cell_length_b   9.68780297
_cell_length_c   9.74719832
_cell_angle_alpha   59.72624084
_cell_angle_beta   59.82890521
_cell_angle_gamma   59.67409353
_symmetry_Int_Tables_number   1
_chemical_formula_structural   Dy3Y5Cd2OsPt
_chemical_formula_sum   'Dy6 Y10 Cd4 Os2 Pt2'
_cell_volume   642.41787722
_cell_formula_units_Z   2
loop_
 _symmetry_equiv_pos_site_id
 _symmetry_equiv_pos_as_xyz
  1  'x, y, z'
loop_
 _atom_site_type_symbol
 _atom_site_label
 _atom_site_symmetry_multiplicity
 _atom_site_fract_x
 _atom_site_fract_y
 _atom_site_fract_z
 _atom_site_occupancy
  Dy  Dy0  1  0.349179  0.349443  0.352823  1
  Dy  Dy1  1  0.349435  0.349166  0.948578  1
  Dy  Dy2  1  0.346449  0.954855  0.349115  1
  Dy  Dy3  1  0.954853  0.346450  0.349596  1
  Dy  Dy4  1  0.814517  0.188401  0.190696  1
  Dy  Dy5  1  0.188396  0.814526  0.806370  1
  Y  Y6  1  0.188400  0.814101  0.191025  1
  Y  Y7  1  0.814107  0.188396  0.806466  1
  Y  Y8  1  0.188556  0.188556  0.811422  1
  Y  Y9  1  0.808303  0.808305  0.191684  1
  Y  Y10  1  0.937718  0.557422  0.566551  1
  Y  Y11  1  0.557436  0.937703  0.938297  1
  Y  Y12  1  0.556894  0.938074  0.566443  1
  Y  Y13  1  0.938065  0.556905  0.938579  1
  Y  Y14  1  0.562802  0.562798  0.937195  1
  Y  Y15  1  0.939821  0.939821  0.560186  1
  Cd  Cd16  1  0.580403  0.580081  0.580657  1
  Cd  Cd17  1  0.580081  0.580400  0.258865  1
  Cd  Cd18  1  0.580845  0.256131  0.581692  1
  Cd  Cd19  1  0.256129  0.580844  0.581355  1
  Os  Os20  1  0.142981  0.145207  0.138741  1
  Os  Os21  1  0.145201  0.142999  0.573066  1
  Pt  Pt22  1  0.146003  0.573408  0.139444  1
  Pt  Pt23  1  0.573426  0.146010  0.141157  1
