# generated using pymatgen
data_Ba6PrSm(BO3)6
_symmetry_space_group_name_H-M   'P 1'
_cell_length_a   8.32570826
_cell_length_b   8.32570846
_cell_length_c   8.32570613
_cell_angle_alpha   105.50279884
_cell_angle_beta   105.50280337
_cell_angle_gamma   105.50281139
_symmetry_Int_Tables_number   1
_chemical_formula_structural   Ba6PrSm(BO3)6
_chemical_formula_sum   'Ba6 Pr1 Sm1 B6 O18'
_cell_volume   498.95872979
_cell_formula_units_Z   1
loop_
 _symmetry_equiv_pos_site_id
 _symmetry_equiv_pos_as_xyz
  1  'x, y, z'
loop_
 _atom_site_type_symbol
 _atom_site_label
 _atom_site_symmetry_multiplicity
 _atom_site_fract_x
 _atom_site_fract_y
 _atom_site_fract_z
 _atom_site_occupancy
  Ba  Ba0  1  0.352920  0.732836  0.846370  1
  Ba  Ba1  1  0.846370  0.352920  0.732836  1
  Ba  Ba2  1  0.732836  0.846370  0.352920  1
  Ba  Ba3  1  0.647080  0.267164  0.153630  1
  Ba  Ba4  1  0.153630  0.647080  0.267164  1
  Ba  Ba5  1  0.267164  0.153630  0.647080  1
  Pr  Pr6  1  0.000000  0.000000  0.000000  1
  Sm  Sm7  1  0.500000  0.500000  0.500000  1
  B  B8  1  0.708889  0.616786  0.957890  1
  B  B9  1  0.957890  0.708889  0.616786  1
  B  B10  1  0.616786  0.957890  0.708889  1
  B  B11  1  0.042110  0.291111  0.383214  1
  B  B12  1  0.383214  0.042110  0.291111  1
  B  B13  1  0.291111  0.383214  0.042110  1
  O  O14  1  0.056765  0.809013  0.544224  1
  O  O15  1  0.544224  0.056765  0.809013  1
  O  O16  1  0.427844  0.493078  0.208299  1
  O  O17  1  0.493078  0.208299  0.427844  1
  O  O18  1  0.208299  0.427844  0.493078  1
  O  O19  1  0.791701  0.572156  0.506922  1
  O  O20  1  0.572156  0.506922  0.791701  1
  O  O21  1  0.506922  0.791701  0.572156  1
  O  O22  1  0.261079  0.200222  0.979751  1
  O  O23  1  0.200222  0.979751  0.261079  1
  O  O24  1  0.979751  0.261079  0.200222  1
  O  O25  1  0.738921  0.799778  0.020249  1
  O  O26  1  0.799778  0.020249  0.738921  1
  O  O27  1  0.020249  0.738921  0.799778  1
  O  O28  1  0.190987  0.455776  0.943235  1
  O  O29  1  0.455776  0.943235  0.190987  1
  O  O30  1  0.943235  0.190987  0.455776  1
  O  O31  1  0.809013  0.544224  0.056765  1
