# generated using pymatgen
data_YFe4MoP3
_symmetry_space_group_name_H-M   'P 1'
_cell_length_a   3.71198300
_cell_length_b   10.42066400
_cell_length_c   12.04719800
_cell_angle_alpha   90.00000000
_cell_angle_beta   90.00000000
_cell_angle_gamma   90.00000000
_symmetry_Int_Tables_number   1
_chemical_formula_structural   YFe4MoP3
_chemical_formula_sum   'Y4 Fe16 Mo4 P12'
_cell_volume   466.00161270
_cell_formula_units_Z   4
loop_
 _symmetry_equiv_pos_site_id
 _symmetry_equiv_pos_as_xyz
  1  'x, y, z'
loop_
 _atom_site_type_symbol
 _atom_site_label
 _atom_site_symmetry_multiplicity
 _atom_site_fract_x
 _atom_site_fract_y
 _atom_site_fract_z
 _atom_site_occupancy
  Y  Y0  1  0.250000  0.583153  0.708963  1
  Y  Y1  1  0.250000  0.916847  0.208963  1
  Y  Y2  1  0.750000  0.416847  0.291037  1
  Y  Y3  1  0.750000  0.083153  0.791037  1
  Fe  Fe4  1  0.250000  0.410903  0.493110  1
  Fe  Fe5  1  0.250000  0.089098  0.993110  1
  Fe  Fe6  1  0.750000  0.589097  0.506890  1
  Fe  Fe7  1  0.750000  0.910903  0.006890  1
  Fe  Fe8  1  0.250000  0.217008  0.177007  1
  Fe  Fe9  1  0.250000  0.282992  0.677007  1
  Fe  Fe10  1  0.750000  0.782992  0.822993  1
  Fe  Fe11  1  0.750000  0.717008  0.322993  1
  Fe  Fe12  1  0.250000  0.877347  0.700266  1
  Fe  Fe13  1  0.250000  0.622653  0.200266  1
  Fe  Fe14  1  0.750000  0.122653  0.299734  1
  Fe  Fe15  1  0.750000  0.377347  0.799734  1
  Fe  Fe16  1  0.250000  0.463476  0.933573  1
  Fe  Fe17  1  0.250000  0.036524  0.433573  1
  Fe  Fe18  1  0.750000  0.536524  0.066427  1
  Fe  Fe19  1  0.750000  0.963476  0.566427  1
  Mo  Mo20  1  0.250000  0.706880  0.988302  1
  Mo  Mo21  1  0.250000  0.793120  0.488302  1
  Mo  Mo22  1  0.750000  0.293120  0.011698  1
  Mo  Mo23  1  0.750000  0.206880  0.511698  1
  P  P24  1  0.250000  0.425117  0.112746  1
  P  P25  1  0.250000  0.074883  0.612746  1
  P  P26  1  0.750000  0.574883  0.887254  1
  P  P27  1  0.750000  0.925117  0.387254  1
  P  P28  1  0.250000  0.267274  0.866256  1
  P  P29  1  0.250000  0.232726  0.366256  1
  P  P30  1  0.750000  0.732726  0.133744  1
  P  P31  1  0.750000  0.767274  0.633744  1
  P  P32  1  0.250000  0.595239  0.387320  1
  P  P33  1  0.250000  0.904761  0.887320  1
  P  P34  1  0.750000  0.404761  0.612680  1
  P  P35  1  0.750000  0.095239  0.112680  1
