# generated using pymatgen
data_RbFeP2Ir
_symmetry_space_group_name_H-M   'P 1'
_cell_length_a   7.46073317
_cell_length_b   7.46073307
_cell_length_c   7.46073399
_cell_angle_alpha   149.88007590
_cell_angle_beta   149.88006932
_cell_angle_gamma   43.11746860
_symmetry_Int_Tables_number   1
_chemical_formula_structural   RbFeP2Ir
_chemical_formula_sum   'Rb1 Fe1 P2 Ir1'
_cell_volume   104.30011010
_cell_formula_units_Z   1
loop_
 _symmetry_equiv_pos_site_id
 _symmetry_equiv_pos_as_xyz
  1  'x, y, z'
loop_
 _atom_site_type_symbol
 _atom_site_label
 _atom_site_symmetry_multiplicity
 _atom_site_fract_x
 _atom_site_fract_y
 _atom_site_fract_z
 _atom_site_occupancy
  Rb  Rb0  1  0.000000  0.000000  0.000000  1
  Fe  Fe1  1  0.750000  0.250000  0.500000  1
  P  P2  1  0.338254  0.338254  0.000000  1
  P  P3  1  0.661746  0.661746  0.000000  1
  Ir  Ir4  1  0.250000  0.750000  0.500000  1
