# generated using pymatgen
data_LiHf5Si2(As2Ru3)2
_symmetry_space_group_name_H-M   'P 1'
_cell_length_a   7.61483053
_cell_length_b   7.64198272
_cell_length_c   7.61483125
_cell_angle_alpha   127.83249158
_cell_angle_beta   121.63490038
_cell_angle_gamma   81.97824661
_symmetry_Int_Tables_number   1
_chemical_formula_structural   LiHf5Si2(As2Ru3)2
_chemical_formula_sum   'Li1 Hf5 Si2 As4 Ru6'
_cell_volume   286.83750653
_cell_formula_units_Z   1
loop_
 _symmetry_equiv_pos_site_id
 _symmetry_equiv_pos_as_xyz
  1  'x, y, z'
loop_
 _atom_site_type_symbol
 _atom_site_label
 _atom_site_symmetry_multiplicity
 _atom_site_fract_x
 _atom_site_fract_y
 _atom_site_fract_z
 _atom_site_occupancy
  Li  Li0  1  0.470776  0.700976  0.730199  1
  Hf  Hf1  1  0.530261  0.256026  0.225766  1
  Hf  Hf2  1  0.749451  0.841278  0.591828  1
  Hf  Hf3  1  0.249098  0.838962  0.089862  1
  Hf  Hf4  1  0.054441  0.257376  0.702935  1
  Hf  Hf5  1  0.946031  0.647295  0.201265  1
  Si  Si6  1  0.280259  0.279819  0.499562  1
  Si  Si7  1  0.727771  0.228616  0.000844  1
  As  As8  1  0.331956  0.588725  0.261039  1
  As  As9  1  0.666527  0.913301  0.244727  1
  As  As10  1  0.168574  0.913301  0.746773  1
  As  As11  1  0.827687  0.588725  0.756769  1
  Ru  Ru12  1  0.495067  0.491862  0.992017  1
  Ru  Ru13  1  0.999844  0.491862  0.496795  1
  Ru  Ru14  1  0.092631  0.247284  0.098454  1
  Ru  Ru15  1  0.907289  0.013455  0.159946  1
  Ru  Ru16  1  0.353507  0.013455  0.606165  1
  Ru  Ru17  1  0.648830  0.247284  0.654652  1
