# generated using pymatgen
data_Cs4K2ScAlAs4
_symmetry_space_group_name_H-M   'P 1'
_cell_length_a   9.80565233
_cell_length_b   9.80565269
_cell_length_c   9.80565122
_cell_angle_alpha   132.50028576
_cell_angle_beta   64.46200403
_cell_angle_gamma   139.07044165
_symmetry_Int_Tables_number   1
_chemical_formula_structural   Cs4K2ScAlAs4
_chemical_formula_sum   'Cs4 K2 Sc1 Al1 As4'
_cell_volume   449.21161415
_cell_formula_units_Z   1
loop_
 _symmetry_equiv_pos_site_id
 _symmetry_equiv_pos_as_xyz
  1  'x, y, z'
loop_
 _atom_site_type_symbol
 _atom_site_label
 _atom_site_symmetry_multiplicity
 _atom_site_fract_x
 _atom_site_fract_y
 _atom_site_fract_z
 _atom_site_occupancy
  Cs  Cs0  1  0.820220  0.226595  0.052220  1
  Cs  Cs1  1  0.679780  0.732000  0.406375  1
  Cs  Cs2  1  0.325625  0.273405  0.593626  1
  Cs  Cs3  1  0.174375  0.768000  0.947780  1
  K  K4  1  0.749999  0.249999  0.500000  1
  K  K5  1  0.249999  0.749999  0.500000  1
  Sc  Sc6  1  0.249999  0.249999  0.000000  1
  Al  Al7  1  0.750000  0.750000  0.000000  1
  As  As8  1  0.426274  0.695042  0.098747  1
  As  As9  1  0.073726  0.172474  0.268768  1
  As  As10  1  0.903706  0.804959  0.731232  1
  As  As11  1  0.596294  0.327526  0.901253  1
