# generated using pymatgen
data_YCo4TcP3
_symmetry_space_group_name_H-M   'P 1'
_cell_length_a   3.71630000
_cell_length_b   10.36996700
_cell_length_c   11.82958600
_cell_angle_alpha   90.00000000
_cell_angle_beta   90.00000000
_cell_angle_gamma   90.00000000
_symmetry_Int_Tables_number   1
_chemical_formula_structural   YCo4TcP3
_chemical_formula_sum   'Y4 Co16 Tc4 P12'
_cell_volume   455.88750123
_cell_formula_units_Z   4
loop_
 _symmetry_equiv_pos_site_id
 _symmetry_equiv_pos_as_xyz
  1  'x, y, z'
loop_
 _atom_site_type_symbol
 _atom_site_label
 _atom_site_symmetry_multiplicity
 _atom_site_fract_x
 _atom_site_fract_y
 _atom_site_fract_z
 _atom_site_occupancy
  Y  Y0  1  0.250000  0.915792  0.204613  1
  Y  Y1  1  0.750000  0.084208  0.795387  1
  Y  Y2  1  0.750000  0.415792  0.295387  1
  Y  Y3  1  0.250000  0.584208  0.704613  1
  Co  Co4  1  0.250000  0.093267  0.989121  1
  Co  Co5  1  0.750000  0.906733  0.010879  1
  Co  Co6  1  0.750000  0.593267  0.510879  1
  Co  Co7  1  0.250000  0.406733  0.489121  1
  Co  Co8  1  0.250000  0.278053  0.676538  1
  Co  Co9  1  0.750000  0.721947  0.323462  1
  Co  Co10  1  0.750000  0.778053  0.823462  1
  Co  Co11  1  0.250000  0.221947  0.176538  1
  Co  Co12  1  0.250000  0.614455  0.202136  1
  Co  Co13  1  0.750000  0.385545  0.797864  1
  Co  Co14  1  0.750000  0.114455  0.297864  1
  Co  Co15  1  0.250000  0.885545  0.702136  1
  Co  Co16  1  0.250000  0.035955  0.431791  1
  Co  Co17  1  0.750000  0.964045  0.568209  1
  Co  Co18  1  0.750000  0.535955  0.068209  1
  Co  Co19  1  0.250000  0.464045  0.931791  1
  Tc  Tc20  1  0.250000  0.789303  0.489351  1
  Tc  Tc21  1  0.750000  0.210697  0.510649  1
  Tc  Tc22  1  0.750000  0.289303  0.010649  1
  Tc  Tc23  1  0.250000  0.710697  0.989351  1
  P  P24  1  0.250000  0.079316  0.612802  1
  P  P25  1  0.750000  0.920684  0.387198  1
  P  P26  1  0.750000  0.579316  0.887198  1
  P  P27  1  0.250000  0.420684  0.112802  1
  P  P28  1  0.250000  0.229904  0.365706  1
  P  P29  1  0.750000  0.770096  0.634294  1
  P  P30  1  0.750000  0.729904  0.134294  1
  P  P31  1  0.250000  0.270096  0.865706  1
  P  P32  1  0.250000  0.903016  0.891157  1
  P  P33  1  0.750000  0.096984  0.108843  1
  P  P34  1  0.750000  0.403016  0.608843  1
  P  P35  1  0.250000  0.596984  0.391157  1
