# generated using pymatgen
data_Cs2Co(GeO3)2
_symmetry_space_group_name_H-M   'P 1'
_cell_length_a   6.18054226
_cell_length_b   6.18060961
_cell_length_c   11.22504000
_cell_angle_alpha   90.00000000
_cell_angle_beta   90.00000000
_cell_angle_gamma   110.75140662
_symmetry_Int_Tables_number   1
_chemical_formula_structural   Cs2Co(GeO3)2
_chemical_formula_sum   'Cs4 Co2 Ge4 O12'
_cell_volume   400.97395131
_cell_formula_units_Z   2
loop_
 _symmetry_equiv_pos_site_id
 _symmetry_equiv_pos_as_xyz
  1  'x, y, z'
loop_
 _atom_site_type_symbol
 _atom_site_label
 _atom_site_symmetry_multiplicity
 _atom_site_fract_x
 _atom_site_fract_y
 _atom_site_fract_z
 _atom_site_occupancy
  Cs  Cs0  1  0.785669  0.441708  0.924330  1
  Cs  Cs1  1  0.558290  0.214331  0.575671  1
  Cs  Cs2  1  0.214331  0.558292  0.424330  1
  Cs  Cs3  1  0.441710  0.785669  0.075671  1
  Co  Co4  1  0.689987  0.310004  0.250006  1
  Co  Co5  1  0.310013  0.689996  0.750006  1
  Ge  Ge6  1  0.828968  0.865620  0.358183  1
  Ge  Ge7  1  0.134381  0.171037  0.141817  1
  Ge  Ge8  1  0.171032  0.134380  0.858183  1
  Ge  Ge9  1  0.865619  0.828963  0.641817  1
  O  O10  1  0.629788  0.003124  0.329731  1
  O  O11  1  0.561478  0.711295  0.635197  1
  O  O12  1  0.711296  0.561483  0.364800  1
  O  O13  1  0.370212  0.996876  0.829731  1
  O  O14  1  0.974153  0.974155  0.500000  1
  O  O15  1  0.438522  0.288705  0.135197  1
  O  O16  1  0.060543  0.939460  0.249999  1
  O  O17  1  0.288704  0.438517  0.864800  1
  O  O18  1  0.025847  0.025845  0.000000  1
  O  O19  1  0.939457  0.060540  0.749999  1
  O  O20  1  0.996872  0.370211  0.170267  1
  O  O21  1  0.003128  0.629789  0.670267  1
