# generated using pymatgen
data_SrDy5ErPtI12
_symmetry_space_group_name_H-M   'P 1'
_cell_length_a   9.82131965
_cell_length_b   9.81612958
_cell_length_c   9.82205199
_cell_angle_alpha   106.28266144
_cell_angle_beta   106.33995411
_cell_angle_gamma   106.34173462
_symmetry_Int_Tables_number   1
_chemical_formula_structural   SrDy5ErPtI12
_chemical_formula_sum   'Sr1 Dy5 Er1 Pt1 I12'
_cell_volume   802.75209685
_cell_formula_units_Z   1
loop_
 _symmetry_equiv_pos_site_id
 _symmetry_equiv_pos_as_xyz
  1  'x, y, z'
loop_
 _atom_site_type_symbol
 _atom_site_label
 _atom_site_symmetry_multiplicity
 _atom_site_fract_x
 _atom_site_fract_y
 _atom_site_fract_z
 _atom_site_occupancy
  Sr  Sr0  1  0.000074  0.000077  0.000119  1
  Dy  Dy1  1  0.404719  0.478234  0.202115  1
  Dy  Dy2  1  0.202172  0.405258  0.478075  1
  Dy  Dy3  1  0.477904  0.201796  0.404808  1
  Dy  Dy4  1  0.595224  0.522009  0.797964  1
  Dy  Dy5  1  0.798040  0.595594  0.522153  1
  Er  Er6  1  0.522192  0.795410  0.594399  1
  Pt  Pt7  1  0.500153  0.500325  0.500104  1
  I  I8  1  0.049723  0.363681  0.129696  1
  I  I9  1  0.129743  0.049961  0.363659  1
  I  I10  1  0.363581  0.129815  0.049942  1
  I  I11  1  0.950280  0.636454  0.870315  1
  I  I12  1  0.868896  0.950316  0.636443  1
  I  I13  1  0.635676  0.870490  0.948386  1
  I  I14  1  0.722532  0.574133  0.175381  1
  I  I15  1  0.176983  0.723608  0.574381  1
  I  I16  1  0.573600  0.174080  0.721800  1
  I  I17  1  0.277470  0.426016  0.824599  1
  I  I18  1  0.824481  0.277682  0.426014  1
  I  I19  1  0.426557  0.825055  0.279647  1
