# generated using pymatgen
data_Rb4SbOsCl12
_symmetry_space_group_name_H-M   'P 1'
_cell_length_a   7.38046000
_cell_length_b   7.38046000
_cell_length_c   10.26453900
_cell_angle_alpha   90.00000000
_cell_angle_beta   90.00000000
_cell_angle_gamma   89.99885105
_symmetry_Int_Tables_number   1
_chemical_formula_structural   Rb4SbOsCl12
_chemical_formula_sum   'Rb4 Sb1 Os1 Cl12'
_cell_volume   559.12165214
_cell_formula_units_Z   1
loop_
 _symmetry_equiv_pos_site_id
 _symmetry_equiv_pos_as_xyz
  1  'x, y, z'
loop_
 _atom_site_type_symbol
 _atom_site_label
 _atom_site_symmetry_multiplicity
 _atom_site_fract_x
 _atom_site_fract_y
 _atom_site_fract_z
 _atom_site_occupancy
  Rb  Rb0  1  0.500000  0.000000  0.744479  1
  Rb  Rb1  1  0.000000  0.500000  0.255521  1
  Rb  Rb2  1  0.500000  0.000000  0.255521  1
  Rb  Rb3  1  0.000000  0.500000  0.744479  1
  Sb  Sb4  1  0.500000  0.500000  0.500000  1
  Os  Os5  1  0.000000  0.000000  0.000000  1
  Cl  Cl6  1  0.000000  0.000000  0.773087  1
  Cl  Cl7  1  0.500000  0.500000  0.248322  1
  Cl  Cl8  1  0.747412  0.747412  0.500000  1
  Cl  Cl9  1  0.225496  0.225496  0.000000  1
  Cl  Cl10  1  0.747414  0.252586  0.500000  1
  Cl  Cl11  1  0.225501  0.774499  0.000000  1
  Cl  Cl12  1  0.000000  0.000000  0.226913  1
  Cl  Cl13  1  0.500000  0.500000  0.751678  1
  Cl  Cl14  1  0.252588  0.252588  0.500000  1
  Cl  Cl15  1  0.774504  0.774504  0.000000  1
  Cl  Cl16  1  0.252586  0.747414  0.500000  1
  Cl  Cl17  1  0.774499  0.225501  0.000000  1
