# generated using pymatgen
data_Dy6MnCr2(Co5P4)3
_symmetry_space_group_name_H-M   'P 1'
_cell_length_a   3.70172300
_cell_length_b   10.59168900
_cell_length_c   12.18587900
_cell_angle_alpha   90.00000000
_cell_angle_beta   90.00000000
_cell_angle_gamma   90.00000000
_symmetry_Int_Tables_number   1
_chemical_formula_structural   Dy6MnCr2(Co5P4)3
_chemical_formula_sum   'Dy6 Mn1 Cr2 Co15 P12'
_cell_volume   477.77783603
_cell_formula_units_Z   1
loop_
 _symmetry_equiv_pos_site_id
 _symmetry_equiv_pos_as_xyz
  1  'x, y, z'
loop_
 _atom_site_type_symbol
 _atom_site_label
 _atom_site_symmetry_multiplicity
 _atom_site_fract_x
 _atom_site_fract_y
 _atom_site_fract_z
 _atom_site_occupancy
  Dy  Dy0  1  0.000000  0.500000  0.523857  1
  Dy  Dy1  1  0.500000  0.000000  0.476466  1
  Dy  Dy2  1  0.500000  0.818166  0.204031  1
  Dy  Dy3  1  0.500000  0.181834  0.204031  1
  Dy  Dy4  1  0.000000  0.680879  0.796470  1
  Dy  Dy5  1  0.000000  0.319121  0.796470  1
  Mn  Mn6  1  0.000000  0.500000  0.988413  1
  Cr  Cr7  1  0.500000  0.500000  0.153543  1
  Cr  Cr8  1  0.000000  0.000000  0.844339  1
  Co  Co9  1  0.500000  0.500000  0.699902  1
  Co  Co10  1  0.000000  0.000000  0.298330  1
  Co  Co11  1  0.500000  0.000000  0.012208  1
  Co  Co12  1  0.500000  0.328917  0.993730  1
  Co  Co13  1  0.500000  0.671083  0.993730  1
  Co  Co14  1  0.000000  0.164967  0.006202  1
  Co  Co15  1  0.000000  0.835033  0.006202  1
  Co  Co16  1  0.500000  0.296018  0.431037  1
  Co  Co17  1  0.500000  0.703982  0.431037  1
  Co  Co18  1  0.000000  0.203857  0.569768  1
  Co  Co19  1  0.000000  0.796143  0.569768  1
  Co  Co20  1  0.500000  0.879929  0.708436  1
  Co  Co21  1  0.500000  0.120071  0.708436  1
  Co  Co22  1  0.000000  0.621012  0.291913  1
  Co  Co23  1  0.000000  0.378988  0.291913  1
  P  P24  1  0.500000  0.500000  0.883897  1
  P  P25  1  0.000000  0.000000  0.117642  1
  P  P26  1  0.500000  0.500000  0.346218  1
  P  P27  1  0.000000  0.000000  0.654612  1
  P  P28  1  0.500000  0.310781  0.616501  1
  P  P29  1  0.500000  0.689219  0.616501  1
  P  P30  1  0.000000  0.189138  0.383931  1
  P  P31  1  0.000000  0.810862  0.383931  1
  P  P32  1  0.500000  0.847389  0.892229  1
  P  P33  1  0.500000  0.152611  0.892229  1
  P  P34  1  0.000000  0.654015  0.106040  1
  P  P35  1  0.000000  0.345985  0.106040  1
