# generated using pymatgen
data_Ac7Sm(Sc3Pb4)4
_symmetry_space_group_name_H-M   'P 1'
_cell_length_a   8.22625221
_cell_length_b   15.60749774
_cell_length_c   8.28870100
_cell_angle_alpha   89.89690607
_cell_angle_beta   90.01281559
_cell_angle_gamma   90.16598375
_symmetry_Int_Tables_number   1
_chemical_formula_structural   Ac7Sm(Sc3Pb4)4
_chemical_formula_sum   'Ac7 Sm1 Sc12 Pb16'
_cell_volume   1064.19015946
_cell_formula_units_Z   1
loop_
 _symmetry_equiv_pos_site_id
 _symmetry_equiv_pos_as_xyz
  1  'x, y, z'
loop_
 _atom_site_type_symbol
 _atom_site_label
 _atom_site_symmetry_multiplicity
 _atom_site_fract_x
 _atom_site_fract_y
 _atom_site_fract_z
 _atom_site_occupancy
  Ac  Ac0  1  0.482439  0.594303  0.673471  1
  Ac  Ac1  1  0.984306  0.906228  0.828737  1
  Ac  Ac2  1  0.517736  0.093605  0.328969  1
  Ac  Ac3  1  0.018309  0.407942  0.171050  1
  Ac  Ac4  1  0.513974  0.408905  0.325910  1
  Ac  Ac5  1  0.016777  0.093462  0.172504  1
  Ac  Ac6  1  0.480990  0.903040  0.672719  1
  Sm  Sm7  1  0.976501  0.596433  0.824164  1
  Sc  Sc8  1  0.644565  0.624966  0.152746  1
  Sc  Sc9  1  0.143946  0.869378  0.346155  1
  Sc  Sc10  1  0.355543  0.126864  0.842940  1
  Sc  Sc11  1  0.855063  0.375022  0.658649  1
  Sc  Sc12  1  0.358968  0.376161  0.845728  1
  Sc  Sc13  1  0.855220  0.127072  0.654728  1
  Sc  Sc14  1  0.646505  0.871564  0.155510  1
  Sc  Sc15  1  0.146155  0.626802  0.343959  1
  Sc  Sc16  1  0.810055  0.748122  0.491714  1
  Sc  Sc17  1  0.308139  0.747875  0.006389  1
  Sc  Sc18  1  0.191193  0.250800  0.509683  1
  Sc  Sc19  1  0.693494  0.251914  0.991251  1
  Pb  Pb20  1  0.692357  0.456731  0.945682  1
  Pb  Pb21  1  0.182867  0.047382  0.553579  1
  Pb  Pb22  1  0.319330  0.950705  0.055392  1
  Pb  Pb23  1  0.820352  0.547947  0.454654  1
  Pb  Pb24  1  0.304991  0.550527  0.043829  1
  Pb  Pb25  1  0.817427  0.950425  0.446799  1
  Pb  Pb26  1  0.681679  0.048170  0.945286  1
  Pb  Pb27  1  0.178556  0.455167  0.557745  1
  Pb  Pb28  1  0.451400  0.748222  0.356657  1
  Pb  Pb29  1  0.950965  0.746848  0.139547  1
  Pb  Pb30  1  0.549460  0.252232  0.642436  1
  Pb  Pb31  1  0.050606  0.250357  0.857129  1
  Pb  Pb32  1  0.677340  0.747798  0.860419  1
  Pb  Pb33  1  0.163944  0.745338  0.645040  1
  Pb  Pb34  1  0.330346  0.250546  0.137045  1
  Pb  Pb35  1  0.828503  0.251145  0.361789  1
