# generated using pymatgen
data_HoMn5P3
_symmetry_space_group_name_H-M   'P 1'
_cell_length_a   3.59948800
_cell_length_b   10.70288800
_cell_length_c   12.19813600
_cell_angle_alpha   90.00000000
_cell_angle_beta   90.00000000
_cell_angle_gamma   90.00000000
_symmetry_Int_Tables_number   1
_chemical_formula_structural   HoMn5P3
_chemical_formula_sum   'Ho4 Mn20 P12'
_cell_volume   469.93217600
_cell_formula_units_Z   4
loop_
 _symmetry_equiv_pos_site_id
 _symmetry_equiv_pos_as_xyz
  1  'x, y, z'
loop_
 _atom_site_type_symbol
 _atom_site_label
 _atom_site_symmetry_multiplicity
 _atom_site_fract_x
 _atom_site_fract_y
 _atom_site_fract_z
 _atom_site_occupancy
  Ho  Ho0  1  0.250000  0.588194  0.705655  1
  Ho  Ho1  1  0.250000  0.911806  0.205655  1
  Ho  Ho2  1  0.750000  0.411838  0.294246  1
  Ho  Ho3  1  0.750000  0.088162  0.794246  1
  Mn  Mn4  1  0.250000  0.718511  0.981424  1
  Mn  Mn5  1  0.250000  0.781489  0.481424  1
  Mn  Mn6  1  0.750000  0.281650  0.018334  1
  Mn  Mn7  1  0.750000  0.218350  0.518334  1
  Mn  Mn8  1  0.250000  0.409716  0.493622  1
  Mn  Mn9  1  0.250000  0.090284  0.993622  1
  Mn  Mn10  1  0.750000  0.590225  0.506209  1
  Mn  Mn11  1  0.750000  0.909775  0.006209  1
  Mn  Mn12  1  0.250000  0.210803  0.181927  1
  Mn  Mn13  1  0.250000  0.289197  0.681927  1
  Mn  Mn14  1  0.750000  0.789329  0.818424  1
  Mn  Mn15  1  0.750000  0.710671  0.318424  1
  Mn  Mn16  1  0.250000  0.883820  0.692025  1
  Mn  Mn17  1  0.250000  0.616180  0.192025  1
  Mn  Mn18  1  0.750000  0.115996  0.308107  1
  Mn  Mn19  1  0.750000  0.384004  0.808107  1
  Mn  Mn20  1  0.250000  0.467724  0.935117  1
  Mn  Mn21  1  0.250000  0.032276  0.435117  1
  Mn  Mn22  1  0.750000  0.532236  0.064860  1
  Mn  Mn23  1  0.750000  0.967764  0.564860  1
  P  P24  1  0.250000  0.409294  0.115635  1
  P  P25  1  0.250000  0.090706  0.615635  1
  P  P26  1  0.750000  0.590710  0.884162  1
  P  P27  1  0.750000  0.909290  0.384162  1
  P  P28  1  0.250000  0.265152  0.876187  1
  P  P29  1  0.250000  0.234848  0.376187  1
  P  P30  1  0.750000  0.734614  0.123889  1
  P  P31  1  0.750000  0.765386  0.623889  1
  P  P32  1  0.250000  0.589955  0.382537  1
  P  P33  1  0.250000  0.910045  0.882537  1
  P  P34  1  0.750000  0.409969  0.617637  1
  P  P35  1  0.750000  0.090031  0.117637  1
