# generated using pymatgen
data_Zr10Ga3Si3S
_symmetry_space_group_name_H-M   'P 1'
_cell_length_a   8.19361400
_cell_length_b   8.19361598
_cell_length_c   5.74590500
_cell_angle_alpha   90.00000000
_cell_angle_beta   90.00000000
_cell_angle_gamma   120.00000817
_symmetry_Int_Tables_number   1
_chemical_formula_structural   Zr10Ga3Si3S
_chemical_formula_sum   'Zr10 Ga3 Si3 S1'
_cell_volume   334.07205076
_cell_formula_units_Z   1
loop_
 _symmetry_equiv_pos_site_id
 _symmetry_equiv_pos_as_xyz
  1  'x, y, z'
loop_
 _atom_site_type_symbol
 _atom_site_label
 _atom_site_symmetry_multiplicity
 _atom_site_fract_x
 _atom_site_fract_y
 _atom_site_fract_z
 _atom_site_occupancy
  Zr  Zr0  1  0.000000  0.744943  0.239874  1
  Zr  Zr1  1  0.255057  0.255057  0.239874  1
  Zr  Zr2  1  0.744943  0.000000  0.239874  1
  Zr  Zr3  1  0.000000  0.255726  0.760626  1
  Zr  Zr4  1  0.744274  0.744274  0.760626  1
  Zr  Zr5  1  0.255726  0.000000  0.760626  1
  Zr  Zr6  1  0.333333  0.666667  0.496540  1
  Zr  Zr7  1  0.666667  0.333333  0.496540  1
  Zr  Zr8  1  0.666667  0.333333  0.002487  1
  Zr  Zr9  1  0.333333  0.666667  0.002487  1
  Ga  Ga10  1  0.000000  0.607821  0.751318  1
  Ga  Ga11  1  0.392179  0.392179  0.751318  1
  Ga  Ga12  1  0.607821  0.000000  0.751318  1
  Si  Si13  1  0.000000  0.392226  0.248220  1
  Si  Si14  1  0.607774  0.607774  0.248220  1
  Si  Si15  1  0.392226  0.000000  0.248220  1
  S  S16  1  0.000000  0.000000  0.501830  1
