# generated using pymatgen
data_Mg3In8HgIr4
_symmetry_space_group_name_H-M   'P 1'
_cell_length_a   7.16643247
_cell_length_b   7.12973268
_cell_length_c   7.10266300
_cell_angle_alpha   90.00000000
_cell_angle_beta   90.00000000
_cell_angle_gamma   90.60090548
_symmetry_Int_Tables_number   1
_chemical_formula_structural   Mg3In8HgIr4
_chemical_formula_sum   'Mg3 In8 Hg1 Ir4'
_cell_volume   362.88881633
_cell_formula_units_Z   1
loop_
 _symmetry_equiv_pos_site_id
 _symmetry_equiv_pos_as_xyz
  1  'x, y, z'
loop_
 _atom_site_type_symbol
 _atom_site_label
 _atom_site_symmetry_multiplicity
 _atom_site_fract_x
 _atom_site_fract_y
 _atom_site_fract_z
 _atom_site_occupancy
  Mg  Mg0  1  0.500000  0.000000  0.000000  1
  Mg  Mg1  1  0.000000  0.500000  0.500000  1
  Mg  Mg2  1  0.500000  0.000000  0.500000  1
  In  In3  1  0.341795  0.338284  0.265894  1
  In  In4  1  0.158279  0.839147  0.762806  1
  In  In5  1  0.158279  0.839147  0.237194  1
  In  In6  1  0.841721  0.160853  0.237194  1
  In  In7  1  0.841721  0.160853  0.762806  1
  In  In8  1  0.658205  0.661716  0.265894  1
  In  In9  1  0.658205  0.661716  0.734106  1
  In  In10  1  0.341795  0.338284  0.734106  1
  Hg  Hg11  1  0.000000  0.500000  0.000000  1
  Ir  Ir12  1  0.159379  0.144471  0.000000  1
  Ir  Ir13  1  0.654020  0.348321  0.500000  1
  Ir  Ir14  1  0.345980  0.651679  0.500000  1
  Ir  Ir15  1  0.840621  0.855529  0.000000  1
