# generated using pymatgen
data_Pr3Sm(In2Br5)4
_symmetry_space_group_name_H-M   'P 1'
_cell_length_a   8.69295640
_cell_length_b   9.22225500
_cell_length_c   13.60319835
_cell_angle_alpha   90.00000000
_cell_angle_beta   89.89847378
_cell_angle_gamma   90.00000000
_symmetry_Int_Tables_number   1
_chemical_formula_structural   Pr3Sm(In2Br5)4
_chemical_formula_sum   'Pr3 Sm1 In8 Br20'
_cell_volume   1090.54848045
_cell_formula_units_Z   1
loop_
 _symmetry_equiv_pos_site_id
 _symmetry_equiv_pos_as_xyz
  1  'x, y, z'
loop_
 _atom_site_type_symbol
 _atom_site_label
 _atom_site_symmetry_multiplicity
 _atom_site_fract_x
 _atom_site_fract_y
 _atom_site_fract_z
 _atom_site_occupancy
  Pr  Pr0  1  0.923415  0.750000  0.506210  1
  Pr  Pr1  1  0.576213  0.750000  0.006127  1
  Pr  Pr2  1  0.076527  0.250000  0.493869  1
  Sm  Sm3  1  0.424256  0.250000  0.994409  1
  In  In4  1  0.942033  0.006225  0.828936  1
  In  In5  1  0.058278  0.994168  0.171015  1
  In  In6  1  0.558090  0.493905  0.328633  1
  In  In7  1  0.058278  0.505832  0.171015  1
  In  In8  1  0.942033  0.493775  0.828936  1
  In  In9  1  0.441854  0.505973  0.671397  1
  In  In10  1  0.558090  0.006095  0.328633  1
  In  In11  1  0.441854  0.994027  0.671397  1
  Br  Br12  1  0.576829  0.750000  0.505871  1
  Br  Br13  1  0.171014  0.953668  0.427591  1
  Br  Br14  1  0.828934  0.046353  0.572421  1
  Br  Br15  1  0.330529  0.542115  0.928804  1
  Br  Br16  1  0.171014  0.546332  0.427591  1
  Br  Br17  1  0.345890  0.250000  0.202451  1
  Br  Br18  1  0.330529  0.957885  0.928804  1
  Br  Br19  1  0.828934  0.453647  0.572421  1
  Br  Br20  1  0.389321  0.750000  0.188618  1
  Br  Br21  1  0.668112  0.048810  0.071171  1
  Br  Br22  1  0.155279  0.250000  0.705903  1
  Br  Br23  1  0.606952  0.250000  0.814776  1
  Br  Br24  1  0.423163  0.250000  0.493936  1
  Br  Br25  1  0.110682  0.750000  0.688556  1
  Br  Br26  1  0.668112  0.451190  0.071171  1
  Br  Br27  1  0.081835  0.250000  0.993927  1
  Br  Br28  1  0.922727  0.750000  0.006070  1
  Br  Br29  1  0.844477  0.750000  0.293939  1
  Br  Br30  1  0.655336  0.750000  0.793894  1
  Br  Br31  1  0.889411  0.250000  0.311508  1
