# generated using pymatgen
data_Hf3ZrCo4
_symmetry_space_group_name_H-M   'P 1'
_cell_length_a   9.59825771
_cell_length_b   9.59825720
_cell_length_c   4.26431400
_cell_angle_alpha   90.00000000
_cell_angle_beta   90.00000000
_cell_angle_gamma   161.24272725
_symmetry_Int_Tables_number   1
_chemical_formula_structural   Hf3ZrCo4
_chemical_formula_sum   'Hf3 Zr1 Co4'
_cell_volume   126.32680900
_cell_formula_units_Z   1
loop_
 _symmetry_equiv_pos_site_id
 _symmetry_equiv_pos_as_xyz
  1  'x, y, z'
loop_
 _atom_site_type_symbol
 _atom_site_label
 _atom_site_symmetry_multiplicity
 _atom_site_fract_x
 _atom_site_fract_y
 _atom_site_fract_z
 _atom_site_occupancy
  Hf  Hf0  1  0.439302  0.560699  0.249999  1
  Hf  Hf1  1  0.560587  0.439414  0.749999  1
  Hf  Hf2  1  0.307288  0.692713  0.749999  1
  Zr  Zr3  1  0.694148  0.305853  0.249999  1
  Co  Co4  1  0.832561  0.167439  0.249999  1
  Co  Co5  1  0.057801  0.942199  0.249999  1
  Co  Co6  1  0.940685  0.059315  0.749999  1
  Co  Co7  1  0.167630  0.832370  0.749999  1
