# generated using pymatgen
data_Y4Zn10SiSn
_symmetry_space_group_name_H-M   'P 1'
_cell_length_a   8.28058189
_cell_length_b   8.28058119
_cell_length_c   8.89444500
_cell_angle_alpha   90.00000000
_cell_angle_beta   90.00000000
_cell_angle_gamma   149.77698884
_symmetry_Int_Tables_number   1
_chemical_formula_structural   Y4Zn10SiSn
_chemical_formula_sum   'Y4 Zn10 Si1 Sn1'
_cell_volume   306.99074644
_cell_formula_units_Z   1
loop_
 _symmetry_equiv_pos_site_id
 _symmetry_equiv_pos_as_xyz
  1  'x, y, z'
loop_
 _atom_site_type_symbol
 _atom_site_label
 _atom_site_symmetry_multiplicity
 _atom_site_fract_x
 _atom_site_fract_y
 _atom_site_fract_z
 _atom_site_occupancy
  Y  Y0  1  0.197590  0.802410  0.250000  1
  Y  Y1  1  0.799331  0.200669  0.750000  1
  Y  Y2  1  0.000036  0.999964  0.481631  1
  Y  Y3  1  0.000036  0.999964  0.018369  1
  Zn  Zn4  1  0.811596  0.188404  0.391249  1
  Zn  Zn5  1  0.187364  0.812636  0.605605  1
  Zn  Zn6  1  0.811596  0.188404  0.108751  1
  Zn  Zn7  1  0.187364  0.812636  0.894395  1
  Zn  Zn8  1  0.648296  0.351704  0.473244  1
  Zn  Zn9  1  0.345863  0.654137  0.516786  1
  Zn  Zn10  1  0.648296  0.351704  0.026756  1
  Zn  Zn11  1  0.345863  0.654137  0.983214  1
  Zn  Zn12  1  0.401097  0.598903  0.250000  1
  Zn  Zn13  1  0.611274  0.388726  0.750000  1
  Si  Si14  1  0.554472  0.445528  0.250000  1
  Sn  Sn15  1  0.449922  0.550078  0.750000  1
