# generated using pymatgen
data_Cd6SbIO12
_symmetry_space_group_name_H-M   'P 1'
_cell_length_a   5.76398930
_cell_length_b   5.61075602
_cell_length_c   9.91988608
_cell_angle_alpha   55.79990471
_cell_angle_beta   90.42317286
_cell_angle_gamma   90.83560561
_symmetry_Int_Tables_number   1
_chemical_formula_structural   Cd6SbIO12
_chemical_formula_sum   'Cd6 Sb1 I1 O12'
_cell_volume   265.30911291
_cell_formula_units_Z   1
loop_
 _symmetry_equiv_pos_site_id
 _symmetry_equiv_pos_as_xyz
  1  'x, y, z'
loop_
 _atom_site_type_symbol
 _atom_site_label
 _atom_site_symmetry_multiplicity
 _atom_site_fract_x
 _atom_site_fract_y
 _atom_site_fract_z
 _atom_site_occupancy
  Cd  Cd0  1  0.957052  0.263722  0.228162  1
  Cd  Cd1  1  0.450759  0.767378  0.246571  1
  Cd  Cd2  1  0.042948  0.736278  0.771838  1
  Cd  Cd3  1  0.549241  0.232622  0.753429  1
  Cd  Cd4  1  0.000000  0.500000  0.500000  1
  Cd  Cd5  1  0.500000  0.500000  0.000000  1
  Sb  Sb6  1  0.000000  0.000000  0.000000  1
  I  I7  1  0.500000  0.000000  0.500000  1
  O  O8  1  0.280024  0.909129  0.915902  1
  O  O9  1  0.774028  0.076088  0.582786  1
  O  O10  1  0.719976  0.090871  0.084098  1
  O  O11  1  0.225972  0.923912  0.417214  1
  O  O12  1  0.183041  0.247004  0.048542  1
  O  O13  1  0.669596  0.770646  0.448273  1
  O  O14  1  0.816959  0.752996  0.951458  1
  O  O15  1  0.330404  0.229354  0.551727  1
  O  O16  1  0.424605  0.663869  0.713160  1
  O  O17  1  0.924600  0.349060  0.768767  1
  O  O18  1  0.575395  0.336131  0.286840  1
  O  O19  1  0.075400  0.650940  0.231233  1
