# generated using pymatgen
data_Dy3YEr4(ReB6)4
_symmetry_space_group_name_H-M   'P 1'
_cell_length_a   3.66924400
_cell_length_b   9.15184801
_cell_length_c   11.53881700
_cell_angle_alpha   89.99881441
_cell_angle_beta   90.00000000
_cell_angle_gamma   90.00000000
_symmetry_Int_Tables_number   1
_chemical_formula_structural   Dy3YEr4(ReB6)4
_chemical_formula_sum   'Dy3 Y1 Er4 Re4 B24'
_cell_volume   387.47766784
_cell_formula_units_Z   1
loop_
 _symmetry_equiv_pos_site_id
 _symmetry_equiv_pos_as_xyz
  1  'x, y, z'
loop_
 _atom_site_type_symbol
 _atom_site_label
 _atom_site_symmetry_multiplicity
 _atom_site_fract_x
 _atom_site_fract_y
 _atom_site_fract_z
 _atom_site_occupancy
  Dy  Dy0  1  0.000000  0.323315  0.413906  1
  Dy  Dy1  1  0.000000  0.676632  0.586163  1
  Dy  Dy2  1  0.000000  0.823319  0.086052  1
  Y  Y3  1  0.000000  0.176692  0.913948  1
  Er  Er4  1  0.000000  0.943197  0.370026  1
  Er  Er5  1  0.000000  0.056825  0.629928  1
  Er  Er6  1  0.000000  0.443201  0.129847  1
  Er  Er7  1  0.000000  0.556894  0.870155  1
  Re  Re8  1  0.000000  0.638867  0.320501  1
  Re  Re9  1  0.000000  0.361106  0.679564  1
  Re  Re10  1  0.000000  0.138864  0.179464  1
  Re  Re11  1  0.000000  0.861057  0.820501  1
  B  B12  1  0.500000  0.553418  0.432757  1
  B  B13  1  0.500000  0.446456  0.567367  1
  B  B14  1  0.500000  0.053421  0.067184  1
  B  B15  1  0.500000  0.946498  0.932784  1
  B  B16  1  0.500000  0.749732  0.418451  1
  B  B17  1  0.500000  0.250239  0.581679  1
  B  B18  1  0.500000  0.249776  0.081442  1
  B  B19  1  0.500000  0.750354  0.918463  1
  B  B20  1  0.500000  0.792380  0.265430  1
  B  B21  1  0.500000  0.207556  0.734581  1
  B  B22  1  0.500000  0.292364  0.234333  1
  B  B23  1  0.500000  0.707684  0.765542  1
  B  B24  1  0.500000  0.630594  0.185352  1
  B  B25  1  0.500000  0.369416  0.814703  1
  B  B26  1  0.500000  0.130656  0.314475  1
  B  B27  1  0.500000  0.869509  0.685479  1
  B  B28  1  0.500000  0.982216  0.212093  1
  B  B29  1  0.500000  0.017847  0.787810  1
  B  B30  1  0.500000  0.482132  0.287720  1
  B  B31  1  0.500000  0.517764  0.712340  1
  B  B32  1  0.500000  0.599244  0.027677  1
  B  B33  1  0.500000  0.400673  0.972254  1
  B  B34  1  0.500000  0.099173  0.472329  1
  B  B35  1  0.500000  0.900928  0.527700  1
