# generated using pymatgen
data_TmLu15
_symmetry_space_group_name_H-M   'P 1'
_cell_length_a   7.07118300
_cell_length_b   7.07118265
_cell_length_c   10.91555700
_cell_angle_alpha   90.00000000
_cell_angle_beta   90.00000000
_cell_angle_gamma   119.99999695
_symmetry_Int_Tables_number   1
_chemical_formula_structural   TmLu15
_chemical_formula_sum   'Tm1 Lu15'
_cell_volume   472.67287358
_cell_formula_units_Z   1
loop_
 _symmetry_equiv_pos_site_id
 _symmetry_equiv_pos_as_xyz
  1  'x, y, z'
loop_
 _atom_site_type_symbol
 _atom_site_label
 _atom_site_symmetry_multiplicity
 _atom_site_fract_x
 _atom_site_fract_y
 _atom_site_fract_z
 _atom_site_occupancy
  Tm  Tm0  1  0.000000  0.000000  0.500000  1
  Lu  Lu1  1  0.000000  0.000000  0.000000  1
  Lu  Lu2  1  0.001803  0.500902  0.500000  1
  Lu  Lu3  1  0.999372  0.499685  0.000000  1
  Lu  Lu4  1  0.499098  0.500902  0.500000  1
  Lu  Lu5  1  0.500315  0.499685  0.000000  1
  Lu  Lu6  1  0.499098  0.998197  0.500000  1
  Lu  Lu7  1  0.500315  0.000628  0.000000  1
  Lu  Lu8  1  0.166951  0.333902  0.248818  1
  Lu  Lu9  1  0.166951  0.333902  0.751182  1
  Lu  Lu10  1  0.166951  0.833049  0.248818  1
  Lu  Lu11  1  0.166951  0.833049  0.751182  1
  Lu  Lu12  1  0.666098  0.833049  0.248818  1
  Lu  Lu13  1  0.666098  0.833049  0.751182  1
  Lu  Lu14  1  0.666667  0.333333  0.251395  1
  Lu  Lu15  1  0.666667  0.333333  0.748605  1
