# generated using pymatgen
data_Ce3Ho5(Si3Pt)4
_symmetry_space_group_name_H-M   'P 1'
_cell_length_a   8.15993100
_cell_length_b   8.15993127
_cell_length_c   8.34559300
_cell_angle_alpha   90.00000000
_cell_angle_beta   90.00000000
_cell_angle_gamma   120.01240872
_symmetry_Int_Tables_number   1
_chemical_formula_structural   Ce3Ho5(Si3Pt)4
_chemical_formula_sum   'Ce3 Ho5 Si12 Pt4'
_cell_volume   481.17882029
_cell_formula_units_Z   1
loop_
 _symmetry_equiv_pos_site_id
 _symmetry_equiv_pos_as_xyz
  1  'x, y, z'
loop_
 _atom_site_type_symbol
 _atom_site_label
 _atom_site_symmetry_multiplicity
 _atom_site_fract_x
 _atom_site_fract_y
 _atom_site_fract_z
 _atom_site_occupancy
  Ce  Ce0  1  0.000027  0.999973  0.250000  1
  Ce  Ce1  1  0.000068  0.999932  0.750000  1
  Ce  Ce2  1  0.500412  0.499588  0.250000  1
  Ho  Ho3  1  0.500490  0.001011  0.250000  1
  Ho  Ho4  1  0.998989  0.499510  0.250000  1
  Ho  Ho5  1  0.499313  0.500687  0.750000  1
  Ho  Ho6  1  0.499241  0.998521  0.750000  1
  Ho  Ho7  1  0.001479  0.500759  0.750000  1
  Si  Si8  1  0.165647  0.834353  0.499516  1
  Si  Si9  1  0.165768  0.331578  0.500613  1
  Si  Si10  1  0.668422  0.834232  0.500613  1
  Si  Si11  1  0.834360  0.165640  0.499592  1
  Si  Si12  1  0.834338  0.668532  0.501046  1
  Si  Si13  1  0.331468  0.165662  0.501046  1
  Si  Si14  1  0.834360  0.165640  0.000408  1
  Si  Si15  1  0.834338  0.668532  0.998954  1
  Si  Si16  1  0.331468  0.165662  0.998954  1
  Si  Si17  1  0.165647  0.834353  0.000484  1
  Si  Si18  1  0.165768  0.331578  0.999387  1
  Si  Si19  1  0.668422  0.834232  0.999387  1
  Pt  Pt20  1  0.332437  0.667563  0.502886  1
  Pt  Pt21  1  0.667551  0.332449  0.506157  1
  Pt  Pt22  1  0.667551  0.332449  0.993843  1
  Pt  Pt23  1  0.332437  0.667563  0.997114  1
