# generated using pymatgen
data_Th6TcSb2
_symmetry_space_group_name_H-M   'P 1'
_cell_length_a   8.69146400
_cell_length_b   8.69146483
_cell_length_c   4.00165600
_cell_angle_alpha   90.00000000
_cell_angle_beta   90.00000000
_cell_angle_gamma   120.00000446
_symmetry_Int_Tables_number   1
_chemical_formula_structural   Th6TcSb2
_chemical_formula_sum   'Th6 Tc1 Sb2'
_cell_volume   261.79194333
_cell_formula_units_Z   1
loop_
 _symmetry_equiv_pos_site_id
 _symmetry_equiv_pos_as_xyz
  1  'x, y, z'
loop_
 _atom_site_type_symbol
 _atom_site_label
 _atom_site_symmetry_multiplicity
 _atom_site_fract_x
 _atom_site_fract_y
 _atom_site_fract_z
 _atom_site_occupancy
  Th  Th0  1  0.243188  0.000000  0.500000  1
  Th  Th1  1  0.000000  0.243188  0.500000  1
  Th  Th2  1  0.756812  0.756812  0.500000  1
  Th  Th3  1  0.586045  0.000000  0.000000  1
  Th  Th4  1  0.000000  0.586045  0.000000  1
  Th  Th5  1  0.413955  0.413955  0.000000  1
  Tc  Tc6  1  0.000000  0.000000  0.000000  1
  Sb  Sb7  1  0.333333  0.666667  0.500000  1
  Sb  Sb8  1  0.666667  0.333333  0.500000  1
