# generated using pymatgen
data_Ta2Ti4Re5Si6Mo
_symmetry_space_group_name_H-M   'P 1'
_cell_length_a   7.57357194
_cell_length_b   7.57523301
_cell_length_c   7.57523363
_cell_angle_alpha   125.97173796
_cell_angle_beta   128.85387530
_cell_angle_gamma   77.60605988
_symmetry_Int_Tables_number   1
_chemical_formula_structural   Ta2Ti4Re5Si6Mo
_chemical_formula_sum   'Ta2 Ti4 Re5 Si6 Mo1'
_cell_volume   265.61987920
_cell_formula_units_Z   1
loop_
 _symmetry_equiv_pos_site_id
 _symmetry_equiv_pos_as_xyz
  1  'x, y, z'
loop_
 _atom_site_type_symbol
 _atom_site_label
 _atom_site_symmetry_multiplicity
 _atom_site_fract_x
 _atom_site_fract_y
 _atom_site_fract_z
 _atom_site_occupancy
  Ta  Ta0  1  0.749698  0.902418  0.651425  1
  Ta  Ta1  1  0.250302  0.901728  0.152720  1
  Ti  Ti2  1  0.550211  0.093887  0.042737  1
  Ti  Ti3  1  0.449789  0.492526  0.543676  1
  Ti  Ti4  1  0.950132  0.492844  0.042543  1
  Ti  Ti5  1  0.049868  0.092411  0.542712  1
  Re  Re6  1  0.000000  0.237158  0.237158  1
  Re  Re7  1  0.130004  0.757530  0.628208  1
  Re  Re8  1  0.869996  0.498203  0.627526  1
  Re  Re9  1  0.630335  0.758985  0.128936  1
  Re  Re10  1  0.369665  0.498601  0.128650  1
  Si  Si11  1  0.750017  0.496426  0.245846  1
  Si  Si12  1  0.249983  0.495829  0.746410  1
  Si  Si13  1  0.330044  0.825636  0.496764  1
  Si  Si14  1  0.669956  0.166720  0.495593  1
  Si  Si15  1  0.829600  0.827705  0.996991  1
  Si  Si16  1  0.170400  0.167392  0.998106  1
  Mo  Mo17  1  0.500000  0.236197  0.736197  1
