# generated using pymatgen
data_TbSi2Ni9
_symmetry_space_group_name_H-M   'P 1'
_cell_length_a   7.55324886
_cell_length_b   7.55387957
_cell_length_c   7.55324932
_cell_angle_alpha   99.61705452
_cell_angle_beta   99.55606699
_cell_angle_gamma   131.82485284
_symmetry_Int_Tables_number   1
_chemical_formula_structural   TbSi2Ni9
_chemical_formula_sum   'Tb2 Si4 Ni18'
_cell_volume   293.19382723
_cell_formula_units_Z   2
loop_
 _symmetry_equiv_pos_site_id
 _symmetry_equiv_pos_as_xyz
  1  'x, y, z'
loop_
 _atom_site_type_symbol
 _atom_site_label
 _atom_site_symmetry_multiplicity
 _atom_site_fract_x
 _atom_site_fract_y
 _atom_site_fract_z
 _atom_site_occupancy
  Tb  Tb0  1  0.499921  0.499942  0.000021  1
  Tb  Tb1  1  0.750014  0.250041  0.500027  1
  Si  Si2  1  0.624911  0.874484  0.750421  1
  Si  Si3  1  0.125572  0.375142  0.249571  1
  Si  Si4  1  0.125462  0.875888  0.750426  1
  Si  Si5  1  0.124063  0.874484  0.249573  1
  Ni  Ni6  1  0.249967  0.749967  0.500000  1
  Ni  Ni7  1  0.000018  0.000007  0.999989  1
  Ni  Ni8  1  0.686599  0.013406  0.078989  1
  Ni  Ni9  1  0.686596  0.607551  0.673219  1
  Ni  Ni10  1  0.263304  0.436702  0.578858  1
  Ni  Ni11  1  0.263212  0.684377  0.826593  1
  Ni  Ni12  1  0.934418  0.013406  0.326808  1
  Ni  Ni13  1  0.934332  0.607551  0.920955  1
  Ni  Ni14  1  0.857844  0.436702  0.173398  1
  Ni  Ni15  1  0.857784  0.684377  0.421165  1
  Ni  Ni16  1  0.563344  0.736750  0.421164  1
  Ni  Ni17  1  0.563293  0.142120  0.826598  1
  Ni  Ni18  1  0.986691  0.313458  0.920951  1
  Ni  Ni19  1  0.986615  0.065659  0.673232  1
  Ni  Ni20  1  0.315586  0.736750  0.173406  1
  Ni  Ni21  1  0.315522  0.142120  0.578827  1
  Ni  Ni22  1  0.392507  0.313458  0.326767  1
  Ni  Ni23  1  0.392426  0.065659  0.079043  1
