# generated using pymatgen
data_Yb4Sc2SbRuO12
_symmetry_space_group_name_H-M   'P 1'
_cell_length_a   5.64560268
_cell_length_b   5.43592464
_cell_length_c   9.49719799
_cell_angle_alpha   55.26097461
_cell_angle_beta   89.66121602
_cell_angle_gamma   89.99383418
_symmetry_Int_Tables_number   1
_chemical_formula_structural   Yb4Sc2SbRuO12
_chemical_formula_sum   'Yb4 Sc2 Sb1 Ru1 O12'
_cell_volume   239.50310849
_cell_formula_units_Z   1
loop_
 _symmetry_equiv_pos_site_id
 _symmetry_equiv_pos_as_xyz
  1  'x, y, z'
loop_
 _atom_site_type_symbol
 _atom_site_label
 _atom_site_symmetry_multiplicity
 _atom_site_fract_x
 _atom_site_fract_y
 _atom_site_fract_z
 _atom_site_occupancy
  Yb  Yb0  1  0.561514  0.772921  0.743925  1
  Yb  Yb1  1  0.943987  0.760896  0.256959  1
  Yb  Yb2  1  0.438486  0.227079  0.256075  1
  Yb  Yb3  1  0.056013  0.239104  0.743041  1
  Sc  Sc4  1  0.500000  0.500000  0.500000  1
  Sc  Sc5  1  0.000000  0.500000  0.000000  1
  Sb  Sb6  1  0.500000  0.000000  0.000000  1
  Ru  Ru7  1  0.000000  0.000000  0.500000  1
  O  O8  1  0.803822  0.242527  0.549836  1
  O  O9  1  0.695435  0.238288  0.056839  1
  O  O10  1  0.196178  0.757473  0.450164  1
  O  O11  1  0.304565  0.761712  0.943161  1
  O  O12  1  0.792501  0.869122  0.939320  1
  O  O13  1  0.710450  0.861074  0.447349  1
  O  O14  1  0.207499  0.130878  0.060680  1
  O  O15  1  0.289550  0.138926  0.552651  1
  O  O16  1  0.964993  0.656206  0.741372  1
  O  O17  1  0.536809  0.649835  0.243832  1
  O  O18  1  0.035007  0.343794  0.258628  1
  O  O19  1  0.463191  0.350165  0.756168  1
