# generated using pymatgen
data_TiNb4Si3
_symmetry_space_group_name_H-M   'P 1'
_cell_length_a   7.56595566
_cell_length_b   7.56595566
_cell_length_c   7.56595551
_cell_angle_alpha   128.74051707
_cell_angle_beta   128.74051310
_cell_angle_gamma   75.42845790
_symmetry_Int_Tables_number   1
_chemical_formula_structural   TiNb4Si3
_chemical_formula_sum   'Ti2 Nb8 Si6'
_cell_volume   256.41740941
_cell_formula_units_Z   2
loop_
 _symmetry_equiv_pos_site_id
 _symmetry_equiv_pos_as_xyz
  1  'x, y, z'
loop_
 _atom_site_type_symbol
 _atom_site_label
 _atom_site_symmetry_multiplicity
 _atom_site_fract_x
 _atom_site_fract_y
 _atom_site_fract_z
 _atom_site_occupancy
  Ti  Ti0  1  0.500000  0.500000  0.000000  1
  Ti  Ti1  1  0.000000  0.000000  0.000000  1
  Nb  Nb2  1  0.017967  0.184621  0.500000  1
  Nb  Nb3  1  0.517967  0.017967  0.833347  1
  Nb  Nb4  1  0.184621  0.684621  0.166653  1
  Nb  Nb5  1  0.482033  0.982033  0.166653  1
  Nb  Nb6  1  0.684621  0.517967  0.500000  1
  Nb  Nb7  1  0.982033  0.815379  0.500000  1
  Nb  Nb8  1  0.315379  0.482033  0.500000  1
  Nb  Nb9  1  0.815379  0.315379  0.833347  1
  Si  Si10  1  0.130383  0.630383  0.760767  1
  Si  Si11  1  0.630383  0.869617  0.500000  1
  Si  Si12  1  0.369617  0.130383  0.500000  1
  Si  Si13  1  0.869617  0.369617  0.239233  1
  Si  Si14  1  0.750000  0.750000  0.000000  1
  Si  Si15  1  0.250000  0.250000  0.000000  1
