# generated using pymatgen
data_Nb4AlGa5Ni2
_symmetry_space_group_name_H-M   'P 1'
_cell_length_a   5.13531800
_cell_length_b   5.12666292
_cell_length_c   7.84014800
_cell_angle_alpha   90.00000000
_cell_angle_beta   90.00000000
_cell_angle_gamma   120.05586257
_symmetry_Int_Tables_number   1
_chemical_formula_structural   Nb4AlGa5Ni2
_chemical_formula_sum   'Nb4 Al1 Ga5 Ni2'
_cell_volume   178.65379848
_cell_formula_units_Z   1
loop_
 _symmetry_equiv_pos_site_id
 _symmetry_equiv_pos_as_xyz
  1  'x, y, z'
loop_
 _atom_site_type_symbol
 _atom_site_label
 _atom_site_symmetry_multiplicity
 _atom_site_fract_x
 _atom_site_fract_y
 _atom_site_fract_z
 _atom_site_occupancy
  Nb  Nb0  1  0.666746  0.333491  0.070226  1
  Nb  Nb1  1  0.666746  0.333491  0.429775  1
  Nb  Nb2  1  0.332828  0.665654  0.571115  1
  Nb  Nb3  1  0.332828  0.665654  0.928886  1
  Al  Al4  1  0.832291  0.664583  0.750000  1
  Ga  Ga5  1  0.169012  0.338022  0.249999  1
  Ga  Ga6  1  0.168768  0.830967  0.249999  1
  Ga  Ga7  1  0.662200  0.830967  0.249999  1
  Ga  Ga8  1  0.338609  0.169734  0.750000  1
  Ga  Ga9  1  0.831126  0.169734  0.750000  1
  Ni  Ni10  1  0.999424  0.998849  0.999696  1
  Ni  Ni11  1  0.999424  0.998849  0.500304  1
