# generated using pymatgen
data_Sr10CuHg2Pt3
_symmetry_space_group_name_H-M   'P 1'
_cell_length_a   9.80892731
_cell_length_b   9.80892592
_cell_length_c   9.76641921
_cell_angle_alpha   129.80530514
_cell_angle_beta   129.80530383
_cell_angle_gamma   74.04911290
_symmetry_Int_Tables_number   1
_chemical_formula_structural   Sr10CuHg2Pt3
_chemical_formula_sum   'Sr10 Cu1 Hg2 Pt3'
_cell_volume   539.85940471
_cell_formula_units_Z   1
loop_
 _symmetry_equiv_pos_site_id
 _symmetry_equiv_pos_as_xyz
  1  'x, y, z'
loop_
 _atom_site_type_symbol
 _atom_site_label
 _atom_site_symmetry_multiplicity
 _atom_site_fract_x
 _atom_site_fract_y
 _atom_site_fract_z
 _atom_site_occupancy
  Sr  Sr0  1  0.529831  0.029831  0.826460  1
  Sr  Sr1  1  0.199099  0.699099  0.162502  1
  Sr  Sr2  1  0.038500  0.196536  0.504302  1
  Sr  Sr3  1  0.696536  0.538500  0.504302  1
  Sr  Sr4  1  0.463403  0.963403  0.162502  1
  Sr  Sr5  1  0.796628  0.296628  0.826460  1
  Sr  Sr6  1  0.965802  0.807765  0.504302  1
  Sr  Sr7  1  0.307765  0.465802  0.504302  1
  Sr  Sr8  1  0.495365  0.501883  0.997246  1
  Sr  Sr9  1  0.001883  0.995365  0.997246  1
  Cu  Cu10  1  0.888018  0.388018  0.276035  1
  Hg  Hg11  1  0.250929  0.250929  0.001858  1
  Hg  Hg12  1  0.750929  0.750929  0.001858  1
  Pt  Pt13  1  0.627633  0.873021  0.500653  1
  Pt  Pt14  1  0.373021  0.127633  0.500653  1
  Pt  Pt15  1  0.114659  0.614659  0.729318  1
