# generated using pymatgen
data_Ca2NdAgIr2(RuO7)2
_symmetry_space_group_name_H-M   'P 1'
_cell_length_a   7.29971101
_cell_length_b   7.29012085
_cell_length_c   7.29012100
_cell_angle_alpha   59.33833234
_cell_angle_beta   59.49774423
_cell_angle_gamma   59.49773970
_symmetry_Int_Tables_number   1
_chemical_formula_structural   Ca2NdAgIr2(RuO7)2
_chemical_formula_sum   'Ca2 Nd1 Ag1 Ir2 Ru2 O14'
_cell_volume   270.85409710
_cell_formula_units_Z   1
loop_
 _symmetry_equiv_pos_site_id
 _symmetry_equiv_pos_as_xyz
  1  'x, y, z'
loop_
 _atom_site_type_symbol
 _atom_site_label
 _atom_site_symmetry_multiplicity
 _atom_site_fract_x
 _atom_site_fract_y
 _atom_site_fract_z
 _atom_site_occupancy
  Ca  Ca0  1  0.625000  0.125000  0.125000  1
  Ca  Ca1  1  0.125000  0.125000  0.625000  1
  Nd  Nd2  1  0.125000  0.125000  0.125000  1
  Ag  Ag3  1  0.125000  0.625000  0.125000  1
  Ir  Ir4  1  0.625000  0.125000  0.625000  1
  Ir  Ir5  1  0.625000  0.625000  0.125000  1
  Ru  Ru6  1  0.125000  0.625000  0.625000  1
  Ru  Ru7  1  0.625000  0.625000  0.625000  1
  O  O8  1  0.697061  0.690793  0.305252  1
  O  O9  1  0.296322  0.296128  0.702029  1
  O  O10  1  0.702336  0.300464  0.696087  1
  O  O11  1  0.302852  0.698715  0.302179  1
  O  O12  1  0.312690  0.684230  0.687946  1
  O  O13  1  0.705496  0.293046  0.293013  1
  O  O14  1  0.552939  0.559207  0.944748  1
  O  O15  1  0.953678  0.953872  0.547971  1
  O  O16  1  0.547664  0.949536  0.553913  1
  O  O17  1  0.947148  0.551285  0.947821  1
  O  O18  1  0.937310  0.565770  0.562054  1
  O  O19  1  0.544504  0.956954  0.956987  1
  O  O20  1  0.242922  0.272060  0.243987  1
  O  O21  1  0.007078  0.977940  0.006013  1
