# generated using pymatgen
data_Pr8P14Ir15Ru
_symmetry_space_group_name_H-M   'P 1'
_cell_length_a   4.01630400
_cell_length_b   12.85806893
_cell_length_c   13.28358806
_cell_angle_alpha   80.83691393
_cell_angle_beta   90.00000000
_cell_angle_gamma   90.00000000
_symmetry_Int_Tables_number   1
_chemical_formula_structural   Pr8P14Ir15Ru
_chemical_formula_sum   'Pr8 P14 Ir15 Ru1'
_cell_volume   677.23603649
_cell_formula_units_Z   1
loop_
 _symmetry_equiv_pos_site_id
 _symmetry_equiv_pos_as_xyz
  1  'x, y, z'
loop_
 _atom_site_type_symbol
 _atom_site_label
 _atom_site_symmetry_multiplicity
 _atom_site_fract_x
 _atom_site_fract_y
 _atom_site_fract_z
 _atom_site_occupancy
  Pr  Pr0  1  0.750000  0.789736  0.561764  1
  Pr  Pr1  1  0.250000  0.209160  0.439455  1
  Pr  Pr2  1  0.750000  0.482071  0.706485  1
  Pr  Pr3  1  0.250000  0.517805  0.293349  1
  Pr  Pr4  1  0.750000  0.719338  0.896134  1
  Pr  Pr5  1  0.250000  0.103255  0.788811  1
  Pr  Pr6  1  0.750000  0.896555  0.211044  1
  Pr  Pr7  1  0.250000  0.280484  0.103477  1
  P  P8  1  0.250000  0.911106  0.412971  1
  P  P9  1  0.750000  0.473389  0.127514  1
  P  P10  1  0.250000  0.526889  0.872756  1
  P  P11  1  0.750000  0.087041  0.589605  1
  P  P12  1  0.250000  0.741770  0.081365  1
  P  P13  1  0.750000  0.258449  0.918925  1
  P  P14  1  0.750000  0.155337  0.280928  1
  P  P15  1  0.250000  0.846700  0.717031  1
  P  P16  1  0.250000  0.052766  0.098024  1
  P  P17  1  0.750000  0.946797  0.902025  1
  P  P18  1  0.250000  0.312981  0.688051  1
  P  P19  1  0.750000  0.687045  0.311863  1
  P  P20  1  0.250000  0.608037  0.561932  1
  P  P21  1  0.750000  0.392293  0.438176  1
  Ir  Ir22  1  0.750000  0.012164  0.421827  1
  Ir  Ir23  1  0.250000  0.663643  0.731771  1
  Ir  Ir24  1  0.750000  0.336710  0.269049  1
  Ir  Ir25  1  0.250000  0.552448  0.047112  1
  Ir  Ir26  1  0.750000  0.447752  0.953300  1
  Ir  Ir27  1  0.250000  0.062468  0.270648  1
  Ir  Ir28  1  0.750000  0.938539  0.729016  1
  Ir  Ir29  1  0.250000  0.423553  0.527542  1
  Ir  Ir30  1  0.750000  0.576542  0.472181  1
  Ir  Ir31  1  0.250000  0.915614  0.998286  1
  Ir  Ir32  1  0.750000  0.084235  0.001909  1
  Ir  Ir33  1  0.250000  0.730090  0.394360  1
  Ir  Ir34  1  0.750000  0.270144  0.605999  1
  Ir  Ir35  1  0.250000  0.341795  0.858872  1
  Ir  Ir36  1  0.750000  0.658373  0.140720  1
  Ru  Ru37  1  0.250000  0.986924  0.575724  1
