# generated using pymatgen
data_CeAl3Ni
_symmetry_space_group_name_H-M   'P 1'
_cell_length_a   4.10939700
_cell_length_b   8.18807400
_cell_length_c   10.72002300
_cell_angle_alpha   90.00000000
_cell_angle_beta   90.00000000
_cell_angle_gamma   90.00000000
_symmetry_Int_Tables_number   1
_chemical_formula_structural   CeAl3Ni
_chemical_formula_sum   'Ce4 Al12 Ni4'
_cell_volume   360.70783487
_cell_formula_units_Z   4
loop_
 _symmetry_equiv_pos_site_id
 _symmetry_equiv_pos_as_xyz
  1  'x, y, z'
loop_
 _atom_site_type_symbol
 _atom_site_label
 _atom_site_symmetry_multiplicity
 _atom_site_fract_x
 _atom_site_fract_y
 _atom_site_fract_z
 _atom_site_occupancy
  Ce  Ce0  1  0.250000  0.680845  0.508702  1
  Ce  Ce1  1  0.750000  0.319155  0.491298  1
  Ce  Ce2  1  0.750000  0.819155  0.008702  1
  Ce  Ce3  1  0.250000  0.180845  0.991298  1
  Al  Al4  1  0.250000  0.857133  0.222501  1
  Al  Al5  1  0.750000  0.142867  0.777499  1
  Al  Al6  1  0.750000  0.642867  0.722501  1
  Al  Al7  1  0.250000  0.357133  0.277499  1
  Al  Al8  1  0.250000  0.555501  0.083644  1
  Al  Al9  1  0.750000  0.444499  0.916356  1
  Al  Al10  1  0.750000  0.944499  0.583644  1
  Al  Al11  1  0.250000  0.055501  0.416356  1
  Al  Al12  1  0.250000  0.885030  0.785318  1
  Al  Al13  1  0.750000  0.114970  0.214682  1
  Al  Al14  1  0.750000  0.614970  0.285318  1
  Al  Al15  1  0.250000  0.385030  0.714682  1
  Ni  Ni16  1  0.250000  0.605455  0.856792  1
  Ni  Ni17  1  0.750000  0.394545  0.143208  1
  Ni  Ni18  1  0.750000  0.894545  0.356792  1
  Ni  Ni19  1  0.250000  0.105455  0.643208  1
