# generated using pymatgen
data_CeDy3SiI6
_symmetry_space_group_name_H-M   'P 1'
_cell_length_a   4.26161000
_cell_length_b   14.29055750
_cell_length_c   15.03987419
_cell_angle_alpha   89.16650151
_cell_angle_beta   90.00000000
_cell_angle_gamma   90.00000000
_symmetry_Int_Tables_number   1
_chemical_formula_structural   CeDy3SiI6
_chemical_formula_sum   'Ce2 Dy6 Si2 I12'
_cell_volume   915.84319462
_cell_formula_units_Z   2
loop_
 _symmetry_equiv_pos_site_id
 _symmetry_equiv_pos_as_xyz
  1  'x, y, z'
loop_
 _atom_site_type_symbol
 _atom_site_label
 _atom_site_symmetry_multiplicity
 _atom_site_fract_x
 _atom_site_fract_y
 _atom_site_fract_z
 _atom_site_occupancy
  Ce  Ce0  1  0.000000  0.115220  0.577267  1
  Ce  Ce1  1  0.000000  0.884780  0.422733  1
  Dy  Dy2  1  0.500000  0.113282  0.348648  1
  Dy  Dy3  1  0.500000  0.886718  0.651352  1
  Dy  Dy4  1  0.500000  0.611179  0.149500  1
  Dy  Dy5  1  0.500000  0.388821  0.850500  1
  Dy  Dy6  1  0.000000  0.609590  0.926216  1
  Dy  Dy7  1  0.000000  0.390410  0.073784  1
  Si  Si8  1  0.500000  0.000000  0.500000  1
  Si  Si9  1  0.500000  0.500000  0.000000  1
  I  I10  1  0.500000  0.251780  0.162590  1
  I  I11  1  0.500000  0.748220  0.837410  1
  I  I12  1  0.500000  0.739838  0.330532  1
  I  I13  1  0.500000  0.260162  0.669468  1
  I  I14  1  0.000000  0.256640  0.407564  1
  I  I15  1  0.000000  0.743360  0.592436  1
  I  I16  1  0.000000  0.752532  0.083603  1
  I  I17  1  0.000000  0.247468  0.916397  1
  I  I18  1  0.000000  0.007371  0.239272  1
  I  I19  1  0.000000  0.992629  0.760728  1
  I  I20  1  0.000000  0.498526  0.254317  1
  I  I21  1  0.000000  0.501474  0.745683  1
