# generated using pymatgen
data_Y16Er4Si13As3
_symmetry_space_group_name_H-M   'P 1'
_cell_length_a   7.56078091
_cell_length_b   7.62723034
_cell_length_c   14.56025500
_cell_angle_alpha   89.87608941
_cell_angle_beta   89.14292383
_cell_angle_gamma   90.01889986
_symmetry_Int_Tables_number   1
_chemical_formula_structural   Y16Er4Si13As3
_chemical_formula_sum   'Y16 Er4 Si13 As3'
_cell_volume   839.56216802
_cell_formula_units_Z   1
loop_
 _symmetry_equiv_pos_site_id
 _symmetry_equiv_pos_as_xyz
  1  'x, y, z'
loop_
 _atom_site_type_symbol
 _atom_site_label
 _atom_site_symmetry_multiplicity
 _atom_site_fract_x
 _atom_site_fract_y
 _atom_site_fract_z
 _atom_site_occupancy
  Y  Y0  1  0.037809  0.824737  0.106293  1
  Y  Y1  1  0.524301  0.673919  0.397666  1
  Y  Y2  1  0.461551  0.325381  0.893506  1
  Y  Y3  1  0.975245  0.180396  0.602095  1
  Y  Y4  1  0.970520  0.177567  0.894035  1
  Y  Y5  1  0.479334  0.322866  0.601021  1
  Y  Y6  1  0.528957  0.677992  0.105321  1
  Y  Y7  1  0.019294  0.816657  0.398268  1
  Y  Y8  1  0.614207  0.837352  0.882047  1
  Y  Y9  1  0.121773  0.663999  0.619228  1
  Y  Y10  1  0.886728  0.336991  0.116983  1
  Y  Y11  1  0.377534  0.164047  0.382416  1
  Y  Y12  1  0.382924  0.164597  0.116822  1
  Y  Y13  1  0.877473  0.334864  0.380812  1
  Y  Y14  1  0.116866  0.665109  0.882475  1
  Y  Y15  1  0.624037  0.835224  0.618524  1
  Er  Er16  1  0.712239  0.998589  0.253863  1
  Er  Er17  1  0.213166  0.500069  0.250666  1
  Er  Er18  1  0.786550  0.498805  0.746687  1
  Er  Er19  1  0.287960  0.001464  0.751988  1
  Si  Si20  1  0.824041  0.628618  0.249543  1
  Si  Si21  1  0.325100  0.871017  0.250783  1
  Si  Si22  1  0.674453  0.130122  0.749652  1
  Si  Si23  1  0.173836  0.371084  0.749205  1
  Si  Si24  1  0.088546  0.110782  0.249421  1
  Si  Si25  1  0.588347  0.387580  0.248093  1
  Si  Si26  1  0.412592  0.612796  0.750296  1
  Si  Si27  1  0.912028  0.889188  0.750677  1
  Si  Si28  1  0.214934  0.466951  0.456829  1
  Si  Si29  1  0.224744  0.475209  0.045980  1
  Si  Si30  1  0.718575  0.031079  0.455739  1
  Si  Si31  1  0.275634  0.975110  0.953862  1
  Si  Si32  1  0.786881  0.532713  0.543911  1
  As  As33  1  0.772589  0.523648  0.953347  1
  As  As34  1  0.281893  0.969922  0.545681  1
  As  As35  1  0.727342  0.023555  0.046264  1
