# generated using pymatgen
data_Sc10ReAs4Ru
_symmetry_space_group_name_H-M   'P 1'
_cell_length_a   5.84881600
_cell_length_b   7.82050149
_cell_length_c   7.98826516
_cell_angle_alpha   119.30768508
_cell_angle_beta   90.00000000
_cell_angle_gamma   90.00000000
_symmetry_Int_Tables_number   1
_chemical_formula_structural   Sc10ReAs4Ru
_chemical_formula_sum   'Sc10 Re1 As4 Ru1'
_cell_volume   318.62021349
_cell_formula_units_Z   1
loop_
 _symmetry_equiv_pos_site_id
 _symmetry_equiv_pos_as_xyz
  1  'x, y, z'
loop_
 _atom_site_type_symbol
 _atom_site_label
 _atom_site_symmetry_multiplicity
 _atom_site_fract_x
 _atom_site_fract_y
 _atom_site_fract_z
 _atom_site_occupancy
  Sc  Sc0  1  0.999373  0.662153  0.324592  1
  Sc  Sc1  1  0.999373  0.337559  0.675408  1
  Sc  Sc2  1  0.500627  0.337559  0.675408  1
  Sc  Sc3  1  0.500627  0.662153  0.324592  1
  Sc  Sc4  1  0.750000  0.743168  0.766682  1
  Sc  Sc5  1  0.250000  0.256886  0.233574  1
  Sc  Sc6  1  0.750000  0.976487  0.233318  1
  Sc  Sc7  1  0.250000  0.023311  0.766426  1
  Sc  Sc8  1  0.750000  0.249942  0.000000  1
  Sc  Sc9  1  0.250000  0.749083  0.000000  1
  Re  Re10  1  0.750000  0.591445  0.000000  1
  As  As11  1  0.750000  0.378863  0.387914  1
  As  As12  1  0.250000  0.621455  0.611723  1
  As  As13  1  0.750000  0.990949  0.612086  1
  As  As14  1  0.250000  0.009732  0.388277  1
  Ru  Ru15  1  0.250000  0.409254  0.000000  1
