# generated using pymatgen
data_PaCr3(CuSe4)2
_symmetry_space_group_name_H-M   'P 1'
_cell_length_a   7.56199773
_cell_length_b   7.56199787
_cell_length_c   7.56199673
_cell_angle_alpha   60.02549393
_cell_angle_beta   60.02549608
_cell_angle_gamma   60.02549632
_symmetry_Int_Tables_number   1
_chemical_formula_structural   PaCr3(CuSe4)2
_chemical_formula_sum   'Pa1 Cr3 Cu2 Se8'
_cell_volume   305.94651447
_cell_formula_units_Z   1
loop_
 _symmetry_equiv_pos_site_id
 _symmetry_equiv_pos_as_xyz
  1  'x, y, z'
loop_
 _atom_site_type_symbol
 _atom_site_label
 _atom_site_symmetry_multiplicity
 _atom_site_fract_x
 _atom_site_fract_y
 _atom_site_fract_z
 _atom_site_occupancy
  Pa  Pa0  1  0.500000  0.500000  0.500000  1
  Cr  Cr1  1  0.000000  0.500000  0.500000  1
  Cr  Cr2  1  0.500000  0.500000  0.000000  1
  Cr  Cr3  1  0.500000  0.000000  0.500000  1
  Cu  Cu4  1  0.128764  0.128764  0.128764  1
  Cu  Cu5  1  0.871236  0.871236  0.871236  1
  Se  Se6  1  0.240968  0.735989  0.240968  1
  Se  Se7  1  0.240968  0.240968  0.735989  1
  Se  Se8  1  0.735989  0.240968  0.240968  1
  Se  Se9  1  0.259440  0.259440  0.259440  1
  Se  Se10  1  0.759032  0.264011  0.759032  1
  Se  Se11  1  0.759032  0.759032  0.264011  1
  Se  Se12  1  0.264011  0.759032  0.759032  1
  Se  Se13  1  0.740560  0.740560  0.740560  1
