# generated using pymatgen
data_Nb6FeSi6Tc5
_symmetry_space_group_name_H-M   'P 1'
_cell_length_a   7.53137072
_cell_length_b   7.53894211
_cell_length_c   7.53894029
_cell_angle_alpha   127.53961295
_cell_angle_beta   124.56645201
_cell_angle_gamma   79.84690643
_symmetry_Int_Tables_number   1
_chemical_formula_structural   Nb6FeSi6Tc5
_chemical_formula_sum   'Nb6 Fe1 Si6 Tc5'
_cell_volume   269.92528496
_cell_formula_units_Z   1
loop_
 _symmetry_equiv_pos_site_id
 _symmetry_equiv_pos_as_xyz
  1  'x, y, z'
loop_
 _atom_site_type_symbol
 _atom_site_label
 _atom_site_symmetry_multiplicity
 _atom_site_fract_x
 _atom_site_fract_y
 _atom_site_fract_z
 _atom_site_occupancy
  Nb  Nb0  1  0.553391  0.096838  0.042944  1
  Nb  Nb1  1  0.446609  0.489554  0.543448  1
  Nb  Nb2  1  0.959408  0.498148  0.033550  1
  Nb  Nb3  1  0.040592  0.074142  0.538740  1
  Nb  Nb4  1  0.752984  0.912934  0.660782  1
  Nb  Nb5  1  0.247016  0.907798  0.159952  1
  Fe  Fe6  1  0.000000  0.246479  0.246479  1
  Si  Si7  1  0.335425  0.825790  0.495928  1
  Si  Si8  1  0.664575  0.160502  0.490364  1
  Si  Si9  1  0.830626  0.832358  0.995012  1
  Si  Si10  1  0.169374  0.164385  0.001732  1
  Si  Si11  1  0.775822  0.521086  0.252696  1
  Si  Si12  1  0.224178  0.476874  0.745265  1
  Tc  Tc13  1  0.157299  0.749167  0.653186  1
  Tc  Tc14  1  0.842701  0.495886  0.591868  1
  Tc  Tc15  1  0.594158  0.747880  0.091141  1
  Tc  Tc16  1  0.405842  0.496982  0.153722  1
  Tc  Tc17  1  0.500000  0.245195  0.745195  1
