# generated using pymatgen
data_BeCoB2W
_symmetry_space_group_name_H-M   'P 1'
_cell_length_a   3.11425617
_cell_length_b   3.11425653
_cell_length_c   4.87578800
_cell_angle_alpha   108.62418667
_cell_angle_beta   108.62418889
_cell_angle_gamma   89.99999515
_symmetry_Int_Tables_number   1
_chemical_formula_structural   BeCoB2W
_chemical_formula_sum   'Be1 Co1 B2 W1'
_cell_volume   42.19056076
_cell_formula_units_Z   1
loop_
 _symmetry_equiv_pos_site_id
 _symmetry_equiv_pos_as_xyz
  1  'x, y, z'
loop_
 _atom_site_type_symbol
 _atom_site_label
 _atom_site_symmetry_multiplicity
 _atom_site_fract_x
 _atom_site_fract_y
 _atom_site_fract_z
 _atom_site_occupancy
  Be  Be0  1  0.749999  0.249998  0.500000  1
  Co  Co1  1  0.249998  0.749999  0.500000  1
  B  B2  1  0.601683  0.601683  0.203366  1
  B  B3  1  0.398317  0.398317  0.796634  1
  W  W4  1  0.000000  0.000000  0.000000  1
