# generated using pymatgen
data_Ti3InS6
_symmetry_space_group_name_H-M   'P 1'
_cell_length_a   5.92554445
_cell_length_b   5.92554521
_cell_length_c   7.47677061
_cell_angle_alpha   82.48331528
_cell_angle_beta   82.48326790
_cell_angle_gamma   119.94649717
_symmetry_Int_Tables_number   1
_chemical_formula_structural   Ti3InS6
_chemical_formula_sum   'Ti3 In1 S6'
_cell_volume   219.56538526
_cell_formula_units_Z   1
loop_
 _symmetry_equiv_pos_site_id
 _symmetry_equiv_pos_as_xyz
  1  'x, y, z'
loop_
 _atom_site_type_symbol
 _atom_site_label
 _atom_site_symmetry_multiplicity
 _atom_site_fract_x
 _atom_site_fract_y
 _atom_site_fract_z
 _atom_site_occupancy
  Ti  Ti0  1  0.667749  0.332251  0.000000  1
  Ti  Ti1  1  0.332251  0.667749  0.000000  1
  Ti  Ti2  1  0.000000  0.000000  0.000000  1
  In  In3  1  0.500000  0.500000  0.500000  1
  S  S4  1  0.399334  0.067732  0.799355  1
  S  S5  1  0.067732  0.399334  0.799355  1
  S  S6  1  0.730838  0.730837  0.800650  1
  S  S7  1  0.600666  0.932268  0.200645  1
  S  S8  1  0.269162  0.269163  0.199350  1
  S  S9  1  0.932268  0.600666  0.200645  1
