# generated using pymatgen
data_Nd4Sn5SbRh7
_symmetry_space_group_name_H-M   'P 1'
_cell_length_a   7.74085114
_cell_length_b   7.74085216
_cell_length_c   7.74085052
_cell_angle_alpha   109.47681748
_cell_angle_beta   109.47681715
_cell_angle_gamma   109.46002398
_symmetry_Int_Tables_number   1
_chemical_formula_structural   Nd4Sn5SbRh7
_chemical_formula_sum   'Nd4 Sn5 Sb1 Rh7'
_cell_volume   357.06253759
_cell_formula_units_Z   1
loop_
 _symmetry_equiv_pos_site_id
 _symmetry_equiv_pos_as_xyz
  1  'x, y, z'
loop_
 _atom_site_type_symbol
 _atom_site_label
 _atom_site_symmetry_multiplicity
 _atom_site_fract_x
 _atom_site_fract_y
 _atom_site_fract_z
 _atom_site_occupancy
  Nd  Nd0  1  0.495381  0.998964  0.000000  1
  Nd  Nd1  1  0.998964  0.495381  0.000000  1
  Nd  Nd2  1  0.998964  0.998964  0.503583  1
  Nd  Nd3  1  0.495381  0.495381  0.496417  1
  Sn  Sn4  1  0.996465  0.317238  0.320773  1
  Sn  Sn5  1  0.675692  0.996465  0.679227  1
  Sn  Sn6  1  0.687937  0.687937  0.000000  1
  Sn  Sn7  1  0.996465  0.675692  0.679227  1
  Sn  Sn8  1  0.317238  0.996465  0.320773  1
  Sb  Sb9  1  0.326033  0.326033  0.000000  1
  Rh  Rh10  1  0.008260  0.008260  0.000000  1
  Rh  Rh11  1  0.502154  0.751055  0.248902  1
  Rh  Rh12  1  0.751055  0.502154  0.248902  1
  Rh  Rh13  1  0.247304  0.747304  0.500000  1
  Rh  Rh14  1  0.253253  0.502154  0.751098  1
  Rh  Rh15  1  0.502154  0.253253  0.751098  1
  Rh  Rh16  1  0.747304  0.247304  0.500000  1
