# generated using pymatgen
data_Zr6Ta4Al12Fe5Co2
_symmetry_space_group_name_H-M   'P 1'
_cell_length_a   8.62908291
_cell_length_b   8.64743945
_cell_length_c   8.64744023
_cell_angle_alpha   59.91958457
_cell_angle_beta   60.07621585
_cell_angle_gamma   60.07621762
_symmetry_Int_Tables_number   1
_chemical_formula_structural   Zr6Ta4Al12Fe5Co2
_chemical_formula_sum   'Zr6 Ta4 Al12 Fe5 Co2'
_cell_volume   456.51900178
_cell_formula_units_Z   1
loop_
 _symmetry_equiv_pos_site_id
 _symmetry_equiv_pos_as_xyz
  1  'x, y, z'
loop_
 _atom_site_type_symbol
 _atom_site_label
 _atom_site_symmetry_multiplicity
 _atom_site_fract_x
 _atom_site_fract_y
 _atom_site_fract_z
 _atom_site_occupancy
  Zr  Zr0  1  0.695467  0.302911  0.302911  1
  Zr  Zr1  1  0.694154  0.305820  0.695437  1
  Zr  Zr2  1  0.694154  0.695437  0.305820  1
  Zr  Zr3  1  0.304167  0.697181  0.697181  1
  Zr  Zr4  1  0.306847  0.693151  0.305455  1
  Zr  Zr5  1  0.306847  0.305455  0.693151  1
  Ta  Ta6  1  0.641716  0.119443  0.119443  1
  Ta  Ta7  1  0.120374  0.642598  0.120301  1
  Ta  Ta8  1  0.120374  0.120301  0.642598  1
  Ta  Ta9  1  0.121371  0.117512  0.117512  1
  Al  Al10  1  0.361331  0.879477  0.879477  1
  Al  Al11  1  0.879251  0.360723  0.879366  1
  Al  Al12  1  0.879251  0.879366  0.360723  1
  Al  Al13  1  0.878852  0.880474  0.880474  1
  Al  Al14  1  0.988358  0.336446  0.336446  1
  Al  Al15  1  0.335716  0.990168  0.337451  1
  Al  Al16  1  0.335716  0.337451  0.990168  1
  Al  Al17  1  0.336715  0.335723  0.335723  1
  Al  Al18  1  0.004886  0.665214  0.665214  1
  Al  Al19  1  0.665809  0.002948  0.665554  1
  Al  Al20  1  0.665809  0.665554  0.002948  1
  Al  Al21  1  0.666021  0.666350  0.666350  1
  Fe  Fe22  1  0.000760  0.000020  0.000020  1
  Fe  Fe23  1  0.494118  0.004627  0.004627  1
  Fe  Fe24  1  0.495061  0.004496  0.496299  1
  Fe  Fe25  1  0.495061  0.496299  0.004496  1
  Fe  Fe26  1  0.004699  0.495349  0.495349  1
  Co  Co27  1  0.003557  0.496233  0.003273  1
  Co  Co28  1  0.003557  0.003273  0.496233  1
