# generated using pymatgen
data_Sm3Co7NiMoP6
_symmetry_space_group_name_H-M   'P 1'
_cell_length_a   3.77268900
_cell_length_b   10.63542000
_cell_length_c   12.38162500
_cell_angle_alpha   90.00000000
_cell_angle_beta   90.00000000
_cell_angle_gamma   90.00000000
_symmetry_Int_Tables_number   1
_chemical_formula_structural   Sm3Co7NiMoP6
_chemical_formula_sum   'Sm6 Co14 Ni2 Mo2 P12'
_cell_volume   496.80195642
_cell_formula_units_Z   2
loop_
 _symmetry_equiv_pos_site_id
 _symmetry_equiv_pos_as_xyz
  1  'x, y, z'
loop_
 _atom_site_type_symbol
 _atom_site_label
 _atom_site_symmetry_multiplicity
 _atom_site_fract_x
 _atom_site_fract_y
 _atom_site_fract_z
 _atom_site_occupancy
  Sm  Sm0  1  0.000000  0.500000  0.521234  1
  Sm  Sm1  1  0.500000  0.000000  0.478766  1
  Sm  Sm2  1  0.500000  0.817061  0.204759  1
  Sm  Sm3  1  0.500000  0.182939  0.204759  1
  Sm  Sm4  1  0.000000  0.682939  0.795241  1
  Sm  Sm5  1  0.000000  0.317061  0.795241  1
  Co  Co6  1  0.000000  0.500000  0.987049  1
  Co  Co7  1  0.500000  0.000000  0.012951  1
  Co  Co8  1  0.500000  0.332310  0.991199  1
  Co  Co9  1  0.500000  0.667690  0.991199  1
  Co  Co10  1  0.000000  0.167690  0.008801  1
  Co  Co11  1  0.000000  0.832310  0.008801  1
  Co  Co12  1  0.500000  0.296632  0.431371  1
  Co  Co13  1  0.500000  0.703368  0.431371  1
  Co  Co14  1  0.000000  0.203368  0.568629  1
  Co  Co15  1  0.000000  0.796632  0.568629  1
  Co  Co16  1  0.500000  0.879735  0.708536  1
  Co  Co17  1  0.500000  0.120265  0.708536  1
  Co  Co18  1  0.000000  0.620265  0.291464  1
  Co  Co19  1  0.000000  0.379735  0.291464  1
  Ni  Ni20  1  0.500000  0.500000  0.702520  1
  Ni  Ni21  1  0.000000  0.000000  0.297480  1
  Mo  Mo22  1  0.500000  0.500000  0.154571  1
  Mo  Mo23  1  0.000000  0.000000  0.845429  1
  P  P24  1  0.500000  0.500000  0.884776  1
  P  P25  1  0.000000  0.000000  0.115224  1
  P  P26  1  0.500000  0.500000  0.345632  1
  P  P27  1  0.000000  0.000000  0.654368  1
  P  P28  1  0.500000  0.307612  0.614465  1
  P  P29  1  0.500000  0.692388  0.614465  1
  P  P30  1  0.000000  0.192388  0.385535  1
  P  P31  1  0.000000  0.807612  0.385535  1
  P  P32  1  0.500000  0.845918  0.894683  1
  P  P33  1  0.500000  0.154082  0.894683  1
  P  P34  1  0.000000  0.654082  0.105317  1
  P  P35  1  0.000000  0.345918  0.105317  1
