# generated using pymatgen
data_Eu3Al4O9
_symmetry_space_group_name_H-M   'P 1'
_cell_length_a   6.69980803
_cell_length_b   7.94008043
_cell_length_c   9.57138768
_cell_angle_alpha   84.58750958
_cell_angle_beta   72.50411760
_cell_angle_gamma   74.12068969
_symmetry_Int_Tables_number   1
_chemical_formula_structural   Eu3Al4O9
_chemical_formula_sum   'Eu6 Al8 O18'
_cell_volume   467.04297279
_cell_formula_units_Z   2
loop_
 _symmetry_equiv_pos_site_id
 _symmetry_equiv_pos_as_xyz
  1  'x, y, z'
loop_
 _atom_site_type_symbol
 _atom_site_label
 _atom_site_symmetry_multiplicity
 _atom_site_fract_x
 _atom_site_fract_y
 _atom_site_fract_z
 _atom_site_occupancy
  Eu  Eu0  1  0.052326  0.052901  0.691272  1
  Eu  Eu1  1  0.179042  0.565687  0.672907  1
  Eu  Eu2  1  0.301895  0.211694  0.957410  1
  Eu  Eu3  1  0.698105  0.788306  0.042590  1
  Eu  Eu4  1  0.820958  0.434313  0.327093  1
  Eu  Eu5  1  0.947674  0.947099  0.308728  1
  Al  Al6  1  0.396159  0.174274  0.300452  1
  Al  Al7  1  0.329345  0.553736  0.238946  1
  Al  Al8  1  0.743142  0.263101  0.057623  1
  Al  Al9  1  0.565556  0.190213  0.579991  1
  Al  Al10  1  0.434444  0.809787  0.420009  1
  Al  Al11  1  0.256858  0.736899  0.942377  1
  Al  Al12  1  0.670655  0.446264  0.761054  1
  Al  Al13  1  0.603841  0.825726  0.699548  1
  O  O14  1  0.257569  0.015123  0.387919  1
  O  O15  1  0.209391  0.375759  0.281179  1
  O  O16  1  0.203183  0.722120  0.134881  1
  O  O17  1  0.562120  0.118957  0.115181  1
  O  O18  1  0.028035  0.812091  0.876501  1
  O  O19  1  0.299558  0.239220  0.697416  1
  O  O20  1  0.299953  0.649251  0.407108  1
  O  O21  1  0.584697  0.193382  0.391382  1
  O  O22  1  0.608862  0.476371  0.138495  1
  O  O23  1  0.391138  0.523629  0.861505  1
  O  O24  1  0.415303  0.806618  0.608618  1
  O  O25  1  0.700047  0.350749  0.592892  1
  O  O26  1  0.700442  0.760780  0.302584  1
  O  O27  1  0.971965  0.187909  0.123499  1
  O  O28  1  0.437880  0.881043  0.884819  1
  O  O29  1  0.796817  0.277880  0.865119  1
  O  O30  1  0.790609  0.624241  0.718821  1
  O  O31  1  0.742431  0.984877  0.612081  1
