# generated using pymatgen
data_DyYZr2(Co5As3)4
_symmetry_space_group_name_H-M   'P 1'
_cell_length_a   3.75844800
_cell_length_b   12.13743191
_cell_length_c   10.63768900
_cell_angle_alpha   89.90550614
_cell_angle_beta   90.00000000
_cell_angle_gamma   90.00000000
_symmetry_Int_Tables_number   1
_chemical_formula_structural   DyYZr2(Co5As3)4
_chemical_formula_sum   'Dy1 Y1 Zr2 Co20 As12'
_cell_volume   485.26844429
_cell_formula_units_Z   1
loop_
 _symmetry_equiv_pos_site_id
 _symmetry_equiv_pos_as_xyz
  1  'x, y, z'
loop_
 _atom_site_type_symbol
 _atom_site_label
 _atom_site_symmetry_multiplicity
 _atom_site_fract_x
 _atom_site_fract_y
 _atom_site_fract_z
 _atom_site_occupancy
  Dy  Dy0  1  0.250000  0.797773  0.582037  1
  Y  Y1  1  0.750000  0.202238  0.417950  1
  Zr  Zr2  1  0.750000  0.700760  0.078836  1
  Zr  Zr3  1  0.250000  0.299236  0.921159  1
  Co  Co4  1  0.750000  0.696627  0.381646  1
  Co  Co5  1  0.250000  0.303391  0.618380  1
  Co  Co6  1  0.250000  0.801490  0.888226  1
  Co  Co7  1  0.750000  0.198497  0.111739  1
  Co  Co8  1  0.750000  0.993307  0.213274  1
  Co  Co9  1  0.250000  0.006693  0.786743  1
  Co  Co10  1  0.250000  0.508195  0.716015  1
  Co  Co11  1  0.750000  0.491808  0.283988  1
  Co  Co12  1  0.750000  0.678039  0.785515  1
  Co  Co13  1  0.250000  0.321980  0.214480  1
  Co  Co14  1  0.250000  0.820287  0.281212  1
  Co  Co15  1  0.750000  0.179710  0.718807  1
  Co  Co16  1  0.750000  0.930541  0.971398  1
  Co  Co17  1  0.250000  0.069473  0.028590  1
  Co  Co18  1  0.250000  0.568314  0.467577  1
  Co  Co19  1  0.750000  0.431703  0.532429  1
  Co  Co20  1  0.750000  0.988457  0.593215  1
  Co  Co21  1  0.250000  0.011488  0.406788  1
  Co  Co22  1  0.250000  0.513341  0.090304  1
  Co  Co23  1  0.750000  0.486657  0.909694  1
  As  As24  1  0.750000  0.613645  0.584888  1
  As  As25  1  0.250000  0.386394  0.415112  1
  As  As26  1  0.250000  0.884675  0.085315  1
  As  As27  1  0.750000  0.115322  0.914704  1
  As  As28  1  0.750000  0.890081  0.398572  1
  As  As29  1  0.250000  0.109897  0.601451  1
  As  As30  1  0.250000  0.610796  0.900978  1
  As  As31  1  0.750000  0.389214  0.099017  1
  As  As32  1  0.750000  0.870843  0.770263  1
  As  As33  1  0.250000  0.129122  0.229692  1
  As  As34  1  0.250000  0.629477  0.265190  1
  As  As35  1  0.750000  0.370527  0.734815  1
