# generated using pymatgen
data_LaNd7(GePt)8
_symmetry_space_group_name_H-M   'P 1'
_cell_length_a   4.50058500
_cell_length_b   7.70103800
_cell_length_c   14.65215000
_cell_angle_alpha   90.00000000
_cell_angle_beta   90.00000000
_cell_angle_gamma   90.00000000
_symmetry_Int_Tables_number   1
_chemical_formula_structural   LaNd7(GePt)8
_chemical_formula_sum   'La1 Nd7 Ge8 Pt8'
_cell_volume   507.83144720
_cell_formula_units_Z   1
loop_
 _symmetry_equiv_pos_site_id
 _symmetry_equiv_pos_as_xyz
  1  'x, y, z'
loop_
 _atom_site_type_symbol
 _atom_site_label
 _atom_site_symmetry_multiplicity
 _atom_site_fract_x
 _atom_site_fract_y
 _atom_site_fract_z
 _atom_site_occupancy
  La  La0  1  0.000000  0.289952  0.500000  1
  Nd  Nd1  1  0.500000  0.789015  0.748040  1
  Nd  Nd2  1  0.000000  0.210603  0.752779  1
  Nd  Nd3  1  0.500000  0.789015  0.251960  1
  Nd  Nd4  1  0.000000  0.210603  0.247221  1
  Nd  Nd5  1  0.500000  0.710314  0.000000  1
  Nd  Nd6  1  0.500000  0.705964  0.500000  1
  Nd  Nd7  1  0.000000  0.294841  0.000000  1
  Ge  Ge8  1  0.500000  0.412987  0.650530  1
  Ge  Ge9  1  0.000000  0.587932  0.851566  1
  Ge  Ge10  1  0.500000  0.412987  0.349470  1
  Ge  Ge11  1  0.000000  0.587932  0.148434  1
  Ge  Ge12  1  0.500000  0.087331  0.095269  1
  Ge  Ge13  1  0.000000  0.910960  0.404083  1
  Ge  Ge14  1  0.500000  0.087331  0.904731  1
  Ge  Ge15  1  0.000000  0.910960  0.595917  1
  Pt  Pt16  1  0.500000  0.077832  0.610561  1
  Pt  Pt17  1  0.000000  0.921294  0.890955  1
  Pt  Pt18  1  0.500000  0.077832  0.389439  1
  Pt  Pt19  1  0.000000  0.921294  0.109045  1
  Pt  Pt20  1  0.500000  0.419506  0.150905  1
  Pt  Pt21  1  0.000000  0.582004  0.348938  1
  Pt  Pt22  1  0.500000  0.419506  0.849095  1
  Pt  Pt23  1  0.000000  0.582004  0.651062  1
