# generated using pymatgen
data_Lu4Al3VOs4
_symmetry_space_group_name_H-M   'P 1'
_cell_length_a   5.35398600
_cell_length_b   5.22068115
_cell_length_c   8.86927600
_cell_angle_alpha   90.00000000
_cell_angle_beta   90.00000000
_cell_angle_gamma   120.34542938
_symmetry_Int_Tables_number   1
_chemical_formula_structural   Lu4Al3VOs4
_chemical_formula_sum   'Lu4 Al3 V1 Os4'
_cell_volume   213.94442437
_cell_formula_units_Z   1
loop_
 _symmetry_equiv_pos_site_id
 _symmetry_equiv_pos_as_xyz
  1  'x, y, z'
loop_
 _atom_site_type_symbol
 _atom_site_label
 _atom_site_symmetry_multiplicity
 _atom_site_fract_x
 _atom_site_fract_y
 _atom_site_fract_z
 _atom_site_occupancy
  Lu  Lu0  1  0.329886  0.667816  0.437684  1
  Lu  Lu1  1  0.664220  0.329771  0.559216  1
  Lu  Lu2  1  0.664220  0.329771  0.940784  1
  Lu  Lu3  1  0.329886  0.667816  0.062316  1
  Al  Al4  1  0.175328  0.333339  0.750000  1
  Al  Al5  1  0.176540  0.834950  0.750000  1
  Al  Al6  1  0.338930  0.174077  0.250000  1
  V  V7  1  0.844933  0.672037  0.250000  1
  Os  Os8  1  0.664272  0.830519  0.750000  1
  Os  Os9  1  0.989687  0.984906  0.002565  1
  Os  Os10  1  0.832408  0.190091  0.250000  1
  Os  Os11  1  0.989687  0.984906  0.497435  1
