# generated using pymatgen
data_La9Lu11Si15Sn
_symmetry_space_group_name_H-M   'P 1'
_cell_length_a   7.88644643
_cell_length_b   7.90207442
_cell_length_c   14.52499800
_cell_angle_alpha   89.67111250
_cell_angle_beta   90.22614845
_cell_angle_gamma   90.05314042
_symmetry_Int_Tables_number   1
_chemical_formula_structural   La9Lu11Si15Sn
_chemical_formula_sum   'La9 Lu11 Si15 Sn1'
_cell_volume   905.16517920
_cell_formula_units_Z   1
loop_
 _symmetry_equiv_pos_site_id
 _symmetry_equiv_pos_as_xyz
  1  'x, y, z'
loop_
 _atom_site_type_symbol
 _atom_site_label
 _atom_site_symmetry_multiplicity
 _atom_site_fract_x
 _atom_site_fract_y
 _atom_site_fract_z
 _atom_site_occupancy
  La  La0  1  0.010833  0.857891  0.125326  1
  La  La1  1  0.649553  0.995482  0.458765  1
  La  La2  1  0.358507  0.003169  0.957237  1
  La  La3  1  0.987319  0.641235  0.540349  1
  La  La4  1  0.496912  0.854544  0.209685  1
  La  La5  1  0.512883  0.154267  0.715627  1
  La  La6  1  0.855830  0.492532  0.790735  1
  La  La7  1  0.140560  0.506959  0.290563  1
  La  La8  1  0.008541  0.354466  0.039699  1
  Lu  Lu9  1  0.493065  0.354934  0.122633  1
  Lu  Lu10  1  0.982137  0.152726  0.630507  1
  Lu  Lu11  1  0.858512  0.004929  0.873934  1
  Lu  Lu12  1  0.141605  0.995576  0.371277  1
  Lu  Lu13  1  0.506233  0.636447  0.626694  1
  Lu  Lu14  1  0.360166  0.492170  0.872850  1
  Lu  Lu15  1  0.644097  0.505018  0.375116  1
  Lu  Lu16  1  0.316145  0.330651  0.498127  1
  Lu  Lu17  1  0.176872  0.817797  0.755079  1
  Lu  Lu18  1  0.815992  0.184865  0.250865  1
  Lu  Lu19  1  0.681471  0.676688  0.999979  1
  Si  Si20  1  0.708688  0.065638  0.060114  1
  Si  Si21  1  0.939855  0.290370  0.436998  1
  Si  Si22  1  0.439829  0.212783  0.313400  1
  Si  Si23  1  0.562775  0.786649  0.812473  1
  Si  Si24  1  0.210456  0.440835  0.686234  1
  Si  Si25  1  0.782680  0.550822  0.186792  1
  Si  Si26  1  0.064030  0.702703  0.932641  1
  Si  Si27  1  0.793084  0.851699  0.690371  1
  Si  Si28  1  0.211418  0.156949  0.194125  1
  Si  Si29  1  0.849971  0.797216  0.317126  1
  Si  Si30  1  0.353318  0.696923  0.433746  1
  Si  Si31  1  0.647860  0.292355  0.937832  1
  Si  Si32  1  0.698311  0.352032  0.559877  1
  Si  Si33  1  0.307030  0.642296  0.055292  1
  Si  Si34  1  0.148427  0.201732  0.811850  1
  Sn  Sn35  1  0.285033  0.946646  0.566083  1
