# generated using pymatgen
data_La4(PrPt)3
_symmetry_space_group_name_H-M   'P 1'
_cell_length_a   6.60091900
_cell_length_b   10.31611706
_cell_length_c   10.31611636
_cell_angle_alpha   119.91608408
_cell_angle_beta   90.00000000
_cell_angle_gamma   90.00000000
_symmetry_Int_Tables_number   1
_chemical_formula_structural   La4(PrPt)3
_chemical_formula_sum   'La8 Pr6 Pt6'
_cell_volume   608.88341432
_cell_formula_units_Z   2
loop_
 _symmetry_equiv_pos_site_id
 _symmetry_equiv_pos_as_xyz
  1  'x, y, z'
loop_
 _atom_site_type_symbol
 _atom_site_label
 _atom_site_symmetry_multiplicity
 _atom_site_fract_x
 _atom_site_fract_y
 _atom_site_fract_z
 _atom_site_occupancy
  La  La0  1  0.459241  0.333378  0.666622  1
  La  La1  1  0.959241  0.666622  0.333378  1
  La  La2  1  0.247897  0.127444  0.872556  1
  La  La3  1  0.247473  0.745542  0.872797  1
  La  La4  1  0.247473  0.127203  0.254458  1
  La  La5  1  0.747897  0.872556  0.127444  1
  La  La6  1  0.747473  0.254458  0.127203  1
  La  La7  1  0.747473  0.872797  0.745542  1
  Pr  Pr8  1  0.441759  0.537792  0.462208  1
  Pr  Pr9  1  0.441513  0.924319  0.462221  1
  Pr  Pr10  1  0.441513  0.537779  0.075681  1
  Pr  Pr11  1  0.941759  0.462208  0.537792  1
  Pr  Pr12  1  0.941513  0.075681  0.537779  1
  Pr  Pr13  1  0.941513  0.462221  0.924319  1
  Pt  Pt14  1  0.188871  0.811165  0.188835  1
  Pt  Pt15  1  0.188629  0.377631  0.188996  1
  Pt  Pt16  1  0.188629  0.811004  0.622369  1
  Pt  Pt17  1  0.688871  0.188835  0.811165  1
  Pt  Pt18  1  0.688629  0.622369  0.811004  1
  Pt  Pt19  1  0.688629  0.188996  0.377631  1
