# generated using pymatgen
data_U4Pa2N11
_symmetry_space_group_name_H-M   'P 1'
_cell_length_a   6.53991870
_cell_length_b   6.53991911
_cell_length_c   6.53563726
_cell_angle_alpha   80.28804079
_cell_angle_beta   80.28803663
_cell_angle_gamma   119.97509548
_symmetry_Int_Tables_number   1
_chemical_formula_structural   U4Pa2N11
_chemical_formula_sum   'U4 Pa2 N11'
_cell_volume   227.95608729
_cell_formula_units_Z   1
loop_
 _symmetry_equiv_pos_site_id
 _symmetry_equiv_pos_as_xyz
  1  'x, y, z'
loop_
 _atom_site_type_symbol
 _atom_site_label
 _atom_site_symmetry_multiplicity
 _atom_site_fract_x
 _atom_site_fract_y
 _atom_site_fract_z
 _atom_site_occupancy
  U  U0  1  0.315242  0.668759  0.994045  1
  U  U1  1  0.017585  0.017585  0.995422  1
  U  U2  1  0.495446  0.495446  0.519455  1
  U  U3  1  0.668759  0.315242  0.994045  1
  Pa  Pa4  1  0.165285  0.835003  0.495394  1
  Pa  Pa5  1  0.835003  0.165285  0.495394  1
  N  N6  1  0.436270  0.791716  0.635229  1
  N  N7  1  0.992769  0.699402  0.902651  1
  N  N8  1  0.699402  0.992769  0.902651  1
  N  N9  1  0.791716  0.436270  0.635229  1
  N  N10  1  0.855076  0.855076  0.366105  1
  N  N11  1  0.293308  0.964090  0.108845  1
  N  N12  1  0.246843  0.551882  0.346151  1
  N  N13  1  0.404351  0.404351  0.894103  1
  N  N14  1  0.551882  0.246843  0.346151  1
  N  N15  1  0.964090  0.293308  0.108845  1
  N  N16  1  0.141974  0.141974  0.635292  1
