# generated using pymatgen
data_Sm4Zn3Ni17Sn4
_symmetry_space_group_name_H-M   'P 1'
_cell_length_a   4.97712400
_cell_length_b   4.97712379
_cell_length_c   19.56037000
_cell_angle_alpha   90.00000000
_cell_angle_beta   90.00000000
_cell_angle_gamma   120.00001470
_symmetry_Int_Tables_number   1
_chemical_formula_structural   Sm4Zn3Ni17Sn4
_chemical_formula_sum   'Sm4 Zn3 Ni17 Sn4'
_cell_volume   419.62807450
_cell_formula_units_Z   1
loop_
 _symmetry_equiv_pos_site_id
 _symmetry_equiv_pos_as_xyz
  1  'x, y, z'
loop_
 _atom_site_type_symbol
 _atom_site_label
 _atom_site_symmetry_multiplicity
 _atom_site_fract_x
 _atom_site_fract_y
 _atom_site_fract_z
 _atom_site_occupancy
  Sm  Sm0  1  0.333333  0.666667  0.250000  1
  Sm  Sm1  1  0.666667  0.333333  0.750000  1
  Sm  Sm2  1  0.000000  0.000000  0.500636  1
  Sm  Sm3  1  0.000000  0.000000  0.999364  1
  Zn  Zn4  1  0.000000  0.000000  0.250000  1
  Zn  Zn5  1  0.000000  0.000000  0.750000  1
  Zn  Zn6  1  0.333333  0.666667  0.750000  1
  Ni  Ni7  1  0.666667  0.333333  0.250000  1
  Ni  Ni8  1  0.333333  0.666667  0.958142  1
  Ni  Ni9  1  0.666667  0.333333  0.042701  1
  Ni  Ni10  1  0.666667  0.333333  0.457299  1
  Ni  Ni11  1  0.333333  0.666667  0.541858  1
  Ni  Ni12  1  0.833088  0.166912  0.354433  1
  Ni  Ni13  1  0.833088  0.666176  0.354433  1
  Ni  Ni14  1  0.333824  0.166912  0.354433  1
  Ni  Ni15  1  0.166691  0.833309  0.645237  1
  Ni  Ni16  1  0.166691  0.333382  0.645237  1
  Ni  Ni17  1  0.666618  0.833309  0.645237  1
  Ni  Ni18  1  0.166691  0.833309  0.854763  1
  Ni  Ni19  1  0.166691  0.333382  0.854763  1
  Ni  Ni20  1  0.666618  0.833309  0.854763  1
  Ni  Ni21  1  0.833088  0.166912  0.145567  1
  Ni  Ni22  1  0.833088  0.666176  0.145567  1
  Ni  Ni23  1  0.333824  0.166912  0.145567  1
  Sn  Sn24  1  0.333333  0.666667  0.412087  1
  Sn  Sn25  1  0.666667  0.333333  0.587926  1
  Sn  Sn26  1  0.666667  0.333333  0.912074  1
  Sn  Sn27  1  0.333333  0.666667  0.087913  1
