# generated using pymatgen
data_Sr6NpWO12
_symmetry_space_group_name_H-M   'P 1'
_cell_length_a   7.00185373
_cell_length_b   7.00185358
_cell_length_c   7.00185389
_cell_angle_alpha   92.00182022
_cell_angle_beta   92.00182365
_cell_angle_gamma   92.00182110
_symmetry_Int_Tables_number   1
_chemical_formula_structural   Sr6NpWO12
_chemical_formula_sum   'Sr6 Np1 W1 O12'
_cell_volume   342.62904789
_cell_formula_units_Z   1
loop_
 _symmetry_equiv_pos_site_id
 _symmetry_equiv_pos_as_xyz
  1  'x, y, z'
loop_
 _atom_site_type_symbol
 _atom_site_label
 _atom_site_symmetry_multiplicity
 _atom_site_fract_x
 _atom_site_fract_y
 _atom_site_fract_z
 _atom_site_occupancy
  Sr  Sr0  1  0.066568  0.258426  0.561144  1
  Sr  Sr1  1  0.438856  0.933432  0.741574  1
  Sr  Sr2  1  0.741574  0.438856  0.933432  1
  Sr  Sr3  1  0.258426  0.561144  0.066568  1
  Sr  Sr4  1  0.561144  0.066568  0.258426  1
  Sr  Sr5  1  0.933432  0.741574  0.438856  1
  Np  Np6  1  0.000000  0.000000  0.000000  1
  W  W7  1  0.500000  0.500000  0.500000  1
  O  O8  1  0.064791  0.283124  0.933573  1
  O  O9  1  0.066427  0.935209  0.716876  1
  O  O10  1  0.454558  0.573812  0.768666  1
  O  O11  1  0.716876  0.066427  0.935209  1
  O  O12  1  0.231334  0.545442  0.426188  1
  O  O13  1  0.426188  0.231334  0.545442  1
  O  O14  1  0.573812  0.768666  0.454558  1
  O  O15  1  0.768666  0.454558  0.573812  1
  O  O16  1  0.283124  0.933573  0.064791  1
  O  O17  1  0.545442  0.426188  0.231334  1
  O  O18  1  0.933573  0.064791  0.283124  1
  O  O19  1  0.935209  0.716876  0.066427  1
