# generated using pymatgen
data_ErTh2(GeIr)3
_symmetry_space_group_name_H-M   'P 1'
_cell_length_a   7.25981480
_cell_length_b   7.30341118
_cell_length_c   3.95989900
_cell_angle_alpha   90.00000000
_cell_angle_beta   90.00000000
_cell_angle_gamma   120.19884655
_symmetry_Int_Tables_number   1
_chemical_formula_structural   ErTh2(GeIr)3
_chemical_formula_sum   'Er1 Th2 Ge3 Ir3'
_cell_volume   181.46477837
_cell_formula_units_Z   1
loop_
 _symmetry_equiv_pos_site_id
 _symmetry_equiv_pos_as_xyz
  1  'x, y, z'
loop_
 _atom_site_type_symbol
 _atom_site_label
 _atom_site_symmetry_multiplicity
 _atom_site_fract_x
 _atom_site_fract_y
 _atom_site_fract_z
 _atom_site_occupancy
  Er  Er0  1  0.000000  0.596595  0.500000  1
  Th  Th1  1  0.411534  0.412230  0.500000  1
  Th  Th2  1  0.588466  0.000696  0.500000  1
  Ge  Ge3  1  0.759580  0.748751  0.000000  1
  Ge  Ge4  1  0.240420  0.989171  0.000000  1
  Ge  Ge5  1  0.000000  0.258385  0.000000  1
  Ir  Ir6  1  0.661537  0.327804  0.000000  1
  Ir  Ir7  1  0.338463  0.666268  0.000000  1
  Ir  Ir8  1  0.000000  0.000098  0.500000  1
