# generated using pymatgen
data_LuCrCo4As3
_symmetry_space_group_name_H-M   'P 1'
_cell_length_a   3.75391800
_cell_length_b   10.70092000
_cell_length_c   12.22726400
_cell_angle_alpha   90.00000000
_cell_angle_beta   90.00000000
_cell_angle_gamma   90.00000000
_symmetry_Int_Tables_number   1
_chemical_formula_structural   LuCrCo4As3
_chemical_formula_sum   'Lu4 Cr4 Co16 As12'
_cell_volume   491.17379483
_cell_formula_units_Z   4
loop_
 _symmetry_equiv_pos_site_id
 _symmetry_equiv_pos_as_xyz
  1  'x, y, z'
loop_
 _atom_site_type_symbol
 _atom_site_label
 _atom_site_symmetry_multiplicity
 _atom_site_fract_x
 _atom_site_fract_y
 _atom_site_fract_z
 _atom_site_occupancy
  Lu  Lu0  1  0.250000  0.579018  0.704623  1
  Lu  Lu1  1  0.250000  0.920982  0.204623  1
  Lu  Lu2  1  0.750000  0.420982  0.295377  1
  Lu  Lu3  1  0.750000  0.079018  0.795377  1
  Cr  Cr4  1  0.250000  0.704958  0.990193  1
  Cr  Cr5  1  0.250000  0.795042  0.490193  1
  Cr  Cr6  1  0.750000  0.295042  0.009807  1
  Cr  Cr7  1  0.750000  0.204958  0.509807  1
  Co  Co8  1  0.250000  0.406239  0.487877  1
  Co  Co9  1  0.250000  0.093761  0.987877  1
  Co  Co10  1  0.750000  0.593761  0.512123  1
  Co  Co11  1  0.750000  0.906239  0.012123  1
  Co  Co12  1  0.250000  0.216949  0.176298  1
  Co  Co13  1  0.250000  0.283051  0.676298  1
  Co  Co14  1  0.750000  0.783051  0.823702  1
  Co  Co15  1  0.750000  0.716949  0.323702  1
  Co  Co16  1  0.250000  0.884002  0.698662  1
  Co  Co17  1  0.250000  0.615998  0.198662  1
  Co  Co18  1  0.750000  0.115998  0.301338  1
  Co  Co19  1  0.750000  0.384002  0.801338  1
  Co  Co20  1  0.250000  0.464762  0.932383  1
  Co  Co21  1  0.250000  0.035238  0.432383  1
  Co  Co22  1  0.750000  0.535238  0.067617  1
  Co  Co23  1  0.750000  0.964762  0.567617  1
  As  As24  1  0.250000  0.417702  0.116548  1
  As  As25  1  0.250000  0.082298  0.616548  1
  As  As26  1  0.750000  0.582298  0.883452  1
  As  As27  1  0.750000  0.917702  0.383452  1
  As  As28  1  0.250000  0.265263  0.866452  1
  As  As29  1  0.250000  0.234737  0.366452  1
  As  As30  1  0.750000  0.734737  0.133548  1
  As  As31  1  0.750000  0.765263  0.633548  1
  As  As32  1  0.250000  0.595952  0.389504  1
  As  As33  1  0.250000  0.904048  0.889504  1
  As  As34  1  0.750000  0.404048  0.610496  1
  As  As35  1  0.750000  0.095952  0.110496  1
