# generated using pymatgen
data_Ti10Ga2(SnBi)3
_symmetry_space_group_name_H-M   'P 1'
_cell_length_a   8.39204644
_cell_length_b   8.33122903
_cell_length_c   5.61502500
_cell_angle_alpha   90.00000000
_cell_angle_beta   90.00000000
_cell_angle_gamma   120.00546250
_symmetry_Int_Tables_number   1
_chemical_formula_structural   Ti10Ga2(SnBi)3
_chemical_formula_sum   'Ti10 Ga2 Sn3 Bi3'
_cell_volume   339.96590965
_cell_formula_units_Z   1
loop_
 _symmetry_equiv_pos_site_id
 _symmetry_equiv_pos_as_xyz
  1  'x, y, z'
loop_
 _atom_site_type_symbol
 _atom_site_label
 _atom_site_symmetry_multiplicity
 _atom_site_fract_x
 _atom_site_fract_y
 _atom_site_fract_z
 _atom_site_occupancy
  Ti  Ti0  1  0.001314  0.268829  0.250000  1
  Ti  Ti1  1  0.735456  0.000962  0.750000  1
  Ti  Ti2  1  0.739393  0.731594  0.250000  1
  Ti  Ti3  1  0.672441  0.339076  0.502431  1
  Ti  Ti4  1  0.993018  0.727079  0.750000  1
  Ti  Ti5  1  0.264339  0.272082  0.750000  1
  Ti  Ti6  1  0.329687  0.662942  0.997533  1
  Ti  Ti7  1  0.672441  0.339076  0.997569  1
  Ti  Ti8  1  0.329687  0.662942  0.502467  1
  Ti  Ti9  1  0.261166  0.994233  0.250000  1
  Ga  Ga10  1  0.999794  0.999854  0.998190  1
  Ga  Ga11  1  0.999794  0.999854  0.501810  1
  Sn  Sn12  1  0.001088  0.609329  0.250000  1
  Sn  Sn13  1  0.999200  0.389293  0.750000  1
  Sn  Sn14  1  0.612234  0.613839  0.750000  1
  Bi  Bi15  1  0.613048  0.999282  0.250000  1
  Bi  Bi16  1  0.385405  0.000771  0.750000  1
  Bi  Bi17  1  0.390496  0.388962  0.250000  1
