# generated using pymatgen
data_YbPr5Al20(SiOs2)4
_symmetry_space_group_name_H-M   'P 1'
_cell_length_a   8.75602000
_cell_length_b   8.78491105
_cell_length_c   9.77679500
_cell_angle_alpha   90.00000000
_cell_angle_beta   90.00000000
_cell_angle_gamma   119.89126976
_symmetry_Int_Tables_number   1
_chemical_formula_structural   YbPr5Al20(SiOs2)4
_chemical_formula_sum   'Yb1 Pr5 Al20 Si4 Os8'
_cell_volume   651.99766684
_cell_formula_units_Z   1
loop_
 _symmetry_equiv_pos_site_id
 _symmetry_equiv_pos_as_xyz
  1  'x, y, z'
loop_
 _atom_site_type_symbol
 _atom_site_label
 _atom_site_symmetry_multiplicity
 _atom_site_fract_x
 _atom_site_fract_y
 _atom_site_fract_z
 _atom_site_occupancy
  Yb  Yb0  1  0.197893  0.395786  0.250000  1
  Pr  Pr1  1  0.805814  0.611628  0.750000  1
  Pr  Pr2  1  0.616199  0.808379  0.250000  1
  Pr  Pr3  1  0.384570  0.190991  0.750000  1
  Pr  Pr4  1  0.192180  0.808379  0.250000  1
  Pr  Pr5  1  0.806421  0.190991  0.750000  1
  Al  Al6  1  0.165141  0.330282  0.569863  1
  Al  Al7  1  0.834177  0.668356  0.423470  1
  Al  Al8  1  0.668472  0.834731  0.573303  1
  Al  Al9  1  0.834177  0.668356  0.076530  1
  Al  Al10  1  0.330040  0.166292  0.424906  1
  Al  Al11  1  0.165141  0.330282  0.930137  1
  Al  Al12  1  0.166261  0.834731  0.573303  1
  Al  Al13  1  0.330040  0.166292  0.075094  1
  Al  Al14  1  0.836251  0.166292  0.424906  1
  Al  Al15  1  0.668472  0.834731  0.926697  1
  Al  Al16  1  0.836251  0.166292  0.075094  1
  Al  Al17  1  0.166261  0.834731  0.926697  1
  Al  Al18  1  0.565611  0.131223  0.250000  1
  Al  Al19  1  0.434274  0.868547  0.750000  1
  Al  Al20  1  0.873327  0.435307  0.250000  1
  Al  Al21  1  0.129331  0.562740  0.750000  1
  Al  Al22  1  0.561979  0.435307  0.250000  1
  Al  Al23  1  0.433410  0.562740  0.750000  1
  Al  Al24  1  0.005466  0.010932  0.250000  1
  Al  Al25  1  0.998734  0.997468  0.750000  1
  Si  Si26  1  0.332115  0.664232  0.032341  1
  Si  Si27  1  0.666042  0.332084  0.970063  1
  Si  Si28  1  0.666042  0.332084  0.529937  1
  Si  Si29  1  0.332115  0.664232  0.467659  1
  Os  Os30  1  0.499744  0.999488  0.000198  1
  Os  Os31  1  0.000002  0.499674  0.000048  1
  Os  Os32  1  0.499744  0.999488  0.499802  1
  Os  Os33  1  0.499672  0.499674  0.000048  1
  Os  Os34  1  0.000002  0.499674  0.499952  1
  Os  Os35  1  0.499672  0.499674  0.499952  1
  Os  Os36  1  0.999478  0.998956  0.000280  1
  Os  Os37  1  0.999478  0.998956  0.499720  1
