# generated using pymatgen
data_Ho4Al18Ir5Pd
_symmetry_space_group_name_H-M   'P 1'
_cell_length_a   7.56460335
_cell_length_b   7.56460334
_cell_length_c   9.45326811
_cell_angle_alpha   89.96157749
_cell_angle_beta   89.96157750
_cell_angle_gamma   119.61437579
_symmetry_Int_Tables_number   1
_chemical_formula_structural   Ho4Al18Ir5Pd
_chemical_formula_sum   'Ho4 Al18 Ir5 Pd1'
_cell_volume   470.28274497
_cell_formula_units_Z   1
loop_
 _symmetry_equiv_pos_site_id
 _symmetry_equiv_pos_as_xyz
  1  'x, y, z'
loop_
 _atom_site_type_symbol
 _atom_site_label
 _atom_site_symmetry_multiplicity
 _atom_site_fract_x
 _atom_site_fract_y
 _atom_site_fract_z
 _atom_site_occupancy
  Ho  Ho0  1  0.995046  0.671025  0.251037  1
  Ho  Ho1  1  0.004737  0.329059  0.749037  1
  Ho  Ho2  1  0.670941  0.995263  0.250963  1
  Ho  Ho3  1  0.328975  0.004954  0.748963  1
  Al  Al4  1  0.128344  0.127350  0.250471  1
  Al  Al5  1  0.872650  0.871656  0.749529  1
  Al  Al6  1  0.004318  0.335377  0.076624  1
  Al  Al7  1  0.002335  0.668481  0.923711  1
  Al  Al8  1  0.999878  0.664848  0.574248  1
  Al  Al9  1  0.335152  0.000122  0.425752  1
  Al  Al10  1  0.000280  0.334633  0.424838  1
  Al  Al11  1  0.665367  0.999720  0.575162  1
  Al  Al12  1  0.664623  0.995682  0.923376  1
  Al  Al13  1  0.331519  0.997665  0.076289  1
  Al  Al14  1  0.332949  0.332822  0.551673  1
  Al  Al15  1  0.667178  0.667051  0.448327  1
  Al  Al16  1  0.666508  0.669586  0.055912  1
  Al  Al17  1  0.330414  0.333492  0.944088  1
  Al  Al18  1  0.340232  0.549129  0.250452  1
  Al  Al19  1  0.660094  0.452522  0.747573  1
  Al  Al20  1  0.547478  0.339906  0.252427  1
  Al  Al21  1  0.450871  0.659768  0.749548  1
  Ir  Ir22  1  0.328245  0.671755  0.000000  1
  Ir  Ir23  1  0.328153  0.671847  0.500000  1
  Ir  Ir24  1  0.671616  0.328384  0.500000  1
  Ir  Ir25  1  0.999766  0.000234  0.000000  1
  Ir  Ir26  1  0.000160  0.999840  0.500000  1
  Pd  Pd27  1  0.672170  0.327830  0.000000  1
