# generated using pymatgen
data_Pr2C2Se
_symmetry_space_group_name_H-M   'P 1'
_cell_length_a   7.44870361
_cell_length_b   7.44870394
_cell_length_c   7.12262115
_cell_angle_alpha   78.47362100
_cell_angle_beta   78.47362152
_cell_angle_gamma   33.20554128
_symmetry_Int_Tables_number   1
_chemical_formula_structural   Pr2C2Se
_chemical_formula_sum   'Pr4 C4 Se2'
_cell_volume   211.66416358
_cell_formula_units_Z   2
loop_
 _symmetry_equiv_pos_site_id
 _symmetry_equiv_pos_as_xyz
  1  'x, y, z'
loop_
 _atom_site_type_symbol
 _atom_site_label
 _atom_site_symmetry_multiplicity
 _atom_site_fract_x
 _atom_site_fract_y
 _atom_site_fract_z
 _atom_site_occupancy
  Pr  Pr0  1  0.550617  0.165301  0.140934  1
  Pr  Pr1  1  0.165301  0.550617  0.640934  1
  Pr  Pr2  1  0.449383  0.834699  0.859066  1
  Pr  Pr3  1  0.834699  0.449383  0.359066  1
  C  C4  1  0.359919  0.095792  0.468909  1
  C  C5  1  0.904208  0.640081  0.031091  1
  C  C6  1  0.640081  0.904208  0.531091  1
  C  C7  1  0.095792  0.359919  0.968909  1
  Se  Se8  1  0.790471  0.209529  0.750000  1
  Se  Se9  1  0.209529  0.790471  0.250000  1
