# generated using pymatgen
data_Tb2NiB8Pt
_symmetry_space_group_name_H-M   'P 1'
_cell_length_a   6.95490214
_cell_length_b   6.95490161
_cell_length_c   6.95490189
_cell_angle_alpha   113.38809619
_cell_angle_beta   111.48288395
_cell_angle_gamma   103.69890091
_symmetry_Int_Tables_number   1
_chemical_formula_structural   Tb2NiB8Pt
_chemical_formula_sum   'Tb4 Ni2 B16 Pt2'
_cell_volume   256.94718328
_cell_formula_units_Z   2
loop_
 _symmetry_equiv_pos_site_id
 _symmetry_equiv_pos_as_xyz
  1  'x, y, z'
loop_
 _atom_site_type_symbol
 _atom_site_label
 _atom_site_symmetry_multiplicity
 _atom_site_fract_x
 _atom_site_fract_y
 _atom_site_fract_z
 _atom_site_occupancy
  Tb  Tb0  1  0.204029  0.204029  0.000000  1
  Tb  Tb1  1  0.795971  0.795971  0.000000  1
  Tb  Tb2  1  0.753318  0.253318  0.500000  1
  Tb  Tb3  1  0.246682  0.746682  0.500000  1
  Ni  Ni4  1  0.742892  0.500000  0.242892  1
  Ni  Ni5  1  0.257108  0.500000  0.757108  1
  B  B6  1  0.108339  0.272990  0.381329  1
  B  B7  1  0.891661  0.727010  0.618671  1
  B  B8  1  0.891661  0.272990  0.164652  1
  B  B9  1  0.108339  0.727010  0.835348  1
  B  B10  1  0.734880  0.889786  0.624667  1
  B  B11  1  0.265120  0.110214  0.375333  1
  B  B12  1  0.734880  0.110214  0.845093  1
  B  B13  1  0.265120  0.889786  0.154907  1
  B  B14  1  0.412429  0.419534  0.525845  1
  B  B15  1  0.893689  0.886584  0.474155  1
  B  B16  1  0.587571  0.113416  0.007105  1
  B  B17  1  0.106311  0.580466  0.992895  1
  B  B18  1  0.587571  0.580466  0.474155  1
  B  B19  1  0.106311  0.113416  0.525845  1
  B  B20  1  0.893689  0.419534  0.007105  1
  B  B21  1  0.412429  0.886584  0.992895  1
  Pt  Pt22  1  0.500000  0.272756  0.772756  1
  Pt  Pt23  1  0.500000  0.727244  0.227244  1
