# generated using pymatgen
data_MnCd3Fe2(BO3)4
_symmetry_space_group_name_H-M   'P 1'
_cell_length_a   4.74141605
_cell_length_b   5.81043304
_cell_length_c   9.18636400
_cell_angle_alpha   90.00013820
_cell_angle_beta   89.99981174
_cell_angle_gamma   89.98480462
_symmetry_Int_Tables_number   1
_chemical_formula_structural   MnCd3Fe2(BO3)4
_chemical_formula_sum   'Mn1 Cd3 Fe2 B4 O12'
_cell_volume   253.08138413
_cell_formula_units_Z   1
loop_
 _symmetry_equiv_pos_site_id
 _symmetry_equiv_pos_as_xyz
  1  'x, y, z'
loop_
 _atom_site_type_symbol
 _atom_site_label
 _atom_site_symmetry_multiplicity
 _atom_site_fract_x
 _atom_site_fract_y
 _atom_site_fract_z
 _atom_site_occupancy
  Mn  Mn0  1  0.500003  0.000002  0.311277  1
  Cd  Cd1  1  0.499994  0.000001  0.689125  1
  Cd  Cd2  1  0.000001  0.500007  0.190782  1
  Cd  Cd3  1  0.999999  0.500000  0.811225  1
  Fe  Fe4  1  0.000001  0.000002  0.004065  1
  Fe  Fe5  1  0.500000  0.499996  0.496890  1
  B  B6  1  0.042603  0.249746  0.496014  1
  B  B7  1  0.460966  0.756363  0.003984  1
  B  B8  1  0.957396  0.750246  0.496017  1
  B  B9  1  0.539038  0.243641  0.003989  1
  O  O10  1  0.254168  0.296271  0.001769  1
  O  O11  1  0.756236  0.203620  0.492752  1
  O  O12  1  0.243768  0.796370  0.492759  1
  O  O13  1  0.745847  0.703741  0.001757  1
  O  O14  1  0.314291  0.797907  0.133459  1
  O  O15  1  0.798124  0.719583  0.369079  1
  O  O16  1  0.306546  0.793486  0.875953  1
  O  O17  1  0.693444  0.206514  0.875962  1
  O  O18  1  0.808522  0.709141  0.625305  1
  O  O19  1  0.191464  0.290859  0.625301  1
  O  O20  1  0.685712  0.202097  0.133456  1
  O  O21  1  0.201879  0.280401  0.369080  1
