# generated using pymatgen
data_HfZr2Sc3(SiRu)6
_symmetry_space_group_name_H-M   'P 1'
_cell_length_a   7.67923040
_cell_length_b   7.66779641
_cell_length_c   7.67923154
_cell_angle_alpha   127.36711534
_cell_angle_beta   124.44715382
_cell_angle_gamma   80.10065099
_symmetry_Int_Tables_number   1
_chemical_formula_structural   HfZr2Sc3(SiRu)6
_chemical_formula_sum   'Hf1 Zr2 Sc3 Si6 Ru6'
_cell_volume   286.04342294
_cell_formula_units_Z   1
loop_
 _symmetry_equiv_pos_site_id
 _symmetry_equiv_pos_as_xyz
  1  'x, y, z'
loop_
 _atom_site_type_symbol
 _atom_site_label
 _atom_site_symmetry_multiplicity
 _atom_site_fract_x
 _atom_site_fract_y
 _atom_site_fract_z
 _atom_site_occupancy
  Hf  Hf0  1  0.949690  0.651136  0.201446  1
  Zr  Zr1  1  0.251403  0.844094  0.092693  1
  Zr  Zr2  1  0.050759  0.257817  0.707057  1
  Sc  Sc3  1  0.459732  0.676243  0.716511  1
  Sc  Sc4  1  0.539926  0.252828  0.212901  1
  Sc  Sc5  1  0.749378  0.841842  0.592464  1
  Si  Si6  1  0.262116  0.270741  0.508626  1
  Si  Si7  1  0.736900  0.232265  0.995366  1
  Si  Si8  1  0.333356  0.587563  0.255187  1
  Si  Si9  1  0.670109  0.920053  0.255950  1
  Si  Si10  1  0.164104  0.920053  0.749944  1
  Si  Si11  1  0.832376  0.587563  0.754207  1
  Ru  Ru12  1  0.509264  0.500639  0.009055  1
  Ru  Ru13  1  0.991585  0.500639  0.491375  1
  Ru  Ru14  1  0.107722  0.253362  0.113706  1
  Ru  Ru15  1  0.893909  0.004699  0.146686  1
  Ru  Ru16  1  0.358013  0.004699  0.610789  1
  Ru  Ru17  1  0.639658  0.253362  0.645641  1
