# generated using pymatgen
data_Er12Ga8Ir7Rh
_symmetry_space_group_name_H-M   'P 1'
_cell_length_a   5.54083101
_cell_length_b   7.77810411
_cell_length_c   13.53415779
_cell_angle_alpha   89.98563595
_cell_angle_beta   90.04283694
_cell_angle_gamma   90.06081300
_symmetry_Int_Tables_number   1
_chemical_formula_structural   Er12Ga8Ir7Rh
_chemical_formula_sum   'Er12 Ga8 Ir7 Rh1'
_cell_volume   583.28326016
_cell_formula_units_Z   1
loop_
 _symmetry_equiv_pos_site_id
 _symmetry_equiv_pos_as_xyz
  1  'x, y, z'
loop_
 _atom_site_type_symbol
 _atom_site_label
 _atom_site_symmetry_multiplicity
 _atom_site_fract_x
 _atom_site_fract_y
 _atom_site_fract_z
 _atom_site_occupancy
  Er  Er0  1  0.619802  0.265819  0.251321  1
  Er  Er1  1  0.381024  0.732787  0.750048  1
  Er  Er2  1  0.378138  0.769795  0.250816  1
  Er  Er3  1  0.619296  0.232574  0.750166  1
  Er  Er4  1  0.154008  0.398291  0.096494  1
  Er  Er5  1  0.847535  0.599848  0.903484  1
  Er  Er6  1  0.847308  0.600553  0.596726  1
  Er  Er7  1  0.847251  0.899193  0.403311  1
  Er  Er8  1  0.151643  0.400172  0.402961  1
  Er  Er9  1  0.152722  0.100750  0.596758  1
  Er  Er10  1  0.152242  0.100534  0.903305  1
  Er  Er11  1  0.848971  0.901328  0.097094  1
  Ga  Ga12  1  0.112967  0.112180  0.250090  1
  Ga  Ga13  1  0.887754  0.889614  0.750033  1
  Ga  Ga14  1  0.883864  0.610982  0.248683  1
  Ga  Ga15  1  0.112804  0.389882  0.749865  1
  Ga  Ga16  1  0.638074  0.249552  0.998984  1
  Ga  Ga17  1  0.363516  0.749205  0.000629  1
  Ga  Ga18  1  0.363568  0.750087  0.500113  1
  Ga  Ga19  1  0.636693  0.250418  0.500247  1
  Ir  Ir20  1  0.350893  0.036879  0.094956  1
  Ir  Ir21  1  0.651604  0.961135  0.905616  1
  Ir  Ir22  1  0.650963  0.963231  0.594943  1
  Ir  Ir23  1  0.650628  0.536764  0.404641  1
  Ir  Ir24  1  0.349597  0.037120  0.405013  1
  Ir  Ir25  1  0.349014  0.463358  0.594536  1
  Ir  Ir26  1  0.349345  0.463474  0.905224  1
  Rh  Rh27  1  0.648776  0.534473  0.093950  1
