# generated using pymatgen
data_Tm6Sn6GeIr5
_symmetry_space_group_name_H-M   'P 1'
_cell_length_a   7.53060200
_cell_length_b   7.53060145
_cell_length_c   7.76867300
_cell_angle_alpha   90.00000000
_cell_angle_beta   90.00000000
_cell_angle_gamma   120.00000243
_symmetry_Int_Tables_number   1
_chemical_formula_structural   Tm6Sn6GeIr5
_chemical_formula_sum   'Tm6 Sn6 Ge1 Ir5'
_cell_volume   381.53714120
_cell_formula_units_Z   1
loop_
 _symmetry_equiv_pos_site_id
 _symmetry_equiv_pos_as_xyz
  1  'x, y, z'
loop_
 _atom_site_type_symbol
 _atom_site_label
 _atom_site_symmetry_multiplicity
 _atom_site_fract_x
 _atom_site_fract_y
 _atom_site_fract_z
 _atom_site_occupancy
  Tm  Tm0  1  0.400651  0.994406  0.237931  1
  Tm  Tm1  1  0.592417  0.600923  0.762097  1
  Tm  Tm2  1  0.593758  0.599349  0.237931  1
  Tm  Tm3  1  0.005594  0.406242  0.237931  1
  Tm  Tm4  1  0.008505  0.407583  0.762097  1
  Tm  Tm5  1  0.399077  0.991495  0.762097  1
  Sn  Sn6  1  0.250491  0.265213  0.499567  1
  Sn  Sn7  1  0.262642  0.259068  0.999817  1
  Sn  Sn8  1  0.740932  0.003574  0.999817  1
  Sn  Sn9  1  0.014723  0.749509  0.499567  1
  Sn  Sn10  1  0.734787  0.985277  0.499567  1
  Sn  Sn11  1  0.996426  0.737358  0.999817  1
  Ge  Ge12  1  0.666667  0.333333  0.503709  1
  Ir  Ir13  1  0.666667  0.333333  0.998679  1
  Ir  Ir14  1  0.333333  0.666667  0.001507  1
  Ir  Ir15  1  0.333333  0.666667  0.498581  1
  Ir  Ir16  1  0.000000  0.000000  0.748908  1
  Ir  Ir17  1  0.000000  0.000000  0.250378  1
