# generated using pymatgen
data_Pr3Si2Se8Br
_symmetry_space_group_name_H-M   'P 1'
_cell_length_a   9.32580095
_cell_length_b   9.32580046
_cell_length_c   11.58254406
_cell_angle_alpha   80.76503571
_cell_angle_beta   99.23496191
_cell_angle_gamma   128.71626515
_symmetry_Int_Tables_number   1
_chemical_formula_structural   Pr3Si2Se8Br
_chemical_formula_sum   'Pr6 Si4 Se16 Br2'
_cell_volume   773.42633190
_cell_formula_units_Z   2
loop_
 _symmetry_equiv_pos_site_id
 _symmetry_equiv_pos_as_xyz
  1  'x, y, z'
loop_
 _atom_site_type_symbol
 _atom_site_label
 _atom_site_symmetry_multiplicity
 _atom_site_fract_x
 _atom_site_fract_y
 _atom_site_fract_z
 _atom_site_occupancy
  Pr  Pr0  1  0.331591  0.923102  0.682123  1
  Pr  Pr1  1  0.923102  0.331591  0.817877  1
  Pr  Pr2  1  0.668409  0.076897  0.317878  1
  Pr  Pr3  1  0.076897  0.668409  0.182123  1
  Pr  Pr4  1  0.635264  0.635264  0.750000  1
  Pr  Pr5  1  0.364735  0.364735  0.250000  1
  Si  Si6  1  0.624422  0.306940  0.024859  1
  Si  Si7  1  0.306940  0.624422  0.475142  1
  Si  Si8  1  0.375578  0.693060  0.975141  1
  Si  Si9  1  0.693061  0.375578  0.524859  1
  Se  Se10  1  0.734980  0.602209  0.037146  1
  Se  Se11  1  0.602208  0.734981  0.462855  1
  Se  Se12  1  0.265018  0.397791  0.962854  1
  Se  Se13  1  0.397791  0.265018  0.537145  1
  Se  Se14  1  0.853853  0.280579  0.088069  1
  Se  Se15  1  0.280579  0.853853  0.411931  1
  Se  Se16  1  0.146147  0.719420  0.911930  1
  Se  Se17  1  0.719420  0.146146  0.588069  1
  Se  Se18  1  0.385286  0.099442  0.140519  1
  Se  Se19  1  0.099442  0.385285  0.359482  1
  Se  Se20  1  0.614715  0.900558  0.859481  1
  Se  Se21  1  0.900558  0.614715  0.640518  1
  Se  Se22  1  0.547212  0.261745  0.829337  1
  Se  Se23  1  0.261744  0.547212  0.670662  1
  Se  Se24  1  0.452787  0.738255  0.170662  1
  Se  Se25  1  0.738255  0.452787  0.329338  1
  Br  Br26  1  0.999941  0.999941  0.250000  1
  Br  Br27  1  0.000058  0.000058  0.750000  1
