# generated using pymatgen
data_Ca5Y(RuO6)2
_symmetry_space_group_name_H-M   'P 1'
_cell_length_a   5.83492348
_cell_length_b   5.57798499
_cell_length_c   9.75892603
_cell_angle_alpha   55.60291163
_cell_angle_beta   89.84360585
_cell_angle_gamma   89.92330040
_symmetry_Int_Tables_number   1
_chemical_formula_structural   Ca5Y(RuO6)2
_chemical_formula_sum   'Ca5 Y1 Ru2 O12'
_cell_volume   262.08472153
_cell_formula_units_Z   1
loop_
 _symmetry_equiv_pos_site_id
 _symmetry_equiv_pos_as_xyz
  1  'x, y, z'
loop_
 _atom_site_type_symbol
 _atom_site_label
 _atom_site_symmetry_multiplicity
 _atom_site_fract_x
 _atom_site_fract_y
 _atom_site_fract_z
 _atom_site_occupancy
  Ca  Ca0  1  0.441902  0.229568  0.751806  1
  Ca  Ca1  1  0.558098  0.770432  0.248194  1
  Ca  Ca2  1  0.938390  0.760820  0.757295  1
  Ca  Ca3  1  0.061610  0.239180  0.242705  1
  Ca  Ca4  1  0.500000  0.500000  0.000000  1
  Y  Y5  1  0.000000  0.500000  0.500000  1
  Ru  Ru6  1  0.000000  0.000000  0.000000  1
  Ru  Ru7  1  0.500000  0.000000  0.500000  1
  O  O8  1  0.721814  0.895151  0.934896  1
  O  O9  1  0.278186  0.104849  0.065104  1
  O  O10  1  0.217538  0.110396  0.567738  1
  O  O11  1  0.782462  0.889604  0.432262  1
  O  O12  1  0.047521  0.345892  0.767665  1
  O  O13  1  0.952479  0.654108  0.232335  1
  O  O14  1  0.546787  0.660540  0.725214  1
  O  O15  1  0.453213  0.339460  0.274786  1
  O  O16  1  0.178959  0.771038  0.946124  1
  O  O17  1  0.821041  0.228962  0.053876  1
  O  O18  1  0.685807  0.228714  0.556775  1
  O  O19  1  0.314193  0.771286  0.443225  1
