# generated using pymatgen
data_Ti3Nb3Ga4(AuC)2
_symmetry_space_group_name_H-M   'P 1'
_cell_length_a   8.38665511
_cell_length_b   8.38677350
_cell_length_c   8.38849200
_cell_angle_alpha   59.99360644
_cell_angle_beta   59.99299909
_cell_angle_gamma   60.03944974
_symmetry_Int_Tables_number   1
_chemical_formula_structural   Ti3Nb3Ga4(AuC)2
_chemical_formula_sum   'Ti6 Nb6 Ga8 Au4 C4'
_cell_volume   417.28993676
_cell_formula_units_Z   2
loop_
 _symmetry_equiv_pos_site_id
 _symmetry_equiv_pos_as_xyz
  1  'x, y, z'
loop_
 _atom_site_type_symbol
 _atom_site_label
 _atom_site_symmetry_multiplicity
 _atom_site_fract_x
 _atom_site_fract_y
 _atom_site_fract_z
 _atom_site_occupancy
  Ti  Ti0  1  0.570407  0.929469  0.570003  1
  Ti  Ti1  1  0.570416  0.929463  0.930110  1
  Ti  Ti2  1  0.929457  0.570415  0.570028  1
  Ti  Ti3  1  0.929459  0.570406  0.930116  1
  Ti  Ti4  1  0.320940  0.320835  0.679116  1
  Ti  Ti5  1  0.570195  0.570127  0.929838  1
  Nb  Nb6  1  0.930150  0.930204  0.569820  1
  Nb  Nb7  1  0.681758  0.318672  0.320195  1
  Nb  Nb8  1  0.318739  0.681774  0.679303  1
  Nb  Nb9  1  0.678399  0.678621  0.321483  1
  Nb  Nb10  1  0.681748  0.318677  0.679366  1
  Nb  Nb11  1  0.318756  0.681771  0.320189  1
  Ga  Ga12  1  0.907508  0.273338  0.909583  1
  Ga  Ga13  1  0.338671  0.338772  0.982773  1
  Ga  Ga14  1  0.988295  0.336148  0.337775  1
  Ga  Ga15  1  0.338676  0.338764  0.339779  1
  Ga  Ga16  1  0.273309  0.907434  0.909630  1
  Ga  Ga17  1  0.909433  0.909365  0.911277  1
  Ga  Ga18  1  0.909430  0.909373  0.269923  1
  Ga  Ga19  1  0.336038  0.988387  0.337790  1
  Au  Au20  1  0.125119  0.625247  0.124826  1
  Au  Au21  1  0.126637  0.126594  0.628457  1
  Au  Au22  1  0.625267  0.125135  0.124802  1
  Au  Au23  1  0.126633  0.126586  0.118321  1
  C  C24  1  0.617450  0.121971  0.630282  1
  C  C25  1  0.627562  0.627496  0.115699  1
  C  C26  1  0.121996  0.617459  0.630277  1
  C  C27  1  0.627552  0.627499  0.629238  1
