# generated using pymatgen
data_FeCo5Si6(W6C)2
_symmetry_space_group_name_H-M   'P 1'
_cell_length_a   7.75280273
_cell_length_b   7.74123303
_cell_length_c   7.72810800
_cell_angle_alpha   60.05606132
_cell_angle_beta   60.10530337
_cell_angle_gamma   60.45436800
_symmetry_Int_Tables_number   1
_chemical_formula_structural   FeCo5Si6(W6C)2
_chemical_formula_sum   'Fe1 Co5 Si6 W12 C2'
_cell_volume   329.47940245
_cell_formula_units_Z   1
loop_
 _symmetry_equiv_pos_site_id
 _symmetry_equiv_pos_as_xyz
  1  'x, y, z'
loop_
 _atom_site_type_symbol
 _atom_site_label
 _atom_site_symmetry_multiplicity
 _atom_site_fract_x
 _atom_site_fract_y
 _atom_site_fract_z
 _atom_site_occupancy
  Fe  Fe0  1  0.625000  0.125000  0.137133  1
  Co  Co1  1  0.333327  0.331273  0.001463  1
  Co  Co2  1  0.133047  0.133716  0.604442  1
  Co  Co3  1  0.916673  0.918727  0.916064  1
  Co  Co4  1  0.125000  0.625000  0.137363  1
  Co  Co5  1  0.116953  0.116284  0.121205  1
  Si  Si6  1  0.915311  0.241875  0.913551  1
  Si  Si7  1  0.334689  0.008125  0.320737  1
  Si  Si8  1  0.334398  0.336979  0.327581  1
  Si  Si9  1  0.007231  0.334881  0.320245  1
  Si  Si10  1  0.915602  0.913021  0.248959  1
  Si  Si11  1  0.242769  0.915119  0.912359  1
  W  W12  1  0.300668  0.695446  0.699704  1
  W  W13  1  0.306145  0.305825  0.697906  1
  W  W14  1  0.553948  0.944021  0.558415  1
  W  W15  1  0.940395  0.555112  0.560558  1
  W  W16  1  0.554418  0.948987  0.946803  1
  W  W17  1  0.696052  0.305979  0.306384  1
  W  W18  1  0.949332  0.554554  0.945818  1
  W  W19  1  0.309605  0.694888  0.306065  1
  W  W20  1  0.551319  0.550736  0.948387  1
  W  W21  1  0.695582  0.301013  0.700208  1
  W  W22  1  0.698681  0.699264  0.300443  1
  W  W23  1  0.943855  0.944175  0.559876  1
  C  C24  1  0.747122  0.748521  0.756346  1
  C  C25  1  0.502878  0.501479  0.501987  1
