# generated using pymatgen
data_CaLa18YbGa12
_symmetry_space_group_name_H-M   'P 1'
_cell_length_a   7.96816200
_cell_length_b   7.96816200
_cell_length_c   14.94344500
_cell_angle_alpha   90.00000000
_cell_angle_beta   90.00000000
_cell_angle_gamma   90.00000000
_symmetry_Int_Tables_number   1
_chemical_formula_structural   CaLa18YbGa12
_chemical_formula_sum   'Ca1 La18 Yb1 Ga12'
_cell_volume   948.78331712
_cell_formula_units_Z   1
loop_
 _symmetry_equiv_pos_site_id
 _symmetry_equiv_pos_as_xyz
  1  'x, y, z'
loop_
 _atom_site_type_symbol
 _atom_site_label
 _atom_site_symmetry_multiplicity
 _atom_site_fract_x
 _atom_site_fract_y
 _atom_site_fract_z
 _atom_site_occupancy
  Ca  Ca0  1  0.500000  0.000000  0.770942  1
  La  La1  1  0.334601  0.314883  0.102376  1
  La  La2  1  0.837150  0.813709  0.896621  1
  La  La3  1  0.838793  0.180616  0.397056  1
  La  La4  1  0.162850  0.186291  0.896621  1
  La  La5  1  0.665399  0.685117  0.102376  1
  La  La6  1  0.000000  0.500000  0.708956  1
  La  La7  1  0.818430  0.838535  0.603901  1
  La  La8  1  0.319384  0.338793  0.397056  1
  La  La9  1  0.185117  0.834601  0.102376  1
  La  La10  1  0.181570  0.161465  0.603901  1
  La  La11  1  0.814883  0.165399  0.102376  1
  La  La12  1  0.338535  0.681570  0.603901  1
  La  La13  1  0.500000  0.000000  0.289209  1
  La  La14  1  0.686291  0.337150  0.896621  1
  La  La15  1  0.661465  0.318430  0.603901  1
  La  La16  1  0.313709  0.662850  0.896621  1
  La  La17  1  0.161207  0.819384  0.397056  1
  La  La18  1  0.680616  0.661207  0.397056  1
  Yb  Yb19  1  0.000000  0.500000  0.232688  1
  Ga  Ga20  1  0.617255  0.381551  0.247848  1
  Ga  Ga21  1  0.881209  0.118059  0.751797  1
  Ga  Ga22  1  0.500000  0.000000  0.498961  1
  Ga  Ga23  1  0.881551  0.882745  0.247848  1
  Ga  Ga24  1  0.000000  0.500000  0.012265  1
  Ga  Ga25  1  0.118791  0.881941  0.751797  1
  Ga  Ga26  1  0.381941  0.381209  0.751797  1
  Ga  Ga27  1  0.118449  0.117255  0.247848  1
  Ga  Ga28  1  0.382745  0.618449  0.247848  1
  Ga  Ga29  1  0.618059  0.618791  0.751797  1
  Ga  Ga30  1  0.500000  0.000000  0.988565  1
  Ga  Ga31  1  0.000000  0.500000  0.500014  1
