# generated using pymatgen
data_HoCrFe4P3
_symmetry_space_group_name_H-M   'P 1'
_cell_length_a   3.65283000
_cell_length_b   10.34146800
_cell_length_c   11.83714900
_cell_angle_alpha   90.00000000
_cell_angle_beta   90.00000000
_cell_angle_gamma   90.00000000
_symmetry_Int_Tables_number   1
_chemical_formula_structural   HoCrFe4P3
_chemical_formula_sum   'Ho4 Cr4 Fe16 P12'
_cell_volume   447.15569642
_cell_formula_units_Z   4
loop_
 _symmetry_equiv_pos_site_id
 _symmetry_equiv_pos_as_xyz
  1  'x, y, z'
loop_
 _atom_site_type_symbol
 _atom_site_label
 _atom_site_symmetry_multiplicity
 _atom_site_fract_x
 _atom_site_fract_y
 _atom_site_fract_z
 _atom_site_occupancy
  Ho  Ho0  1  0.250000  0.581438  0.704810  1
  Ho  Ho1  1  0.250000  0.918562  0.204810  1
  Ho  Ho2  1  0.750000  0.418562  0.295190  1
  Ho  Ho3  1  0.750000  0.081438  0.795190  1
  Cr  Cr4  1  0.250000  0.702844  0.989084  1
  Cr  Cr5  1  0.250000  0.797156  0.489084  1
  Cr  Cr6  1  0.750000  0.297156  0.010916  1
  Cr  Cr7  1  0.750000  0.202844  0.510916  1
  Fe  Fe8  1  0.250000  0.405185  0.491144  1
  Fe  Fe9  1  0.250000  0.094815  0.991144  1
  Fe  Fe10  1  0.750000  0.594815  0.508856  1
  Fe  Fe11  1  0.750000  0.905185  0.008856  1
  Fe  Fe12  1  0.250000  0.217838  0.176182  1
  Fe  Fe13  1  0.250000  0.282162  0.676182  1
  Fe  Fe14  1  0.750000  0.782162  0.823818  1
  Fe  Fe15  1  0.750000  0.717838  0.323818  1
  Fe  Fe16  1  0.250000  0.874792  0.701786  1
  Fe  Fe17  1  0.250000  0.625208  0.201786  1
  Fe  Fe18  1  0.750000  0.125208  0.298214  1
  Fe  Fe19  1  0.750000  0.374792  0.798214  1
  Fe  Fe20  1  0.250000  0.463470  0.932353  1
  Fe  Fe21  1  0.250000  0.036530  0.432353  1
  Fe  Fe22  1  0.750000  0.536530  0.067647  1
  Fe  Fe23  1  0.750000  0.963470  0.567647  1
  P  P24  1  0.250000  0.422771  0.113078  1
  P  P25  1  0.250000  0.077229  0.613078  1
  P  P26  1  0.750000  0.577229  0.886922  1
  P  P27  1  0.750000  0.922771  0.386922  1
  P  P28  1  0.250000  0.265030  0.870941  1
  P  P29  1  0.250000  0.234970  0.370941  1
  P  P30  1  0.750000  0.734970  0.129059  1
  P  P31  1  0.750000  0.765030  0.629059  1
  P  P32  1  0.250000  0.597029  0.394221  1
  P  P33  1  0.250000  0.902971  0.894221  1
  P  P34  1  0.750000  0.402971  0.605779  1
  P  P35  1  0.750000  0.097029  0.105779  1
