# generated using pymatgen
data_Nb4Cr7Si10Tc
_symmetry_space_group_name_H-M   'P 1'
_cell_length_a   4.88381414
_cell_length_b   7.53179516
_cell_length_c   9.10129020
_cell_angle_alpha   114.60963210
_cell_angle_beta   105.56332357
_cell_angle_gamma   90.00000407
_symmetry_Int_Tables_number   1
_chemical_formula_structural   Nb4Cr7Si10Tc
_chemical_formula_sum   'Nb4 Cr7 Si10 Tc1'
_cell_volume   290.81576907
_cell_formula_units_Z   1
loop_
 _symmetry_equiv_pos_site_id
 _symmetry_equiv_pos_as_xyz
  1  'x, y, z'
loop_
 _atom_site_type_symbol
 _atom_site_label
 _atom_site_symmetry_multiplicity
 _atom_site_fract_x
 _atom_site_fract_y
 _atom_site_fract_z
 _atom_site_occupancy
  Nb  Nb0  1  0.642525  0.021149  0.285049  1
  Nb  Nb1  1  0.143300  0.260031  0.286600  1
  Nb  Nb2  1  0.859094  0.737752  0.718188  1
  Nb  Nb3  1  0.358069  0.976521  0.716138  1
  Cr  Cr4  1  0.060068  0.803210  0.120136  1
  Cr  Cr5  1  0.442715  0.695433  0.386477  1
  Cr  Cr6  1  0.943763  0.695433  0.386477  1
  Cr  Cr7  1  0.055998  0.308639  0.613749  1
  Cr  Cr8  1  0.557750  0.308639  0.613749  1
  Cr  Cr9  1  0.939107  0.193477  0.878211  1
  Cr  Cr10  1  0.439208  0.683801  0.878416  1
  Si  Si11  1  0.247582  0.996104  0.999368  1
  Si  Si12  1  0.751785  0.996104  0.999368  1
  Si  Si13  1  0.065561  0.489137  0.131122  1
  Si  Si14  1  0.564770  0.646362  0.129541  1
  Si  Si15  1  0.211831  0.003852  0.423662  1
  Si  Si16  1  0.713218  0.421877  0.426435  1
  Si  Si17  1  0.288326  0.581230  0.576653  1
  Si  Si18  1  0.788935  0.996287  0.577869  1
  Si  Si19  1  0.432210  0.359400  0.864420  1
  Si  Si20  1  0.934817  0.509828  0.869633  1
  Tc  Tc21  1  0.559370  0.315731  0.118738  1
