# generated using pymatgen
data_Nd7Y(Nb3Si4)4
_symmetry_space_group_name_H-M   'P 1'
_cell_length_a   6.98547583
_cell_length_b   7.20777701
_cell_length_c   13.59464553
_cell_angle_alpha   89.92578399
_cell_angle_beta   89.99440062
_cell_angle_gamma   89.96408653
_symmetry_Int_Tables_number   1
_chemical_formula_structural   Nd7Y(Nb3Si4)4
_chemical_formula_sum   'Nd7 Y1 Nb12 Si16'
_cell_volume   684.48632082
_cell_formula_units_Z   1
loop_
 _symmetry_equiv_pos_site_id
 _symmetry_equiv_pos_as_xyz
  1  'x, y, z'
loop_
 _atom_site_type_symbol
 _atom_site_label
 _atom_site_symmetry_multiplicity
 _atom_site_fract_x
 _atom_site_fract_y
 _atom_site_fract_z
 _atom_site_occupancy
  Nd  Nd0  1  0.504641  0.331006  0.095933  1
  Nd  Nd1  1  0.004908  0.168913  0.403699  1
  Nd  Nd2  1  0.495263  0.668487  0.596134  1
  Nd  Nd3  1  0.994944  0.830477  0.904687  1
  Nd  Nd4  1  0.494800  0.669427  0.904830  1
  Nd  Nd5  1  0.995251  0.831115  0.595994  1
  Nd  Nd6  1  0.504843  0.330963  0.402847  1
  Y  Y7  1  0.004032  0.170182  0.097251  1
  Nb  Nb8  1  0.663831  0.011695  0.750487  1
  Nb  Nb9  1  0.163759  0.487602  0.750516  1
  Nb  Nb10  1  0.335973  0.989400  0.249112  1
  Nb  Nb11  1  0.836976  0.512153  0.249558  1
  Nb  Nb12  1  0.837937  0.323982  0.626345  1
  Nb  Nb13  1  0.337554  0.175903  0.874481  1
  Nb  Nb14  1  0.161682  0.676942  0.125821  1
  Nb  Nb15  1  0.662361  0.824833  0.372877  1
  Nb  Nb16  1  0.161444  0.675944  0.372975  1
  Nb  Nb17  1  0.662335  0.824759  0.125389  1
  Nb  Nb18  1  0.839178  0.322577  0.874624  1
  Nb  Nb19  1  0.338548  0.176081  0.626261  1
  Si  Si20  1  0.798254  0.615005  0.750489  1
  Si  Si21  1  0.298262  0.884470  0.750460  1
  Si  Si22  1  0.200466  0.382465  0.248633  1
  Si  Si23  1  0.703868  0.116466  0.248318  1
  Si  Si24  1  0.543576  0.369850  0.750658  1
  Si  Si25  1  0.043740  0.129588  0.750085  1
  Si  Si26  1  0.456336  0.630429  0.249258  1
  Si  Si27  1  0.957084  0.871952  0.248709  1
  Si  Si28  1  0.657860  0.039992  0.542031  1
  Si  Si29  1  0.157839  0.457832  0.959624  1
  Si  Si30  1  0.337578  0.963138  0.042946  1
  Si  Si31  1  0.841590  0.540379  0.457429  1
  Si  Si32  1  0.342274  0.959532  0.457338  1
  Si  Si33  1  0.843256  0.536163  0.043030  1
  Si  Si34  1  0.659717  0.040149  0.959064  1
  Si  Si35  1  0.158046  0.460150  0.542106  1
