# generated using pymatgen
data_CaCo2(B2Ru)2
_symmetry_space_group_name_H-M   'P 1'
_cell_length_a   7.19109500
_cell_length_b   7.19109500
_cell_length_c   3.93903600
_cell_angle_alpha   90.00000000
_cell_angle_beta   90.00000000
_cell_angle_gamma   90.00000000
_symmetry_Int_Tables_number   1
_chemical_formula_structural   CaCo2(B2Ru)2
_chemical_formula_sum   'Ca2 Co4 B8 Ru4'
_cell_volume   203.69482814
_cell_formula_units_Z   2
loop_
 _symmetry_equiv_pos_site_id
 _symmetry_equiv_pos_as_xyz
  1  'x, y, z'
loop_
 _atom_site_type_symbol
 _atom_site_label
 _atom_site_symmetry_multiplicity
 _atom_site_fract_x
 _atom_site_fract_y
 _atom_site_fract_z
 _atom_site_occupancy
  Ca  Ca0  1  0.000000  0.000000  0.083713  1
  Ca  Ca1  1  0.500000  0.500000  0.583713  1
  Co  Co2  1  0.620920  0.118265  0.376743  1
  Co  Co3  1  0.379080  0.881735  0.376743  1
  Co  Co4  1  0.618265  0.879080  0.876743  1
  Co  Co5  1  0.381735  0.120920  0.876743  1
  B  B6  1  0.340402  0.819536  0.879477  1
  B  B7  1  0.659598  0.180464  0.879477  1
  B  B8  1  0.319536  0.159598  0.379477  1
  B  B9  1  0.680464  0.840402  0.379477  1
  B  B10  1  0.174415  0.721987  0.599066  1
  B  B11  1  0.825585  0.278013  0.599066  1
  B  B12  1  0.221987  0.325585  0.099066  1
  B  B13  1  0.778013  0.674415  0.099066  1
  Ru  Ru14  1  0.844448  0.384532  0.102857  1
  Ru  Ru15  1  0.155552  0.615468  0.102857  1
  Ru  Ru16  1  0.884532  0.655552  0.602857  1
  Ru  Ru17  1  0.115468  0.344448  0.602857  1
