# generated using pymatgen
data_Pr6Nd4Sn20Pd5Rh3
_symmetry_space_group_name_H-M   'P 1'
_cell_length_a   14.32562834
_cell_length_b   14.32449031
_cell_length_c   4.65806400
_cell_angle_alpha   90.00000000
_cell_angle_beta   90.00000000
_cell_angle_gamma   89.97912739
_symmetry_Int_Tables_number   1
_chemical_formula_structural   Pr6Nd4Sn20Pd5Rh3
_chemical_formula_sum   'Pr6 Nd4 Sn20 Pd5 Rh3'
_cell_volume   955.86878626
_cell_formula_units_Z   1
loop_
 _symmetry_equiv_pos_site_id
 _symmetry_equiv_pos_as_xyz
  1  'x, y, z'
loop_
 _atom_site_type_symbol
 _atom_site_label
 _atom_site_symmetry_multiplicity
 _atom_site_fract_x
 _atom_site_fract_y
 _atom_site_fract_z
 _atom_site_occupancy
  Pr  Pr0  1  0.501281  0.497417  0.000000  1
  Pr  Pr1  1  0.001022  0.999577  0.000000  1
  Pr  Pr2  1  0.893583  0.391759  0.500000  1
  Pr  Pr3  1  0.105879  0.608933  0.500000  1
  Pr  Pr4  1  0.392885  0.109320  0.500000  1
  Pr  Pr5  1  0.608000  0.892137  0.500000  1
  Nd  Nd6  1  0.679083  0.181851  0.500000  1
  Nd  Nd7  1  0.319199  0.819981  0.500000  1
  Nd  Nd8  1  0.178202  0.318597  0.500000  1
  Nd  Nd9  1  0.820767  0.680509  0.500000  1
  Sn  Sn10  1  0.568152  0.072522  0.000000  1
  Sn  Sn11  1  0.432011  0.932041  0.000000  1
  Sn  Sn12  1  0.067699  0.428509  0.000000  1
  Sn  Sn13  1  0.932529  0.571713  0.000000  1
  Sn  Sn14  1  0.651940  0.702393  0.000000  1
  Sn  Sn15  1  0.348834  0.295690  0.000000  1
  Sn  Sn16  1  0.149514  0.796419  0.000000  1
  Sn  Sn17  1  0.849902  0.203285  0.000000  1
  Sn  Sn18  1  0.297891  0.651391  0.000000  1
  Sn  Sn19  1  0.699848  0.347987  0.000000  1
  Sn  Sn20  1  0.199137  0.151508  0.000000  1
  Sn  Sn21  1  0.800939  0.849177  0.000000  1
  Sn  Sn22  1  0.663680  0.500077  0.500000  1
  Sn  Sn23  1  0.337761  0.495685  0.500000  1
  Sn  Sn24  1  0.162567  0.997660  0.500000  1
  Sn  Sn25  1  0.838140  0.004384  0.500000  1
  Sn  Sn26  1  0.497831  0.661541  0.500000  1
  Sn  Sn27  1  0.503780  0.335759  0.500000  1
  Sn  Sn28  1  0.004958  0.163445  0.500000  1
  Sn  Sn29  1  0.994252  0.836151  0.500000  1
  Pd  Pd30  1  0.745732  0.533034  0.000000  1
  Pd  Pd31  1  0.254614  0.466754  0.000000  1
  Pd  Pd32  1  0.244980  0.966266  0.000000  1
  Pd  Pd33  1  0.754485  0.033362  0.000000  1
  Pd  Pd34  1  0.466715  0.745518  0.000000  1
  Rh  Rh35  1  0.532886  0.257406  0.000000  1
  Rh  Rh36  1  0.032762  0.243576  0.000000  1
  Rh  Rh37  1  0.966557  0.756667  0.000000  1
