# generated using pymatgen
data_NaCd3(CO3)4
_symmetry_space_group_name_H-M   'P 1'
_cell_length_a   11.65795276
_cell_length_b   11.65795589
_cell_length_c   11.65795135
_cell_angle_alpha   24.83373666
_cell_angle_beta   24.83383631
_cell_angle_gamma   24.83373227
_symmetry_Int_Tables_number   1
_chemical_formula_structural   NaCd3(CO3)4
_chemical_formula_sum   'Na1 Cd3 C4 O12'
_cell_volume   245.81655651
_cell_formula_units_Z   1
loop_
 _symmetry_equiv_pos_site_id
 _symmetry_equiv_pos_as_xyz
  1  'x, y, z'
loop_
 _atom_site_type_symbol
 _atom_site_label
 _atom_site_symmetry_multiplicity
 _atom_site_fract_x
 _atom_site_fract_y
 _atom_site_fract_z
 _atom_site_occupancy
  Na  Na0  1  0.500000  0.500000  0.500000  1
  Cd  Cd1  1  0.000000  0.000000  0.000000  1
  Cd  Cd2  1  0.749401  0.749400  0.749401  1
  Cd  Cd3  1  0.250599  0.250600  0.250599  1
  C  C4  1  0.878111  0.878114  0.878113  1
  C  C5  1  0.374363  0.374364  0.374363  1
  C  C6  1  0.121889  0.121886  0.121887  1
  C  C7  1  0.625637  0.625636  0.625637  1
  O  O8  1  0.878568  0.135062  0.619860  1
  O  O9  1  0.374202  0.633498  0.115315  1
  O  O10  1  0.619858  0.878571  0.135059  1
  O  O11  1  0.115316  0.374205  0.633495  1
  O  O12  1  0.135059  0.619861  0.878570  1
  O  O13  1  0.633496  0.115317  0.374203  1
  O  O14  1  0.380142  0.121429  0.864941  1
  O  O15  1  0.884684  0.625795  0.366505  1
  O  O16  1  0.864941  0.380139  0.121430  1
  O  O17  1  0.366504  0.884683  0.625797  1
  O  O18  1  0.121432  0.864938  0.380140  1
  O  O19  1  0.625798  0.366502  0.884685  1
