# generated using pymatgen
data_Pr7CuNi15
_symmetry_space_group_name_H-M   'P 1'
_cell_length_a   8.91437891
_cell_length_b   8.95218378
_cell_length_c   8.94040100
_cell_angle_alpha   131.67892152
_cell_angle_beta   131.57059599
_cell_angle_gamma   70.75518236
_symmetry_Int_Tables_number   1
_chemical_formula_structural   Pr7CuNi15
_chemical_formula_sum   'Pr7 Cu1 Ni15'
_cell_volume   390.63298240
_cell_formula_units_Z   1
loop_
 _symmetry_equiv_pos_site_id
 _symmetry_equiv_pos_as_xyz
  1  'x, y, z'
loop_
 _atom_site_type_symbol
 _atom_site_label
 _atom_site_symmetry_multiplicity
 _atom_site_fract_x
 _atom_site_fract_y
 _atom_site_fract_z
 _atom_site_occupancy
  Pr  Pr0  1  0.095309  0.095096  0.393584  1
  Pr  Pr1  1  0.701706  0.701511  0.606422  1
  Pr  Pr2  1  0.904483  0.299635  0.000012  1
  Pr  Pr3  1  0.752105  0.250050  0.502642  1
  Pr  Pr4  1  0.501011  0.502905  0.999965  1
  Pr  Pr5  1  0.297940  0.903270  0.000008  1
  Pr  Pr6  1  0.249500  0.747381  0.497363  1
  Cu  Cu7  1  0.430974  0.194400  0.000008  1
  Ni  Ni8  1  0.681373  0.933563  0.481811  1
  Ni  Ni9  1  0.932898  0.681155  0.480637  1
  Ni  Ni10  1  0.191774  0.433582  0.000004  1
  Ni  Ni11  1  0.319222  0.799500  0.251993  1
  Ni  Ni12  1  0.940974  0.662828  0.000003  1
  Ni  Ni13  1  0.806364  0.807033  0.238825  1
  Ni  Ni14  1  0.067249  0.547508  0.748018  1
  Ni  Ni15  1  0.056416  0.056462  0.718998  1
  Ni  Ni16  1  0.663658  0.939144  0.999994  1
  Ni  Ni17  1  0.567546  0.568218  0.761206  1
  Ni  Ni18  1  0.801605  0.320001  0.252941  1
  Ni  Ni19  1  0.548656  0.067060  0.747048  1
  Ni  Ni20  1  0.199579  0.451729  0.518186  1
  Ni  Ni21  1  0.337404  0.337432  0.280975  1
  Ni  Ni22  1  0.452254  0.200536  0.519360  1
