# generated using pymatgen
data_Li2La7Pr(Zn3Rh4)2
_symmetry_space_group_name_H-M   'P 1'
_cell_length_a   4.12236800
_cell_length_b   7.35284410
_cell_length_c   16.60331623
_cell_angle_alpha   90.01906019
_cell_angle_beta   90.00000000
_cell_angle_gamma   90.00000000
_symmetry_Int_Tables_number   1
_chemical_formula_structural   Li2La7Pr(Zn3Rh4)2
_chemical_formula_sum   'Li2 La7 Pr1 Zn6 Rh8'
_cell_volume   503.26523610
_cell_formula_units_Z   1
loop_
 _symmetry_equiv_pos_site_id
 _symmetry_equiv_pos_as_xyz
  1  'x, y, z'
loop_
 _atom_site_type_symbol
 _atom_site_label
 _atom_site_symmetry_multiplicity
 _atom_site_fract_x
 _atom_site_fract_y
 _atom_site_fract_z
 _atom_site_occupancy
  Li  Li0  1  0.250000  0.991616  0.440540  1
  Li  Li1  1  0.750000  0.507387  0.940328  1
  La  La2  1  0.750000  0.454166  0.217014  1
  La  La3  1  0.750000  0.955031  0.283545  1
  La  La4  1  0.750000  0.828269  0.059837  1
  La  La5  1  0.250000  0.044692  0.716389  1
  La  La6  1  0.250000  0.168490  0.940938  1
  La  La7  1  0.250000  0.545079  0.782645  1
  La  La8  1  0.750000  0.333874  0.441470  1
  Pr  Pr9  1  0.250000  0.670127  0.560509  1
  Zn  Zn10  1  0.750000  0.000013  0.558297  1
  Zn  Zn11  1  0.250000  0.631294  0.351986  1
  Zn  Zn12  1  0.750000  0.374068  0.647957  1
  Zn  Zn13  1  0.750000  0.869397  0.851361  1
  Zn  Zn14  1  0.250000  0.496879  0.058175  1
  Zn  Zn15  1  0.250000  0.127728  0.148765  1
  Rh  Rh16  1  0.250000  0.244691  0.565558  1
  Rh  Rh17  1  0.750000  0.254967  0.065651  1
  Rh  Rh18  1  0.250000  0.250498  0.311890  1
  Rh  Rh19  1  0.750000  0.250051  0.811668  1
  Rh  Rh20  1  0.250000  0.751887  0.936164  1
  Rh  Rh21  1  0.750000  0.752143  0.688359  1
  Rh  Rh22  1  0.750000  0.748749  0.434179  1
  Rh  Rh23  1  0.250000  0.748903  0.186775  1
