# generated using pymatgen
data_Pr3BiPt4F28
_symmetry_space_group_name_H-M   'P 1'
_cell_length_a   5.68837199
_cell_length_b   9.23496570
_cell_length_c   12.33829311
_cell_angle_alpha   61.76398080
_cell_angle_beta   90.11162891
_cell_angle_gamma   89.91504412
_symmetry_Int_Tables_number   1
_chemical_formula_structural   Pr3BiPt4F28
_chemical_formula_sum   'Pr3 Bi1 Pt4 F28'
_cell_volume   571.02468891
_cell_formula_units_Z   1
loop_
 _symmetry_equiv_pos_site_id
 _symmetry_equiv_pos_as_xyz
  1  'x, y, z'
loop_
 _atom_site_type_symbol
 _atom_site_label
 _atom_site_symmetry_multiplicity
 _atom_site_fract_x
 _atom_site_fract_y
 _atom_site_fract_z
 _atom_site_occupancy
  Pr  Pr0  1  0.260203  0.190328  0.736202  1
  Pr  Pr1  1  0.239419  0.189055  0.235433  1
  Pr  Pr2  1  0.740319  0.811160  0.264248  1
  Bi  Bi3  1  0.765326  0.816492  0.762373  1
  Pt  Pt4  1  0.756694  0.273894  0.957205  1
  Pt  Pt5  1  0.257377  0.727229  0.543389  1
  Pt  Pt6  1  0.242867  0.727281  0.041111  1
  Pt  Pt7  1  0.743632  0.272150  0.458585  1
  F  F8  1  0.431633  0.707306  0.915364  1
  F  F9  1  0.932329  0.292251  0.584864  1
  F  F10  1  0.568843  0.293285  0.083502  1
  F  F11  1  0.068091  0.707002  0.416820  1
  F  F12  1  0.450234  0.280562  0.540622  1
  F  F13  1  0.946598  0.719488  0.959097  1
  F  F14  1  0.549951  0.717679  0.461024  1
  F  F15  1  0.050365  0.282573  0.038749  1
  F  F16  1  0.765594  0.514533  0.861221  1
  F  F17  1  0.266403  0.485265  0.638822  1
  F  F18  1  0.233261  0.486159  0.137793  1
  F  F19  1  0.733564  0.512877  0.361972  1
  F  F20  1  0.757732  0.031207  0.049086  1
  F  F21  1  0.257920  0.968718  0.451640  1
  F  F22  1  0.243386  0.969193  0.949318  1
  F  F23  1  0.742996  0.029247  0.550433  1
  F  F24  1  0.967708  0.728727  0.630239  1
  F  F25  1  0.468195  0.271482  0.869528  1
  F  F26  1  0.031549  0.271558  0.371038  1
  F  F27  1  0.530656  0.727389  0.129794  1
  F  F28  1  0.058661  0.741456  0.171238  1
  F  F29  1  0.559603  0.258082  0.328833  1
  F  F30  1  0.940442  0.258456  0.827634  1
  F  F31  1  0.441877  0.742323  0.673055  1
  F  F32  1  0.404196  0.966690  0.230467  1
  F  F33  1  0.904312  0.034377  0.269186  1
  F  F34  1  0.600304  0.028919  0.769227  1
  F  F35  1  0.087759  0.965606  0.730890  1
