# generated using pymatgen
data_Nb6Ir5PtRh12
_symmetry_space_group_name_H-M   'P 1'
_cell_length_a   5.56820412
_cell_length_b   5.55927692
_cell_length_c   13.52452307
_cell_angle_alpha   89.88987428
_cell_angle_beta   90.00840877
_cell_angle_gamma   120.07493485
_symmetry_Int_Tables_number   1
_chemical_formula_structural   Nb6Ir5PtRh12
_chemical_formula_sum   'Nb6 Ir5 Pt1 Rh12'
_cell_volume   362.29022915
_cell_formula_units_Z   1
loop_
 _symmetry_equiv_pos_site_id
 _symmetry_equiv_pos_as_xyz
  1  'x, y, z'
loop_
 _atom_site_type_symbol
 _atom_site_label
 _atom_site_symmetry_multiplicity
 _atom_site_fract_x
 _atom_site_fract_y
 _atom_site_fract_z
 _atom_site_occupancy
  Nb  Nb0  1  0.999744  0.000596  0.250592  1
  Nb  Nb1  1  0.999967  0.996354  0.747410  1
  Nb  Nb2  1  0.333013  0.666276  0.410513  1
  Nb  Nb3  1  0.665340  0.332595  0.589325  1
  Nb  Nb4  1  0.665052  0.331739  0.909932  1
  Nb  Nb5  1  0.335012  0.670181  0.091556  1
  Ir  Ir6  1  0.504161  0.496859  0.250345  1
  Ir  Ir7  1  0.504912  0.010605  0.249923  1
  Ir  Ir8  1  0.992357  0.497147  0.250362  1
  Ir  Ir9  1  0.495416  0.502891  0.749373  1
  Ir  Ir10  1  0.494719  0.989866  0.749774  1
  Pt  Pt11  1  0.166278  0.332368  0.918316  1
  Rh  Rh12  1  0.005602  0.501855  0.749365  1
  Rh  Rh13  1  0.669836  0.834775  0.917136  1
  Rh  Rh14  1  0.166356  0.835221  0.917800  1
  Rh  Rh15  1  0.835069  0.670043  0.082602  1
  Rh  Rh16  1  0.331058  0.165463  0.083175  1
  Rh  Rh17  1  0.834126  0.165697  0.083079  1
  Rh  Rh18  1  0.834508  0.669261  0.417594  1
  Rh  Rh19  1  0.330672  0.165327  0.417610  1
  Rh  Rh20  1  0.834509  0.165354  0.417537  1
  Rh  Rh21  1  0.166111  0.330448  0.582033  1
  Rh  Rh22  1  0.669529  0.834544  0.582667  1
  Rh  Rh23  1  0.166652  0.834535  0.581979  1
