# generated using pymatgen
data_Na12Ga2AsP5
_symmetry_space_group_name_H-M   'P 1'
_cell_length_a   8.05085413
_cell_length_b   8.05883079
_cell_length_c   8.77661166
_cell_angle_alpha   81.19691665
_cell_angle_beta   107.55421704
_cell_angle_gamma   119.28303586
_symmetry_Int_Tables_number   1
_chemical_formula_structural   Na12Ga2AsP5
_chemical_formula_sum   'Na12 Ga2 As1 P5'
_cell_volume   473.52635773
_cell_formula_units_Z   1
loop_
 _symmetry_equiv_pos_site_id
 _symmetry_equiv_pos_as_xyz
  1  'x, y, z'
loop_
 _atom_site_type_symbol
 _atom_site_label
 _atom_site_symmetry_multiplicity
 _atom_site_fract_x
 _atom_site_fract_y
 _atom_site_fract_z
 _atom_site_occupancy
  Na  Na0  1  0.731356  0.126111  0.615553  1
  Na  Na1  1  0.260910  0.860671  0.394197  1
  Na  Na2  1  0.970652  0.816701  0.625710  1
  Na  Na3  1  0.019577  0.190894  0.394125  1
  Na  Na4  1  0.625173  0.449901  0.401248  1
  Na  Na5  1  0.393975  0.558541  0.595447  1
  Na  Na6  1  0.868019  0.486514  0.140030  1
  Na  Na7  1  0.112258  0.502575  0.845876  1
  Na  Na8  1  0.748994  0.091819  0.986628  1
  Na  Na9  1  0.242784  0.877125  0.002723  1
  Na  Na10  1  0.579221  0.630643  0.945319  1
  Na  Na11  1  0.246331  0.206481  0.109671  1
  Ga  Ga12  1  0.592942  0.834185  0.258324  1
  Ga  Ga13  1  0.418971  0.175778  0.749342  1
  As  As14  1  0.276532  0.542677  0.231932  1
  P  P15  1  0.720284  0.450005  0.763020  1
  P  P16  1  0.596515  0.125871  0.259257  1
  P  P17  1  0.388445  0.869013  0.740228  1
  P  P18  1  0.872614  0.824620  0.243355  1
  P  P19  1  0.143824  0.196614  0.759396  1
