# generated using pymatgen
data_Ce4Y2Zn4Pd13
_symmetry_space_group_name_H-M   'P 1'
_cell_length_a   8.32273793
_cell_length_b   8.32273790
_cell_length_c   8.32232700
_cell_angle_alpha   109.47430959
_cell_angle_beta   109.47430951
_cell_angle_gamma   109.46704055
_symmetry_Int_Tables_number   1
_chemical_formula_structural   Ce4Y2Zn4Pd13
_chemical_formula_sum   'Ce4 Y2 Zn4 Pd13'
_cell_volume   443.75638345
_cell_formula_units_Z   1
loop_
 _symmetry_equiv_pos_site_id
 _symmetry_equiv_pos_as_xyz
  1  'x, y, z'
loop_
 _atom_site_type_symbol
 _atom_site_label
 _atom_site_symmetry_multiplicity
 _atom_site_fract_x
 _atom_site_fract_y
 _atom_site_fract_z
 _atom_site_occupancy
  Ce  Ce0  1  0.700884  0.700884  0.999144  1
  Ce  Ce1  1  0.301183  0.999558  0.300742  1
  Ce  Ce2  1  0.999558  0.301183  0.300742  1
  Ce  Ce3  1  0.298260  0.298260  0.999145  1
  Y  Y4  1  0.698016  0.999383  0.697399  1
  Y  Y5  1  0.999383  0.698016  0.697399  1
  Zn  Zn6  1  0.999654  0.999654  0.502516  1
  Zn  Zn7  1  0.999655  0.499655  0.999309  1
  Zn  Zn8  1  0.499655  0.999655  0.999309  1
  Zn  Zn9  1  0.502862  0.502862  0.502517  1
  Pd  Pd10  1  0.334621  0.334621  0.669241  1
  Pd  Pd11  1  0.666199  0.000049  0.334145  1
  Pd  Pd12  1  0.000049  0.666199  0.334145  1
  Pd  Pd13  1  0.666229  0.333419  0.999648  1
  Pd  Pd14  1  0.334098  0.667950  0.334147  1
  Pd  Pd15  1  0.999580  0.333161  0.666992  1
  Pd  Pd16  1  0.333419  0.666229  0.999648  1
  Pd  Pd17  1  0.333161  0.999580  0.666992  1
  Pd  Pd18  1  0.667950  0.334098  0.334147  1
  Pd  Pd19  1  0.667318  0.667318  0.334635  1
  Pd  Pd20  1  0.667411  0.333831  0.666992  1
  Pd  Pd21  1  0.333831  0.667411  0.666992  1
  Pd  Pd22  1  0.997025  0.997025  0.994050  1
