# generated using pymatgen
data_Dy5Tm3P12IrRh15
_symmetry_space_group_name_H-M   'P 1'
_cell_length_a   12.99082000
_cell_length_b   12.99082075
_cell_length_c   3.96202400
_cell_angle_alpha   90.00000000
_cell_angle_beta   90.00000000
_cell_angle_gamma   119.99999809
_symmetry_Int_Tables_number   1
_chemical_formula_structural   Dy5Tm3P12IrRh15
_chemical_formula_sum   'Dy5 Tm3 P12 Ir1 Rh15'
_cell_volume   579.05644202
_cell_formula_units_Z   1
loop_
 _symmetry_equiv_pos_site_id
 _symmetry_equiv_pos_as_xyz
  1  'x, y, z'
loop_
 _atom_site_type_symbol
 _atom_site_label
 _atom_site_symmetry_multiplicity
 _atom_site_fract_x
 _atom_site_fract_y
 _atom_site_fract_z
 _atom_site_occupancy
  Dy  Dy0  1  0.333333  0.666667  0.500000  1
  Dy  Dy1  1  0.666667  0.333333  0.500000  1
  Dy  Dy2  1  0.000000  0.813435  0.000000  1
  Dy  Dy3  1  0.186565  0.186565  0.000000  1
  Dy  Dy4  1  0.813435  0.000000  0.000000  1
  Tm  Tm5  1  0.000000  0.443932  0.500000  1
  Tm  Tm6  1  0.556068  0.556068  0.500000  1
  Tm  Tm7  1  0.443932  0.000000  0.500000  1
  P  P8  1  0.000000  0.650506  0.500000  1
  P  P9  1  0.349494  0.349494  0.500000  1
  P  P10  1  0.650506  0.000000  0.500000  1
  P  P11  1  0.516830  0.689731  0.000000  1
  P  P12  1  0.310269  0.827099  0.000000  1
  P  P13  1  0.172901  0.483170  0.000000  1
  P  P14  1  0.483170  0.172901  0.000000  1
  P  P15  1  0.689731  0.516830  0.000000  1
  P  P16  1  0.827099  0.310269  0.000000  1
  P  P17  1  0.000000  0.176993  0.500000  1
  P  P18  1  0.823007  0.823007  0.500000  1
  P  P19  1  0.176993  0.000000  0.500000  1
  Ir  Ir20  1  0.000000  0.000000  0.500000  1
  Rh  Rh21  1  0.514042  0.870013  0.000000  1
  Rh  Rh22  1  0.129987  0.644029  0.000000  1
  Rh  Rh23  1  0.355971  0.485958  0.000000  1
  Rh  Rh24  1  0.485958  0.355971  0.000000  1
  Rh  Rh25  1  0.870013  0.514042  0.000000  1
  Rh  Rh26  1  0.644029  0.129987  0.000000  1
  Rh  Rh27  1  0.000000  0.274996  0.000000  1
  Rh  Rh28  1  0.725004  0.725004  0.000000  1
  Rh  Rh29  1  0.274996  0.000000  0.000000  1
  Rh  Rh30  1  0.628095  0.806543  0.500000  1
  Rh  Rh31  1  0.193457  0.821552  0.500000  1
  Rh  Rh32  1  0.178448  0.371905  0.500000  1
  Rh  Rh33  1  0.371905  0.178448  0.500000  1
  Rh  Rh34  1  0.806543  0.628095  0.500000  1
  Rh  Rh35  1  0.821552  0.193457  0.500000  1
