# generated using pymatgen
data_In(S8F)3
_symmetry_space_group_name_H-M   'P 1'
_cell_length_a   14.66152624
_cell_length_b   14.66152636
_cell_length_c   14.66152601
_cell_angle_alpha   118.60774958
_cell_angle_beta   118.60775259
_cell_angle_gamma   118.60774551
_symmetry_Int_Tables_number   1
_chemical_formula_structural   In(S8F)3
_chemical_formula_sum   'In1 S24 F3'
_cell_volume   959.45458342
_cell_formula_units_Z   1
loop_
 _symmetry_equiv_pos_site_id
 _symmetry_equiv_pos_as_xyz
  1  'x, y, z'
loop_
 _atom_site_type_symbol
 _atom_site_label
 _atom_site_symmetry_multiplicity
 _atom_site_fract_x
 _atom_site_fract_y
 _atom_site_fract_z
 _atom_site_occupancy
  In  In0  1  0.924135  0.924135  0.924135  1
  S  S1  1  0.802025  0.526569  0.526569  1
  S  S2  1  0.526569  0.526569  0.802025  1
  S  S3  1  0.526569  0.802025  0.526569  1
  S  S4  1  0.250168  0.383570  0.635821  1
  S  S5  1  0.345522  0.948693  0.345522  1
  S  S6  1  0.345522  0.345522  0.948693  1
  S  S7  1  0.948693  0.345522  0.345522  1
  S  S8  1  0.123364  0.738585  0.255903  1
  S  S9  1  0.255903  0.123364  0.738585  1
  S  S10  1  0.738585  0.255903  0.123364  1
  S  S11  1  0.738585  0.123364  0.255903  1
  S  S12  1  0.255903  0.738585  0.123364  1
  S  S13  1  0.123364  0.255903  0.738585  1
  S  S14  1  0.346256  0.879053  0.533200  1
  S  S15  1  0.533200  0.346256  0.879053  1
  S  S16  1  0.879053  0.533200  0.346256  1
  S  S17  1  0.879053  0.346256  0.533200  1
  S  S18  1  0.533200  0.879053  0.346256  1
  S  S19  1  0.346256  0.533200  0.879053  1
  S  S20  1  0.250168  0.635821  0.383570  1
  S  S21  1  0.383570  0.250168  0.635821  1
  S  S22  1  0.635821  0.383570  0.250168  1
  S  S23  1  0.635821  0.250168  0.383570  1
  S  S24  1  0.383570  0.635821  0.250168  1
  F  F25  1  0.848707  0.982857  0.982857  1
  F  F26  1  0.982857  0.982857  0.848707  1
  F  F27  1  0.982857  0.848707  0.982857  1
