# generated using pymatgen
data_Cs6Np(UBr6)3
_symmetry_space_group_name_H-M   'P 1'
_cell_length_a   10.55146918
_cell_length_b   10.55146769
_cell_length_c   10.55146823
_cell_angle_alpha   84.20411447
_cell_angle_beta   84.20411078
_cell_angle_gamma   84.20411014
_symmetry_Int_Tables_number   1
_chemical_formula_structural   Cs6Np(UBr6)3
_chemical_formula_sum   'Cs6 Np1 U3 Br18'
_cell_volume   1157.85044929
_cell_formula_units_Z   1
loop_
 _symmetry_equiv_pos_site_id
 _symmetry_equiv_pos_as_xyz
  1  'x, y, z'
loop_
 _atom_site_type_symbol
 _atom_site_label
 _atom_site_symmetry_multiplicity
 _atom_site_fract_x
 _atom_site_fract_y
 _atom_site_fract_z
 _atom_site_occupancy
  Cs  Cs0  1  0.087433  0.749999  0.411418  1
  Cs  Cs1  1  0.749999  0.411418  0.087433  1
  Cs  Cs2  1  0.249605  0.587993  0.913492  1
  Cs  Cs3  1  0.411418  0.087433  0.749999  1
  Cs  Cs4  1  0.913492  0.249605  0.587993  1
  Cs  Cs5  1  0.587993  0.913492  0.249605  1
  Np  Np6  1  0.149286  0.149286  0.149286  1
  U  U7  1  0.351457  0.351457  0.351457  1
  U  U8  1  0.648633  0.648633  0.648633  1
  U  U9  1  0.851394  0.851394  0.851394  1
  Br  Br10  1  0.266805  0.911210  0.076293  1
  Br  Br11  1  0.732951  0.089091  0.922551  1
  Br  Br12  1  0.905895  0.594146  0.748408  1
  Br  Br13  1  0.089091  0.922551  0.732951  1
  Br  Br14  1  0.594146  0.748408  0.905895  1
  Br  Br15  1  0.424551  0.588818  0.234081  1
  Br  Br16  1  0.251210  0.094666  0.406874  1
  Br  Br17  1  0.911210  0.076293  0.266805  1
  Br  Br18  1  0.575059  0.411883  0.764798  1
  Br  Br19  1  0.076293  0.266805  0.911210  1
  Br  Br20  1  0.922551  0.732951  0.089091  1
  Br  Br21  1  0.411883  0.764798  0.575059  1
  Br  Br22  1  0.234081  0.424551  0.588818  1
  Br  Br23  1  0.748408  0.905895  0.594146  1
  Br  Br24  1  0.094666  0.406874  0.251210  1
  Br  Br25  1  0.764798  0.575059  0.411883  1
  Br  Br26  1  0.406874  0.251210  0.094666  1
  Br  Br27  1  0.588818  0.234081  0.424551  1
