# generated using pymatgen
data_Nd2AlZn16
_symmetry_space_group_name_H-M   'P 1'
_cell_length_a   6.85875672
_cell_length_b   6.85875593
_cell_length_c   6.85875610
_cell_angle_alpha   82.81571231
_cell_angle_beta   82.81571539
_cell_angle_gamma   82.81570426
_symmetry_Int_Tables_number   1
_chemical_formula_structural   Nd2AlZn16
_chemical_formula_sum   'Nd2 Al1 Zn16'
_cell_volume   315.63856020
_cell_formula_units_Z   1
loop_
 _symmetry_equiv_pos_site_id
 _symmetry_equiv_pos_as_xyz
  1  'x, y, z'
loop_
 _atom_site_type_symbol
 _atom_site_label
 _atom_site_symmetry_multiplicity
 _atom_site_fract_x
 _atom_site_fract_y
 _atom_site_fract_z
 _atom_site_occupancy
  Nd  Nd0  1  0.665511  0.665511  0.665511  1
  Nd  Nd1  1  0.335013  0.335013  0.335013  1
  Al  Al2  1  0.097116  0.097116  0.097116  1
  Zn  Zn3  1  0.349765  0.839348  0.349765  1
  Zn  Zn4  1  0.349765  0.349765  0.839348  1
  Zn  Zn5  1  0.839348  0.349765  0.349765  1
  Zn  Zn6  1  0.651461  0.160304  0.651461  1
  Zn  Zn7  1  0.651461  0.651461  0.160304  1
  Zn  Zn8  1  0.160304  0.651461  0.651461  1
  Zn  Zn9  1  0.296111  0.704093  0.999709  1
  Zn  Zn10  1  0.999709  0.296111  0.704093  1
  Zn  Zn11  1  0.704093  0.999709  0.296111  1
  Zn  Zn12  1  0.999709  0.704093  0.296111  1
  Zn  Zn13  1  0.296111  0.999709  0.704093  1
  Zn  Zn14  1  0.704093  0.296111  0.999709  1
  Zn  Zn15  1  0.999155  0.999155  0.502555  1
  Zn  Zn16  1  0.502555  0.999155  0.999155  1
  Zn  Zn17  1  0.999155  0.502555  0.999155  1
  Zn  Zn18  1  0.899563  0.899563  0.899563  1
