# generated using pymatgen
data_LiDy(NbSe2)8
_symmetry_space_group_name_H-M   'P 1'
_cell_length_a   7.02127100
_cell_length_b   7.02126984
_cell_length_c   14.03155200
_cell_angle_alpha   90.00000000
_cell_angle_beta   90.00000000
_cell_angle_gamma   120.00000076
_symmetry_Int_Tables_number   1
_chemical_formula_structural   LiDy(NbSe2)8
_chemical_formula_sum   'Li1 Dy1 Nb8 Se16'
_cell_volume   599.05643575
_cell_formula_units_Z   1
loop_
 _symmetry_equiv_pos_site_id
 _symmetry_equiv_pos_as_xyz
  1  'x, y, z'
loop_
 _atom_site_type_symbol
 _atom_site_label
 _atom_site_symmetry_multiplicity
 _atom_site_fract_x
 _atom_site_fract_y
 _atom_site_fract_z
 _atom_site_occupancy
  Li  Li0  1  0.000000  0.000000  0.500000  1
  Dy  Dy1  1  0.000000  0.000000  0.000000  1
  Nb  Nb2  1  0.983834  0.491917  0.255876  1
  Nb  Nb3  1  0.016166  0.508083  0.744124  1
  Nb  Nb4  1  0.491917  0.508083  0.744124  1
  Nb  Nb5  1  0.508083  0.016166  0.255876  1
  Nb  Nb6  1  0.000000  0.000000  0.745271  1
  Nb  Nb7  1  0.000000  0.000000  0.254729  1
  Nb  Nb8  1  0.508083  0.491917  0.255876  1
  Nb  Nb9  1  0.491917  0.983834  0.744124  1
  Se  Se10  1  0.333333  0.666667  0.621233  1
  Se  Se11  1  0.666667  0.333333  0.131285  1
  Se  Se12  1  0.666667  0.333333  0.378767  1
  Se  Se13  1  0.333333  0.666667  0.868715  1
  Se  Se14  1  0.167813  0.335628  0.372560  1
  Se  Se15  1  0.829825  0.170175  0.862887  1
  Se  Se16  1  0.340350  0.170175  0.862887  1
  Se  Se17  1  0.664372  0.832187  0.372560  1
  Se  Se18  1  0.167813  0.832187  0.372560  1
  Se  Se19  1  0.829825  0.659650  0.862887  1
  Se  Se20  1  0.170175  0.340350  0.137113  1
  Se  Se21  1  0.832187  0.167813  0.627440  1
  Se  Se22  1  0.335628  0.167813  0.627440  1
  Se  Se23  1  0.659650  0.829825  0.137113  1
  Se  Se24  1  0.170175  0.829825  0.137113  1
  Se  Se25  1  0.832187  0.664372  0.627440  1
