# generated using pymatgen
data_Tm3Ga5Ir
_symmetry_space_group_name_H-M   'P 1'
_cell_length_a   6.90394600
_cell_length_b   6.90394546
_cell_length_c   4.23715100
_cell_angle_alpha   90.00000000
_cell_angle_beta   90.00000000
_cell_angle_gamma   120.00000258
_symmetry_Int_Tables_number   1
_chemical_formula_structural   Tm3Ga5Ir
_chemical_formula_sum   'Tm3 Ga5 Ir1'
_cell_volume   174.90382187
_cell_formula_units_Z   1
loop_
 _symmetry_equiv_pos_site_id
 _symmetry_equiv_pos_as_xyz
  1  'x, y, z'
loop_
 _atom_site_type_symbol
 _atom_site_label
 _atom_site_symmetry_multiplicity
 _atom_site_fract_x
 _atom_site_fract_y
 _atom_site_fract_z
 _atom_site_occupancy
  Tm  Tm0  1  0.589361  0.000000  0.000000  1
  Tm  Tm1  1  0.000000  0.589361  0.000000  1
  Tm  Tm2  1  0.410639  0.410639  0.000000  1
  Ga  Ga3  1  0.236996  0.000000  0.500000  1
  Ga  Ga4  1  0.000000  0.236996  0.500000  1
  Ga  Ga5  1  0.763004  0.763004  0.500000  1
  Ga  Ga6  1  0.333333  0.666667  0.500000  1
  Ga  Ga7  1  0.666667  0.333333  0.500000  1
  Ir  Ir8  1  0.000000  0.000000  0.000000  1
