# generated using pymatgen
data_La4B16OsRu13
_symmetry_space_group_name_H-M   'P 1'
_cell_length_a   6.49378400
_cell_length_b   6.49378400
_cell_length_c   10.15973500
_cell_angle_alpha   90.00000000
_cell_angle_beta   90.00000000
_cell_angle_gamma   90.00000000
_symmetry_Int_Tables_number   1
_chemical_formula_structural   La4B16OsRu13
_chemical_formula_sum   'La4 B16 Os1 Ru13'
_cell_volume   428.42820844
_cell_formula_units_Z   1
loop_
 _symmetry_equiv_pos_site_id
 _symmetry_equiv_pos_as_xyz
  1  'x, y, z'
loop_
 _atom_site_type_symbol
 _atom_site_label
 _atom_site_symmetry_multiplicity
 _atom_site_fract_x
 _atom_site_fract_y
 _atom_site_fract_z
 _atom_site_occupancy
  La  La0  1  0.734080  0.879347  0.999369  1
  La  La1  1  0.120653  0.734080  0.500631  1
  La  La2  1  0.879347  0.265920  0.500631  1
  La  La3  1  0.265920  0.120653  0.999369  1
  B  B4  1  0.500000  0.000000  0.589243  1
  B  B5  1  0.500000  0.000000  0.410735  1
  B  B6  1  0.897876  0.275697  0.169129  1
  B  B7  1  0.102856  0.723092  0.829538  1
  B  B8  1  0.500000  0.500000  0.341282  1
  B  B9  1  0.500000  0.500000  0.841120  1
  B  B10  1  0.276908  0.102856  0.670462  1
  B  B11  1  0.102124  0.724303  0.169129  1
  B  B12  1  0.275697  0.102124  0.330871  1
  B  B13  1  0.897144  0.276908  0.829538  1
  B  B14  1  0.500000  0.500000  0.658880  1
  B  B15  1  0.500000  0.500000  0.158718  1
  B  B16  1  0.000000  0.500000  0.910757  1
  B  B17  1  0.723092  0.897144  0.670462  1
  B  B18  1  0.724303  0.897876  0.330871  1
  B  B19  1  0.000000  0.500000  0.089265  1
  Os  Os20  1  0.000000  0.000000  0.250000  1
  Ru  Ru21  1  0.204616  0.399361  0.752141  1
  Ru  Ru22  1  0.399766  0.286018  0.500200  1
  Ru  Ru23  1  0.399763  0.795145  0.252144  1
  Ru  Ru24  1  0.204855  0.399763  0.247856  1
  Ru  Ru25  1  0.600234  0.713982  0.500200  1
  Ru  Ru26  1  0.600639  0.204616  0.747859  1
  Ru  Ru27  1  0.286018  0.600234  0.999800  1
  Ru  Ru28  1  0.713982  0.399766  0.999800  1
  Ru  Ru29  1  0.795145  0.600237  0.247856  1
  Ru  Ru30  1  0.795384  0.600639  0.752141  1
  Ru  Ru31  1  0.399361  0.795384  0.747859  1
  Ru  Ru32  1  0.600237  0.204855  0.252144  1
  Ru  Ru33  1  0.000000  0.000000  0.750000  1
