# generated using pymatgen
data_NdDy2Mg3AgSn2
_symmetry_space_group_name_H-M   'P 1'
_cell_length_a   7.58326977
_cell_length_b   7.58326921
_cell_length_c   4.55747300
_cell_angle_alpha   90.00000000
_cell_angle_beta   90.00000000
_cell_angle_gamma   120.45877648
_symmetry_Int_Tables_number   1
_chemical_formula_structural   NdDy2Mg3AgSn2
_chemical_formula_sum   'Nd1 Dy2 Mg3 Ag1 Sn2'
_cell_volume   225.91308173
_cell_formula_units_Z   1
loop_
 _symmetry_equiv_pos_site_id
 _symmetry_equiv_pos_as_xyz
  1  'x, y, z'
loop_
 _atom_site_type_symbol
 _atom_site_label
 _atom_site_symmetry_multiplicity
 _atom_site_fract_x
 _atom_site_fract_y
 _atom_site_fract_z
 _atom_site_occupancy
  Nd  Nd0  1  0.416313  0.416313  0.500000  1
  Dy  Dy1  1  0.586430  0.001648  0.500000  1
  Dy  Dy2  1  0.001648  0.586430  0.500000  1
  Mg  Mg3  1  0.763597  0.763597  0.000000  1
  Mg  Mg4  1  0.236390  0.999530  0.000000  1
  Mg  Mg5  1  0.999530  0.236390  0.000000  1
  Ag  Ag6  1  0.993955  0.993955  0.500000  1
  Sn  Sn7  1  0.670826  0.331311  0.000000  1
  Sn  Sn8  1  0.331311  0.670826  0.000000  1
