# generated using pymatgen
data_Nd16Cd4NiIr3
_symmetry_space_group_name_H-M   'P 1'
_cell_length_a   9.92276736
_cell_length_b   9.98788138
_cell_length_c   9.98788200
_cell_angle_alpha   59.99999795
_cell_angle_beta   59.78268754
_cell_angle_gamma   59.78268944
_symmetry_Int_Tables_number   1
_chemical_formula_structural   Nd16Cd4NiIr3
_chemical_formula_sum   'Nd16 Cd4 Ni1 Ir3'
_cell_volume   697.63817323
_cell_formula_units_Z   1
loop_
 _symmetry_equiv_pos_site_id
 _symmetry_equiv_pos_as_xyz
  1  'x, y, z'
loop_
 _atom_site_type_symbol
 _atom_site_label
 _atom_site_symmetry_multiplicity
 _atom_site_fract_x
 _atom_site_fract_y
 _atom_site_fract_z
 _atom_site_occupancy
  Nd  Nd0  1  0.601062  0.596079  0.596079  1
  Nd  Nd1  1  0.601062  0.596079  0.206781  1
  Nd  Nd2  1  0.601062  0.206781  0.596079  1
  Nd  Nd3  1  0.209193  0.596936  0.596936  1
  Nd  Nd4  1  0.058824  0.440041  0.440041  1
  Nd  Nd5  1  0.438416  0.060416  0.060416  1
  Nd  Nd6  1  0.438416  0.060416  0.440753  1
  Nd  Nd7  1  0.058824  0.440041  0.061094  1
  Nd  Nd8  1  0.438416  0.440753  0.060416  1
  Nd  Nd9  1  0.058824  0.061094  0.440041  1
  Nd  Nd10  1  0.186842  0.812027  0.812027  1
  Nd  Nd11  1  0.808973  0.187440  0.187440  1
  Nd  Nd12  1  0.808973  0.187440  0.816147  1
  Nd  Nd13  1  0.186842  0.812027  0.189102  1
  Nd  Nd14  1  0.808973  0.816147  0.187440  1
  Nd  Nd15  1  0.186842  0.189102  0.812027  1
  Cd  Cd16  1  0.829149  0.829687  0.829687  1
  Cd  Cd17  1  0.829149  0.829687  0.511478  1
  Cd  Cd18  1  0.829149  0.511478  0.829687  1
  Cd  Cd19  1  0.512293  0.829236  0.829236  1
  Ni  Ni20  1  0.825530  0.391490  0.391490  1
  Ir  Ir21  1  0.394395  0.390384  0.390384  1
  Ir  Ir22  1  0.394395  0.390384  0.824836  1
  Ir  Ir23  1  0.394395  0.824836  0.390384  1
