# generated using pymatgen
data_TbYb6ErBi6
_symmetry_space_group_name_H-M   'P 1'
_cell_length_a   8.18197389
_cell_length_b   8.36631637
_cell_length_c   8.36631511
_cell_angle_alpha   109.91325289
_cell_angle_beta   109.02548556
_cell_angle_gamma   109.02549350
_symmetry_Int_Tables_number   1
_chemical_formula_structural   TbYb6ErBi6
_chemical_formula_sum   'Tb1 Yb6 Er1 Bi6'
_cell_volume   443.26576329
_cell_formula_units_Z   1
loop_
 _symmetry_equiv_pos_site_id
 _symmetry_equiv_pos_as_xyz
  1  'x, y, z'
loop_
 _atom_site_type_symbol
 _atom_site_label
 _atom_site_symmetry_multiplicity
 _atom_site_fract_x
 _atom_site_fract_y
 _atom_site_fract_z
 _atom_site_occupancy
  Tb  Tb0  1  0.142138  0.500000  0.000000  1
  Yb  Yb1  1  0.500798  0.999022  0.646827  1
  Yb  Yb2  1  0.354050  0.352185  0.353277  1
  Yb  Yb3  1  0.501865  0.001092  0.147815  1
  Yb  Yb4  1  0.001776  0.647805  0.500978  1
  Yb  Yb5  1  0.853970  0.853173  0.852195  1
  Yb  Yb6  1  0.000773  0.146723  0.498908  1
  Er  Er7  1  0.641858  0.500000  0.000000  1
  Bi  Bi8  1  0.377196  0.622818  0.756520  1
  Bi  Bi9  1  0.876590  0.256289  0.122958  1
  Bi  Bi10  1  0.620676  0.743480  0.366298  1
  Bi  Bi11  1  0.120301  0.866669  0.243711  1
  Bi  Bi12  1  0.254378  0.133702  0.877182  1
  Bi  Bi13  1  0.753632  0.377042  0.633331  1
