# generated using pymatgen
data_Sr7ThP6
_symmetry_space_group_name_H-M   'P 1'
_cell_length_a   8.03242093
_cell_length_b   8.03242163
_cell_length_c   7.90700900
_cell_angle_alpha   109.15525663
_cell_angle_beta   109.15525838
_cell_angle_gamma   109.78532816
_symmetry_Int_Tables_number   1
_chemical_formula_structural   Sr7ThP6
_chemical_formula_sum   'Sr7 Th1 P6'
_cell_volume   394.24114403
_cell_formula_units_Z   1
loop_
 _symmetry_equiv_pos_site_id
 _symmetry_equiv_pos_as_xyz
  1  'x, y, z'
loop_
 _atom_site_type_symbol
 _atom_site_label
 _atom_site_symmetry_multiplicity
 _atom_site_fract_x
 _atom_site_fract_y
 _atom_site_fract_z
 _atom_site_occupancy
  Sr  Sr0  1  0.631829  0.632308  0.631630  1
  Sr  Sr1  1  0.010631  0.382214  0.507590  1
  Sr  Sr2  1  0.371584  0.489369  0.996959  1
  Sr  Sr3  1  0.000479  0.868171  0.499802  1
  Sr  Sr4  1  0.867692  0.499521  0.999322  1
  Sr  Sr5  1  0.500000  0.000000  0.867664  1
  Sr  Sr6  1  0.117786  0.128416  0.125376  1
  Th  Th7  1  0.500000  0.000000  0.362523  1
  P  P8  1  0.855956  0.119559  0.728733  1
  P  P9  1  0.380441  0.236398  0.609175  1
  P  P10  1  0.142375  0.762316  0.901046  1
  P  P11  1  0.737684  0.880059  0.138731  1
  P  P12  1  0.263602  0.644044  0.372777  1
  P  P13  1  0.619941  0.357625  0.258672  1
