# generated using pymatgen
data_Zr5Co19(Si3P)3
_symmetry_space_group_name_H-M   'P 1'
_cell_length_a   11.96757300
_cell_length_b   11.96757341
_cell_length_c   3.63371800
_cell_angle_alpha   90.00000000
_cell_angle_beta   90.00000000
_cell_angle_gamma   119.99999611
_symmetry_Int_Tables_number   1
_chemical_formula_structural   Zr5Co19(Si3P)3
_chemical_formula_sum   'Zr5 Co19 Si9 P3'
_cell_volume   450.70674171
_cell_formula_units_Z   1
loop_
 _symmetry_equiv_pos_site_id
 _symmetry_equiv_pos_as_xyz
  1  'x, y, z'
loop_
 _atom_site_type_symbol
 _atom_site_label
 _atom_site_symmetry_multiplicity
 _atom_site_fract_x
 _atom_site_fract_y
 _atom_site_fract_z
 _atom_site_occupancy
  Zr  Zr0  1  0.333333  0.666667  0.500000  1
  Zr  Zr1  1  0.666667  0.333333  0.500000  1
  Zr  Zr2  1  0.000000  0.183251  0.000000  1
  Zr  Zr3  1  0.816749  0.816749  0.000000  1
  Zr  Zr4  1  0.183251  0.000000  0.000000  1
  Co  Co5  1  0.628838  0.825103  0.500000  1
  Co  Co6  1  0.174897  0.803734  0.500000  1
  Co  Co7  1  0.196266  0.371162  0.500000  1
  Co  Co8  1  0.371162  0.196266  0.500000  1
  Co  Co9  1  0.825103  0.628838  0.500000  1
  Co  Co10  1  0.803734  0.174897  0.500000  1
  Co  Co11  1  0.000000  0.556237  0.500000  1
  Co  Co12  1  0.443763  0.443763  0.500000  1
  Co  Co13  1  0.556237  0.000000  0.500000  1
  Co  Co14  1  0.521243  0.646038  0.000000  1
  Co  Co15  1  0.353962  0.875205  0.000000  1
  Co  Co16  1  0.124795  0.478757  0.000000  1
  Co  Co17  1  0.478757  0.124795  0.000000  1
  Co  Co18  1  0.646038  0.521243  0.000000  1
  Co  Co19  1  0.875205  0.353962  0.000000  1
  Co  Co20  1  0.000000  0.723493  0.000000  1
  Co  Co21  1  0.276507  0.276507  0.000000  1
  Co  Co22  1  0.723493  0.000000  0.000000  1
  Co  Co23  1  0.000000  0.000000  0.500000  1
  Si  Si24  1  0.000000  0.364533  0.500000  1
  Si  Si25  1  0.635467  0.635467  0.500000  1
  Si  Si26  1  0.364533  0.000000  0.500000  1
  Si  Si27  1  0.519302  0.838246  0.000000  1
  Si  Si28  1  0.161754  0.681055  0.000000  1
  Si  Si29  1  0.318945  0.480698  0.000000  1
  Si  Si30  1  0.480698  0.318945  0.000000  1
  Si  Si31  1  0.838246  0.519302  0.000000  1
  Si  Si32  1  0.681055  0.161754  0.000000  1
  P  P33  1  0.000000  0.822986  0.500000  1
  P  P34  1  0.177014  0.177014  0.500000  1
  P  P35  1  0.822986  0.000000  0.500000  1
