# generated using pymatgen
data_Sm4B16OsRu3
_symmetry_space_group_name_H-M   'P 1'
_cell_length_a   3.61165100
_cell_length_b   6.03374714
_cell_length_c   11.67298900
_cell_angle_alpha   90.01334652
_cell_angle_beta   90.00000000
_cell_angle_gamma   90.00000000
_symmetry_Int_Tables_number   1
_chemical_formula_structural   Sm4B16OsRu3
_chemical_formula_sum   'Sm4 B16 Os1 Ru3'
_cell_volume   254.37530503
_cell_formula_units_Z   1
loop_
 _symmetry_equiv_pos_site_id
 _symmetry_equiv_pos_as_xyz
  1  'x, y, z'
loop_
 _atom_site_type_symbol
 _atom_site_label
 _atom_site_symmetry_multiplicity
 _atom_site_fract_x
 _atom_site_fract_y
 _atom_site_fract_z
 _atom_site_occupancy
  Sm  Sm0  1  0.500000  0.127895  0.149909  1
  Sm  Sm1  1  0.500000  0.872132  0.850096  1
  Sm  Sm2  1  0.500000  0.627921  0.349333  1
  Sm  Sm3  1  0.500000  0.372048  0.650616  1
  B  B4  1  0.000000  0.476243  0.190236  1
  B  B5  1  0.000000  0.524063  0.809699  1
  B  B6  1  0.000000  0.975693  0.309647  1
  B  B7  1  0.000000  0.024129  0.690369  1
  B  B8  1  0.000000  0.286229  0.315191  1
  B  B9  1  0.000000  0.713565  0.684693  1
  B  B10  1  0.000000  0.786439  0.184416  1
  B  B11  1  0.000000  0.213595  0.815695  1
  B  B12  1  0.000000  0.361687  0.469436  1
  B  B13  1  0.000000  0.638164  0.530690  1
  B  B14  1  0.000000  0.861928  0.030806  1
  B  B15  1  0.000000  0.138049  0.969057  1
  B  B16  1  0.000000  0.389041  0.045764  1
  B  B17  1  0.000000  0.611127  0.954059  1
  B  B18  1  0.000000  0.888904  0.453937  1
  B  B19  1  0.000000  0.111204  0.546042  1
  Os  Os20  1  0.500000  0.139104  0.408362  1
  Ru  Ru21  1  0.500000  0.860788  0.591884  1
  Ru  Ru22  1  0.500000  0.638236  0.091942  1
  Ru  Ru23  1  0.500000  0.361817  0.908122  1
