# generated using pymatgen
data_Lu10Cd3Ru
_symmetry_space_group_name_H-M   'P 1'
_cell_length_a   9.36261524
_cell_length_b   9.38463994
_cell_length_c   9.66283104
_cell_angle_alpha   89.99200542
_cell_angle_beta   90.00941009
_cell_angle_gamma   120.05413058
_symmetry_Int_Tables_number   1
_chemical_formula_structural   Lu10Cd3Ru
_chemical_formula_sum   'Lu20 Cd6 Ru2'
_cell_volume   734.87361517
_cell_formula_units_Z   2
loop_
 _symmetry_equiv_pos_site_id
 _symmetry_equiv_pos_as_xyz
  1  'x, y, z'
loop_
 _atom_site_type_symbol
 _atom_site_label
 _atom_site_symmetry_multiplicity
 _atom_site_fract_x
 _atom_site_fract_y
 _atom_site_fract_z
 _atom_site_occupancy
  Lu  Lu0  1  0.000272  0.000452  0.500115  1
  Lu  Lu1  1  0.999736  0.999482  0.000223  1
  Lu  Lu2  1  0.209759  0.789998  0.441820  1
  Lu  Lu3  1  0.209819  0.419716  0.441829  1
  Lu  Lu4  1  0.580320  0.790189  0.441734  1
  Lu  Lu5  1  0.790208  0.209941  0.557891  1
  Lu  Lu6  1  0.790217  0.580413  0.558262  1
  Lu  Lu7  1  0.419847  0.210038  0.558188  1
  Lu  Lu8  1  0.790375  0.209883  0.941947  1
  Lu  Lu9  1  0.790492  0.580470  0.941923  1
  Lu  Lu10  1  0.419581  0.209674  0.942039  1
  Lu  Lu11  1  0.209686  0.789970  0.058167  1
  Lu  Lu12  1  0.209785  0.419556  0.058198  1
  Lu  Lu13  1  0.580231  0.790026  0.058175  1
  Lu  Lu14  1  0.540782  0.459361  0.249708  1
  Lu  Lu15  1  0.540213  0.081185  0.249745  1
  Lu  Lu16  1  0.918878  0.459337  0.249762  1
  Lu  Lu17  1  0.459711  0.540677  0.749993  1
  Lu  Lu18  1  0.459224  0.918530  0.749866  1
  Lu  Lu19  1  0.081342  0.540665  0.749841  1
  Cd  Cd20  1  0.886577  0.114875  0.249913  1
  Cd  Cd21  1  0.886691  0.771791  0.250797  1
  Cd  Cd22  1  0.227429  0.114122  0.249936  1
  Cd  Cd23  1  0.112937  0.885304  0.750004  1
  Cd  Cd24  1  0.113490  0.228252  0.750137  1
  Cd  Cd25  1  0.772181  0.886185  0.749524  1
  Ru  Ru26  1  0.333551  0.666540  0.250093  1
  Ru  Ru27  1  0.666664  0.333366  0.750170  1
