# generated using pymatgen
data_Pr(Al4Rh)2
_symmetry_space_group_name_H-M   'P 1'
_cell_length_a   4.16743600
_cell_length_b   12.73888900
_cell_length_c   14.71329200
_cell_angle_alpha   90.00000000
_cell_angle_beta   90.00000000
_cell_angle_gamma   90.00000000
_symmetry_Int_Tables_number   1
_chemical_formula_structural   Pr(Al4Rh)2
_chemical_formula_sum   'Pr4 Al32 Rh8'
_cell_volume   781.10667030
_cell_formula_units_Z   4
loop_
 _symmetry_equiv_pos_site_id
 _symmetry_equiv_pos_as_xyz
  1  'x, y, z'
loop_
 _atom_site_type_symbol
 _atom_site_label
 _atom_site_symmetry_multiplicity
 _atom_site_fract_x
 _atom_site_fract_y
 _atom_site_fract_z
 _atom_site_occupancy
  Pr  Pr0  1  0.500000  0.157519  0.318842  1
  Pr  Pr1  1  0.500000  0.842481  0.681158  1
  Pr  Pr2  1  0.500000  0.657519  0.181158  1
  Pr  Pr3  1  0.500000  0.342481  0.818842  1
  Al  Al4  1  0.000000  0.500000  0.500000  1
  Al  Al5  1  0.000000  0.000000  0.000000  1
  Al  Al6  1  0.500000  0.500000  0.000000  1
  Al  Al7  1  0.500000  0.000000  0.500000  1
  Al  Al8  1  0.500000  0.657877  0.456301  1
  Al  Al9  1  0.500000  0.342123  0.543699  1
  Al  Al10  1  0.500000  0.157877  0.043699  1
  Al  Al11  1  0.500000  0.842123  0.956301  1
  Al  Al12  1  0.500000  0.401632  0.250711  1
  Al  Al13  1  0.500000  0.598368  0.749289  1
  Al  Al14  1  0.500000  0.901632  0.249289  1
  Al  Al15  1  0.500000  0.098368  0.750711  1
  Al  Al16  1  0.000000  0.546758  0.317564  1
  Al  Al17  1  0.000000  0.453242  0.682436  1
  Al  Al18  1  0.000000  0.046758  0.182436  1
  Al  Al19  1  0.000000  0.953242  0.817564  1
  Al  Al20  1  0.000000  0.337643  0.376053  1
  Al  Al21  1  0.000000  0.662357  0.623946  1
  Al  Al22  1  0.000000  0.837643  0.123947  1
  Al  Al23  1  0.000000  0.162357  0.876054  1
  Al  Al24  1  0.000000  0.168458  0.488471  1
  Al  Al25  1  0.000000  0.831542  0.511529  1
  Al  Al26  1  0.000000  0.668458  0.011529  1
  Al  Al27  1  0.000000  0.331542  0.988471  1
  Al  Al28  1  0.000000  0.761344  0.325620  1
  Al  Al29  1  0.000000  0.238656  0.674380  1
  Al  Al30  1  0.000000  0.261344  0.174380  1
  Al  Al31  1  0.000000  0.738656  0.825620  1
  Al  Al32  1  0.000000  0.976023  0.368421  1
  Al  Al33  1  0.000000  0.023977  0.631579  1
  Al  Al34  1  0.000000  0.476023  0.131579  1
  Al  Al35  1  0.000000  0.523977  0.868421  1
  Rh  Rh36  1  0.500000  0.845063  0.406105  1
  Rh  Rh37  1  0.500000  0.154937  0.593895  1
  Rh  Rh38  1  0.500000  0.345063  0.093895  1
  Rh  Rh39  1  0.500000  0.654937  0.906105  1
  Rh  Rh40  1  0.500000  0.464205  0.403187  1
  Rh  Rh41  1  0.500000  0.535795  0.596813  1
  Rh  Rh42  1  0.500000  0.964205  0.096813  1
  Rh  Rh43  1  0.500000  0.035795  0.903187  1
