# generated using pymatgen
data_Be7Co4Ge(Mo6C)2
_symmetry_space_group_name_H-M   'P 1'
_cell_length_a   7.58445910
_cell_length_b   7.58445946
_cell_length_c   7.58379501
_cell_angle_alpha   59.99710282
_cell_angle_beta   59.99710254
_cell_angle_gamma   59.99999643
_symmetry_Int_Tables_number   1
_chemical_formula_structural   Be7Co4Ge(Mo6C)2
_chemical_formula_sum   'Be7 Co4 Ge1 Mo12 C2'
_cell_volume   308.46209508
_cell_formula_units_Z   1
loop_
 _symmetry_equiv_pos_site_id
 _symmetry_equiv_pos_as_xyz
  1  'x, y, z'
loop_
 _atom_site_type_symbol
 _atom_site_label
 _atom_site_symmetry_multiplicity
 _atom_site_fract_x
 _atom_site_fract_y
 _atom_site_fract_z
 _atom_site_occupancy
  Be  Be0  1  0.421585  0.741078  0.415752  1
  Be  Be1  1  0.741078  0.421585  0.415752  1
  Be  Be2  1  0.421585  0.421585  0.415752  1
  Be  Be3  1  0.828170  0.828170  0.515489  1
  Be  Be4  1  0.828045  0.515904  0.828005  1
  Be  Be5  1  0.515904  0.828045  0.828005  1
  Be  Be6  1  0.828045  0.828045  0.828005  1
  Co  Co7  1  0.624926  0.624926  0.125222  1
  Co  Co8  1  0.629508  0.119727  0.621256  1
  Co  Co9  1  0.119727  0.629508  0.621256  1
  Co  Co10  1  0.629508  0.629508  0.621256  1
  Ge  Ge11  1  0.421165  0.421165  0.736504  1
  Mo  Mo12  1  0.049049  0.049049  0.451217  1
  Mo  Mo13  1  0.450686  0.049049  0.451217  1
  Mo  Mo14  1  0.049049  0.450686  0.451217  1
  Mo  Mo15  1  0.450846  0.450846  0.055900  1
  Mo  Mo16  1  0.042408  0.450846  0.055900  1
  Mo  Mo17  1  0.450846  0.042408  0.055900  1
  Mo  Mo18  1  0.197409  0.197409  0.799593  1
  Mo  Mo19  1  0.805589  0.197409  0.799593  1
  Mo  Mo20  1  0.197409  0.805589  0.799593  1
  Mo  Mo21  1  0.799155  0.799155  0.200905  1
  Mo  Mo22  1  0.200786  0.799155  0.200905  1
  Mo  Mo23  1  0.799155  0.200786  0.200905  1
  C  C24  1  0.249291  0.249291  0.252127  1
  C  C25  1  0.999075  0.999075  0.002775  1
