# generated using pymatgen
data_Sr3CrCoO6
_symmetry_space_group_name_H-M   'P 1'
_cell_length_a   6.60709736
_cell_length_b   6.60538607
_cell_length_c   6.60432094
_cell_angle_alpha   93.36320355
_cell_angle_beta   93.32036835
_cell_angle_gamma   93.31938596
_symmetry_Int_Tables_number   1
_chemical_formula_structural   Sr3CrCoO6
_chemical_formula_sum   'Sr6 Cr2 Co2 O12'
_cell_volume   286.70528238
_cell_formula_units_Z   2
loop_
 _symmetry_equiv_pos_site_id
 _symmetry_equiv_pos_as_xyz
  1  'x, y, z'
loop_
 _atom_site_type_symbol
 _atom_site_label
 _atom_site_symmetry_multiplicity
 _atom_site_fract_x
 _atom_site_fract_y
 _atom_site_fract_z
 _atom_site_occupancy
  Sr  Sr0  1  0.619433  0.880647  0.250012  1
  Sr  Sr1  1  0.880626  0.250011  0.619444  1
  Sr  Sr2  1  0.250024  0.619477  0.880609  1
  Sr  Sr3  1  0.119414  0.750063  0.380614  1
  Sr  Sr4  1  0.750032  0.380622  0.119455  1
  Sr  Sr5  1  0.380606  0.119440  0.750046  1
  Cr  Cr6  1  0.249780  0.249992  0.249818  1
  Cr  Cr7  1  0.750159  0.749651  0.750094  1
  Co  Co8  1  0.499962  0.500007  0.499989  1
  Co  Co9  1  0.999957  0.000013  0.999985  1
  O  O10  1  0.526868  0.215670  0.409660  1
  O  O11  1  0.215715  0.409720  0.526838  1
  O  O12  1  0.409666  0.526798  0.215656  1
  O  O13  1  0.026805  0.909654  0.715633  1
  O  O14  1  0.909663  0.715715  0.026786  1
  O  O15  1  0.715745  0.026814  0.909706  1
  O  O16  1  0.473163  0.784334  0.590364  1
  O  O17  1  0.784280  0.590301  0.473119  1
  O  O18  1  0.590323  0.473219  0.784343  1
  O  O19  1  0.973191  0.090379  0.284345  1
  O  O20  1  0.090324  0.284301  0.973206  1
  O  O21  1  0.284262  0.973173  0.090276  1
