# generated using pymatgen
data_YLu2(Co3P2)3
_symmetry_space_group_name_H-M   'P 1'
_cell_length_a   3.66578600
_cell_length_b   10.46777100
_cell_length_c   12.10365800
_cell_angle_alpha   90.00000000
_cell_angle_beta   90.00000000
_cell_angle_gamma   90.00000000
_symmetry_Int_Tables_number   1
_chemical_formula_structural   YLu2(Co3P2)3
_chemical_formula_sum   'Y2 Lu4 Co18 P12'
_cell_volume   464.44892844
_cell_formula_units_Z   2
loop_
 _symmetry_equiv_pos_site_id
 _symmetry_equiv_pos_as_xyz
  1  'x, y, z'
loop_
 _atom_site_type_symbol
 _atom_site_label
 _atom_site_symmetry_multiplicity
 _atom_site_fract_x
 _atom_site_fract_y
 _atom_site_fract_z
 _atom_site_occupancy
  Y  Y0  1  0.000000  0.500000  0.522578  1
  Y  Y1  1  0.500000  0.000000  0.477422  1
  Lu  Lu2  1  0.500000  0.818212  0.205724  1
  Lu  Lu3  1  0.500000  0.181788  0.205724  1
  Lu  Lu4  1  0.000000  0.681788  0.794276  1
  Lu  Lu5  1  0.000000  0.318212  0.794276  1
  Co  Co6  1  0.500000  0.500000  0.158640  1
  Co  Co7  1  0.000000  0.000000  0.841360  1
  Co  Co8  1  0.500000  0.500000  0.705130  1
  Co  Co9  1  0.000000  0.000000  0.294870  1
  Co  Co10  1  0.000000  0.500000  0.986211  1
  Co  Co11  1  0.500000  0.000000  0.013789  1
  Co  Co12  1  0.500000  0.333015  0.994520  1
  Co  Co13  1  0.500000  0.666985  0.994520  1
  Co  Co14  1  0.000000  0.166985  0.005480  1
  Co  Co15  1  0.000000  0.833015  0.005480  1
  Co  Co16  1  0.500000  0.297108  0.430109  1
  Co  Co17  1  0.500000  0.702892  0.430109  1
  Co  Co18  1  0.000000  0.202892  0.569891  1
  Co  Co19  1  0.000000  0.797108  0.569891  1
  Co  Co20  1  0.500000  0.878199  0.710533  1
  Co  Co21  1  0.500000  0.121801  0.710533  1
  Co  Co22  1  0.000000  0.621801  0.289467  1
  Co  Co23  1  0.000000  0.378199  0.289467  1
  P  P24  1  0.500000  0.500000  0.882379  1
  P  P25  1  0.000000  0.000000  0.117621  1
  P  P26  1  0.500000  0.500000  0.343697  1
  P  P27  1  0.000000  0.000000  0.656303  1
  P  P28  1  0.500000  0.311124  0.617727  1
  P  P29  1  0.500000  0.688876  0.617727  1
  P  P30  1  0.000000  0.188876  0.382273  1
  P  P31  1  0.000000  0.811124  0.382273  1
  P  P32  1  0.500000  0.846379  0.892180  1
  P  P33  1  0.500000  0.153621  0.892180  1
  P  P34  1  0.000000  0.653621  0.107820  1
  P  P35  1  0.000000  0.346379  0.107820  1
