# generated using pymatgen
data_Pr12Pt3AuI12
_symmetry_space_group_name_H-M   'P 1'
_cell_length_a   11.04044485
_cell_length_b   11.04044542
_cell_length_c   10.92096900
_cell_angle_alpha   109.25215166
_cell_angle_beta   109.25215270
_cell_angle_gamma   109.68939630
_symmetry_Int_Tables_number   1
_chemical_formula_structural   Pr12Pt3AuI12
_chemical_formula_sum   'Pr12 Pt3 Au1 I12'
_cell_volume   1027.49444333
_cell_formula_units_Z   1
loop_
 _symmetry_equiv_pos_site_id
 _symmetry_equiv_pos_as_xyz
  1  'x, y, z'
loop_
 _atom_site_type_symbol
 _atom_site_label
 _atom_site_symmetry_multiplicity
 _atom_site_fract_x
 _atom_site_fract_y
 _atom_site_fract_z
 _atom_site_occupancy
  Pr  Pr0  1  0.041432  0.270716  0.020716  1
  Pr  Pr1  1  0.757467  0.023073  0.484935  1
  Pr  Pr2  1  0.265606  0.742533  0.227468  1
  Pr  Pr3  1  0.476927  0.742533  0.015065  1
  Pr  Pr4  1  0.757467  0.234394  0.272532  1
  Pr  Pr5  1  0.020274  0.479726  0.750000  1
  Pr  Pr6  1  0.229284  0.270716  0.750000  1
  Pr  Pr7  1  0.476927  0.234394  0.461863  1
  Pr  Pr8  1  0.459452  0.479726  0.229726  1
  Pr  Pr9  1  0.265606  0.023073  0.038137  1
  Pr  Pr10  1  0.020274  0.040548  0.270274  1
  Pr  Pr11  1  0.229284  0.458568  0.479284  1
  Pt  Pt12  1  0.249775  0.499550  0.999775  1
  Pt  Pt13  1  0.249775  0.250225  0.250000  1
  Pt  Pt14  1  0.000450  0.250225  0.500225  1
  Au  Au15  1  0.500000  0.000000  0.250000  1
  I  I16  1  0.757408  0.742592  0.250000  1
  I  I17  1  0.991481  0.508519  0.250000  1
  I  I18  1  0.250298  0.758043  0.742992  1
  I  I19  1  0.757408  0.514816  0.507408  1
  I  I20  1  0.507744  0.249702  0.992693  1
  I  I21  1  0.741957  0.992256  0.984948  1
  I  I22  1  0.991481  0.982962  0.741481  1
  I  I23  1  0.517038  0.508519  0.758519  1
  I  I24  1  0.250298  0.992256  0.507307  1
  I  I25  1  0.741957  0.249702  0.757008  1
  I  I26  1  0.507744  0.758043  0.515052  1
  I  I27  1  0.985184  0.742592  0.992592  1
