# generated using pymatgen
data_LiZr3(Co5P3)4
_symmetry_space_group_name_H-M   'P 1'
_cell_length_a   3.58626400
_cell_length_b   10.14631417
_cell_length_c   11.60765594
_cell_angle_alpha   89.73973211
_cell_angle_beta   90.00000000
_cell_angle_gamma   90.00000000
_symmetry_Int_Tables_number   1
_chemical_formula_structural   LiZr3(Co5P3)4
_chemical_formula_sum   'Li1 Zr3 Co20 P12'
_cell_volume   422.36761214
_cell_formula_units_Z   1
loop_
 _symmetry_equiv_pos_site_id
 _symmetry_equiv_pos_as_xyz
  1  'x, y, z'
loop_
 _atom_site_type_symbol
 _atom_site_label
 _atom_site_symmetry_multiplicity
 _atom_site_fract_x
 _atom_site_fract_y
 _atom_site_fract_z
 _atom_site_occupancy
  Li  Li0  1  0.250000  0.580145  0.702277  1
  Zr  Zr1  1  0.250000  0.918516  0.203196  1
  Zr  Zr2  1  0.750000  0.419178  0.296296  1
  Zr  Zr3  1  0.750000  0.081950  0.797653  1
  Co  Co4  1  0.250000  0.719427  0.994030  1
  Co  Co5  1  0.250000  0.781538  0.494632  1
  Co  Co6  1  0.750000  0.280845  0.007843  1
  Co  Co7  1  0.750000  0.219404  0.507534  1
  Co  Co8  1  0.250000  0.407026  0.486088  1
  Co  Co9  1  0.250000  0.092402  0.986275  1
  Co  Co10  1  0.750000  0.590558  0.513343  1
  Co  Co11  1  0.750000  0.910691  0.014480  1
  Co  Co12  1  0.250000  0.223718  0.178211  1
  Co  Co13  1  0.250000  0.276409  0.676220  1
  Co  Co14  1  0.750000  0.780709  0.824647  1
  Co  Co15  1  0.750000  0.723086  0.320982  1
  Co  Co16  1  0.250000  0.882516  0.700545  1
  Co  Co17  1  0.250000  0.616139  0.199882  1
  Co  Co18  1  0.750000  0.117055  0.300261  1
  Co  Co19  1  0.750000  0.381196  0.799429  1
  Co  Co20  1  0.250000  0.469701  0.928086  1
  Co  Co21  1  0.250000  0.032242  0.430871  1
  Co  Co22  1  0.750000  0.533957  0.066605  1
  Co  Co23  1  0.750000  0.963727  0.570617  1
  P  P24  1  0.250000  0.419554  0.111319  1
  P  P25  1  0.250000  0.079626  0.614370  1
  P  P26  1  0.750000  0.581127  0.879476  1
  P  P27  1  0.750000  0.917865  0.387112  1
  P  P28  1  0.250000  0.269057  0.868977  1
  P  P29  1  0.250000  0.233537  0.370853  1
  P  P30  1  0.750000  0.733089  0.129215  1
  P  P31  1  0.750000  0.759068  0.634374  1
  P  P32  1  0.250000  0.600071  0.391330  1
  P  P33  1  0.250000  0.900008  0.889754  1
  P  P34  1  0.750000  0.404133  0.612161  1
  P  P35  1  0.750000  0.100732  0.111056  1
