# generated using pymatgen
data_Ba(ClF4)2
_symmetry_space_group_name_H-M   'P 1'
_cell_length_a   7.88843616
_cell_length_b   7.88843639
_cell_length_c   7.88843612
_cell_angle_alpha   105.02766866
_cell_angle_beta   105.02766944
_cell_angle_gamma   118.77877992
_symmetry_Int_Tables_number   1
_chemical_formula_structural   Ba(ClF4)2
_chemical_formula_sum   'Ba2 Cl4 F16'
_cell_volume   370.29060134
_cell_formula_units_Z   2
loop_
 _symmetry_equiv_pos_site_id
 _symmetry_equiv_pos_as_xyz
  1  'x, y, z'
loop_
 _atom_site_type_symbol
 _atom_site_label
 _atom_site_symmetry_multiplicity
 _atom_site_fract_x
 _atom_site_fract_y
 _atom_site_fract_z
 _atom_site_occupancy
  Ba  Ba0  1  0.000000  0.000000  0.000000  1
  Ba  Ba1  1  0.250000  0.750000  0.500000  1
  Cl  Cl2  1  0.143773  0.524093  0.933632  1
  Cl  Cl3  1  0.590460  0.210141  0.066368  1
  Cl  Cl4  1  0.789859  0.856227  0.380319  1
  Cl  Cl5  1  0.475907  0.409540  0.619681  1
  F  F6  1  0.084005  0.550682  0.710963  1
  F  F7  1  0.839718  0.373041  0.289037  1
  F  F8  1  0.626959  0.915995  0.466678  1
  F  F9  1  0.449318  0.160282  0.533322  1
  F  F10  1  0.708122  0.901475  0.171452  1
  F  F11  1  0.730023  0.536671  0.828548  1
  F  F12  1  0.463329  0.291878  0.193352  1
  F  F13  1  0.098525  0.269977  0.806648  1
  F  F14  1  0.198052  0.482614  0.160016  1
  F  F15  1  0.322597  0.038036  0.839984  1
  F  F16  1  0.961964  0.801948  0.284562  1
  F  F17  1  0.517386  0.677403  0.715438  1
  F  F18  1  0.708789  0.118079  0.920258  1
  F  F19  1  0.197821  0.788531  0.079742  1
  F  F20  1  0.211469  0.291211  0.409290  1
  F  F21  1  0.881921  0.802179  0.590710  1
