# generated using pymatgen
data_Ti5V(AsC)2
_symmetry_space_group_name_H-M   'P 1'
_cell_length_a   5.47571893
_cell_length_b   5.47571845
_cell_length_c   7.98811400
_cell_angle_alpha   90.00000000
_cell_angle_beta   90.00000000
_cell_angle_gamma   145.58586851
_symmetry_Int_Tables_number   1
_chemical_formula_structural   Ti5V(AsC)2
_chemical_formula_sum   'Ti5 V1 As2 C2'
_cell_volume   135.36487635
_cell_formula_units_Z   1
loop_
 _symmetry_equiv_pos_site_id
 _symmetry_equiv_pos_as_xyz
  1  'x, y, z'
loop_
 _atom_site_type_symbol
 _atom_site_label
 _atom_site_symmetry_multiplicity
 _atom_site_fract_x
 _atom_site_fract_y
 _atom_site_fract_z
 _atom_site_occupancy
  Ti  Ti0  1  0.871813  0.128187  0.557565  1
  Ti  Ti1  1  0.446695  0.553305  0.250000  1
  Ti  Ti2  1  0.871813  0.128187  0.942435  1
  Ti  Ti3  1  0.129344  0.870656  0.050289  1
  Ti  Ti4  1  0.129344  0.870656  0.449711  1
  V  V5  1  0.556630  0.443370  0.750000  1
  As  As6  1  0.755340  0.244660  0.250000  1
  As  As7  1  0.238567  0.761433  0.750000  1
  C  C8  1  0.500227  0.499773  0.505258  1
  C  C9  1  0.500227  0.499773  0.994742  1
