# generated using pymatgen
data_Li2P4RuO13
_symmetry_space_group_name_H-M   'P 1'
_cell_length_a   5.18595536
_cell_length_b   8.01107892
_cell_length_c   13.32694700
_cell_angle_alpha   94.42274524
_cell_angle_beta   94.62346468
_cell_angle_gamma   99.76724592
_symmetry_Int_Tables_number   1
_chemical_formula_structural   Li2P4RuO13
_chemical_formula_sum   'Li4 P8 Ru2 O26'
_cell_volume   541.54036845
_cell_formula_units_Z   2
loop_
 _symmetry_equiv_pos_site_id
 _symmetry_equiv_pos_as_xyz
  1  'x, y, z'
loop_
 _atom_site_type_symbol
 _atom_site_label
 _atom_site_symmetry_multiplicity
 _atom_site_fract_x
 _atom_site_fract_y
 _atom_site_fract_z
 _atom_site_occupancy
  Li  Li0  1  0.002531  0.334787  0.014005  1
  Li  Li1  1  0.239584  0.467564  0.491533  1
  Li  Li2  1  0.760416  0.532436  0.508467  1
  Li  Li3  1  0.997469  0.665213  0.985995  1
  P  P4  1  0.155183  0.088429  0.158978  1
  P  P5  1  0.520812  0.298648  0.314540  1
  P  P6  1  0.844817  0.911571  0.841022  1
  P  P7  1  0.479188  0.701352  0.685460  1
  P  P8  1  0.115061  0.755862  0.365713  1
  P  P9  1  0.884939  0.244138  0.634287  1
  P  P10  1  0.205067  0.437504  0.812941  1
  P  P11  1  0.794933  0.562496  0.187059  1
  Ru  Ru12  1  0.364513  0.077714  0.733485  1
  Ru  Ru13  1  0.635487  0.922286  0.266515  1
  O  O14  1  0.872003  0.518880  0.084010  1
  O  O15  1  0.236261  0.225668  0.259688  1
  O  O16  1  0.681678  0.054514  0.827951  1
  O  O17  1  0.763739  0.774332  0.740312  1
  O  O18  1  0.809188  0.819034  0.933042  1
  O  O19  1  0.587261  0.173690  0.630943  1
  O  O20  1  0.503097  0.574770  0.600335  1
  O  O21  1  0.054589  0.632295  0.259979  1
  O  O22  1  0.859762  0.017967  0.166345  1
  O  O23  1  0.401393  0.316706  0.805137  1
  O  O24  1  0.318322  0.945486  0.172049  1
  O  O25  1  0.054878  0.647141  0.450276  1
  O  O26  1  0.323330  0.615181  0.773287  1
  O  O27  1  0.334726  0.845058  0.658249  1
  O  O28  1  0.955554  0.900910  0.357393  1
  O  O29  1  0.044446  0.099090  0.642607  1
  O  O30  1  0.190812  0.180966  0.066958  1
  O  O31  1  0.676670  0.384819  0.226713  1
  O  O32  1  0.945122  0.352859  0.549724  1
  O  O33  1  0.127997  0.481120  0.915990  1
  O  O34  1  0.598607  0.683294  0.194863  1
  O  O35  1  0.140238  0.982033  0.833655  1
  O  O36  1  0.945411  0.367705  0.740021  1
  O  O37  1  0.496903  0.425230  0.399665  1
  O  O38  1  0.412739  0.826310  0.369057  1
  O  O39  1  0.665274  0.154942  0.341751  1
