# generated using pymatgen
data_La8Ti2Al3Ga3Rh8
_symmetry_space_group_name_H-M   'P 1'
_cell_length_a   4.33248200
_cell_length_b   7.20115599
_cell_length_c   16.41585655
_cell_angle_alpha   89.86282059
_cell_angle_beta   90.00000000
_cell_angle_gamma   90.00000000
_symmetry_Int_Tables_number   1
_chemical_formula_structural   La8Ti2Al3Ga3Rh8
_chemical_formula_sum   'La8 Ti2 Al3 Ga3 Rh8'
_cell_volume   512.15484958
_cell_formula_units_Z   1
loop_
 _symmetry_equiv_pos_site_id
 _symmetry_equiv_pos_as_xyz
  1  'x, y, z'
loop_
 _atom_site_type_symbol
 _atom_site_label
 _atom_site_symmetry_multiplicity
 _atom_site_fract_x
 _atom_site_fract_y
 _atom_site_fract_z
 _atom_site_occupancy
  La  La0  1  0.250000  0.522502  0.773580  1
  La  La1  1  0.750000  0.481937  0.220912  1
  La  La2  1  0.750000  0.976358  0.280408  1
  La  La3  1  0.250000  0.022612  0.726481  1
  La  La4  1  0.250000  0.642738  0.557712  1
  La  La5  1  0.750000  0.344774  0.436053  1
  La  La6  1  0.750000  0.844380  0.062235  1
  La  La7  1  0.250000  0.142506  0.941779  1
  Ti  Ti8  1  0.750000  0.494327  0.938369  1
  Ti  Ti9  1  0.750000  0.995441  0.562382  1
  Al  Al10  1  0.250000  0.155455  0.147252  1
  Al  Al11  1  0.250000  0.503363  0.062814  1
  Al  Al12  1  0.250000  0.003706  0.437413  1
  Ga  Ga13  1  0.250000  0.652903  0.353541  1
  Ga  Ga14  1  0.750000  0.347227  0.646639  1
  Ga  Ga15  1  0.750000  0.847125  0.852937  1
  Rh  Rh16  1  0.250000  0.779264  0.178765  1
  Rh  Rh17  1  0.750000  0.244466  0.825281  1
  Rh  Rh18  1  0.750000  0.744291  0.675167  1
  Rh  Rh19  1  0.250000  0.270937  0.317854  1
  Rh  Rh20  1  0.250000  0.697176  0.927487  1
  Rh  Rh21  1  0.750000  0.292270  0.071577  1
  Rh  Rh22  1  0.750000  0.794950  0.431430  1
  Rh  Rh23  1  0.250000  0.199290  0.571931  1
