# generated using pymatgen
data_Cr2Ge(O2F)2
_symmetry_space_group_name_H-M   'P 1'
_cell_length_a   4.94031700
_cell_length_b   8.99394500
_cell_length_c   9.41952100
_cell_angle_alpha   90.00000000
_cell_angle_beta   90.00000000
_cell_angle_gamma   90.00000000
_symmetry_Int_Tables_number   1
_chemical_formula_structural   Cr2Ge(O2F)2
_chemical_formula_sum   'Cr8 Ge4 O16 F8'
_cell_volume   418.53700559
_cell_formula_units_Z   4
loop_
 _symmetry_equiv_pos_site_id
 _symmetry_equiv_pos_as_xyz
  1  'x, y, z'
loop_
 _atom_site_type_symbol
 _atom_site_label
 _atom_site_symmetry_multiplicity
 _atom_site_fract_x
 _atom_site_fract_y
 _atom_site_fract_z
 _atom_site_occupancy
  Cr  Cr0  1  0.403167  0.917018  0.130581  1
  Cr  Cr1  1  0.596833  0.082982  0.869419  1
  Cr  Cr2  1  0.903167  0.417018  0.369419  1
  Cr  Cr3  1  0.096833  0.582982  0.630581  1
  Cr  Cr4  1  0.403167  0.582982  0.130581  1
  Cr  Cr5  1  0.903167  0.082982  0.369419  1
  Cr  Cr6  1  0.096833  0.917018  0.630581  1
  Cr  Cr7  1  0.596833  0.417018  0.869419  1
  Ge  Ge8  1  0.602872  0.750000  0.439037  1
  Ge  Ge9  1  0.897128  0.750000  0.939037  1
  Ge  Ge10  1  0.102872  0.250000  0.060963  1
  Ge  Ge11  1  0.397128  0.250000  0.560963  1
  O  O12  1  0.715728  0.912331  0.992917  1
  O  O13  1  0.784272  0.912331  0.492917  1
  O  O14  1  0.784272  0.587669  0.492917  1
  O  O15  1  0.216678  0.750000  0.027728  1
  O  O16  1  0.284272  0.087669  0.007083  1
  O  O17  1  0.284272  0.412331  0.007083  1
  O  O18  1  0.950905  0.750000  0.750808  1
  O  O19  1  0.283322  0.750000  0.527728  1
  O  O20  1  0.215728  0.087669  0.507083  1
  O  O21  1  0.549095  0.750000  0.250808  1
  O  O22  1  0.783322  0.250000  0.972272  1
  O  O23  1  0.215728  0.412331  0.507083  1
  O  O24  1  0.715728  0.587669  0.992917  1
  O  O25  1  0.716678  0.250000  0.472272  1
  O  O26  1  0.049095  0.250000  0.249192  1
  O  O27  1  0.450905  0.250000  0.749192  1
  F  F28  1  0.086710  0.935102  0.252361  1
  F  F29  1  0.086710  0.564898  0.252361  1
  F  F30  1  0.913290  0.435102  0.747639  1
  F  F31  1  0.413290  0.935102  0.752361  1
  F  F32  1  0.586710  0.064898  0.247639  1
  F  F33  1  0.586710  0.435102  0.247639  1
  F  F34  1  0.413290  0.564898  0.752361  1
  F  F35  1  0.913290  0.064898  0.747639  1
