# generated using pymatgen
data_Rb2Cd(PS3)2
_symmetry_space_group_name_H-M   'P 1'
_cell_length_a   12.54283000
_cell_length_b   6.40320857
_cell_length_c   9.47363096
_cell_angle_alpha   55.30564816
_cell_angle_beta   90.00000000
_cell_angle_gamma   90.00000000
_symmetry_Int_Tables_number   1
_chemical_formula_structural   Rb2Cd(PS3)2
_chemical_formula_sum   'Rb4 Cd2 P4 S12'
_cell_volume   625.58626049
_cell_formula_units_Z   2
loop_
 _symmetry_equiv_pos_site_id
 _symmetry_equiv_pos_as_xyz
  1  'x, y, z'
loop_
 _atom_site_type_symbol
 _atom_site_label
 _atom_site_symmetry_multiplicity
 _atom_site_fract_x
 _atom_site_fract_y
 _atom_site_fract_z
 _atom_site_occupancy
  Rb  Rb0  1  0.326818  0.205820  0.524822  1
  Rb  Rb1  1  0.673182  0.794180  0.475178  1
  Rb  Rb2  1  0.826818  0.794180  0.975178  1
  Rb  Rb3  1  0.173182  0.205820  0.024822  1
  Cd  Cd4  1  0.500000  0.500000  0.000000  1
  Cd  Cd5  1  0.000000  0.500000  0.500000  1
  P  P6  1  0.459739  0.847195  0.125251  1
  P  P7  1  0.040261  0.847195  0.625251  1
  P  P8  1  0.959739  0.152805  0.374749  1
  P  P9  1  0.540261  0.152805  0.874749  1
  S  S10  1  0.076428  0.023763  0.742044  1
  S  S11  1  0.669013  0.269464  0.943803  1
  S  S12  1  0.068092  0.439858  0.247386  1
  S  S13  1  0.923572  0.976237  0.257956  1
  S  S14  1  0.423572  0.023763  0.242044  1
  S  S15  1  0.330987  0.730536  0.056197  1
  S  S16  1  0.431908  0.439858  0.747386  1
  S  S17  1  0.568092  0.560142  0.252614  1
  S  S18  1  0.576428  0.976237  0.757956  1
  S  S19  1  0.169013  0.730536  0.556197  1
  S  S20  1  0.931908  0.560142  0.752614  1
  S  S21  1  0.830987  0.269464  0.443803  1
