# generated using pymatgen
data_LiNd17(ErIr6)2
_symmetry_space_group_name_H-M   'P 1'
_cell_length_a   11.21631000
_cell_length_b   11.21631000
_cell_length_c   6.46387700
_cell_angle_alpha   90.00000000
_cell_angle_beta   90.00000000
_cell_angle_gamma   90.00000000
_symmetry_Int_Tables_number   1
_chemical_formula_structural   LiNd17(ErIr6)2
_chemical_formula_sum   'Li1 Nd17 Er2 Ir12'
_cell_volume   813.19198905
_cell_formula_units_Z   1
loop_
 _symmetry_equiv_pos_site_id
 _symmetry_equiv_pos_as_xyz
  1  'x, y, z'
loop_
 _atom_site_type_symbol
 _atom_site_label
 _atom_site_symmetry_multiplicity
 _atom_site_fract_x
 _atom_site_fract_y
 _atom_site_fract_z
 _atom_site_occupancy
  Li  Li0  1  0.000000  0.000000  0.000000  1
  Nd  Nd1  1  0.083887  0.278050  0.114944  1
  Nd  Nd2  1  0.790034  0.414617  0.117974  1
  Nd  Nd3  1  0.209966  0.585383  0.117974  1
  Nd  Nd4  1  0.916113  0.721950  0.114944  1
  Nd  Nd5  1  0.409835  0.789339  0.384468  1
  Nd  Nd6  1  0.590165  0.210661  0.384468  1
  Nd  Nd7  1  0.292050  0.088620  0.383528  1
  Nd  Nd8  1  0.707950  0.911380  0.383528  1
  Nd  Nd9  1  0.414617  0.209966  0.882026  1
  Nd  Nd10  1  0.721950  0.083887  0.885056  1
  Nd  Nd11  1  0.278050  0.916113  0.885056  1
  Nd  Nd12  1  0.585383  0.790034  0.882026  1
  Nd  Nd13  1  0.088620  0.707950  0.616472  1
  Nd  Nd14  1  0.911380  0.292050  0.616472  1
  Nd  Nd15  1  0.210661  0.409835  0.615532  1
  Nd  Nd16  1  0.789339  0.590165  0.615532  1
  Nd  Nd17  1  0.000000  0.000000  0.500000  1
  Er  Er18  1  0.500000  0.500000  0.000000  1
  Er  Er19  1  0.500000  0.500000  0.500000  1
  Ir  Ir20  1  0.155924  0.845760  0.256849  1
  Ir  Ir21  1  0.351895  0.351653  0.247327  1
  Ir  Ir22  1  0.648105  0.648347  0.247327  1
  Ir  Ir23  1  0.844076  0.154240  0.256849  1
  Ir  Ir24  1  0.351653  0.648105  0.752673  1
  Ir  Ir25  1  0.154240  0.155924  0.743151  1
  Ir  Ir26  1  0.845760  0.844076  0.743151  1
  Ir  Ir27  1  0.648347  0.351895  0.752673  1
  Ir  Ir28  1  0.000000  0.500000  0.377355  1
  Ir  Ir29  1  0.500000  0.000000  0.114127  1
  Ir  Ir30  1  0.500000  0.000000  0.622645  1
  Ir  Ir31  1  0.000000  0.500000  0.885873  1
