# generated using pymatgen
data_Ho4Tm4Re3B24Ru
_symmetry_space_group_name_H-M   'P 1'
_cell_length_a   3.64832100
_cell_length_b   9.11316361
_cell_length_c   11.49457100
_cell_angle_alpha   89.90144965
_cell_angle_beta   90.00000000
_cell_angle_gamma   90.00000000
_symmetry_Int_Tables_number   1
_chemical_formula_structural   Ho4Tm4Re3B24Ru
_chemical_formula_sum   'Ho4 Tm4 Re3 B24 Ru1'
_cell_volume   382.16801377
_cell_formula_units_Z   1
loop_
 _symmetry_equiv_pos_site_id
 _symmetry_equiv_pos_as_xyz
  1  'x, y, z'
loop_
 _atom_site_type_symbol
 _atom_site_label
 _atom_site_symmetry_multiplicity
 _atom_site_fract_x
 _atom_site_fract_y
 _atom_site_fract_z
 _atom_site_occupancy
  Ho  Ho0  1  0.000000  0.322817  0.413598  1
  Ho  Ho1  1  0.000000  0.675608  0.584317  1
  Ho  Ho2  1  0.000000  0.822331  0.087688  1
  Ho  Ho3  1  0.000000  0.178532  0.914105  1
  Tm  Tm4  1  0.000000  0.943134  0.371170  1
  Tm  Tm5  1  0.000000  0.056781  0.630219  1
  Tm  Tm6  1  0.000000  0.443689  0.129067  1
  Tm  Tm7  1  0.000000  0.558153  0.869965  1
  Re  Re8  1  0.000000  0.638425  0.320500  1
  Re  Re9  1  0.000000  0.361503  0.679976  1
  Re  Re10  1  0.000000  0.138059  0.178537  1
  B  B11  1  0.500000  0.552872  0.432883  1
  B  B12  1  0.500000  0.446715  0.566809  1
  B  B13  1  0.500000  0.052889  0.066690  1
  B  B14  1  0.500000  0.946079  0.932676  1
  B  B15  1  0.500000  0.749350  0.418975  1
  B  B16  1  0.500000  0.249850  0.581267  1
  B  B17  1  0.500000  0.250104  0.080911  1
  B  B18  1  0.500000  0.750996  0.918594  1
  B  B19  1  0.500000  0.792517  0.265837  1
  B  B20  1  0.500000  0.207677  0.735063  1
  B  B21  1  0.500000  0.292436  0.234213  1
  B  B22  1  0.500000  0.708782  0.765449  1
  B  B23  1  0.500000  0.630796  0.185106  1
  B  B24  1  0.500000  0.369550  0.815355  1
  B  B25  1  0.500000  0.130145  0.314509  1
  B  B26  1  0.500000  0.868997  0.685419  1
  B  B27  1  0.500000  0.981249  0.212363  1
  B  B28  1  0.500000  0.016978  0.787925  1
  B  B29  1  0.500000  0.481683  0.287277  1
  B  B30  1  0.500000  0.518320  0.712217  1
  B  B31  1  0.500000  0.601767  0.027842  1
  B  B32  1  0.500000  0.400432  0.971720  1
  B  B33  1  0.500000  0.100471  0.472458  1
  B  B34  1  0.500000  0.898850  0.528678  1
  Ru  Ru35  1  0.000000  0.861461  0.820625  1
