# generated using pymatgen
data_DyEr7Tc2(OsC4)2
_symmetry_space_group_name_H-M   'P 1'
_cell_length_a   5.05842300
_cell_length_b   6.49389409
_cell_length_c   9.75246453
_cell_angle_alpha   89.59280857
_cell_angle_beta   90.00000000
_cell_angle_gamma   90.00000000
_symmetry_Int_Tables_number   1
_chemical_formula_structural   DyEr7Tc2(OsC4)2
_chemical_formula_sum   'Dy1 Er7 Tc2 Os2 C8'
_cell_volume   320.34928335
_cell_formula_units_Z   1
loop_
 _symmetry_equiv_pos_site_id
 _symmetry_equiv_pos_as_xyz
  1  'x, y, z'
loop_
 _atom_site_type_symbol
 _atom_site_label
 _atom_site_symmetry_multiplicity
 _atom_site_fract_x
 _atom_site_fract_y
 _atom_site_fract_z
 _atom_site_occupancy
  Dy  Dy0  1  0.250000  0.028958  0.285574  1
  Er  Er1  1  0.250000  0.678783  0.556101  1
  Er  Er2  1  0.750000  0.321453  0.444214  1
  Er  Er3  1  0.750000  0.822125  0.055984  1
  Er  Er4  1  0.250000  0.177662  0.943682  1
  Er  Er5  1  0.250000  0.530791  0.216629  1
  Er  Er6  1  0.750000  0.468991  0.783142  1
  Er  Er7  1  0.750000  0.970962  0.714894  1
  Tc  Tc8  1  0.250000  0.721240  0.866001  1
  Tc  Tc9  1  0.750000  0.278671  0.133630  1
  Os  Os10  1  0.750000  0.776803  0.366076  1
  Os  Os11  1  0.250000  0.222947  0.634136  1
  C  C12  1  0.250000  0.455597  0.758623  1
  C  C13  1  0.750000  0.544176  0.241484  1
  C  C14  1  0.750000  0.043115  0.259157  1
  C  C15  1  0.250000  0.956715  0.740530  1
  C  C16  1  0.250000  0.823249  0.052261  1
  C  C17  1  0.750000  0.176229  0.947217  1
  C  C18  1  0.750000  0.674943  0.553203  1
  C  C19  1  0.250000  0.326589  0.447464  1
