# generated using pymatgen
data_Pr6Y2Sc12Si15Hg
_symmetry_space_group_name_H-M   'P 1'
_cell_length_a   7.26005787
_cell_length_b   7.51144147
_cell_length_c   14.32256688
_cell_angle_alpha   89.95980221
_cell_angle_beta   89.72837965
_cell_angle_gamma   90.17779179
_symmetry_Int_Tables_number   1
_chemical_formula_structural   Pr6Y2Sc12Si15Hg
_chemical_formula_sum   'Pr6 Y2 Sc12 Si15 Hg1'
_cell_volume   781.04695907
_cell_formula_units_Z   1
loop_
 _symmetry_equiv_pos_site_id
 _symmetry_equiv_pos_as_xyz
  1  'x, y, z'
loop_
 _atom_site_type_symbol
 _atom_site_label
 _atom_site_symmetry_multiplicity
 _atom_site_fract_x
 _atom_site_fract_y
 _atom_site_fract_z
 _atom_site_occupancy
  Pr  Pr0  1  0.488693  0.672135  0.903517  1
  Pr  Pr1  1  0.494154  0.678903  0.598500  1
  Pr  Pr2  1  0.987770  0.834719  0.596003  1
  Pr  Pr3  1  0.987667  0.828750  0.903861  1
  Pr  Pr4  1  0.511652  0.327910  0.098164  1
  Pr  Pr5  1  0.012431  0.172423  0.098892  1
  Y  Y6  1  0.007716  0.172220  0.395286  1
  Y  Y7  1  0.512347  0.322883  0.396383  1
  Sc  Sc8  1  0.342826  0.168993  0.628200  1
  Sc  Sc9  1  0.665592  0.824544  0.373228  1
  Sc  Sc10  1  0.664050  0.001411  0.752294  1
  Sc  Sc11  1  0.168013  0.677340  0.371510  1
  Sc  Sc12  1  0.830066  0.323137  0.876783  1
  Sc  Sc13  1  0.823228  0.324281  0.624715  1
  Sc  Sc14  1  0.838428  0.500862  0.251204  1
  Sc  Sc15  1  0.339295  0.998372  0.250098  1
  Sc  Sc16  1  0.328524  0.174362  0.876552  1
  Sc  Sc17  1  0.169755  0.675943  0.126661  1
  Sc  Sc18  1  0.670643  0.824303  0.126260  1
  Sc  Sc19  1  0.161528  0.497965  0.754626  1
  Si  Si20  1  0.285983  0.881924  0.751387  1
  Si  Si21  1  0.465628  0.621442  0.250090  1
  Si  Si22  1  0.036335  0.128849  0.750957  1
  Si  Si23  1  0.535841  0.376340  0.751852  1
  Si  Si24  1  0.964723  0.878077  0.250296  1
  Si  Si25  1  0.711632  0.122137  0.251442  1
  Si  Si26  1  0.849113  0.537374  0.040171  1
  Si  Si27  1  0.348556  0.962139  0.040641  1
  Si  Si28  1  0.150848  0.462807  0.962111  1
  Si  Si29  1  0.653290  0.044325  0.533826  1
  Si  Si30  1  0.342829  0.967711  0.456999  1
  Si  Si31  1  0.834284  0.534123  0.455284  1
  Si  Si32  1  0.790610  0.617627  0.751611  1
  Si  Si33  1  0.212357  0.377474  0.251890  1
  Si  Si34  1  0.650525  0.037169  0.961272  1
  Hg  Hg35  1  0.163067  0.449024  0.537440  1
