# generated using pymatgen
data_Sc8Ir3Ru4Pt
_symmetry_space_group_name_H-M   'P 1'
_cell_length_a   6.36717600
_cell_length_b   4.58717000
_cell_length_c   9.18460800
_cell_angle_alpha   90.00009987
_cell_angle_beta   90.00102446
_cell_angle_gamma   90.00005198
_symmetry_Int_Tables_number   1
_chemical_formula_structural   Sc8Ir3Ru4Pt
_chemical_formula_sum   'Sc8 Ir3 Ru4 Pt1'
_cell_volume   268.25777326
_cell_formula_units_Z   1
loop_
 _symmetry_equiv_pos_site_id
 _symmetry_equiv_pos_as_xyz
  1  'x, y, z'
loop_
 _atom_site_type_symbol
 _atom_site_label
 _atom_site_symmetry_multiplicity
 _atom_site_fract_x
 _atom_site_fract_y
 _atom_site_fract_z
 _atom_site_occupancy
  Sc  Sc0  1  0.003662  0.750002  0.125002  1
  Sc  Sc1  1  0.496071  0.750001  0.125021  1
  Sc  Sc2  1  0.001730  0.250000  0.377610  1
  Sc  Sc3  1  0.498016  0.249999  0.377620  1
  Sc  Sc4  1  0.500295  0.749999  0.624986  1
  Sc  Sc5  1  0.999955  0.750001  0.625001  1
  Sc  Sc6  1  0.498269  0.250000  0.872365  1
  Sc  Sc7  1  0.002001  0.250001  0.872386  1
  Ir  Ir8  1  0.249906  0.750001  0.374468  1
  Ir  Ir9  1  0.750095  0.249999  0.624991  1
  Ir  Ir10  1  0.250101  0.750000  0.875559  1
  Ru  Ru11  1  0.249920  0.249999  0.124970  1
  Ru  Ru12  1  0.749918  0.750000  0.374496  1
  Ru  Ru13  1  0.250076  0.249999  0.624965  1
  Ru  Ru14  1  0.750083  0.749999  0.875551  1
  Pt  Pt15  1  0.749903  0.249999  0.125005  1
