# generated using pymatgen
data_La3Tb2NdTa2O14
_symmetry_space_group_name_H-M   'P 1'
_cell_length_a   6.64277713
_cell_length_b   6.65548511
_cell_length_c   7.73402900
_cell_angle_alpha   90.00000000
_cell_angle_beta   90.00000000
_cell_angle_gamma   108.96021577
_symmetry_Int_Tables_number   1
_chemical_formula_structural   La3Tb2NdTa2O14
_chemical_formula_sum   'La3 Tb2 Nd1 Ta2 O14'
_cell_volume   323.37688813
_cell_formula_units_Z   1
loop_
 _symmetry_equiv_pos_site_id
 _symmetry_equiv_pos_as_xyz
  1  'x, y, z'
loop_
 _atom_site_type_symbol
 _atom_site_label
 _atom_site_symmetry_multiplicity
 _atom_site_fract_x
 _atom_site_fract_y
 _atom_site_fract_z
 _atom_site_occupancy
  La  La0  1  0.482387  0.481959  0.501308  1
  La  La1  1  0.482387  0.481959  0.998692  1
  La  La2  1  0.995360  0.529073  0.250000  1
  Tb  Tb3  1  0.998544  0.467523  0.750000  1
  Tb  Tb4  1  0.466229  0.996828  0.250000  1
  Nd  Nd5  1  0.536537  0.996977  0.750000  1
  Ta  Ta6  1  0.999046  0.998076  0.500893  1
  Ta  Ta7  1  0.999046  0.998076  0.999107  1
  O  O8  1  0.937444  0.057144  0.750000  1
  O  O9  1  0.058287  0.946499  0.250000  1
  O  O10  1  0.362042  0.641545  0.250000  1
  O  O11  1  0.642828  0.361753  0.750000  1
  O  O12  1  0.359563  0.626721  0.750000  1
  O  O13  1  0.620070  0.355883  0.250000  1
  O  O14  1  0.319230  0.068955  0.976301  1
  O  O15  1  0.693452  0.946249  0.460085  1
  O  O16  1  0.319230  0.068955  0.523699  1
  O  O17  1  0.693452  0.946249  0.039915  1
  O  O18  1  0.075906  0.321198  0.482548  1
  O  O19  1  0.941528  0.693590  0.959302  1
  O  O20  1  0.941528  0.693590  0.540698  1
  O  O21  1  0.075906  0.321198  0.017452  1
