# generated using pymatgen
data_Y3Al6Ga3Si3Os4
_symmetry_space_group_name_H-M   'P 1'
_cell_length_a   8.68791300
_cell_length_b   8.65108402
_cell_length_c   9.64840200
_cell_angle_alpha   90.00000000
_cell_angle_beta   90.00000000
_cell_angle_gamma   120.14092181
_symmetry_Int_Tables_number   1
_chemical_formula_structural   Y3Al6Ga3Si3Os4
_chemical_formula_sum   'Y6 Al12 Ga6 Si6 Os8'
_cell_volume   627.12419199
_cell_formula_units_Z   2
loop_
 _symmetry_equiv_pos_site_id
 _symmetry_equiv_pos_as_xyz
  1  'x, y, z'
loop_
 _atom_site_type_symbol
 _atom_site_label
 _atom_site_symmetry_multiplicity
 _atom_site_fract_x
 _atom_site_fract_y
 _atom_site_fract_z
 _atom_site_occupancy
  Y  Y0  1  0.192243  0.384486  0.250000  1
  Y  Y1  1  0.807757  0.615514  0.750000  1
  Y  Y2  1  0.614176  0.807864  0.250000  1
  Y  Y3  1  0.385824  0.192136  0.750000  1
  Y  Y4  1  0.193688  0.807864  0.250000  1
  Y  Y5  1  0.806312  0.192136  0.750000  1
  Al  Al6  1  0.166222  0.332443  0.575994  1
  Al  Al7  1  0.833778  0.667557  0.424006  1
  Al  Al8  1  0.668444  0.834545  0.575308  1
  Al  Al9  1  0.833778  0.667557  0.075994  1
  Al  Al10  1  0.331556  0.165455  0.424692  1
  Al  Al11  1  0.166222  0.332443  0.924006  1
  Al  Al12  1  0.166100  0.834545  0.575308  1
  Al  Al13  1  0.331556  0.165455  0.075308  1
  Al  Al14  1  0.833900  0.165455  0.424692  1
  Al  Al15  1  0.668444  0.834545  0.924692  1
  Al  Al16  1  0.833900  0.165455  0.075308  1
  Al  Al17  1  0.166100  0.834545  0.924692  1
  Ga  Ga18  1  0.873688  0.434139  0.250000  1
  Ga  Ga19  1  0.126312  0.565861  0.750000  1
  Ga  Ga20  1  0.560451  0.434139  0.250000  1
  Ga  Ga21  1  0.439549  0.565861  0.750000  1
  Ga  Ga22  1  0.999328  0.998656  0.250000  1
  Ga  Ga23  1  0.000672  0.001344  0.750000  1
  Si  Si24  1  0.332197  0.664395  0.043284  1
  Si  Si25  1  0.667803  0.335605  0.956716  1
  Si  Si26  1  0.667803  0.335605  0.543284  1
  Si  Si27  1  0.332197  0.664395  0.456716  1
  Si  Si28  1  0.562110  0.124220  0.250000  1
  Si  Si29  1  0.437890  0.875780  0.750000  1
  Os  Os30  1  0.500000  0.000000  0.000000  1
  Os  Os31  1  0.000000  0.500000  0.000000  1
  Os  Os32  1  0.500000  0.000000  0.500000  1
  Os  Os33  1  0.500000  0.500000  0.000000  1
  Os  Os34  1  0.000000  0.500000  0.500000  1
  Os  Os35  1  0.500000  0.500000  0.500000  1
  Os  Os36  1  0.000000  0.000000  0.000000  1
  Os  Os37  1  0.000000  0.000000  0.500000  1
