# generated using pymatgen
data_NdDy9(InBi2)2
_symmetry_space_group_name_H-M   'P 1'
_cell_length_a   6.55059800
_cell_length_b   9.17192617
_cell_length_c   9.09396963
_cell_angle_alpha   119.87036660
_cell_angle_beta   89.99999581
_cell_angle_gamma   89.99993522
_symmetry_Int_Tables_number   1
_chemical_formula_structural   NdDy9(InBi2)2
_chemical_formula_sum   'Nd1 Dy9 In2 Bi4'
_cell_volume   473.79607176
_cell_formula_units_Z   1
loop_
 _symmetry_equiv_pos_site_id
 _symmetry_equiv_pos_as_xyz
  1  'x, y, z'
loop_
 _atom_site_type_symbol
 _atom_site_label
 _atom_site_symmetry_multiplicity
 _atom_site_fract_x
 _atom_site_fract_y
 _atom_site_fract_z
 _atom_site_occupancy
  Nd  Nd0  1  0.249999  0.007302  0.768419  1
  Dy  Dy1  1  0.500010  0.336782  0.676970  1
  Dy  Dy2  1  0.500327  0.663674  0.324722  1
  Dy  Dy3  1  0.999672  0.663673  0.324721  1
  Dy  Dy4  1  0.999991  0.336782  0.676972  1
  Dy  Dy5  1  0.749999  0.244483  0.000937  1
  Dy  Dy6  1  0.750001  0.754090  0.764181  1
  Dy  Dy7  1  0.750001  0.991164  0.228962  1
  Dy  Dy8  1  0.250000  0.757162  0.999384  1
  Dy  Dy9  1  0.249999  0.244772  0.235242  1
  In  In10  1  0.750000  0.603721  0.000997  1
  In  In11  1  0.250000  0.402040  0.002482  1
  Bi  Bi12  1  0.750001  0.387694  0.392098  1
  Bi  Bi13  1  0.749999  0.996653  0.607097  1
  Bi  Bi14  1  0.249998  0.605872  0.606019  1
  Bi  Bi15  1  0.249999  0.004134  0.390801  1
