# generated using pymatgen
data_Yb2Co10Re2P7
_symmetry_space_group_name_H-M   'P 1'
_cell_length_a   8.94723175
_cell_length_b   9.00251842
_cell_length_c   3.66693900
_cell_angle_alpha   90.00000000
_cell_angle_beta   90.00000000
_cell_angle_gamma   119.59603364
_symmetry_Int_Tables_number   1
_chemical_formula_structural   Yb2Co10Re2P7
_chemical_formula_sum   'Yb2 Co10 Re2 P7'
_cell_volume   256.82690727
_cell_formula_units_Z   1
loop_
 _symmetry_equiv_pos_site_id
 _symmetry_equiv_pos_as_xyz
  1  'x, y, z'
loop_
 _atom_site_type_symbol
 _atom_site_label
 _atom_site_symmetry_multiplicity
 _atom_site_fract_x
 _atom_site_fract_y
 _atom_site_fract_z
 _atom_site_occupancy
  Yb  Yb0  1  0.667524  0.333623  0.500000  1
  Yb  Yb1  1  0.336554  0.667846  0.000000  1
  Co  Co2  1  0.723875  0.878538  0.000000  1
  Co  Co3  1  0.940666  0.373010  0.000000  1
  Co  Co4  1  0.159095  0.281184  0.000000  1
  Co  Co5  1  0.385481  0.437697  0.500000  1
  Co  Co6  1  0.117486  0.840226  0.000000  1
  Co  Co7  1  0.431535  0.058944  0.000000  1
  Co  Co8  1  0.048224  0.615771  0.500000  1
  Co  Co9  1  0.564770  0.948420  0.500000  1
  Co  Co10  1  0.625930  0.565850  0.000000  1
  Co  Co11  1  0.869807  0.771432  0.500000  1
  Re  Re12  1  0.217479  0.099442  0.500000  1
  Re  Re13  1  0.908274  0.125888  0.500000  1
  P  P14  1  0.413511  0.299631  0.000000  1
  P  P15  1  0.290301  0.881616  0.500000  1
  P  P16  1  0.700798  0.112329  0.000000  1
  P  P17  1  0.595062  0.708058  0.500000  1
  P  P18  1  0.885294  0.588711  0.000000  1
  P  P19  1  0.118615  0.413800  0.500000  1
  P  P20  1  0.999720  0.997983  0.000000  1
