# generated using pymatgen
data_Ho3Tm3(CoSn6)2
_symmetry_space_group_name_H-M   'P 1'
_cell_length_a   8.41984184
_cell_length_b   8.41984155
_cell_length_c   13.10969902
_cell_angle_alpha   90.02314623
_cell_angle_beta   89.97685937
_cell_angle_gamma   148.70589599
_symmetry_Int_Tables_number   1
_chemical_formula_structural   Ho3Tm3(CoSn6)2
_chemical_formula_sum   'Ho3 Tm3 Co2 Sn12'
_cell_volume   482.75696884
_cell_formula_units_Z   1
loop_
 _symmetry_equiv_pos_site_id
 _symmetry_equiv_pos_as_xyz
  1  'x, y, z'
loop_
 _atom_site_type_symbol
 _atom_site_label
 _atom_site_symmetry_multiplicity
 _atom_site_fract_x
 _atom_site_fract_y
 _atom_site_fract_z
 _atom_site_occupancy
  Ho  Ho0  1  0.100436  0.899564  0.594625  1
  Ho  Ho1  1  0.100465  0.899535  0.905774  1
  Ho  Ho2  1  0.899790  0.100210  0.404791  1
  Tm  Tm3  1  0.898487  0.101513  0.094806  1
  Tm  Tm4  1  0.900939  0.099061  0.752062  1
  Tm  Tm5  1  0.099190  0.900810  0.248368  1
  Co  Co6  1  0.299109  0.700891  0.249428  1
  Co  Co7  1  0.701674  0.298326  0.750364  1
  Sn  Sn8  1  0.756810  0.243190  0.571315  1
  Sn  Sn9  1  0.426612  0.573388  0.576445  1
  Sn  Sn10  1  0.573089  0.426911  0.423607  1
  Sn  Sn11  1  0.732199  0.267801  0.249729  1
  Sn  Sn12  1  0.268141  0.731859  0.750099  1
  Sn  Sn13  1  0.243366  0.756634  0.071205  1
  Sn  Sn14  1  0.243400  0.756600  0.428268  1
  Sn  Sn15  1  0.572910  0.427090  0.075335  1
  Sn  Sn16  1  0.454132  0.545868  0.248891  1
  Sn  Sn17  1  0.546204  0.453796  0.750442  1
  Sn  Sn18  1  0.756714  0.243286  0.928983  1
  Sn  Sn19  1  0.426334  0.573666  0.925465  1
