# generated using pymatgen
data_LiCa3Ag2Bi3
_symmetry_space_group_name_H-M   'P 1'
_cell_length_a   7.74711260
_cell_length_b   7.78709821
_cell_length_c   4.65952400
_cell_angle_alpha   90.00000000
_cell_angle_beta   90.00000000
_cell_angle_gamma   120.17087623
_symmetry_Int_Tables_number   1
_chemical_formula_structural   LiCa3Ag2Bi3
_chemical_formula_sum   'Li1 Ca3 Ag2 Bi3'
_cell_volume   243.01737815
_cell_formula_units_Z   1
loop_
 _symmetry_equiv_pos_site_id
 _symmetry_equiv_pos_as_xyz
  1  'x, y, z'
loop_
 _atom_site_type_symbol
 _atom_site_label
 _atom_site_symmetry_multiplicity
 _atom_site_fract_x
 _atom_site_fract_y
 _atom_site_fract_z
 _atom_site_occupancy
  Li  Li0  1  0.000000  0.234843  0.000000  1
  Ca  Ca1  1  0.000000  0.591807  0.500000  1
  Ca  Ca2  1  0.429619  0.423951  0.500000  1
  Ca  Ca3  1  0.570381  0.994332  0.500000  1
  Ag  Ag4  1  0.753909  0.754096  0.000000  1
  Ag  Ag5  1  0.246091  0.000187  0.000000  1
  Bi  Bi6  1  0.000000  0.011129  0.500000  1
  Bi  Bi7  1  0.325803  0.657730  0.000000  1
  Bi  Bi8  1  0.674197  0.331927  0.000000  1
