# generated using pymatgen
data_Tb3Pr(AlRu)4
_symmetry_space_group_name_H-M   'P 1'
_cell_length_a   7.11906996
_cell_length_b   4.05092600
_cell_length_c   8.17807892
_cell_angle_alpha   90.00000000
_cell_angle_beta   89.83459443
_cell_angle_gamma   90.00000000
_symmetry_Int_Tables_number   1
_chemical_formula_structural   Tb3Pr(AlRu)4
_chemical_formula_sum   'Tb3 Pr1 Al4 Ru4'
_cell_volume   235.84520873
_cell_formula_units_Z   1
loop_
 _symmetry_equiv_pos_site_id
 _symmetry_equiv_pos_as_xyz
  1  'x, y, z'
loop_
 _atom_site_type_symbol
 _atom_site_label
 _atom_site_symmetry_multiplicity
 _atom_site_fract_x
 _atom_site_fract_y
 _atom_site_fract_z
 _atom_site_occupancy
  Tb  Tb0  1  0.968280  0.250000  0.178789  1
  Tb  Tb1  1  0.468539  0.250000  0.317240  1
  Tb  Tb2  1  0.031323  0.750000  0.820336  1
  Pr  Pr3  1  0.529670  0.750000  0.681423  1
  Al  Al4  1  0.865769  0.250000  0.555580  1
  Al  Al5  1  0.359263  0.250000  0.944991  1
  Al  Al6  1  0.135404  0.750000  0.439169  1
  Al  Al7  1  0.639815  0.750000  0.061919  1
  Ru  Ru8  1  0.732792  0.250000  0.879865  1
  Ru  Ru9  1  0.223537  0.250000  0.622808  1
  Ru  Ru10  1  0.272765  0.750000  0.125742  1
  Ru  Ru11  1  0.772845  0.750000  0.372136  1
