# generated using pymatgen
data_Ac7Ho(ZnRh)8
_symmetry_space_group_name_H-M   'P 1'
_cell_length_a   4.00454900
_cell_length_b   7.73929577
_cell_length_c   17.16448100
_cell_angle_alpha   90.31338765
_cell_angle_beta   90.00000000
_cell_angle_gamma   90.00000000
_symmetry_Int_Tables_number   1
_chemical_formula_structural   Ac7Ho(ZnRh)8
_chemical_formula_sum   'Ac7 Ho1 Zn8 Rh8'
_cell_volume   531.96031691
_cell_formula_units_Z   1
loop_
 _symmetry_equiv_pos_site_id
 _symmetry_equiv_pos_as_xyz
  1  'x, y, z'
loop_
 _atom_site_type_symbol
 _atom_site_label
 _atom_site_symmetry_multiplicity
 _atom_site_fract_x
 _atom_site_fract_y
 _atom_site_fract_z
 _atom_site_occupancy
  Ac  Ac0  1  0.250000  0.171733  0.934011  1
  Ac  Ac1  1  0.250000  0.674117  0.565919  1
  Ac  Ac2  1  0.750000  0.330808  0.441185  1
  Ac  Ac3  1  0.750000  0.949078  0.282462  1
  Ac  Ac4  1  0.750000  0.825463  0.057915  1
  Ac  Ac5  1  0.750000  0.449037  0.217042  1
  Ac  Ac6  1  0.250000  0.053003  0.719149  1
  Ho  Ho7  1  0.250000  0.553300  0.785708  1
  Zn  Zn8  1  0.750000  0.008275  0.558410  1
  Zn  Zn9  1  0.250000  0.635891  0.354215  1
  Zn  Zn10  1  0.750000  0.382608  0.657024  1
  Zn  Zn11  1  0.250000  0.492997  0.053817  1
  Zn  Zn12  1  0.750000  0.502889  0.935708  1
  Zn  Zn13  1  0.250000  0.996862  0.445455  1
  Zn  Zn14  1  0.250000  0.131320  0.145854  1
  Zn  Zn15  1  0.750000  0.838478  0.847369  1
  Rh  Rh16  1  0.750000  0.760171  0.436908  1
  Rh  Rh17  1  0.250000  0.233691  0.313779  1
  Rh  Rh18  1  0.750000  0.291685  0.808638  1
  Rh  Rh19  1  0.750000  0.748483  0.693431  1
  Rh  Rh20  1  0.250000  0.244876  0.569664  1
  Rh  Rh21  1  0.250000  0.732616  0.183163  1
  Rh  Rh22  1  0.750000  0.257545  0.062108  1
  Rh  Rh23  1  0.250000  0.735075  0.931064  1
