# generated using pymatgen
data_Y5ErAl24Os7Pt
_symmetry_space_group_name_H-M   'P 1'
_cell_length_a   8.83538289
_cell_length_b   8.83538175
_cell_length_c   9.55160466
_cell_angle_alpha   89.64453224
_cell_angle_beta   90.35546488
_cell_angle_gamma   119.89221623
_symmetry_Int_Tables_number   1
_chemical_formula_structural   Y5ErAl24Os7Pt
_chemical_formula_sum   'Y5 Er1 Al24 Os7 Pt1'
_cell_volume   646.42355221
_cell_formula_units_Z   1
loop_
 _symmetry_equiv_pos_site_id
 _symmetry_equiv_pos_as_xyz
  1  'x, y, z'
loop_
 _atom_site_type_symbol
 _atom_site_label
 _atom_site_symmetry_multiplicity
 _atom_site_fract_x
 _atom_site_fract_y
 _atom_site_fract_z
 _atom_site_occupancy
  Y  Y0  1  0.190454  0.386414  0.251213  1
  Y  Y1  1  0.809570  0.613386  0.748770  1
  Y  Y2  1  0.613586  0.809546  0.251213  1
  Y  Y3  1  0.386614  0.190430  0.748770  1
  Y  Y4  1  0.194649  0.805351  0.251423  1
  Er  Er5  1  0.804742  0.195258  0.748414  1
  Al  Al6  1  0.331591  0.668409  0.019668  1
  Al  Al7  1  0.668601  0.331399  0.979931  1
  Al  Al8  1  0.666659  0.333341  0.517233  1
  Al  Al9  1  0.333533  0.666467  0.483120  1
  Al  Al10  1  0.163445  0.325574  0.577349  1
  Al  Al11  1  0.836213  0.674191  0.422981  1
  Al  Al12  1  0.674426  0.836555  0.577349  1
  Al  Al13  1  0.841879  0.675247  0.077322  1
  Al  Al14  1  0.325809  0.163787  0.422981  1
  Al  Al15  1  0.157688  0.324535  0.922361  1
  Al  Al16  1  0.163526  0.836474  0.575368  1
  Al  Al17  1  0.324753  0.158121  0.077322  1
  Al  Al18  1  0.836467  0.163533  0.425128  1
  Al  Al19  1  0.675465  0.842312  0.922361  1
  Al  Al20  1  0.836751  0.163249  0.074975  1
  Al  Al21  1  0.163244  0.836756  0.924488  1
  Al  Al22  1  0.560463  0.122087  0.249098  1
  Al  Al23  1  0.440195  0.878301  0.750922  1
  Al  Al24  1  0.877913  0.439537  0.249098  1
  Al  Al25  1  0.121699  0.559805  0.750922  1
  Al  Al26  1  0.561765  0.438235  0.251987  1
  Al  Al27  1  0.438186  0.561814  0.748043  1
  Al  Al28  1  0.999697  0.000303  0.250141  1
  Al  Al29  1  0.999821  0.000179  0.749861  1
  Os  Os30  1  0.500338  0.000210  0.999725  1
  Os  Os31  1  0.999790  0.499662  0.999725  1
  Os  Os32  1  0.500414  0.000204  0.500345  1
  Os  Os33  1  0.999796  0.499586  0.500345  1
  Os  Os34  1  0.500101  0.499899  0.500030  1
  Os  Os35  1  0.000034  0.999966  0.999974  1
  Os  Os36  1  0.000039  0.999961  0.500030  1
  Pt  Pt37  1  0.500084  0.499916  0.000011  1
