# generated using pymatgen
data_NdTh2(InRh)3
_symmetry_space_group_name_H-M   'P 1'
_cell_length_a   7.75037601
_cell_length_b   7.61937138
_cell_length_c   4.00240000
_cell_angle_alpha   90.00000000
_cell_angle_beta   90.00000000
_cell_angle_gamma   119.44241101
_symmetry_Int_Tables_number   1
_chemical_formula_structural   NdTh2(InRh)3
_chemical_formula_sum   'Nd1 Th2 In3 Rh3'
_cell_volume   205.82866672
_cell_formula_units_Z   1
loop_
 _symmetry_equiv_pos_site_id
 _symmetry_equiv_pos_as_xyz
  1  'x, y, z'
loop_
 _atom_site_type_symbol
 _atom_site_label
 _atom_site_symmetry_multiplicity
 _atom_site_fract_x
 _atom_site_fract_y
 _atom_site_fract_z
 _atom_site_occupancy
  Nd  Nd0  1  0.000000  0.590005  0.500000  1
  Th  Th1  1  0.587499  0.999370  0.500000  1
  Th  Th2  1  0.412501  0.411871  0.500000  1
  In  In3  1  0.238933  0.988882  0.000000  1
  In  In4  1  0.761067  0.749949  0.000000  1
  In  In5  1  0.000000  0.261783  0.000000  1
  Rh  Rh6  1  0.000000  0.016390  0.500000  1
  Rh  Rh7  1  0.359595  0.670673  0.000000  1
  Rh  Rh8  1  0.640405  0.311077  0.000000  1
