# generated using pymatgen
data_Y3Si6NiIr8
_symmetry_space_group_name_H-M   'P 1'
_cell_length_a   3.96021600
_cell_length_b   11.15571400
_cell_length_c   13.05229600
_cell_angle_alpha   90.00000000
_cell_angle_beta   90.00000000
_cell_angle_gamma   90.00000000
_symmetry_Int_Tables_number   1
_chemical_formula_structural   Y3Si6NiIr8
_chemical_formula_sum   'Y6 Si12 Ni2 Ir16'
_cell_volume   576.63786889
_cell_formula_units_Z   2
loop_
 _symmetry_equiv_pos_site_id
 _symmetry_equiv_pos_as_xyz
  1  'x, y, z'
loop_
 _atom_site_type_symbol
 _atom_site_label
 _atom_site_symmetry_multiplicity
 _atom_site_fract_x
 _atom_site_fract_y
 _atom_site_fract_z
 _atom_site_occupancy
  Y  Y0  1  0.000000  0.500000  0.525515  1
  Y  Y1  1  0.500000  0.000000  0.474485  1
  Y  Y2  1  0.500000  0.814069  0.205831  1
  Y  Y3  1  0.500000  0.185931  0.205831  1
  Y  Y4  1  0.000000  0.685931  0.794169  1
  Y  Y5  1  0.000000  0.314069  0.794169  1
  Si  Si6  1  0.500000  0.500000  0.877590  1
  Si  Si7  1  0.000000  0.000000  0.122410  1
  Si  Si8  1  0.500000  0.500000  0.343438  1
  Si  Si9  1  0.000000  0.000000  0.656562  1
  Si  Si10  1  0.500000  0.308012  0.616138  1
  Si  Si11  1  0.500000  0.691988  0.616138  1
  Si  Si12  1  0.000000  0.191988  0.383862  1
  Si  Si13  1  0.000000  0.808012  0.383862  1
  Si  Si14  1  0.500000  0.855211  0.896852  1
  Si  Si15  1  0.500000  0.144789  0.896852  1
  Si  Si16  1  0.000000  0.644789  0.103148  1
  Si  Si17  1  0.000000  0.355211  0.103148  1
  Ni  Ni18  1  0.000000  0.500000  0.975442  1
  Ni  Ni19  1  0.500000  0.000000  0.024558  1
  Ir  Ir20  1  0.500000  0.500000  0.158976  1
  Ir  Ir21  1  0.000000  0.000000  0.841024  1
  Ir  Ir22  1  0.500000  0.500000  0.697833  1
  Ir  Ir23  1  0.000000  0.000000  0.302167  1
  Ir  Ir24  1  0.500000  0.335675  0.988814  1
  Ir  Ir25  1  0.500000  0.664325  0.988814  1
  Ir  Ir26  1  0.000000  0.164325  0.011186  1
  Ir  Ir27  1  0.000000  0.835675  0.011186  1
  Ir  Ir28  1  0.500000  0.301587  0.430712  1
  Ir  Ir29  1  0.500000  0.698413  0.430712  1
  Ir  Ir30  1  0.000000  0.198413  0.569288  1
  Ir  Ir31  1  0.000000  0.801587  0.569288  1
  Ir  Ir32  1  0.500000  0.876340  0.712831  1
  Ir  Ir33  1  0.500000  0.123660  0.712831  1
  Ir  Ir34  1  0.000000  0.623660  0.287169  1
  Ir  Ir35  1  0.000000  0.376340  0.287169  1
