# generated using pymatgen
data_Ta24GaSi3As4
_symmetry_space_group_name_H-M   'P 1'
_cell_length_a   10.24811594
_cell_length_b   10.32006390
_cell_length_c   5.22932343
_cell_angle_alpha   90.10792752
_cell_angle_beta   90.09684374
_cell_angle_gamma   89.88599597
_symmetry_Int_Tables_number   1
_chemical_formula_structural   Ta24GaSi3As4
_chemical_formula_sum   'Ta24 Ga1 Si3 As4'
_cell_volume   553.05671841
_cell_formula_units_Z   1
loop_
 _symmetry_equiv_pos_site_id
 _symmetry_equiv_pos_as_xyz
  1  'x, y, z'
loop_
 _atom_site_type_symbol
 _atom_site_label
 _atom_site_symmetry_multiplicity
 _atom_site_fract_x
 _atom_site_fract_y
 _atom_site_fract_z
 _atom_site_occupancy
  Ta  Ta0  1  0.519739  0.646057  0.271627  1
  Ta  Ta1  1  0.401339  0.085500  0.028987  1
  Ta  Ta2  1  0.710047  0.809265  0.514300  1
  Ta  Ta3  1  0.899890  0.584932  0.469620  1
  Ta  Ta4  1  0.852850  0.021183  0.770567  1
  Ta  Ta5  1  0.014758  0.149414  0.226619  1
  Ta  Ta6  1  0.785688  0.685945  0.987594  1
  Ta  Ta7  1  0.284576  0.191065  0.513153  1
  Ta  Ta8  1  0.691293  0.214491  0.011933  1
  Ta  Ta9  1  0.417309  0.900513  0.530201  1
  Ta  Ta10  1  0.812287  0.289975  0.487080  1
  Ta  Ta11  1  0.353142  0.517341  0.728362  1
  Ta  Ta12  1  0.647506  0.485508  0.724974  1
  Ta  Ta13  1  0.147548  0.988555  0.777256  1
  Ta  Ta14  1  0.210232  0.309689  0.988410  1
  Ta  Ta15  1  0.914553  0.401913  0.970425  1
  Ta  Ta16  1  0.311692  0.787256  0.008975  1
  Ta  Ta17  1  0.596113  0.911152  0.025457  1
  Ta  Ta18  1  0.085115  0.599189  0.972182  1
  Ta  Ta19  1  0.096514  0.412332  0.474224  1
  Ta  Ta20  1  0.984419  0.850723  0.226244  1
  Ta  Ta21  1  0.191498  0.711922  0.489344  1
  Ta  Ta22  1  0.488212  0.352265  0.274620  1
  Ta  Ta23  1  0.585430  0.099134  0.528235  1
  Ga  Ga24  1  0.972567  0.796689  0.721543  1
  Si  Si25  1  0.026199  0.205956  0.722437  1
  Si  Si26  1  0.705989  0.471746  0.220123  1
  Si  Si27  1  0.526418  0.703968  0.776975  1
  As  As28  1  0.205663  0.972705  0.281270  1
  As  As29  1  0.793385  0.024390  0.275058  1
  As  As30  1  0.473381  0.294479  0.777794  1
  As  As31  1  0.294648  0.524750  0.224411  1
