# generated using pymatgen
data_Y5Tm15Cd3Hg3Ru2
_symmetry_space_group_name_H-M   'P 1'
_cell_length_a   9.50278372
_cell_length_b   9.50278271
_cell_length_c   9.66730700
_cell_angle_alpha   90.00000000
_cell_angle_beta   90.00000000
_cell_angle_gamma   119.60760170
_symmetry_Int_Tables_number   1
_chemical_formula_structural   Y5Tm15Cd3Hg3Ru2
_chemical_formula_sum   'Y5 Tm15 Cd3 Hg3 Ru2'
_cell_volume   758.99946546
_cell_formula_units_Z   1
loop_
 _symmetry_equiv_pos_site_id
 _symmetry_equiv_pos_as_xyz
  1  'x, y, z'
loop_
 _atom_site_type_symbol
 _atom_site_label
 _atom_site_symmetry_multiplicity
 _atom_site_fract_x
 _atom_site_fract_y
 _atom_site_fract_z
 _atom_site_occupancy
  Y  Y0  1  0.540440  0.081059  0.250000  1
  Y  Y1  1  0.918941  0.459560  0.250000  1
  Y  Y2  1  0.459648  0.540352  0.750000  1
  Y  Y3  1  0.459651  0.919992  0.750000  1
  Y  Y4  1  0.080008  0.540349  0.750000  1
  Tm  Tm5  1  0.000138  0.999862  0.490810  1
  Tm  Tm6  1  0.000138  0.999862  0.009190  1
  Tm  Tm7  1  0.209758  0.790242  0.439505  1
  Tm  Tm8  1  0.210508  0.419089  0.439161  1
  Tm  Tm9  1  0.580911  0.789492  0.439161  1
  Tm  Tm10  1  0.790270  0.209730  0.559546  1
  Tm  Tm11  1  0.789510  0.580359  0.559124  1
  Tm  Tm12  1  0.419641  0.210490  0.559124  1
  Tm  Tm13  1  0.790270  0.209730  0.940454  1
  Tm  Tm14  1  0.789510  0.580359  0.940876  1
  Tm  Tm15  1  0.419641  0.210490  0.940876  1
  Tm  Tm16  1  0.209758  0.790242  0.060495  1
  Tm  Tm17  1  0.210508  0.419089  0.060839  1
  Tm  Tm18  1  0.580911  0.789492  0.060839  1
  Tm  Tm19  1  0.539807  0.460193  0.250000  1
  Cd  Cd20  1  0.112040  0.887960  0.750000  1
  Cd  Cd21  1  0.113060  0.224444  0.750000  1
  Cd  Cd22  1  0.775556  0.886940  0.750000  1
  Hg  Hg23  1  0.880653  0.119347  0.250000  1
  Hg  Hg24  1  0.877638  0.759540  0.250000  1
  Hg  Hg25  1  0.240460  0.122362  0.250000  1
  Ru  Ru26  1  0.333640  0.666360  0.250000  1
  Ru  Ru27  1  0.666982  0.333018  0.750000  1
