# generated using pymatgen
data_NpScB6Ru
_symmetry_space_group_name_H-M   'P 1'
_cell_length_a   3.54306300
_cell_length_b   9.00433000
_cell_length_c   11.39175600
_cell_angle_alpha   90.00000000
_cell_angle_beta   90.00000000
_cell_angle_gamma   90.00000000
_symmetry_Int_Tables_number   1
_chemical_formula_structural   NpScB6Ru
_chemical_formula_sum   'Np4 Sc4 B24 Ru4'
_cell_volume   363.43014890
_cell_formula_units_Z   4
loop_
 _symmetry_equiv_pos_site_id
 _symmetry_equiv_pos_as_xyz
  1  'x, y, z'
loop_
 _atom_site_type_symbol
 _atom_site_label
 _atom_site_symmetry_multiplicity
 _atom_site_fract_x
 _atom_site_fract_y
 _atom_site_fract_z
 _atom_site_occupancy
  Np  Np0  1  0.000000  0.822367  0.085298  1
  Np  Np1  1  0.000000  0.177633  0.914702  1
  Np  Np2  1  0.000000  0.322367  0.414702  1
  Np  Np3  1  0.000000  0.677633  0.585298  1
  Sc  Sc4  1  0.000000  0.445009  0.125550  1
  Sc  Sc5  1  0.000000  0.554991  0.874450  1
  Sc  Sc6  1  0.000000  0.945009  0.374450  1
  Sc  Sc7  1  0.000000  0.054991  0.625550  1
  B  B8  1  0.500000  0.054281  0.067001  1
  B  B9  1  0.500000  0.945719  0.932999  1
  B  B10  1  0.500000  0.554281  0.432999  1
  B  B11  1  0.500000  0.445719  0.567001  1
  B  B12  1  0.500000  0.253737  0.080539  1
  B  B13  1  0.500000  0.746263  0.919461  1
  B  B14  1  0.500000  0.753737  0.419461  1
  B  B15  1  0.500000  0.246263  0.580539  1
  B  B16  1  0.500000  0.294782  0.235229  1
  B  B17  1  0.500000  0.705218  0.764771  1
  B  B18  1  0.500000  0.794782  0.264771  1
  B  B19  1  0.500000  0.205218  0.735229  1
  B  B20  1  0.500000  0.130479  0.318336  1
  B  B21  1  0.500000  0.869521  0.681664  1
  B  B22  1  0.500000  0.630479  0.181664  1
  B  B23  1  0.500000  0.369521  0.818336  1
  B  B24  1  0.500000  0.481492  0.285392  1
  B  B25  1  0.500000  0.518508  0.714608  1
  B  B26  1  0.500000  0.981492  0.214608  1
  B  B27  1  0.500000  0.018508  0.785392  1
  B  B28  1  0.500000  0.100376  0.472795  1
  B  B29  1  0.500000  0.899624  0.527205  1
  B  B30  1  0.500000  0.600376  0.027205  1
  B  B31  1  0.500000  0.399624  0.972795  1
  Ru  Ru32  1  0.000000  0.140266  0.180844  1
  Ru  Ru33  1  0.000000  0.859734  0.819156  1
  Ru  Ru34  1  0.000000  0.640266  0.319156  1
  Ru  Ru35  1  0.000000  0.359734  0.680844  1
