# generated using pymatgen
data_La2Ga2IrPt
_symmetry_space_group_name_H-M   'P 1'
_cell_length_a   4.51058200
_cell_length_b   7.18269500
_cell_length_c   7.95861600
_cell_angle_alpha   90.00000000
_cell_angle_beta   90.00000000
_cell_angle_gamma   90.00000000
_symmetry_Int_Tables_number   1
_chemical_formula_structural   La2Ga2IrPt
_chemical_formula_sum   'La4 Ga4 Ir2 Pt2'
_cell_volume   257.84431382
_cell_formula_units_Z   2
loop_
 _symmetry_equiv_pos_site_id
 _symmetry_equiv_pos_as_xyz
  1  'x, y, z'
loop_
 _atom_site_type_symbol
 _atom_site_label
 _atom_site_symmetry_multiplicity
 _atom_site_fract_x
 _atom_site_fract_y
 _atom_site_fract_z
 _atom_site_occupancy
  La  La0  1  0.250000  0.032483  0.686666  1
  La  La1  1  0.250000  0.532483  0.813334  1
  La  La2  1  0.750000  0.972382  0.307170  1
  La  La3  1  0.750000  0.472382  0.192830  1
  Ga  Ga4  1  0.250000  0.152796  0.072988  1
  Ga  Ga5  1  0.250000  0.652796  0.427012  1
  Ga  Ga6  1  0.750000  0.842815  0.933181  1
  Ga  Ga7  1  0.750000  0.342815  0.566819  1
  Ir  Ir8  1  0.250000  0.278608  0.392269  1
  Ir  Ir9  1  0.250000  0.778608  0.107731  1
  Pt  Pt10  1  0.750000  0.720915  0.609330  1
  Pt  Pt11  1  0.750000  0.220915  0.890670  1
