# generated using pymatgen
data_Sm8AlPd7Pt17
_symmetry_space_group_name_H-M   'P 1'
_cell_length_a   8.42735900
_cell_length_b   8.43714600
_cell_length_c   8.49119100
_cell_angle_alpha   90.00000000
_cell_angle_beta   90.00000000
_cell_angle_gamma   90.00000000
_symmetry_Int_Tables_number   1
_chemical_formula_structural   Sm8AlPd7Pt17
_chemical_formula_sum   'Sm8 Al1 Pd7 Pt17'
_cell_volume   603.74795028
_cell_formula_units_Z   1
loop_
 _symmetry_equiv_pos_site_id
 _symmetry_equiv_pos_as_xyz
  1  'x, y, z'
loop_
 _atom_site_type_symbol
 _atom_site_label
 _atom_site_symmetry_multiplicity
 _atom_site_fract_x
 _atom_site_fract_y
 _atom_site_fract_z
 _atom_site_occupancy
  Sm  Sm0  1  0.251170  0.251160  0.251371  1
  Sm  Sm1  1  0.748933  0.748822  0.748602  1
  Sm  Sm2  1  0.748933  0.748822  0.251398  1
  Sm  Sm3  1  0.748933  0.251178  0.748602  1
  Sm  Sm4  1  0.251170  0.251160  0.748629  1
  Sm  Sm5  1  0.251170  0.748840  0.251371  1
  Sm  Sm6  1  0.251170  0.748840  0.748629  1
  Sm  Sm7  1  0.748933  0.251178  0.251398  1
  Al  Al8  1  0.000232  0.000000  0.000000  1
  Pd  Pd9  1  0.746248  0.500000  0.500000  1
  Pd  Pd10  1  0.499619  0.254056  0.500000  1
  Pd  Pd11  1  0.499619  0.745944  0.500000  1
  Pd  Pd12  1  0.499629  0.500000  0.254572  1
  Pd  Pd13  1  0.499629  0.500000  0.745428  1
  Pd  Pd14  1  0.999780  0.000000  0.295528  1
  Pd  Pd15  1  0.999780  0.000000  0.704472  1
  Pt  Pt16  1  0.262148  0.500000  0.000000  1
  Pt  Pt17  1  0.737482  0.500000  0.000000  1
  Pt  Pt18  1  0.000215  0.261129  0.500000  1
  Pt  Pt19  1  0.500124  0.262272  0.000000  1
  Pt  Pt20  1  0.000215  0.738871  0.500000  1
  Pt  Pt21  1  0.500124  0.737728  0.000000  1
  Pt  Pt22  1  0.500165  0.000000  0.262630  1
  Pt  Pt23  1  0.261257  0.000000  0.500000  1
  Pt  Pt24  1  0.500165  0.000000  0.737370  1
  Pt  Pt25  1  0.738391  0.000000  0.500000  1
  Pt  Pt26  1  0.000186  0.500000  0.262271  1
  Pt  Pt27  1  0.000186  0.500000  0.737729  1
  Pt  Pt28  1  0.253913  0.500000  0.500000  1
  Pt  Pt29  1  0.294612  0.000000  0.000000  1
  Pt  Pt30  1  0.706274  0.000000  0.000000  1
  Pt  Pt31  1  0.999797  0.293784  0.000000  1
  Pt  Pt32  1  0.999797  0.706216  0.000000  1
