# generated using pymatgen
data_Ca3HoRe2(TcB8)2
_symmetry_space_group_name_H-M   'P 1'
_cell_length_a   3.57646800
_cell_length_b   6.00571650
_cell_length_c   11.60798056
_cell_angle_alpha   90.09988552
_cell_angle_beta   90.00000000
_cell_angle_gamma   90.00000000
_symmetry_Int_Tables_number   1
_chemical_formula_structural   Ca3HoRe2(TcB8)2
_chemical_formula_sum   'Ca3 Ho1 Re2 Tc2 B16'
_cell_volume   249.33037088
_cell_formula_units_Z   1
loop_
 _symmetry_equiv_pos_site_id
 _symmetry_equiv_pos_as_xyz
  1  'x, y, z'
loop_
 _atom_site_type_symbol
 _atom_site_label
 _atom_site_symmetry_multiplicity
 _atom_site_fract_x
 _atom_site_fract_y
 _atom_site_fract_z
 _atom_site_occupancy
  Ca  Ca0  1  0.000000  0.628145  0.151039  1
  Ca  Ca1  1  0.000000  0.372915  0.849884  1
  Ca  Ca2  1  0.000000  0.127488  0.348778  1
  Ho  Ho3  1  0.000000  0.871664  0.650255  1
  Re  Re4  1  0.000000  0.130773  0.083245  1
  Re  Re5  1  0.000000  0.870365  0.915285  1
  Tc  Tc6  1  0.000000  0.630755  0.418247  1
  Tc  Tc7  1  0.000000  0.370838  0.584397  1
  B  B8  1  0.500000  0.976526  0.192377  1
  B  B9  1  0.500000  0.023535  0.806807  1
  B  B10  1  0.500000  0.477588  0.308210  1
  B  B11  1  0.500000  0.523930  0.692269  1
  B  B12  1  0.500000  0.783500  0.315589  1
  B  B13  1  0.500000  0.214803  0.684335  1
  B  B14  1  0.500000  0.285210  0.184704  1
  B  B15  1  0.500000  0.714578  0.814633  1
  B  B16  1  0.500000  0.863988  0.468750  1
  B  B17  1  0.500000  0.135453  0.532181  1
  B  B18  1  0.500000  0.364906  0.031800  1
  B  B19  1  0.500000  0.634851  0.967687  1
  B  B20  1  0.500000  0.885472  0.046908  1
  B  B21  1  0.500000  0.114027  0.951973  1
  B  B22  1  0.500000  0.386173  0.452911  1
  B  B23  1  0.500000  0.612517  0.547734  1
