# generated using pymatgen
data_Tb2Y3AsPb3
_symmetry_space_group_name_H-M   'P 1'
_cell_length_a   9.18108200
_cell_length_b   9.18108105
_cell_length_c   6.80492700
_cell_angle_alpha   90.00000000
_cell_angle_beta   90.00000000
_cell_angle_gamma   119.97992934
_symmetry_Int_Tables_number   1
_chemical_formula_structural   Tb2Y3AsPb3
_chemical_formula_sum   'Tb4 Y6 As2 Pb6'
_cell_volume   496.85491300
_cell_formula_units_Z   2
loop_
 _symmetry_equiv_pos_site_id
 _symmetry_equiv_pos_as_xyz
  1  'x, y, z'
loop_
 _atom_site_type_symbol
 _atom_site_label
 _atom_site_symmetry_multiplicity
 _atom_site_fract_x
 _atom_site_fract_y
 _atom_site_fract_z
 _atom_site_occupancy
  Tb  Tb0  1  0.754200  0.754200  0.750000  1
  Tb  Tb1  1  0.245792  0.999886  0.750000  1
  Tb  Tb2  1  0.999886  0.245792  0.750000  1
  Tb  Tb3  1  0.245852  0.245852  0.250000  1
  Y  Y4  1  0.754414  0.999941  0.250000  1
  Y  Y5  1  0.999941  0.754414  0.250000  1
  Y  Y6  1  0.666683  0.333498  0.000012  1
  Y  Y7  1  0.333498  0.666683  0.000012  1
  Y  Y8  1  0.333498  0.666683  0.499988  1
  Y  Y9  1  0.666683  0.333498  0.499988  1
  As  As10  1  0.999843  0.999843  0.000282  1
  As  As11  1  0.999843  0.999843  0.499718  1
  Pb  Pb12  1  0.397625  0.397625  0.750000  1
  Pb  Pb13  1  0.602104  0.000084  0.750000  1
  Pb  Pb14  1  0.000084  0.602104  0.750000  1
  Pb  Pb15  1  0.602574  0.602574  0.250000  1
  Pb  Pb16  1  0.397699  0.999783  0.250000  1
  Pb  Pb17  1  0.999783  0.397699  0.250000  1
