# generated using pymatgen
data_Sm3Sn3HgRu2
_symmetry_space_group_name_H-M   'P 1'
_cell_length_a   7.71480400
_cell_length_b   7.71480515
_cell_length_c   3.97421000
_cell_angle_alpha   90.00000000
_cell_angle_beta   90.00000000
_cell_angle_gamma   120.00000364
_symmetry_Int_Tables_number   1
_chemical_formula_structural   Sm3Sn3HgRu2
_chemical_formula_sum   'Sm3 Sn3 Hg1 Ru2'
_cell_volume   204.84779157
_cell_formula_units_Z   1
loop_
 _symmetry_equiv_pos_site_id
 _symmetry_equiv_pos_as_xyz
  1  'x, y, z'
loop_
 _atom_site_type_symbol
 _atom_site_label
 _atom_site_symmetry_multiplicity
 _atom_site_fract_x
 _atom_site_fract_y
 _atom_site_fract_z
 _atom_site_occupancy
  Sm  Sm0  1  0.606164  0.022883  0.000000  1
  Sm  Sm1  1  0.977117  0.583282  0.000000  1
  Sm  Sm2  1  0.416718  0.393836  0.000000  1
  Sn  Sn3  1  0.257747  0.012222  0.500000  1
  Sn  Sn4  1  0.987778  0.245526  0.500000  1
  Sn  Sn5  1  0.754474  0.742253  0.500000  1
  Hg  Hg6  1  0.333333  0.666667  0.500000  1
  Ru  Ru7  1  0.666667  0.333333  0.500000  1
  Ru  Ru8  1  0.000000  0.000000  0.000000  1
