# generated using pymatgen
data_Nd10Ge4IrOs
_symmetry_space_group_name_H-M   'P 1'
_cell_length_a   7.95276000
_cell_length_b   8.94734800
_cell_length_c   12.39681600
_cell_angle_alpha   90.00000000
_cell_angle_beta   90.00000000
_cell_angle_gamma   90.00000000
_symmetry_Int_Tables_number   1
_chemical_formula_structural   Nd10Ge4IrOs
_chemical_formula_sum   'Nd20 Ge8 Ir2 Os2'
_cell_volume   882.10921882
_cell_formula_units_Z   2
loop_
 _symmetry_equiv_pos_site_id
 _symmetry_equiv_pos_as_xyz
  1  'x, y, z'
loop_
 _atom_site_type_symbol
 _atom_site_label
 _atom_site_symmetry_multiplicity
 _atom_site_fract_x
 _atom_site_fract_y
 _atom_site_fract_z
 _atom_site_occupancy
  Nd  Nd0  1  0.677451  0.466019  0.924940  1
  Nd  Nd1  1  0.177451  0.966020  0.575060  1
  Nd  Nd2  1  0.677451  0.033981  0.924940  1
  Nd  Nd3  1  0.821437  0.464710  0.425168  1
  Nd  Nd4  1  0.959566  0.750000  0.000067  1
  Nd  Nd5  1  0.459566  0.250000  0.499933  1
  Nd  Nd6  1  0.040862  0.250000  0.000448  1
  Nd  Nd7  1  0.540862  0.750000  0.499552  1
  Nd  Nd8  1  0.321437  0.535289  0.074832  1
  Nd  Nd9  1  0.821437  0.035290  0.425168  1
  Nd  Nd10  1  0.321437  0.964711  0.074832  1
  Nd  Nd11  1  0.177451  0.533980  0.575060  1
  Nd  Nd12  1  0.351103  0.750000  0.798142  1
  Nd  Nd13  1  0.851103  0.250000  0.701858  1
  Nd  Nd14  1  0.651670  0.250000  0.203027  1
  Nd  Nd15  1  0.151670  0.750000  0.296973  1
  Nd  Nd16  1  0.825485  0.750000  0.718925  1
  Nd  Nd17  1  0.325485  0.250000  0.781075  1
  Nd  Nd18  1  0.171618  0.250000  0.283736  1
  Nd  Nd19  1  0.671618  0.750000  0.216264  1
  Ge  Ge20  1  0.556370  0.495083  0.671294  1
  Ge  Ge21  1  0.943673  0.004871  0.171746  1
  Ge  Ge22  1  0.443673  0.995129  0.328254  1
  Ge  Ge23  1  0.056370  0.504917  0.828706  1
  Ge  Ge24  1  0.443673  0.504871  0.328254  1
  Ge  Ge25  1  0.056370  0.995083  0.828706  1
  Ge  Ge26  1  0.556370  0.004917  0.671294  1
  Ge  Ge27  1  0.943673  0.495129  0.171746  1
  Ir  Ir28  1  0.426825  0.250000  0.013586  1
  Ir  Ir29  1  0.926825  0.750000  0.486414  1
  Os  Os30  1  0.575009  0.750000  0.985968  1
  Os  Os31  1  0.075009  0.250000  0.514032  1
