# generated using pymatgen
data_Tb6Lu10Cd4Ru3Pt
_symmetry_space_group_name_H-M   'P 1'
_cell_length_a   9.46730012
_cell_length_b   9.59247235
_cell_length_c   9.59247300
_cell_angle_alpha   59.99999432
_cell_angle_beta   59.56165706
_cell_angle_gamma   59.56165528
_symmetry_Int_Tables_number   1
_chemical_formula_structural   Tb6Lu10Cd4Ru3Pt
_chemical_formula_sum   'Tb6 Lu10 Cd4 Ru3 Pt1'
_cell_volume   611.87515958
_cell_formula_units_Z   1
loop_
 _symmetry_equiv_pos_site_id
 _symmetry_equiv_pos_as_xyz
  1  'x, y, z'
loop_
 _atom_site_type_symbol
 _atom_site_label
 _atom_site_symmetry_multiplicity
 _atom_site_fract_x
 _atom_site_fract_y
 _atom_site_fract_z
 _atom_site_occupancy
  Tb  Tb0  1  0.936628  0.561252  0.561252  1
  Tb  Tb1  1  0.555526  0.940779  0.940779  1
  Tb  Tb2  1  0.555526  0.940779  0.562916  1
  Tb  Tb3  1  0.936628  0.561252  0.940867  1
  Tb  Tb4  1  0.555526  0.562916  0.940779  1
  Tb  Tb5  1  0.936628  0.940867  0.561252  1
  Lu  Lu6  1  0.346504  0.350103  0.350103  1
  Lu  Lu7  1  0.346504  0.350103  0.953291  1
  Lu  Lu8  1  0.346504  0.953291  0.350103  1
  Lu  Lu9  1  0.970184  0.343272  0.343272  1
  Lu  Lu10  1  0.816582  0.187626  0.187626  1
  Lu  Lu11  1  0.183284  0.814404  0.814404  1
  Lu  Lu12  1  0.183284  0.814404  0.187908  1
  Lu  Lu13  1  0.816582  0.187626  0.808168  1
  Lu  Lu14  1  0.183284  0.187908  0.814404  1
  Lu  Lu15  1  0.816582  0.808168  0.187626  1
  Cd  Cd16  1  0.579549  0.579044  0.579044  1
  Cd  Cd17  1  0.579549  0.579044  0.262363  1
  Cd  Cd18  1  0.579549  0.262363  0.579044  1
  Cd  Cd19  1  0.255489  0.581503  0.581503  1
  Ru  Ru20  1  0.148664  0.137857  0.137857  1
  Ru  Ru21  1  0.148664  0.137857  0.575622  1
  Ru  Ru22  1  0.148664  0.575622  0.137857  1
  Pt  Pt23  1  0.574115  0.141962  0.141962  1
