# generated using pymatgen
data_Nd5Sn15(IrRh3)2
_symmetry_space_group_name_H-M   'P 1'
_cell_length_a   4.52900200
_cell_length_b   7.31148401
_cell_length_c   18.74287141
_cell_angle_alpha   89.77013906
_cell_angle_beta   90.00000000
_cell_angle_gamma   90.00000000
_symmetry_Int_Tables_number   1
_chemical_formula_structural   Nd5Sn15(IrRh3)2
_chemical_formula_sum   'Nd5 Sn15 Ir2 Rh6'
_cell_volume   620.64130817
_cell_formula_units_Z   1
loop_
 _symmetry_equiv_pos_site_id
 _symmetry_equiv_pos_as_xyz
  1  'x, y, z'
loop_
 _atom_site_type_symbol
 _atom_site_label
 _atom_site_symmetry_multiplicity
 _atom_site_fract_x
 _atom_site_fract_y
 _atom_site_fract_z
 _atom_site_occupancy
  Nd  Nd0  1  0.500000  0.002994  0.856344  1
  Nd  Nd1  1  0.500000  0.498758  0.358072  1
  Nd  Nd2  1  0.000000  0.001140  0.143277  1
  Nd  Nd3  1  0.000000  0.500299  0.641393  1
  Nd  Nd4  1  0.500000  0.493486  0.930286  1
  Sn  Sn5  1  0.000000  0.718773  0.806265  1
  Sn  Sn6  1  0.000000  0.779508  0.305864  1
  Sn  Sn7  1  0.500000  0.277795  0.194067  1
  Sn  Sn8  1  0.500000  0.218169  0.692960  1
  Sn  Sn9  1  0.000000  0.851778  0.969447  1
  Sn  Sn10  1  0.000000  0.634317  0.467469  1
  Sn  Sn11  1  0.500000  0.132000  0.032226  1
  Sn  Sn12  1  0.500000  0.368562  0.531438  1
  Sn  Sn13  1  0.000000  0.304310  0.818810  1
  Sn  Sn14  1  0.000000  0.199251  0.317965  1
  Sn  Sn15  1  0.500000  0.698944  0.186225  1
  Sn  Sn16  1  0.500000  0.805514  0.678769  1
  Sn  Sn17  1  0.500000  0.021203  0.433516  1
  Sn  Sn18  1  0.000000  0.510043  0.067448  1
  Sn  Sn19  1  0.000000  0.980445  0.567982  1
  Ir  Ir20  1  0.000000  0.229129  0.964650  1
  Ir  Ir21  1  0.000000  0.249916  0.464616  1
  Rh  Rh22  1  0.500000  0.763274  0.045172  1
  Rh  Rh23  1  0.500000  0.750144  0.532817  1
  Rh  Rh24  1  0.000000  0.018735  0.715479  1
  Rh  Rh25  1  0.000000  0.482558  0.213861  1
  Rh  Rh26  1  0.500000  0.988707  0.289693  1
  Rh  Rh27  1  0.500000  0.520243  0.773888  1
