# generated using pymatgen
data_Sr9Yb11Au16
_symmetry_space_group_name_H-M   'P 1'
_cell_length_a   8.05592204
_cell_length_b   8.11726071
_cell_length_c   15.33097200
_cell_angle_alpha   90.11249157
_cell_angle_beta   89.90953207
_cell_angle_gamma   90.09478278
_symmetry_Int_Tables_number   1
_chemical_formula_structural   Sr9Yb11Au16
_chemical_formula_sum   'Sr9 Yb11 Au16'
_cell_volume   1002.51867109
_cell_formula_units_Z   1
loop_
 _symmetry_equiv_pos_site_id
 _symmetry_equiv_pos_as_xyz
  1  'x, y, z'
loop_
 _atom_site_type_symbol
 _atom_site_label
 _atom_site_symmetry_multiplicity
 _atom_site_fract_x
 _atom_site_fract_y
 _atom_site_fract_z
 _atom_site_occupancy
  Sr  Sr0  1  0.826862  0.665296  0.880834  1
  Sr  Sr1  1  0.484941  0.322736  0.900395  1
  Sr  Sr2  1  0.988411  0.175243  0.595318  1
  Sr  Sr3  1  0.512046  0.675655  0.402393  1
  Sr  Sr4  1  0.014360  0.825052  0.101814  1
  Sr  Sr5  1  0.511674  0.674636  0.099207  1
  Sr  Sr6  1  0.011742  0.824946  0.402267  1
  Sr  Sr7  1  0.487449  0.324150  0.595536  1
  Sr  Sr8  1  0.987364  0.176075  0.902921  1
  Yb  Yb9  1  0.327319  0.835815  0.876897  1
  Yb  Yb10  1  0.827646  0.664608  0.620497  1
  Yb  Yb11  1  0.672546  0.163909  0.378095  1
  Yb  Yb12  1  0.174130  0.333897  0.124148  1
  Yb  Yb13  1  0.670975  0.164311  0.123807  1
  Yb  Yb14  1  0.172074  0.335490  0.378391  1
  Yb  Yb15  1  0.327791  0.836242  0.619748  1
  Yb  Yb16  1  0.162387  0.497286  0.747876  1
  Yb  Yb17  1  0.660781  0.003730  0.747657  1
  Yb  Yb18  1  0.838778  0.501358  0.251889  1
  Yb  Yb19  1  0.338604  0.998604  0.251046  1
  Au  Au20  1  0.335620  0.036525  0.047472  1
  Au  Au21  1  0.838263  0.462468  0.453137  1
  Au  Au22  1  0.661615  0.961993  0.545411  1
  Au  Au23  1  0.172556  0.534495  0.957403  1
  Au  Au24  1  0.652477  0.974459  0.954167  1
  Au  Au25  1  0.161405  0.537401  0.545869  1
  Au  Au26  1  0.338256  0.037487  0.452677  1
  Au  Au27  1  0.844057  0.457908  0.054378  1
  Au  Au28  1  0.519839  0.630425  0.745105  1
  Au  Au29  1  0.030482  0.873034  0.744714  1
  Au  Au30  1  0.474165  0.367523  0.251549  1
  Au  Au31  1  0.973842  0.132570  0.251367  1
  Au  Au32  1  0.288629  0.127456  0.748529  1
  Au  Au33  1  0.785061  0.367439  0.745088  1
  Au  Au34  1  0.711974  0.873939  0.250874  1
  Au  Au35  1  0.213879  0.625836  0.251526  1
