# generated using pymatgen
data_Zr16Ni4Os3Rh
_symmetry_space_group_name_H-M   'P 1'
_cell_length_a   8.73697428
_cell_length_b   8.73697409
_cell_length_c   8.74585947
_cell_angle_alpha   60.03360646
_cell_angle_beta   60.03360848
_cell_angle_gamma   60.00000420
_symmetry_Int_Tables_number   1
_chemical_formula_structural   Zr16Ni4Os3Rh
_chemical_formula_sum   'Zr16 Ni4 Os3 Rh1'
_cell_volume   472.31315354
_cell_formula_units_Z   1
loop_
 _symmetry_equiv_pos_site_id
 _symmetry_equiv_pos_as_xyz
  1  'x, y, z'
loop_
 _atom_site_type_symbol
 _atom_site_label
 _atom_site_symmetry_multiplicity
 _atom_site_fract_x
 _atom_site_fract_y
 _atom_site_fract_z
 _atom_site_occupancy
  Zr  Zr0  1  0.183827  0.605086  0.606003  1
  Zr  Zr1  1  0.605086  0.183827  0.606003  1
  Zr  Zr2  1  0.605086  0.605086  0.606003  1
  Zr  Zr3  1  0.603489  0.603489  0.189536  1
  Zr  Zr4  1  0.451989  0.451989  0.048094  1
  Zr  Zr5  1  0.048800  0.048800  0.452320  1
  Zr  Zr6  1  0.451989  0.047927  0.048094  1
  Zr  Zr7  1  0.048800  0.450080  0.452320  1
  Zr  Zr8  1  0.047927  0.451989  0.048094  1
  Zr  Zr9  1  0.450080  0.048800  0.452320  1
  Zr  Zr10  1  0.815565  0.815565  0.179118  1
  Zr  Zr11  1  0.185255  0.185255  0.814096  1
  Zr  Zr12  1  0.815565  0.189753  0.179118  1
  Zr  Zr13  1  0.185255  0.815394  0.814096  1
  Zr  Zr14  1  0.189753  0.815565  0.179118  1
  Zr  Zr15  1  0.815394  0.185255  0.814096  1
  Ni  Ni16  1  0.825179  0.390982  0.392857  1
  Ni  Ni17  1  0.390982  0.825179  0.392857  1
  Ni  Ni18  1  0.390982  0.390982  0.392857  1
  Ni  Ni19  1  0.391922  0.391922  0.824233  1
  Os  Os20  1  0.502533  0.831432  0.834605  1
  Os  Os21  1  0.831432  0.502533  0.834605  1
  Os  Os22  1  0.831432  0.831432  0.834605  1
  Rh  Rh23  1  0.831680  0.831680  0.504960  1
