# generated using pymatgen
data_Y3Th(ReB6)2
_symmetry_space_group_name_H-M   'P 1'
_cell_length_a   3.73217800
_cell_length_b   9.23847118
_cell_length_c   11.64505381
_cell_angle_alpha   89.86735484
_cell_angle_beta   90.00000000
_cell_angle_gamma   90.00000000
_symmetry_Int_Tables_number   1
_chemical_formula_structural   Y3Th(ReB6)2
_chemical_formula_sum   'Y6 Th2 Re4 B24'
_cell_volume   401.51594147
_cell_formula_units_Z   2
loop_
 _symmetry_equiv_pos_site_id
 _symmetry_equiv_pos_as_xyz
  1  'x, y, z'
loop_
 _atom_site_type_symbol
 _atom_site_label
 _atom_site_symmetry_multiplicity
 _atom_site_fract_x
 _atom_site_fract_y
 _atom_site_fract_z
 _atom_site_occupancy
  Y  Y0  1  0.000000  0.324229  0.414705  1
  Y  Y1  1  0.000000  0.675771  0.585295  1
  Y  Y2  1  0.000000  0.443174  0.130390  1
  Y  Y3  1  0.000000  0.556826  0.869610  1
  Y  Y4  1  0.000000  0.942825  0.372271  1
  Y  Y5  1  0.000000  0.057175  0.627729  1
  Th  Th6  1  0.000000  0.821390  0.086642  1
  Th  Th7  1  0.000000  0.178610  0.913358  1
  Re  Re8  1  0.000000  0.138073  0.179833  1
  Re  Re9  1  0.000000  0.861927  0.820167  1
  Re  Re10  1  0.000000  0.638406  0.321266  1
  Re  Re11  1  0.000000  0.361594  0.678734  1
  B  B12  1  0.500000  0.055406  0.070267  1
  B  B13  1  0.500000  0.944594  0.929734  1
  B  B14  1  0.500000  0.553287  0.433248  1
  B  B15  1  0.500000  0.446713  0.566751  1
  B  B16  1  0.500000  0.249348  0.084661  1
  B  B17  1  0.500000  0.750652  0.915339  1
  B  B18  1  0.500000  0.747823  0.419302  1
  B  B19  1  0.500000  0.252177  0.580698  1
  B  B20  1  0.500000  0.291383  0.235635  1
  B  B21  1  0.500000  0.708617  0.764365  1
  B  B22  1  0.500000  0.789667  0.267908  1
  B  B23  1  0.500000  0.210333  0.732092  1
  B  B24  1  0.500000  0.131234  0.315359  1
  B  B25  1  0.500000  0.868766  0.684641  1
  B  B26  1  0.500000  0.629559  0.188069  1
  B  B27  1  0.500000  0.370441  0.811931  1
  B  B28  1  0.500000  0.482641  0.289163  1
  B  B29  1  0.500000  0.517359  0.710837  1
  B  B30  1  0.500000  0.984943  0.214513  1
  B  B31  1  0.500000  0.015057  0.785487  1
  B  B32  1  0.500000  0.102411  0.471483  1
  B  B33  1  0.500000  0.897589  0.528517  1
  B  B34  1  0.500000  0.600677  0.028137  1
  B  B35  1  0.500000  0.399323  0.971863  1
