# generated using pymatgen
data_BaLuIO6
_symmetry_space_group_name_H-M   'P 1'
_cell_length_a   5.58290100
_cell_length_b   5.58290067
_cell_length_c   5.67283500
_cell_angle_alpha   90.00000000
_cell_angle_beta   90.00000000
_cell_angle_gamma   119.99999603
_symmetry_Int_Tables_number   1
_chemical_formula_structural   BaLuIO6
_chemical_formula_sum   'Ba1 Lu1 I1 O6'
_cell_volume   153.12659612
_cell_formula_units_Z   1
loop_
 _symmetry_equiv_pos_site_id
 _symmetry_equiv_pos_as_xyz
  1  'x, y, z'
loop_
 _atom_site_type_symbol
 _atom_site_label
 _atom_site_symmetry_multiplicity
 _atom_site_fract_x
 _atom_site_fract_y
 _atom_site_fract_z
 _atom_site_occupancy
  Ba  Ba0  1  0.000000  0.000000  0.000000  1
  Lu  Lu1  1  0.666666  0.333333  0.500000  1
  I  I2  1  0.333333  0.666666  0.500000  1
  O  O3  1  0.039891  0.399688  0.306779  1
  O  O4  1  0.600311  0.640203  0.306779  1
  O  O5  1  0.359798  0.960108  0.306779  1
  O  O6  1  0.359797  0.399688  0.693222  1
  O  O7  1  0.039892  0.640203  0.693222  1
  O  O8  1  0.600311  0.960108  0.693222  1
