# generated using pymatgen
data_Nd2SmHg5
_symmetry_space_group_name_H-M   'P 1'
_cell_length_a   6.50748011
_cell_length_b   6.50747951
_cell_length_c   10.52424300
_cell_angle_alpha   90.00000000
_cell_angle_beta   90.00000000
_cell_angle_gamma   105.59901567
_symmetry_Int_Tables_number   1
_chemical_formula_structural   Nd2SmHg5
_chemical_formula_sum   'Nd4 Sm2 Hg10'
_cell_volume   429.25780905
_cell_formula_units_Z   2
loop_
 _symmetry_equiv_pos_site_id
 _symmetry_equiv_pos_as_xyz
  1  'x, y, z'
loop_
 _atom_site_type_symbol
 _atom_site_label
 _atom_site_symmetry_multiplicity
 _atom_site_fract_x
 _atom_site_fract_y
 _atom_site_fract_z
 _atom_site_occupancy
  Nd  Nd0  1  0.208588  0.791412  0.500000  1
  Nd  Nd1  1  0.208588  0.791412  0.000000  1
  Nd  Nd2  1  0.791412  0.208588  0.500000  1
  Nd  Nd3  1  0.791412  0.208588  0.000000  1
  Sm  Sm4  1  0.578941  0.578941  0.250000  1
  Sm  Sm5  1  0.421059  0.421059  0.750000  1
  Hg  Hg6  1  0.985119  0.985119  0.250000  1
  Hg  Hg7  1  0.014881  0.014881  0.750000  1
  Hg  Hg8  1  0.298010  0.298010  0.030468  1
  Hg  Hg9  1  0.701990  0.701990  0.969532  1
  Hg  Hg10  1  0.298010  0.298010  0.469532  1
  Hg  Hg11  1  0.701990  0.701990  0.530468  1
  Hg  Hg12  1  0.482956  0.043434  0.250000  1
  Hg  Hg13  1  0.956566  0.517044  0.750000  1
  Hg  Hg14  1  0.517044  0.956566  0.750000  1
  Hg  Hg15  1  0.043434  0.482956  0.250000  1
