# generated using pymatgen
data_BaGdYO4
_symmetry_space_group_name_H-M   'P 1'
_cell_length_a   3.51349300
_cell_length_b   10.56904500
_cell_length_c   12.30591500
_cell_angle_alpha   90.00000000
_cell_angle_beta   90.00000000
_cell_angle_gamma   90.00000000
_symmetry_Int_Tables_number   1
_chemical_formula_structural   BaGdYO4
_chemical_formula_sum   'Ba4 Gd4 Y4 O16'
_cell_volume   456.97111636
_cell_formula_units_Z   4
loop_
 _symmetry_equiv_pos_site_id
 _symmetry_equiv_pos_as_xyz
  1  'x, y, z'
loop_
 _atom_site_type_symbol
 _atom_site_label
 _atom_site_symmetry_multiplicity
 _atom_site_fract_x
 _atom_site_fract_y
 _atom_site_fract_z
 _atom_site_occupancy
  Ba  Ba0  1  0.250000  0.753485  0.351088  1
  Ba  Ba1  1  0.750000  0.246515  0.648912  1
  Ba  Ba2  1  0.250000  0.253485  0.148912  1
  Ba  Ba3  1  0.750000  0.746515  0.851088  1
  Gd  Gd4  1  0.250000  0.424995  0.388357  1
  Gd  Gd5  1  0.750000  0.575005  0.611643  1
  Gd  Gd6  1  0.250000  0.924995  0.111643  1
  Gd  Gd7  1  0.750000  0.075005  0.888357  1
  Y  Y8  1  0.750000  0.077031  0.391362  1
  Y  Y9  1  0.250000  0.922969  0.608638  1
  Y  Y10  1  0.750000  0.577031  0.108638  1
  Y  Y11  1  0.250000  0.422969  0.891362  1
  O  O12  1  0.750000  0.288147  0.338708  1
  O  O13  1  0.250000  0.711853  0.661292  1
  O  O14  1  0.750000  0.788147  0.161292  1
  O  O15  1  0.250000  0.211853  0.838708  1
  O  O16  1  0.750000  0.384280  0.018453  1
  O  O17  1  0.250000  0.615720  0.981547  1
  O  O18  1  0.750000  0.884280  0.481547  1
  O  O19  1  0.250000  0.115720  0.518453  1
  O  O20  1  0.750000  0.980749  0.715440  1
  O  O21  1  0.250000  0.019251  0.284560  1
  O  O22  1  0.750000  0.480749  0.784560  1
  O  O23  1  0.250000  0.519251  0.215440  1
  O  O24  1  0.750000  0.071427  0.074539  1
  O  O25  1  0.250000  0.928573  0.925461  1
  O  O26  1  0.750000  0.571427  0.425461  1
  O  O27  1  0.250000  0.428573  0.574539  1
