# generated using pymatgen
data_Er9Tm11Pt16
_symmetry_space_group_name_H-M   'P 1'
_cell_length_a   7.40572219
_cell_length_b   7.48763164
_cell_length_c   14.61145450
_cell_angle_alpha   90.04619725
_cell_angle_beta   90.02432369
_cell_angle_gamma   90.00962025
_symmetry_Int_Tables_number   1
_chemical_formula_structural   Er9Tm11Pt16
_chemical_formula_sum   'Er9 Tm11 Pt16'
_cell_volume   810.22408889
_cell_formula_units_Z   1
loop_
 _symmetry_equiv_pos_site_id
 _symmetry_equiv_pos_as_xyz
  1  'x, y, z'
loop_
 _atom_site_type_symbol
 _atom_site_label
 _atom_site_symmetry_multiplicity
 _atom_site_fract_x
 _atom_site_fract_y
 _atom_site_fract_z
 _atom_site_occupancy
  Er  Er0  1  0.154890  0.332469  0.622205  1
  Er  Er1  1  0.500557  0.679450  0.592789  1
  Er  Er2  1  0.000430  0.821125  0.907335  1
  Er  Er3  1  0.499728  0.321153  0.092840  1
  Er  Er4  1  0.999499  0.178879  0.406750  1
  Er  Er5  1  0.499580  0.320923  0.407253  1
  Er  Er6  1  0.999677  0.178848  0.092814  1
  Er  Er7  1  0.500467  0.678847  0.907198  1
  Er  Er8  1  0.000336  0.821028  0.592954  1
  Tm  Tm9  1  0.655001  0.167307  0.622455  1
  Tm  Tm10  1  0.154857  0.332577  0.877784  1
  Tm  Tm11  1  0.345008  0.832733  0.122309  1
  Tm  Tm12  1  0.844943  0.667427  0.377505  1
  Tm  Tm13  1  0.345211  0.832762  0.377440  1
  Tm  Tm14  1  0.845129  0.667374  0.122327  1
  Tm  Tm15  1  0.655106  0.167278  0.877851  1
  Tm  Tm16  1  0.817772  0.510158  0.750231  1
  Tm  Tm17  1  0.318079  0.989942  0.750273  1
  Tm  Tm18  1  0.182047  0.490056  0.249916  1
  Tm  Tm19  1  0.681995  0.009887  0.249830  1
  Pt  Pt20  1  0.685245  0.967464  0.458012  1
  Pt  Pt21  1  0.185010  0.532820  0.041820  1
  Pt  Pt22  1  0.314897  0.033450  0.958399  1
  Pt  Pt23  1  0.813911  0.467015  0.541470  1
  Pt  Pt24  1  0.315663  0.031935  0.541950  1
  Pt  Pt25  1  0.815023  0.467052  0.958207  1
  Pt  Pt26  1  0.685122  0.966788  0.041607  1
  Pt  Pt27  1  0.184887  0.533470  0.457759  1
  Pt  Pt28  1  0.452686  0.386400  0.750768  1
  Pt  Pt29  1  0.951787  0.113144  0.750137  1
  Pt  Pt30  1  0.547683  0.613567  0.249499  1
  Pt  Pt31  1  0.047846  0.886418  0.250051  1
  Pt  Pt32  1  0.678750  0.855206  0.750299  1
  Pt  Pt33  1  0.178898  0.644905  0.750488  1
  Pt  Pt34  1  0.321209  0.144870  0.249774  1
  Pt  Pt35  1  0.821070  0.355276  0.249701  1
