# generated using pymatgen
data_Ho3Co8P6W
_symmetry_space_group_name_H-M   'P 1'
_cell_length_a   3.70955100
_cell_length_b   10.53106000
_cell_length_c   12.21885700
_cell_angle_alpha   90.00000000
_cell_angle_beta   90.00000000
_cell_angle_gamma   90.00000000
_symmetry_Int_Tables_number   1
_chemical_formula_structural   Ho3Co8P6W
_chemical_formula_sum   'Ho6 Co16 P12 W2'
_cell_volume   477.33580889
_cell_formula_units_Z   2
loop_
 _symmetry_equiv_pos_site_id
 _symmetry_equiv_pos_as_xyz
  1  'x, y, z'
loop_
 _atom_site_type_symbol
 _atom_site_label
 _atom_site_symmetry_multiplicity
 _atom_site_fract_x
 _atom_site_fract_y
 _atom_site_fract_z
 _atom_site_occupancy
  Ho  Ho0  1  0.000000  0.500000  0.524424  1
  Ho  Ho1  1  0.500000  0.000000  0.475576  1
  Ho  Ho2  1  0.500000  0.819589  0.205017  1
  Ho  Ho3  1  0.500000  0.180411  0.205017  1
  Ho  Ho4  1  0.000000  0.680411  0.794983  1
  Ho  Ho5  1  0.000000  0.319589  0.794983  1
  Co  Co6  1  0.000000  0.500000  0.987102  1
  Co  Co7  1  0.500000  0.000000  0.012898  1
  Co  Co8  1  0.500000  0.295889  0.431410  1
  Co  Co9  1  0.500000  0.704111  0.431410  1
  Co  Co10  1  0.000000  0.204111  0.568590  1
  Co  Co11  1  0.000000  0.795889  0.568590  1
  Co  Co12  1  0.500000  0.878041  0.707291  1
  Co  Co13  1  0.500000  0.121959  0.707291  1
  Co  Co14  1  0.000000  0.621959  0.292709  1
  Co  Co15  1  0.000000  0.378041  0.292709  1
  Co  Co16  1  0.500000  0.332783  0.990305  1
  Co  Co17  1  0.500000  0.667217  0.990305  1
  Co  Co18  1  0.000000  0.167217  0.009695  1
  Co  Co19  1  0.000000  0.832783  0.009695  1
  Co  Co20  1  0.500000  0.500000  0.701072  1
  Co  Co21  1  0.000000  0.000000  0.298928  1
  P  P22  1  0.500000  0.311639  0.615938  1
  P  P23  1  0.500000  0.688361  0.615938  1
  P  P24  1  0.000000  0.188361  0.384062  1
  P  P25  1  0.000000  0.811639  0.384062  1
  P  P26  1  0.500000  0.500000  0.880207  1
  P  P27  1  0.000000  0.000000  0.119793  1
  P  P28  1  0.500000  0.844002  0.892446  1
  P  P29  1  0.500000  0.155998  0.892446  1
  P  P30  1  0.000000  0.655998  0.107554  1
  P  P31  1  0.000000  0.344002  0.107554  1
  P  P32  1  0.500000  0.500000  0.350648  1
  P  P33  1  0.000000  0.000000  0.649352  1
  W  W34  1  0.500000  0.500000  0.156519  1
  W  W35  1  0.000000  0.000000  0.843481  1
