# generated using pymatgen
data_Ho2ZnCo2(Ni5P3)2
_symmetry_space_group_name_H-M   'P 1'
_cell_length_a   9.09421200
_cell_length_b   9.10729127
_cell_length_c   3.63766900
_cell_angle_alpha   90.00000000
_cell_angle_beta   90.00000000
_cell_angle_gamma   119.95166210
_symmetry_Int_Tables_number   1
_chemical_formula_structural   Ho2ZnCo2(Ni5P3)2
_chemical_formula_sum   'Ho2 Zn1 Co2 Ni10 P6'
_cell_volume   261.04744289
_cell_formula_units_Z   1
loop_
 _symmetry_equiv_pos_site_id
 _symmetry_equiv_pos_as_xyz
  1  'x, y, z'
loop_
 _atom_site_type_symbol
 _atom_site_label
 _atom_site_symmetry_multiplicity
 _atom_site_fract_x
 _atom_site_fract_y
 _atom_site_fract_z
 _atom_site_occupancy
  Ho  Ho0  1  0.666934  0.333596  0.500000  1
  Ho  Ho1  1  0.332679  0.665817  0.000000  1
  Zn  Zn2  1  0.001900  0.000365  0.500000  1
  Co  Co3  1  0.613737  0.564759  0.000000  1
  Co  Co4  1  0.948834  0.385463  0.000000  1
  Ni  Ni5  1  0.834188  0.705120  0.500000  1
  Ni  Ni6  1  0.297304  0.130542  0.500000  1
  Ni  Ni7  1  0.138419  0.245162  0.000000  1
  Ni  Ni8  1  0.106624  0.859692  0.000000  1
  Ni  Ni9  1  0.757878  0.895458  0.000000  1
  Ni  Ni10  1  0.373975  0.436897  0.500000  1
  Ni  Ni11  1  0.561950  0.937697  0.500000  1
  Ni  Ni12  1  0.060154  0.623067  0.500000  1
  Ni  Ni13  1  0.870189  0.164385  0.500000  1
  Ni  Ni14  1  0.438123  0.051291  0.000000  1
  P  P15  1  0.710926  0.115825  0.000000  1
  P  P16  1  0.110839  0.405663  0.500000  1
  P  P17  1  0.594876  0.707126  0.500000  1
  P  P18  1  0.289673  0.884395  0.500000  1
  P  P19  1  0.883553  0.591675  0.000000  1
  P  P20  1  0.407241  0.296006  0.000000  1
