# generated using pymatgen
data_Eu2Ga3Ag
_symmetry_space_group_name_H-M   'P 1'
_cell_length_a   6.02362456
_cell_length_b   6.02362454
_cell_length_c   7.59170254
_cell_angle_alpha   49.25701309
_cell_angle_beta   49.25701354
_cell_angle_gamma   45.79972456
_symmetry_Int_Tables_number   1
_chemical_formula_structural   Eu2Ga3Ag
_chemical_formula_sum   'Eu2 Ga3 Ag1'
_cell_volume   139.36071436
_cell_formula_units_Z   1
loop_
 _symmetry_equiv_pos_site_id
 _symmetry_equiv_pos_as_xyz
  1  'x, y, z'
loop_
 _atom_site_type_symbol
 _atom_site_label
 _atom_site_symmetry_multiplicity
 _atom_site_fract_x
 _atom_site_fract_y
 _atom_site_fract_z
 _atom_site_occupancy
  Eu  Eu0  1  0.954506  0.954506  0.792416  1
  Eu  Eu1  1  0.045370  0.045370  0.206677  1
  Ga  Ga2  1  0.664904  0.664904  0.400305  1
  Ga  Ga3  1  0.661928  0.661928  0.775298  1
  Ga  Ga4  1  0.337321  0.337321  0.216315  1
  Ag  Ag5  1  0.335970  0.335970  0.608990  1
