# generated using pymatgen
data_TbErTa3P7Rh9
_symmetry_space_group_name_H-M   'P 1'
_cell_length_a   3.92162800
_cell_length_b   9.63138777
_cell_length_c   9.63167101
_cell_angle_alpha   120.00211753
_cell_angle_beta   89.99781936
_cell_angle_gamma   90.00242207
_symmetry_Int_Tables_number   1
_chemical_formula_structural   TbErTa3P7Rh9
_chemical_formula_sum   'Tb1 Er1 Ta3 P7 Rh9'
_cell_volume   315.04911728
_cell_formula_units_Z   1
loop_
 _symmetry_equiv_pos_site_id
 _symmetry_equiv_pos_as_xyz
  1  'x, y, z'
loop_
 _atom_site_type_symbol
 _atom_site_label
 _atom_site_symmetry_multiplicity
 _atom_site_fract_x
 _atom_site_fract_y
 _atom_site_fract_z
 _atom_site_occupancy
  Tb  Tb0  1  0.261230  0.666678  0.333356  1
  Er  Er1  1  0.762274  0.333355  0.666678  1
  Ta  Ta2  1  0.761949  0.094965  0.872839  1
  Ta  Ta3  1  0.761932  0.127149  0.222114  1
  Ta  Ta4  1  0.761971  0.777856  0.905012  1
  P  P5  1  0.262137  0.999984  0.999993  1
  P  P6  1  0.761647  0.877187  0.588855  1
  P  P7  1  0.761609  0.411133  0.288295  1
  P  P8  1  0.761651  0.711692  0.122854  1
  P  P9  1  0.262017  0.117893  0.416724  1
  P  P10  1  0.262008  0.583277  0.701159  1
  P  P11  1  0.261999  0.298817  0.882106  1
  Rh  Rh12  1  0.261886  0.885181  0.161206  1
  Rh  Rh13  1  0.261844  0.838811  0.724001  1
  Rh  Rh14  1  0.261851  0.275982  0.114805  1
  Rh  Rh15  1  0.761909  0.611561  0.557863  1
  Rh  Rh16  1  0.761895  0.442147  0.053680  1
  Rh  Rh17  1  0.761914  0.946344  0.388461  1
  Rh  Rh18  1  0.262092  0.367721  0.439665  1
  Rh  Rh19  1  0.262097  0.560334  0.928077  1
  Rh  Rh20  1  0.262087  0.071935  0.632256  1
