# generated using pymatgen
data_Tb2Sc2ReB12Ir
_symmetry_space_group_name_H-M   'P 1'
_cell_length_a   3.58980200
_cell_length_b   8.99373681
_cell_length_c   11.40607388
_cell_angle_alpha   90.11495055
_cell_angle_beta   90.00000000
_cell_angle_gamma   90.00000000
_symmetry_Int_Tables_number   1
_chemical_formula_structural   Tb2Sc2ReB12Ir
_chemical_formula_sum   'Tb4 Sc4 Re2 B24 Ir2'
_cell_volume   368.25273049
_cell_formula_units_Z   2
loop_
 _symmetry_equiv_pos_site_id
 _symmetry_equiv_pos_as_xyz
  1  'x, y, z'
loop_
 _atom_site_type_symbol
 _atom_site_label
 _atom_site_symmetry_multiplicity
 _atom_site_fract_x
 _atom_site_fract_y
 _atom_site_fract_z
 _atom_site_occupancy
  Tb  Tb0  1  0.000000  0.317099  0.411868  1
  Tb  Tb1  1  0.000000  0.682901  0.588132  1
  Tb  Tb2  1  0.000000  0.823222  0.083114  1
  Tb  Tb3  1  0.000000  0.176778  0.916886  1
  Sc  Sc4  1  0.000000  0.948445  0.373266  1
  Sc  Sc5  1  0.000000  0.051555  0.626734  1
  Sc  Sc6  1  0.000000  0.442203  0.124600  1
  Sc  Sc7  1  0.000000  0.557797  0.875400  1
  Re  Re8  1  0.000000  0.141041  0.182944  1
  Re  Re9  1  0.000000  0.858959  0.817056  1
  B  B10  1  0.500000  0.555624  0.433112  1
  B  B11  1  0.500000  0.444376  0.566888  1
  B  B12  1  0.500000  0.054513  0.067926  1
  B  B13  1  0.500000  0.945487  0.932074  1
  B  B14  1  0.500000  0.754173  0.419509  1
  B  B15  1  0.500000  0.245827  0.580491  1
  B  B16  1  0.500000  0.252703  0.081615  1
  B  B17  1  0.500000  0.747297  0.918385  1
  B  B18  1  0.500000  0.793309  0.265141  1
  B  B19  1  0.500000  0.206691  0.734859  1
  B  B20  1  0.500000  0.294914  0.234862  1
  B  B21  1  0.500000  0.705086  0.765138  1
  B  B22  1  0.500000  0.628769  0.181402  1
  B  B23  1  0.500000  0.371231  0.818598  1
  B  B24  1  0.500000  0.129175  0.317384  1
  B  B25  1  0.500000  0.870825  0.682616  1
  B  B26  1  0.500000  0.981517  0.215078  1
  B  B27  1  0.500000  0.018483  0.784922  1
  B  B28  1  0.500000  0.481957  0.285525  1
  B  B29  1  0.500000  0.518043  0.714475  1
  B  B30  1  0.500000  0.599117  0.027088  1
  B  B31  1  0.500000  0.400883  0.972912  1
  B  B32  1  0.500000  0.099613  0.473799  1
  B  B33  1  0.500000  0.900387  0.526201  1
  Ir  Ir34  1  0.000000  0.639952  0.318936  1
  Ir  Ir35  1  0.000000  0.360048  0.681064  1
