# generated using pymatgen
data_Hf5Zn6FeRh12
_symmetry_space_group_name_H-M   'P 1'
_cell_length_a   4.44536700
_cell_length_b   6.20479900
_cell_length_c   13.24343700
_cell_angle_alpha   89.99994634
_cell_angle_beta   90.00005156
_cell_angle_gamma   90.00066754
_symmetry_Int_Tables_number   1
_chemical_formula_structural   Hf5Zn6FeRh12
_chemical_formula_sum   'Hf5 Zn6 Fe1 Rh12'
_cell_volume   365.28854082
_cell_formula_units_Z   1
loop_
 _symmetry_equiv_pos_site_id
 _symmetry_equiv_pos_as_xyz
  1  'x, y, z'
loop_
 _atom_site_type_symbol
 _atom_site_label
 _atom_site_symmetry_multiplicity
 _atom_site_fract_x
 _atom_site_fract_y
 _atom_site_fract_z
 _atom_site_occupancy
  Hf  Hf0  1  0.999997  0.499998  0.995598  1
  Hf  Hf1  1  0.499768  0.000001  0.164473  1
  Hf  Hf2  1  0.999764  0.500004  0.333322  1
  Hf  Hf3  1  0.500002  0.000000  0.502193  1
  Hf  Hf4  1  0.000224  0.499998  0.671062  1
  Zn  Zn5  1  0.999958  0.999990  0.998650  1
  Zn  Zn6  1  0.499777  0.500005  0.161805  1
  Zn  Zn7  1  0.999747  0.000001  0.333353  1
  Zn  Zn8  1  0.500006  0.500005  0.504877  1
  Zn  Zn9  1  0.000228  0.999991  0.668007  1
  Zn  Zn10  1  0.500248  0.500016  0.833343  1
  Fe  Fe11  1  0.500308  0.999977  0.833338  1
  Rh  Rh12  1  0.499988  0.244341  0.994734  1
  Rh  Rh13  1  0.499989  0.755652  0.994721  1
  Rh  Rh14  1  0.999763  0.250448  0.165394  1
  Rh  Rh15  1  0.999764  0.749554  0.165388  1
  Rh  Rh16  1  0.499775  0.251014  0.333332  1
  Rh  Rh17  1  0.499771  0.748988  0.333332  1
  Rh  Rh18  1  0.999999  0.250458  0.501261  1
  Rh  Rh19  1  0.999999  0.749539  0.501266  1
  Rh  Rh20  1  0.500217  0.244296  0.671940  1
  Rh  Rh21  1  0.500214  0.755697  0.671955  1
  Rh  Rh22  1  0.000249  0.239149  0.833327  1
  Rh  Rh23  1  0.000244  0.760873  0.833328  1
