# generated using pymatgen
data_Rb4Ag(SnAu3)2
_symmetry_space_group_name_H-M   'P 1'
_cell_length_a   10.65469745
_cell_length_b   10.65469750
_cell_length_c   10.65469828
_cell_angle_alpha   38.30355750
_cell_angle_beta   38.30355816
_cell_angle_gamma   38.30355879
_symmetry_Int_Tables_number   1
_chemical_formula_structural   Rb4Ag(SnAu3)2
_chemical_formula_sum   'Rb4 Ag1 Sn2 Au6'
_cell_volume   417.36235854
_cell_formula_units_Z   1
loop_
 _symmetry_equiv_pos_site_id
 _symmetry_equiv_pos_as_xyz
  1  'x, y, z'
loop_
 _atom_site_type_symbol
 _atom_site_label
 _atom_site_symmetry_multiplicity
 _atom_site_fract_x
 _atom_site_fract_y
 _atom_site_fract_z
 _atom_site_occupancy
  Rb  Rb0  1  0.684063  0.684063  0.684063  1
  Rb  Rb1  1  0.315937  0.315937  0.315937  1
  Rb  Rb2  1  0.812278  0.812278  0.812278  1
  Rb  Rb3  1  0.187722  0.187722  0.187722  1
  Ag  Ag4  1  0.000000  0.000000  0.000000  1
  Sn  Sn5  1  0.449512  0.449512  0.449512  1
  Sn  Sn6  1  0.550488  0.550488  0.550488  1
  Au  Au7  1  0.188859  0.787544  0.787544  1
  Au  Au8  1  0.787544  0.787544  0.188859  1
  Au  Au9  1  0.787544  0.188859  0.787544  1
  Au  Au10  1  0.212456  0.811141  0.212456  1
  Au  Au11  1  0.811141  0.212456  0.212456  1
  Au  Au12  1  0.212456  0.212456  0.811141  1
