# generated using pymatgen
data_La5PrAl24Os5Pt3
_symmetry_space_group_name_H-M   'P 1'
_cell_length_a   8.98082121
_cell_length_b   9.02312358
_cell_length_c   9.72593843
_cell_angle_alpha   89.90081052
_cell_angle_beta   90.12089112
_cell_angle_gamma   119.90941608
_symmetry_Int_Tables_number   1
_chemical_formula_structural   La5PrAl24Os5Pt3
_chemical_formula_sum   'La5 Pr1 Al24 Os5 Pt3'
_cell_volume   683.17143281
_cell_formula_units_Z   1
loop_
 _symmetry_equiv_pos_site_id
 _symmetry_equiv_pos_as_xyz
  1  'x, y, z'
loop_
 _atom_site_type_symbol
 _atom_site_label
 _atom_site_symmetry_multiplicity
 _atom_site_fract_x
 _atom_site_fract_y
 _atom_site_fract_z
 _atom_site_occupancy
  La  La0  1  0.191985  0.378639  0.250582  1
  La  La1  1  0.808107  0.620826  0.749511  1
  La  La2  1  0.618824  0.810944  0.250634  1
  La  La3  1  0.381369  0.189780  0.749329  1
  La  La4  1  0.194819  0.813998  0.251075  1
  Pr  Pr5  1  0.805517  0.186381  0.748839  1
  Al  Al6  1  0.335421  0.671165  0.017348  1
  Al  Al7  1  0.665190  0.328135  0.980700  1
  Al  Al8  1  0.662217  0.330566  0.518125  1
  Al  Al9  1  0.338233  0.668992  0.483712  1
  Al  Al10  1  0.166627  0.325260  0.573796  1
  Al  Al11  1  0.832458  0.674418  0.426444  1
  Al  Al12  1  0.670972  0.835809  0.574221  1
  Al  Al13  1  0.837790  0.675726  0.076021  1
  Al  Al14  1  0.329406  0.164699  0.426017  1
  Al  Al15  1  0.161326  0.323918  0.923711  1
  Al  Al16  1  0.167549  0.841722  0.576630  1
  Al  Al17  1  0.327131  0.158832  0.076007  1
  Al  Al18  1  0.832478  0.158482  0.424267  1
  Al  Al19  1  0.673176  0.841872  0.923668  1
  Al  Al20  1  0.832215  0.157877  0.076048  1
  Al  Al21  1  0.167780  0.842282  0.923060  1
  Al  Al22  1  0.564399  0.127345  0.249486  1
  Al  Al23  1  0.436664  0.873887  0.750506  1
  Al  Al24  1  0.871228  0.435018  0.249255  1
  Al  Al25  1  0.127639  0.563996  0.750784  1
  Al  Al26  1  0.564067  0.436107  0.253233  1
  Al  Al27  1  0.436046  0.564092  0.747014  1
  Al  Al28  1  0.002361  0.002508  0.250181  1
  Al  Al29  1  0.997157  0.997886  0.749716  1
  Os  Os30  1  0.499842  0.999642  0.000329  1
  Os  Os31  1  0.499931  0.999721  0.499708  1
  Os  Os32  1  0.499906  0.499810  0.500291  1
  Os  Os33  1  0.999799  0.000157  0.999943  1
  Os  Os34  1  0.999862  0.000269  0.499973  1
  Pt  Pt35  1  0.000195  0.499752  0.000190  1
  Pt  Pt36  1  0.500204  0.499672  0.999759  1
  Pt  Pt37  1  0.000111  0.499814  0.499884  1
