# generated using pymatgen
data_Pr3Nd(GaNi)4
_symmetry_space_group_name_H-M   'P 1'
_cell_length_a   4.40459000
_cell_length_b   7.11274900
_cell_length_c   7.54061627
_cell_angle_alpha   90.14834821
_cell_angle_beta   90.00000000
_cell_angle_gamma   90.00000000
_symmetry_Int_Tables_number   1
_chemical_formula_structural   Pr3Nd(GaNi)4
_chemical_formula_sum   'Pr3 Nd1 Ga4 Ni4'
_cell_volume   236.23723845
_cell_formula_units_Z   1
loop_
 _symmetry_equiv_pos_site_id
 _symmetry_equiv_pos_as_xyz
  1  'x, y, z'
loop_
 _atom_site_type_symbol
 _atom_site_label
 _atom_site_symmetry_multiplicity
 _atom_site_fract_x
 _atom_site_fract_y
 _atom_site_fract_z
 _atom_site_occupancy
  Pr  Pr0  1  0.250000  0.025372  0.803791  1
  Pr  Pr1  1  0.250000  0.524827  0.695542  1
  Pr  Pr2  1  0.750000  0.974073  0.196047  1
  Nd  Nd3  1  0.750000  0.474539  0.303090  1
  Ga  Ga4  1  0.250000  0.174628  0.419890  1
  Ga  Ga5  1  0.250000  0.671543  0.080072  1
  Ga  Ga6  1  0.750000  0.825942  0.579089  1
  Ga  Ga7  1  0.750000  0.327618  0.921432  1
  Ni  Ni8  1  0.250000  0.797118  0.408934  1
  Ni  Ni9  1  0.250000  0.298489  0.092740  1
  Ni  Ni10  1  0.750000  0.203692  0.590221  1
  Ni  Ni11  1  0.750000  0.702160  0.909153  1
