# generated using pymatgen
data_ThBeGeAu2
_symmetry_space_group_name_H-M   'P 1'
_cell_length_a   5.95772994
_cell_length_b   5.95773010
_cell_length_c   5.95772960
_cell_angle_alpha   137.79452462
_cell_angle_beta   137.79452853
_cell_angle_gamma   61.21783951
_symmetry_Int_Tables_number   1
_chemical_formula_structural   ThBeGeAu2
_chemical_formula_sum   'Th1 Be1 Ge1 Au2'
_cell_volume   94.37136669
_cell_formula_units_Z   1
loop_
 _symmetry_equiv_pos_site_id
 _symmetry_equiv_pos_as_xyz
  1  'x, y, z'
loop_
 _atom_site_type_symbol
 _atom_site_label
 _atom_site_symmetry_multiplicity
 _atom_site_fract_x
 _atom_site_fract_y
 _atom_site_fract_z
 _atom_site_occupancy
  Th  Th0  1  0.002018  0.002018  0.000000  1
  Be  Be1  1  0.623569  0.623569  0.000000  1
  Ge  Ge2  1  0.402528  0.402528  0.000000  1
  Au  Au3  1  0.235943  0.735943  0.500000  1
  Au  Au4  1  0.735943  0.235943  0.500000  1
