# generated using pymatgen
data_TbNd3In2Ir3
_symmetry_space_group_name_H-M   'P 1'
_cell_length_a   7.58882200
_cell_length_b   7.69271142
_cell_length_c   4.19406300
_cell_angle_alpha   90.00000000
_cell_angle_beta   90.00000000
_cell_angle_gamma   119.55425753
_symmetry_Int_Tables_number   1
_chemical_formula_structural   TbNd3In2Ir3
_chemical_formula_sum   'Tb1 Nd3 In2 Ir3'
_cell_volume   212.98675324
_cell_formula_units_Z   1
loop_
 _symmetry_equiv_pos_site_id
 _symmetry_equiv_pos_as_xyz
  1  'x, y, z'
loop_
 _atom_site_type_symbol
 _atom_site_label
 _atom_site_symmetry_multiplicity
 _atom_site_fract_x
 _atom_site_fract_y
 _atom_site_fract_z
 _atom_site_occupancy
  Tb  Tb0  1  0.243598  0.000000  0.000000  1
  Nd  Nd1  1  0.613089  0.000000  0.500000  1
  Nd  Nd2  1  0.414182  0.435924  0.500000  1
  Nd  Nd3  1  0.978258  0.564076  0.500000  1
  In  In4  1  0.751782  0.745312  0.000000  1
  In  In5  1  0.006469  0.254688  0.000000  1
  Ir  Ir6  1  0.996662  0.000000  0.500000  1
  Ir  Ir7  1  0.333412  0.670864  0.000000  1
  Ir  Ir8  1  0.662549  0.329136  0.000000  1
