# generated using pymatgen
data_SrU9O20
_symmetry_space_group_name_H-M   'P 1'
_cell_length_a   6.65228483
_cell_length_b   7.67390165
_cell_length_c   8.59480320
_cell_angle_alpha   102.99629721
_cell_angle_beta   97.36754766
_cell_angle_gamma   106.72400679
_symmetry_Int_Tables_number   1
_chemical_formula_structural   SrU9O20
_chemical_formula_sum   'Sr1 U9 O20'
_cell_volume   400.58619561
_cell_formula_units_Z   1
loop_
 _symmetry_equiv_pos_site_id
 _symmetry_equiv_pos_as_xyz
  1  'x, y, z'
loop_
 _atom_site_type_symbol
 _atom_site_label
 _atom_site_symmetry_multiplicity
 _atom_site_fract_x
 _atom_site_fract_y
 _atom_site_fract_z
 _atom_site_occupancy
  Sr  Sr0  1  0.000000  0.000000  0.000000  1
  U  U1  1  0.000000  0.500000  0.000000  1
  U  U2  1  0.399994  0.800452  0.801606  1
  U  U3  1  0.397172  0.298965  0.800218  1
  U  U4  1  0.798315  0.099545  0.600558  1
  U  U5  1  0.799870  0.600410  0.599966  1
  U  U6  1  0.200130  0.399590  0.400034  1
  U  U7  1  0.201685  0.900455  0.399442  1
  U  U8  1  0.602828  0.701035  0.199782  1
  U  U9  1  0.600006  0.199548  0.198394  1
  O  O10  1  0.369606  0.080857  0.943687  1
  O  O11  1  0.354278  0.574048  0.951352  1
  O  O12  1  0.050108  0.239564  0.841089  1
  O  O13  1  0.053777  0.706450  0.839205  1
  O  O14  1  0.443955  0.520219  0.648646  1
  O  O15  1  0.444460  0.025537  0.645292  1
  O  O16  1  0.740226  0.373030  0.750157  1
  O  O17  1  0.731303  0.866520  0.735454  1
  O  O18  1  0.150914  0.674596  0.544870  1
  O  O19  1  0.146116  0.173097  0.548207  1
  O  O20  1  0.849086  0.325404  0.455130  1
  O  O21  1  0.556045  0.479781  0.351354  1
  O  O22  1  0.555540  0.974463  0.354708  1
  O  O23  1  0.853884  0.826903  0.451793  1
  O  O24  1  0.268697  0.133480  0.264546  1
  O  O25  1  0.259774  0.626970  0.249843  1
  O  O26  1  0.645722  0.425952  0.048648  1
  O  O27  1  0.630394  0.919143  0.056313  1
  O  O28  1  0.946223  0.293550  0.160795  1
  O  O29  1  0.949892  0.760436  0.158911  1
