# generated using pymatgen
data_Rb2Zr7BeCl18
_symmetry_space_group_name_H-M   'P 1'
_cell_length_a   10.54812643
_cell_length_b   10.54812626
_cell_length_c   10.54812571
_cell_angle_alpha   55.86109569
_cell_angle_beta   55.86110677
_cell_angle_gamma   55.86109785
_symmetry_Int_Tables_number   1
_chemical_formula_structural   Rb2Zr7BeCl18
_chemical_formula_sum   'Rb2 Zr7 Be1 Cl18'
_cell_volume   750.24886467
_cell_formula_units_Z   1
loop_
 _symmetry_equiv_pos_site_id
 _symmetry_equiv_pos_as_xyz
  1  'x, y, z'
loop_
 _atom_site_type_symbol
 _atom_site_label
 _atom_site_symmetry_multiplicity
 _atom_site_fract_x
 _atom_site_fract_y
 _atom_site_fract_z
 _atom_site_occupancy
  Rb  Rb0  1  0.775673  0.775673  0.775673  1
  Rb  Rb1  1  0.224327  0.224327  0.224327  1
  Zr  Zr2  1  0.165327  0.895673  0.787666  1
  Zr  Zr3  1  0.834673  0.104327  0.212334  1
  Zr  Zr4  1  0.104327  0.212334  0.834673  1
  Zr  Zr5  1  0.212334  0.834673  0.104327  1
  Zr  Zr6  1  0.895673  0.787666  0.165327  1
  Zr  Zr7  1  0.787666  0.165327  0.895673  1
  Zr  Zr8  1  0.500000  0.500000  0.500000  1
  Be  Be9  1  0.000000  0.000000  0.000000  1
  Cl  Cl10  1  0.227290  0.469483  0.641325  1
  Cl  Cl11  1  0.772710  0.530517  0.358675  1
  Cl  Cl12  1  0.347246  0.053391  0.934671  1
  Cl  Cl13  1  0.652754  0.946609  0.065329  1
  Cl  Cl14  1  0.934671  0.347246  0.053391  1
  Cl  Cl15  1  0.711830  0.877250  0.415403  1
  Cl  Cl16  1  0.358675  0.772710  0.530517  1
  Cl  Cl17  1  0.584597  0.288170  0.122750  1
  Cl  Cl18  1  0.288170  0.122750  0.584597  1
  Cl  Cl19  1  0.122750  0.584597  0.288170  1
  Cl  Cl20  1  0.946609  0.065329  0.652754  1
  Cl  Cl21  1  0.415403  0.711830  0.877250  1
  Cl  Cl22  1  0.877250  0.415403  0.711830  1
  Cl  Cl23  1  0.065329  0.652754  0.946609  1
  Cl  Cl24  1  0.469483  0.641325  0.227290  1
  Cl  Cl25  1  0.641325  0.227290  0.469483  1
  Cl  Cl26  1  0.530517  0.358675  0.772710  1
  Cl  Cl27  1  0.053391  0.934671  0.347246  1
