# generated using pymatgen
data_DyErSc2(SbO4)4
_symmetry_space_group_name_H-M   'P 1'
_cell_length_a   5.31264771
_cell_length_b   7.47163274
_cell_length_c   7.56266871
_cell_angle_alpha   80.90372931
_cell_angle_beta   86.95184392
_cell_angle_gamma   91.11469868
_symmetry_Int_Tables_number   1
_chemical_formula_structural   DyErSc2(SbO4)4
_chemical_formula_sum   'Dy1 Er1 Sc2 Sb4 O16'
_cell_volume   295.88096229
_cell_formula_units_Z   1
loop_
 _symmetry_equiv_pos_site_id
 _symmetry_equiv_pos_as_xyz
  1  'x, y, z'
loop_
 _atom_site_type_symbol
 _atom_site_label
 _atom_site_symmetry_multiplicity
 _atom_site_fract_x
 _atom_site_fract_y
 _atom_site_fract_z
 _atom_site_occupancy
  Dy  Dy0  1  0.749207  0.876795  0.373276  1
  Er  Er1  1  0.250801  0.124234  0.626773  1
  Sc  Sc2  1  0.719496  0.367706  0.333964  1
  Sc  Sc3  1  0.280206  0.631797  0.666835  1
  Sb  Sb4  1  0.774813  0.810747  0.840142  1
  Sb  Sb5  1  0.225103  0.190001  0.159724  1
  Sb  Sb6  1  0.246807  0.685725  0.171967  1
  Sb  Sb7  1  0.753126  0.313816  0.827439  1
  O  O8  1  0.901555  0.306982  0.068942  1
  O  O9  1  0.097889  0.692467  0.931160  1
  O  O10  1  0.386064  0.436418  0.177949  1
  O  O11  1  0.614536  0.563749  0.821253  1
  O  O12  1  0.097013  0.934255  0.174805  1
  O  O13  1  0.905377  0.066136  0.823845  1
  O  O14  1  0.580287  0.811801  0.072528  1
  O  O15  1  0.419870  0.188101  0.927158  1
  O  O16  1  0.996702  0.819304  0.612067  1
  O  O17  1  0.004570  0.181008  0.389118  1
  O  O18  1  0.413184  0.682522  0.403470  1
  O  O19  1  0.584677  0.316004  0.596961  1
  O  O20  1  0.491117  0.115997  0.329724  1
  O  O21  1  0.507239  0.885696  0.671502  1
  O  O22  1  0.925999  0.603759  0.304546  1
  O  O23  1  0.074363  0.394979  0.694854  1
