# generated using pymatgen
data_HoEr15Cd4(OsPd)2
_symmetry_space_group_name_H-M   'P 1'
_cell_length_a   9.59019039
_cell_length_b   9.59019005
_cell_length_c   9.68196600
_cell_angle_alpha   59.68292628
_cell_angle_beta   59.68292747
_cell_angle_gamma   59.35577241
_symmetry_Int_Tables_number   1
_chemical_formula_structural   HoEr15Cd4(OsPd)2
_chemical_formula_sum   'Ho1 Er15 Cd4 Os2 Pd2'
_cell_volume   623.54241017
_cell_formula_units_Z   1
loop_
 _symmetry_equiv_pos_site_id
 _symmetry_equiv_pos_as_xyz
  1  'x, y, z'
loop_
 _atom_site_type_symbol
 _atom_site_label
 _atom_site_symmetry_multiplicity
 _atom_site_fract_x
 _atom_site_fract_y
 _atom_site_fract_z
 _atom_site_occupancy
  Ho  Ho0  1  0.938893  0.938893  0.561107  1
  Er  Er1  1  0.350760  0.350760  0.353894  1
  Er  Er2  1  0.350760  0.350760  0.944587  1
  Er  Er3  1  0.345713  0.953872  0.350208  1
  Er  Er4  1  0.953872  0.345713  0.350208  1
  Er  Er5  1  0.816111  0.187027  0.190221  1
  Er  Er6  1  0.187027  0.816111  0.806642  1
  Er  Er7  1  0.187027  0.816111  0.190221  1
  Er  Er8  1  0.816111  0.187027  0.806642  1
  Er  Er9  1  0.187838  0.187838  0.812162  1
  Er  Er10  1  0.809037  0.809037  0.190963  1
  Er  Er11  1  0.937426  0.556579  0.568013  1
  Er  Er12  1  0.556579  0.937426  0.937981  1
  Er  Er13  1  0.556579  0.937426  0.568013  1
  Er  Er14  1  0.937426  0.556579  0.937981  1
  Er  Er15  1  0.565419  0.565419  0.934581  1
  Cd  Cd16  1  0.579833  0.579833  0.581876  1
  Cd  Cd17  1  0.579833  0.579833  0.258456  1
  Cd  Cd18  1  0.580931  0.254716  0.582177  1
  Cd  Cd19  1  0.254716  0.580931  0.582177  1
  Os  Os20  1  0.145294  0.145294  0.137258  1
  Os  Os21  1  0.145294  0.145294  0.572152  1
  Pd  Pd22  1  0.145677  0.571846  0.141238  1
  Pd  Pd23  1  0.571846  0.145677  0.141238  1
