# generated using pymatgen
data_Er5GaSiB8
_symmetry_space_group_name_H-M   'P 1'
_cell_length_a   7.19927301
_cell_length_b   7.19927262
_cell_length_c   8.05763800
_cell_angle_alpha   90.00000000
_cell_angle_beta   90.00000000
_cell_angle_gamma   89.69267911
_symmetry_Int_Tables_number   1
_chemical_formula_structural   Er5GaSiB8
_chemical_formula_sum   'Er10 Ga2 Si2 B16'
_cell_volume   417.61757526
_cell_formula_units_Z   2
loop_
 _symmetry_equiv_pos_site_id
 _symmetry_equiv_pos_as_xyz
  1  'x, y, z'
loop_
 _atom_site_type_symbol
 _atom_site_label
 _atom_site_symmetry_multiplicity
 _atom_site_fract_x
 _atom_site_fract_y
 _atom_site_fract_z
 _atom_site_occupancy
  Er  Er0  1  0.679447  0.179447  0.223677  1
  Er  Er1  1  0.320553  0.820553  0.776323  1
  Er  Er2  1  0.320553  0.820553  0.223677  1
  Er  Er3  1  0.815740  0.684260  0.219506  1
  Er  Er4  1  0.815740  0.684260  0.780494  1
  Er  Er5  1  0.679447  0.179447  0.776323  1
  Er  Er6  1  0.184260  0.315740  0.780494  1
  Er  Er7  1  0.184260  0.315740  0.219506  1
  Er  Er8  1  0.000000  0.000000  0.500000  1
  Er  Er9  1  0.500000  0.500000  0.500000  1
  Ga  Ga10  1  0.117841  0.617841  0.500000  1
  Ga  Ga11  1  0.882159  0.382159  0.500000  1
  Si  Si12  1  0.383257  0.116743  0.500000  1
  Si  Si13  1  0.616743  0.883257  0.500000  1
  B  B14  1  0.172203  0.039155  0.000000  1
  B  B15  1  0.827797  0.960845  0.000000  1
  B  B16  1  0.959228  0.172306  0.000000  1
  B  B17  1  0.327694  0.540772  0.000000  1
  B  B18  1  0.040772  0.827694  0.000000  1
  B  B19  1  0.672306  0.459228  0.000000  1
  B  B20  1  0.539155  0.672203  0.000000  1
  B  B21  1  0.460845  0.327797  0.000000  1
  B  B22  1  0.090148  0.590148  0.000000  1
  B  B23  1  0.909852  0.409852  0.000000  1
  B  B24  1  0.409193  0.090807  0.000000  1
  B  B25  1  0.590807  0.909193  0.000000  1
  B  B26  1  0.000000  0.000000  0.163668  1
  B  B27  1  0.000000  0.000000  0.836332  1
  B  B28  1  0.500000  0.500000  0.836332  1
  B  B29  1  0.500000  0.500000  0.163668  1
