# generated using pymatgen
data_LiTa7(TcRu)4
_symmetry_space_group_name_H-M   'P 1'
_cell_length_a   6.32187600
_cell_length_b   4.47248000
_cell_length_c   8.92344601
_cell_angle_alpha   90.00000000
_cell_angle_beta   89.99588802
_cell_angle_gamma   90.00000000
_symmetry_Int_Tables_number   1
_chemical_formula_structural   LiTa7(TcRu)4
_chemical_formula_sum   'Li1 Ta7 Tc4 Ru4'
_cell_volume   252.30565211
_cell_formula_units_Z   1
loop_
 _symmetry_equiv_pos_site_id
 _symmetry_equiv_pos_as_xyz
  1  'x, y, z'
loop_
 _atom_site_type_symbol
 _atom_site_label
 _atom_site_symmetry_multiplicity
 _atom_site_fract_x
 _atom_site_fract_y
 _atom_site_fract_z
 _atom_site_occupancy
  Li  Li0  1  0.500326  0.750001  0.124988  1
  Ta  Ta1  1  0.000540  0.750001  0.124985  1
  Ta  Ta2  1  0.499637  0.250000  0.363953  1
  Ta  Ta3  1  0.999657  0.250000  0.371175  1
  Ta  Ta4  1  0.998785  0.750001  0.624991  1
  Ta  Ta5  1  0.498176  0.750001  0.624988  1
  Ta  Ta6  1  0.999642  0.250000  0.878848  1
  Ta  Ta7  1  0.499639  0.250000  0.886067  1
  Tc  Tc8  1  0.753604  0.250000  0.125000  1
  Tc  Tc9  1  0.249052  0.750001  0.377054  1
  Tc  Tc10  1  0.748691  0.250000  0.625001  1
  Tc  Tc11  1  0.249064  0.750001  0.872964  1
  Ru  Ru12  1  0.252222  0.250000  0.125029  1
  Ru  Ru13  1  0.749505  0.750001  0.376663  1
  Ru  Ru14  1  0.252001  0.250000  0.625019  1
  Ru  Ru15  1  0.749465  0.750001  0.873274  1
