# generated using pymatgen
data_LaPr2Ho7C4I15
_symmetry_space_group_name_H-M   'P 1'
_cell_length_a   9.68809129
_cell_length_b   10.44832801
_cell_length_c   11.62284152
_cell_angle_alpha   93.39986129
_cell_angle_beta   114.13933921
_cell_angle_gamma   109.39267479
_symmetry_Int_Tables_number   1
_chemical_formula_structural   LaPr2Ho7C4I15
_chemical_formula_sum   'La1 Pr2 Ho7 C4 I15'
_cell_volume   986.36590071
_cell_formula_units_Z   1
loop_
 _symmetry_equiv_pos_site_id
 _symmetry_equiv_pos_as_xyz
  1  'x, y, z'
loop_
 _atom_site_type_symbol
 _atom_site_label
 _atom_site_symmetry_multiplicity
 _atom_site_fract_x
 _atom_site_fract_y
 _atom_site_fract_z
 _atom_site_occupancy
  La  La0  1  0.664186  0.254555  0.836501  1
  Pr  Pr1  1  0.703363  0.568148  0.044227  1
  Pr  Pr2  1  0.295507  0.433774  0.955984  1
  Ho  Ho3  1  0.590098  0.542097  0.335464  1
  Ho  Ho4  1  0.352513  0.741734  0.161888  1
  Ho  Ho5  1  0.765252  0.871532  0.251094  1
  Ho  Ho6  1  0.525778  0.186780  0.097962  1
  Ho  Ho7  1  0.238617  0.126716  0.752039  1
  Ho  Ho8  1  0.405912  0.457711  0.664139  1
  Ho  Ho9  1  0.473281  0.814743  0.901669  1
  C  C10  1  0.482553  0.297125  0.938773  1
  C  C11  1  0.517272  0.705736  0.061768  1
  C  C12  1  0.453549  0.361992  0.832577  1
  C  C13  1  0.545179  0.638558  0.167414  1
  I  I14  1  0.217523  0.908652  0.940749  1
  I  I15  1  0.114244  0.193895  0.481786  1
  I  I16  1  0.165925  0.565675  0.699652  1
  I  I17  1  0.392873  0.962039  0.651962  1
  I  I18  1  0.698588  0.738109  0.811899  1
  I  I19  1  0.298226  0.261829  0.185960  1
  I  I20  1  0.831866  0.433972  0.300662  1
  I  I21  1  0.883755  0.804122  0.520446  1
  I  I22  1  0.357747  0.627660  0.405807  1
  I  I23  1  0.048505  0.841633  0.224582  1
  I  I24  1  0.785996  0.087746  0.070029  1
  I  I25  1  0.636866  0.380566  0.582339  1
  I  I26  1  0.952445  0.157633  0.776220  1
  I  I27  1  0.590622  0.023417  0.339917  1
  I  I28  1  0.011758  0.511853  0.006491  1
