# generated using pymatgen
data_Zr18VRe7Pt2
_symmetry_space_group_name_H-M   'P 1'
_cell_length_a   8.78629801
_cell_length_b   8.78630377
_cell_length_c   8.59200700
_cell_angle_alpha   90.00246922
_cell_angle_beta   89.99727225
_cell_angle_gamma   120.00353785
_symmetry_Int_Tables_number   1
_chemical_formula_structural   Zr18VRe7Pt2
_chemical_formula_sum   'Zr18 V1 Re7 Pt2'
_cell_volume   574.40989565
_cell_formula_units_Z   1
loop_
 _symmetry_equiv_pos_site_id
 _symmetry_equiv_pos_as_xyz
  1  'x, y, z'
loop_
 _atom_site_type_symbol
 _atom_site_label
 _atom_site_symmetry_multiplicity
 _atom_site_fract_x
 _atom_site_fract_y
 _atom_site_fract_z
 _atom_site_occupancy
  Zr  Zr0  1  0.193308  0.806700  0.447487  1
  Zr  Zr1  1  0.193293  0.386587  0.447485  1
  Zr  Zr2  1  0.613408  0.806714  0.447478  1
  Zr  Zr3  1  0.806695  0.193293  0.552514  1
  Zr  Zr4  1  0.806714  0.613412  0.552524  1
  Zr  Zr5  1  0.386595  0.193291  0.552533  1
  Zr  Zr6  1  0.805857  0.194131  0.946595  1
  Zr  Zr7  1  0.805872  0.611757  0.946593  1
  Zr  Zr8  1  0.388268  0.194121  0.946600  1
  Zr  Zr9  1  0.194148  0.805870  0.053401  1
  Zr  Zr10  1  0.194130  0.388247  0.053387  1
  Zr  Zr11  1  0.611725  0.805870  0.053396  1
  Zr  Zr12  1  0.542668  0.457338  0.249847  1
  Zr  Zr13  1  0.542672  0.085341  0.249866  1
  Zr  Zr14  1  0.914670  0.457333  0.249860  1
  Zr  Zr15  1  0.457334  0.542672  0.750155  1
  Zr  Zr16  1  0.457324  0.914653  0.750138  1
  Zr  Zr17  1  0.085340  0.542674  0.750145  1
  V  V18  1  0.000001  0.000006  0.499980  1
  Re  Re19  1  0.893039  0.106968  0.252381  1
  Re  Re20  1  0.893048  0.786105  0.252361  1
  Re  Re21  1  0.213899  0.106944  0.252361  1
  Re  Re22  1  0.106955  0.893045  0.747626  1
  Re  Re23  1  0.106946  0.213878  0.747635  1
  Re  Re24  1  0.786111  0.893047  0.747627  1
  Re  Re25  1  0.999980  0.000012  0.000028  1
  Pt  Pt26  1  0.333326  0.666644  0.249603  1
  Pt  Pt27  1  0.666672  0.333347  0.750398  1
