# generated using pymatgen
data_Tm6Zn23S
_symmetry_space_group_name_H-M   'P 1'
_cell_length_a   8.95927989
_cell_length_b   8.95952367
_cell_length_c   8.95952601
_cell_angle_alpha   59.99633492
_cell_angle_beta   60.00059495
_cell_angle_gamma   60.00066609
_symmetry_Int_Tables_number   1
_chemical_formula_structural   Tm6Zn23S
_chemical_formula_sum   'Tm6 Zn23 S1'
_cell_volume   508.53420486
_cell_formula_units_Z   1
loop_
 _symmetry_equiv_pos_site_id
 _symmetry_equiv_pos_as_xyz
  1  'x, y, z'
loop_
 _atom_site_type_symbol
 _atom_site_label
 _atom_site_symmetry_multiplicity
 _atom_site_fract_x
 _atom_site_fract_y
 _atom_site_fract_z
 _atom_site_occupancy
  Tm  Tm0  1  0.711122  0.288878  0.288879  1
  Tm  Tm1  1  0.288877  0.711123  0.711121  1
  Tm  Tm2  1  0.288856  0.711149  0.288852  1
  Tm  Tm3  1  0.711146  0.288850  0.711148  1
  Tm  Tm4  1  0.288855  0.288851  0.711148  1
  Tm  Tm5  1  0.711145  0.711149  0.288850  1
  Zn  Zn6  1  0.123462  0.123483  0.123480  1
  Zn  Zn7  1  0.876539  0.876519  0.876518  1
  Zn  Zn8  1  0.123482  0.123462  0.629575  1
  Zn  Zn9  1  0.123484  0.629572  0.123461  1
  Zn  Zn10  1  0.876516  0.876537  0.370430  1
  Zn  Zn11  1  0.876519  0.370422  0.876539  1
  Zn  Zn12  1  0.629575  0.123484  0.123480  1
  Zn  Zn13  1  0.370423  0.876519  0.876518  1
  Zn  Zn14  1  0.500000  0.000000  0.000000  1
  Zn  Zn15  1  0.000000  0.500000  0.500000  1
  Zn  Zn16  1  0.999999  0.500000  0.000000  1
  Zn  Zn17  1  0.500000  0.000000  0.500000  1
  Zn  Zn18  1  0.000000  0.000000  0.500000  1
  Zn  Zn19  1  0.500000  0.500000  0.000000  1
  Zn  Zn20  1  0.329398  0.329407  0.329408  1
  Zn  Zn21  1  0.670603  0.670593  0.670592  1
  Zn  Zn22  1  0.329406  0.329397  0.011792  1
  Zn  Zn23  1  0.329405  0.011795  0.329395  1
  Zn  Zn24  1  0.670595  0.670604  0.988205  1
  Zn  Zn25  1  0.670594  0.988209  0.670602  1
  Zn  Zn26  1  0.011791  0.329406  0.329407  1
  Zn  Zn27  1  0.988208  0.670593  0.670594  1
  Zn  Zn28  1  0.999999  0.999997  0.000005  1
  S  S29  1  0.500000  0.500000  0.500001  1
