# generated using pymatgen
data_Dy5Ho3Re2(TcB12)2
_symmetry_space_group_name_H-M   'P 1'
_cell_length_a   3.68262900
_cell_length_b   9.16442291
_cell_length_c   11.54994900
_cell_angle_alpha   90.05999453
_cell_angle_beta   90.00000000
_cell_angle_gamma   90.00000000
_symmetry_Int_Tables_number   1
_chemical_formula_structural   Dy5Ho3Re2(TcB12)2
_chemical_formula_sum   'Dy5 Ho3 Re2 Tc2 B24'
_cell_volume   389.80097367
_cell_formula_units_Z   1
loop_
 _symmetry_equiv_pos_site_id
 _symmetry_equiv_pos_as_xyz
  1  'x, y, z'
loop_
 _atom_site_type_symbol
 _atom_site_label
 _atom_site_symmetry_multiplicity
 _atom_site_fract_x
 _atom_site_fract_y
 _atom_site_fract_z
 _atom_site_occupancy
  Dy  Dy0  1  0.000000  0.324003  0.414037  1
  Dy  Dy1  1  0.000000  0.675979  0.586053  1
  Dy  Dy2  1  0.000000  0.823533  0.085922  1
  Dy  Dy3  1  0.000000  0.176453  0.913954  1
  Dy  Dy4  1  0.000000  0.942214  0.369922  1
  Ho  Ho5  1  0.000000  0.057881  0.630364  1
  Ho  Ho6  1  0.000000  0.443756  0.130547  1
  Ho  Ho7  1  0.000000  0.556267  0.869384  1
  Re  Re8  1  0.000000  0.139108  0.179279  1
  Re  Re9  1  0.000000  0.861140  0.820556  1
  Tc  Tc10  1  0.000000  0.638543  0.320490  1
  Tc  Tc11  1  0.000000  0.361124  0.679523  1
  B  B12  1  0.500000  0.553427  0.432785  1
  B  B13  1  0.500000  0.446448  0.567261  1
  B  B14  1  0.500000  0.053449  0.067034  1
  B  B15  1  0.500000  0.946564  0.932875  1
  B  B16  1  0.500000  0.748553  0.418489  1
  B  B17  1  0.500000  0.251091  0.581537  1
  B  B18  1  0.500000  0.249458  0.081404  1
  B  B19  1  0.500000  0.750582  0.918551  1
  B  B20  1  0.500000  0.791620  0.265434  1
  B  B21  1  0.500000  0.208103  0.734479  1
  B  B22  1  0.500000  0.292356  0.234548  1
  B  B23  1  0.500000  0.707750  0.765424  1
  B  B24  1  0.500000  0.630914  0.185709  1
  B  B25  1  0.500000  0.369014  0.814237  1
  B  B26  1  0.500000  0.130972  0.314345  1
  B  B27  1  0.500000  0.869290  0.685534  1
  B  B28  1  0.500000  0.982452  0.211733  1
  B  B29  1  0.500000  0.017707  0.788058  1
  B  B30  1  0.500000  0.482599  0.288112  1
  B  B31  1  0.500000  0.517345  0.711867  1
  B  B32  1  0.500000  0.599994  0.027828  1
  B  B33  1  0.500000  0.400011  0.972134  1
  B  B34  1  0.500000  0.100249  0.472189  1
  B  B35  1  0.500000  0.900053  0.528403  1
