# generated using pymatgen
data_Pr20Ga2Si9Tc
_symmetry_space_group_name_H-M   'P 1'
_cell_length_a   7.86310754
_cell_length_b   7.85075976
_cell_length_c   14.42076241
_cell_angle_alpha   89.42558912
_cell_angle_beta   89.66237442
_cell_angle_gamma   90.57843757
_symmetry_Int_Tables_number   1
_chemical_formula_structural   Pr20Ga2Si9Tc
_chemical_formula_sum   'Pr20 Ga2 Si9 Tc1'
_cell_volume   890.10730258
_cell_formula_units_Z   1
loop_
 _symmetry_equiv_pos_site_id
 _symmetry_equiv_pos_as_xyz
  1  'x, y, z'
loop_
 _atom_site_type_symbol
 _atom_site_label
 _atom_site_symmetry_multiplicity
 _atom_site_fract_x
 _atom_site_fract_y
 _atom_site_fract_z
 _atom_site_occupancy
  Pr  Pr0  1  0.813960  0.832646  0.603497  1
  Pr  Pr1  1  0.180495  0.832330  0.105515  1
  Pr  Pr2  1  0.171588  0.817720  0.399016  1
  Pr  Pr3  1  0.999021  0.500394  0.726724  1
  Pr  Pr4  1  0.828620  0.190434  0.392130  1
  Pr  Pr5  1  0.678673  0.664283  0.392892  1
  Pr  Pr6  1  0.672277  0.314474  0.606648  1
  Pr  Pr7  1  0.328759  0.685158  0.605522  1
  Pr  Pr8  1  0.994151  0.496514  0.230310  1
  Pr  Pr9  1  0.663747  0.676224  0.111768  1
  Pr  Pr10  1  0.685604  0.329916  0.889015  1
  Pr  Pr11  1  0.830979  0.813476  0.892354  1
  Pr  Pr12  1  0.322572  0.332621  0.392375  1
  Pr  Pr13  1  0.185774  0.171189  0.603413  1
  Pr  Pr14  1  0.812368  0.167317  0.110063  1
  Pr  Pr15  1  0.316417  0.667318  0.890735  1
  Pr  Pr16  1  0.337697  0.322456  0.111597  1
  Pr  Pr17  1  0.504736  0.008447  0.270030  1
  Pr  Pr18  1  0.165233  0.186177  0.892179  1
  Pr  Pr19  1  0.500279  0.000808  0.774593  1
  Ga  Ga20  1  0.497315  0.998236  0.995915  1
  Ga  Ga21  1  0.001808  0.500535  0.003700  1
  Si  Si22  1  0.113275  0.887129  0.747253  1
  Si  Si23  1  0.386704  0.385426  0.747159  1
  Si  Si24  1  0.381797  0.617436  0.253466  1
  Si  Si25  1  0.891259  0.883191  0.254585  1
  Si  Si26  1  0.613651  0.614382  0.747029  1
  Si  Si27  1  0.000195  0.502117  0.507239  1
  Si  Si28  1  0.886613  0.112886  0.747210  1
  Si  Si29  1  0.499003  0.998449  0.493286  1
  Si  Si30  1  0.116216  0.109449  0.251746  1
  Tc  Tc31  1  0.619215  0.380865  0.251033  1
