# generated using pymatgen
data_Eu6V(FeC4)3
_symmetry_space_group_name_H-M   'P 1'
_cell_length_a   8.23866200
_cell_length_b   8.23866186
_cell_length_c   5.18809400
_cell_angle_alpha   90.00000000
_cell_angle_beta   90.00000000
_cell_angle_gamma   119.99999253
_symmetry_Int_Tables_number   1
_chemical_formula_structural   Eu6V(FeC4)3
_chemical_formula_sum   'Eu6 V1 Fe3 C12'
_cell_volume   304.96630989
_cell_formula_units_Z   1
loop_
 _symmetry_equiv_pos_site_id
 _symmetry_equiv_pos_as_xyz
  1  'x, y, z'
loop_
 _atom_site_type_symbol
 _atom_site_label
 _atom_site_symmetry_multiplicity
 _atom_site_fract_x
 _atom_site_fract_y
 _atom_site_fract_z
 _atom_site_occupancy
  Eu  Eu0  1  0.607388  0.685747  0.747369  1
  Eu  Eu1  1  0.921641  0.607388  0.252631  1
  Eu  Eu2  1  0.685747  0.078359  0.252631  1
  Eu  Eu3  1  0.314253  0.921641  0.747369  1
  Eu  Eu4  1  0.078359  0.392612  0.747369  1
  Eu  Eu5  1  0.392612  0.314253  0.252631  1
  V  V6  1  0.000000  0.000000  0.500000  1
  Fe  Fe7  1  0.000000  0.000000  0.000000  1
  Fe  Fe8  1  0.666667  0.333333  0.758063  1
  Fe  Fe9  1  0.333333  0.666667  0.241937  1
  C  C10  1  0.949151  0.765622  0.738512  1
  C  C11  1  0.183530  0.949151  0.261488  1
  C  C12  1  0.765622  0.816470  0.261488  1
  C  C13  1  0.234378  0.183530  0.738512  1
  C  C14  1  0.816470  0.050849  0.738512  1
  C  C15  1  0.050849  0.234378  0.261488  1
  C  C16  1  0.854375  0.577243  0.754460  1
  C  C17  1  0.277130  0.854375  0.245540  1
  C  C18  1  0.577243  0.722870  0.245540  1
  C  C19  1  0.422757  0.277130  0.754460  1
  C  C20  1  0.145625  0.422757  0.245540  1
  C  C21  1  0.722870  0.145625  0.754460  1
