# generated using pymatgen
data_Tm3Hf(Co5As3)4
_symmetry_space_group_name_H-M   'P 1'
_cell_length_a   3.75207600
_cell_length_b   12.12077544
_cell_length_c   10.62939126
_cell_angle_alpha   89.94422011
_cell_angle_beta   90.00000000
_cell_angle_gamma   90.00000000
_symmetry_Int_Tables_number   1
_chemical_formula_structural   Tm3Hf(Co5As3)4
_chemical_formula_sum   'Tm3 Hf1 Co20 As12'
_cell_volume   483.40397720
_cell_formula_units_Z   1
loop_
 _symmetry_equiv_pos_site_id
 _symmetry_equiv_pos_as_xyz
  1  'x, y, z'
loop_
 _atom_site_type_symbol
 _atom_site_label
 _atom_site_symmetry_multiplicity
 _atom_site_fract_x
 _atom_site_fract_y
 _atom_site_fract_z
 _atom_site_occupancy
  Tm  Tm0  1  0.250000  0.298354  0.918815  1
  Tm  Tm1  1  0.250000  0.798113  0.581273  1
  Tm  Tm2  1  0.750000  0.201618  0.418680  1
  Hf  Hf3  1  0.750000  0.700226  0.078855  1
  Co  Co4  1  0.750000  0.697617  0.382661  1
  Co  Co5  1  0.250000  0.302841  0.615626  1
  Co  Co6  1  0.250000  0.800729  0.888112  1
  Co  Co7  1  0.750000  0.197132  0.115365  1
  Co  Co8  1  0.750000  0.992110  0.213661  1
  Co  Co9  1  0.250000  0.007851  0.786786  1
  Co  Co10  1  0.250000  0.509079  0.714149  1
  Co  Co11  1  0.750000  0.491973  0.285447  1
  Co  Co12  1  0.750000  0.678588  0.785165  1
  Co  Co13  1  0.250000  0.322540  0.215556  1
  Co  Co14  1  0.250000  0.820924  0.281503  1
  Co  Co15  1  0.750000  0.178163  0.716433  1
  Co  Co16  1  0.750000  0.928643  0.970906  1
  Co  Co17  1  0.250000  0.066983  0.030970  1
  Co  Co18  1  0.250000  0.568909  0.467838  1
  Co  Co19  1  0.750000  0.432002  0.530653  1
  Co  Co20  1  0.750000  0.987256  0.592523  1
  Co  Co21  1  0.250000  0.012251  0.407308  1
  Co  Co22  1  0.250000  0.517174  0.092671  1
  Co  Co23  1  0.750000  0.489330  0.909723  1
  As  As24  1  0.750000  0.614734  0.585084  1
  As  As25  1  0.250000  0.385635  0.414772  1
  As  As26  1  0.250000  0.882935  0.085444  1
  As  As27  1  0.750000  0.113432  0.915035  1
  As  As28  1  0.750000  0.890035  0.400025  1
  As  As29  1  0.250000  0.109920  0.599811  1
  As  As30  1  0.250000  0.610821  0.901289  1
  As  As31  1  0.750000  0.389927  0.099803  1
  As  As32  1  0.750000  0.870568  0.768239  1
  As  As33  1  0.250000  0.129590  0.231734  1
  As  As34  1  0.250000  0.630951  0.265731  1
  As  As35  1  0.750000  0.371045  0.732355  1
