# generated using pymatgen
data_Tb3Ga6Co5Ni4
_symmetry_space_group_name_H-M   'P 1'
_cell_length_a   4.06885200
_cell_length_b   8.71156319
_cell_length_c   8.71083973
_cell_angle_alpha   60.01281841
_cell_angle_beta   90.00000000
_cell_angle_gamma   90.00000000
_symmetry_Int_Tables_number   1
_chemical_formula_structural   Tb3Ga6Co5Ni4
_chemical_formula_sum   'Tb3 Ga6 Co5 Ni4'
_cell_volume   267.43283072
_cell_formula_units_Z   1
loop_
 _symmetry_equiv_pos_site_id
 _symmetry_equiv_pos_as_xyz
  1  'x, y, z'
loop_
 _atom_site_type_symbol
 _atom_site_label
 _atom_site_symmetry_multiplicity
 _atom_site_fract_x
 _atom_site_fract_y
 _atom_site_fract_z
 _atom_site_occupancy
  Tb  Tb0  1  0.500000  0.334148  0.333677  1
  Tb  Tb1  1  0.500000  0.664920  0.670582  1
  Tb  Tb2  1  0.000000  0.001372  0.998195  1
  Ga  Ga3  1  0.500000  0.727394  0.272432  1
  Ga  Ga4  1  0.500000  0.274951  0.999188  1
  Ga  Ga5  1  0.500000  0.999546  0.725147  1
  Ga  Ga6  1  0.000000  0.487965  0.508938  1
  Ga  Ga7  1  0.000000  0.509050  0.000547  1
  Ga  Ga8  1  0.000000  0.000499  0.490517  1
  Co  Co9  1  0.000000  0.187028  0.177803  1
  Co  Co10  1  0.000000  0.175678  0.637386  1
  Co  Co11  1  0.000000  0.636814  0.186678  1
  Co  Co12  1  0.000000  0.822309  0.813072  1
  Co  Co13  1  0.000000  0.365586  0.821242  1
  Ni  Ni14  1  0.000000  0.809850  0.368613  1
  Ni  Ni15  1  0.500000  0.298447  0.701428  1
  Ni  Ni16  1  0.500000  0.702302  0.999930  1
  Ni  Ni17  1  0.500000  0.002041  0.294721  1
