# generated using pymatgen
data_Pr15NdCd3InIr4
_symmetry_space_group_name_H-M   'P 1'
_cell_length_a   10.04420963
_cell_length_b   10.04420184
_cell_length_c   10.04391701
_cell_angle_alpha   60.05183320
_cell_angle_beta   60.05167031
_cell_angle_gamma   60.05053996
_symmetry_Int_Tables_number   1
_chemical_formula_structural   Pr15NdCd3InIr4
_chemical_formula_sum   'Pr15 Nd1 Cd3 In1 Ir4'
_cell_volume   717.33902436
_cell_formula_units_Z   1
loop_
 _symmetry_equiv_pos_site_id
 _symmetry_equiv_pos_as_xyz
  1  'x, y, z'
loop_
 _atom_site_type_symbol
 _atom_site_label
 _atom_site_symmetry_multiplicity
 _atom_site_fract_x
 _atom_site_fract_y
 _atom_site_fract_z
 _atom_site_occupancy
  Pr  Pr0  1  0.349234  0.349234  0.954350  1
  Pr  Pr1  1  0.349180  0.954322  0.349246  1
  Pr  Pr2  1  0.954322  0.349181  0.349246  1
  Pr  Pr3  1  0.809543  0.189817  0.189814  1
  Pr  Pr4  1  0.190410  0.807711  0.807719  1
  Pr  Pr5  1  0.189816  0.809543  0.189814  1
  Pr  Pr6  1  0.807712  0.190410  0.807719  1
  Pr  Pr7  1  0.189794  0.189795  0.809554  1
  Pr  Pr8  1  0.807739  0.807739  0.190373  1
  Pr  Pr9  1  0.942127  0.560997  0.560990  1
  Pr  Pr10  1  0.560324  0.939299  0.939278  1
  Pr  Pr11  1  0.560996  0.942127  0.560990  1
  Pr  Pr12  1  0.939298  0.560325  0.939278  1
  Pr  Pr13  1  0.561101  0.561101  0.942027  1
  Pr  Pr14  1  0.939186  0.939186  0.560440  1
  Nd  Nd15  1  0.347275  0.347275  0.347207  1
  Cd  Cd16  1  0.578929  0.578930  0.260566  1
  Cd  Cd17  1  0.578923  0.260570  0.578927  1
  Cd  Cd18  1  0.260570  0.578923  0.578928  1
  In  In19  1  0.580259  0.580258  0.580268  1
  Ir  Ir20  1  0.141692  0.141693  0.141670  1
  Ir  Ir21  1  0.143126  0.143126  0.575339  1
  Ir  Ir22  1  0.143100  0.575337  0.143127  1
  Ir  Ir23  1  0.575337  0.143100  0.143127  1
