# generated using pymatgen
data_CaLa5TbFeI12
_symmetry_space_group_name_H-M   'P 1'
_cell_length_a   10.16743420
_cell_length_b   10.03587253
_cell_length_c   10.05626693
_cell_angle_alpha   107.05194413
_cell_angle_beta   106.66157165
_cell_angle_gamma   107.20836338
_symmetry_Int_Tables_number   1
_chemical_formula_structural   CaLa5TbFeI12
_chemical_formula_sum   'Ca1 La5 Tb1 Fe1 I12'
_cell_volume   855.16302869
_cell_formula_units_Z   1
loop_
 _symmetry_equiv_pos_site_id
 _symmetry_equiv_pos_as_xyz
  1  'x, y, z'
loop_
 _atom_site_type_symbol
 _atom_site_label
 _atom_site_symmetry_multiplicity
 _atom_site_fract_x
 _atom_site_fract_y
 _atom_site_fract_z
 _atom_site_occupancy
  Ca  Ca0  1  0.499501  0.501766  0.500897  1
  La  La1  1  0.094369  0.293577  0.024972  1
  La  La2  1  0.025544  0.096983  0.293612  1
  La  La3  1  0.314036  0.026041  0.102815  1
  La  La4  1  0.900256  0.704849  0.973596  1
  La  La5  1  0.976159  0.902751  0.706440  1
  Tb  Tb6  1  0.700877  0.973514  0.900104  1
  Fe  Fe7  1  0.999340  0.999022  0.999605  1
  I  I8  1  0.460832  0.386765  0.159647  1
  I  I9  1  0.163681  0.465831  0.387103  1
  I  I10  1  0.382402  0.160136  0.463961  1
  I  I11  1  0.538700  0.627073  0.842656  1
  I  I12  1  0.834653  0.533715  0.612736  1
  I  I13  1  0.617829  0.847645  0.548592  1
  I  I14  1  0.766166  0.306914  0.923887  1
  I  I15  1  0.925661  0.771419  0.320443  1
  I  I16  1  0.323544  0.927442  0.772357  1
  I  I17  1  0.222469  0.677158  0.071790  1
  I  I18  1  0.073529  0.228355  0.679457  1
  I  I19  1  0.680448  0.069045  0.215329  1
