# generated using pymatgen
data_CaDy2(GaIr2)3
_symmetry_space_group_name_H-M   'P 1'
_cell_length_a   5.60162900
_cell_length_b   5.60162924
_cell_length_c   15.64313000
_cell_angle_alpha   90.00000000
_cell_angle_beta   90.00000000
_cell_angle_gamma   120.00000451
_symmetry_Int_Tables_number   1
_chemical_formula_structural   CaDy2(GaIr2)3
_chemical_formula_sum   'Ca2 Dy4 Ga6 Ir12'
_cell_volume   425.09203564
_cell_formula_units_Z   2
loop_
 _symmetry_equiv_pos_site_id
 _symmetry_equiv_pos_as_xyz
  1  'x, y, z'
loop_
 _atom_site_type_symbol
 _atom_site_label
 _atom_site_symmetry_multiplicity
 _atom_site_fract_x
 _atom_site_fract_y
 _atom_site_fract_z
 _atom_site_occupancy
  Ca  Ca0  1  0.333334  0.666667  0.750000  1
  Ca  Ca1  1  0.666666  0.333333  0.250000  1
  Dy  Dy2  1  0.333332  0.666666  0.542387  1
  Dy  Dy3  1  0.666668  0.333334  0.457613  1
  Dy  Dy4  1  0.666668  0.333334  0.042387  1
  Dy  Dy5  1  0.333332  0.666666  0.957613  1
  Ga  Ga6  1  0.000009  0.000003  0.250000  1
  Ga  Ga7  1  0.999991  0.999997  0.750000  1
  Ga  Ga8  1  0.333315  0.666661  0.250000  1
  Ga  Ga9  1  0.666685  0.333339  0.750000  1
  Ga  Ga10  1  0.000000  0.000000  0.000000  1
  Ga  Ga11  1  0.000000  0.000000  0.500000  1
  Ir  Ir12  1  0.169816  0.339625  0.124415  1
  Ir  Ir13  1  0.830184  0.660375  0.875585  1
  Ir  Ir14  1  0.660361  0.830180  0.124415  1
  Ir  Ir15  1  0.830184  0.660375  0.624415  1
  Ir  Ir16  1  0.339639  0.169820  0.875585  1
  Ir  Ir17  1  0.169816  0.339625  0.375585  1
  Ir  Ir18  1  0.169814  0.830192  0.124414  1
  Ir  Ir19  1  0.339639  0.169820  0.624415  1
  Ir  Ir20  1  0.830186  0.169808  0.875586  1
  Ir  Ir21  1  0.660361  0.830180  0.375585  1
  Ir  Ir22  1  0.830186  0.169808  0.624414  1
  Ir  Ir23  1  0.169814  0.830192  0.375586  1
