# generated using pymatgen
data_Zn41Ir8
_symmetry_space_group_name_H-M   'P 1'
_cell_length_a   9.24975741
_cell_length_b   9.24975688
_cell_length_c   9.24975700
_cell_angle_alpha   94.78021004
_cell_angle_beta   94.78020977
_cell_angle_gamma   94.78020632
_symmetry_Int_Tables_number   1
_chemical_formula_structural   Zn41Ir8
_chemical_formula_sum   'Zn41 Ir8'
_cell_volume   782.64070599
_cell_formula_units_Z   1
loop_
 _symmetry_equiv_pos_site_id
 _symmetry_equiv_pos_as_xyz
  1  'x, y, z'
loop_
 _atom_site_type_symbol
 _atom_site_label
 _atom_site_symmetry_multiplicity
 _atom_site_fract_x
 _atom_site_fract_y
 _atom_site_fract_z
 _atom_site_occupancy
  Zn  Zn0  1  0.000000  0.000000  0.000000  1
  Zn  Zn1  1  0.500000  0.500000  0.500000  1
  Zn  Zn2  1  0.000000  0.500000  0.500000  1
  Zn  Zn3  1  0.500000  0.000000  0.500000  1
  Zn  Zn4  1  0.500000  0.500000  0.000000  1
  Zn  Zn5  1  0.777340  0.451632  0.074301  1
  Zn  Zn6  1  0.074301  0.777340  0.451632  1
  Zn  Zn7  1  0.451632  0.074301  0.777340  1
  Zn  Zn8  1  0.222660  0.548368  0.925699  1
  Zn  Zn9  1  0.925699  0.222660  0.548368  1
  Zn  Zn10  1  0.548368  0.925699  0.222660  1
  Zn  Zn11  1  0.730656  0.052302  0.870270  1
  Zn  Zn12  1  0.870270  0.730656  0.052302  1
  Zn  Zn13  1  0.052302  0.870270  0.730656  1
  Zn  Zn14  1  0.269344  0.947698  0.129730  1
  Zn  Zn15  1  0.129730  0.269344  0.947698  1
  Zn  Zn16  1  0.947698  0.129730  0.269344  1
  Zn  Zn17  1  0.680447  0.181207  0.127137  1
  Zn  Zn18  1  0.127137  0.680447  0.181207  1
  Zn  Zn19  1  0.181207  0.127137  0.680447  1
  Zn  Zn20  1  0.319553  0.818793  0.872863  1
  Zn  Zn21  1  0.872863  0.319553  0.818793  1
  Zn  Zn22  1  0.818793  0.872863  0.319553  1
  Zn  Zn23  1  0.394611  0.368195  0.731605  1
  Zn  Zn24  1  0.731605  0.394611  0.368195  1
  Zn  Zn25  1  0.368195  0.731605  0.394611  1
  Zn  Zn26  1  0.605389  0.631805  0.268395  1
  Zn  Zn27  1  0.268395  0.605389  0.631805  1
  Zn  Zn28  1  0.631805  0.268395  0.605389  1
  Zn  Zn29  1  0.963751  0.595480  0.780976  1
  Zn  Zn30  1  0.780976  0.963751  0.595480  1
  Zn  Zn31  1  0.595480  0.780976  0.963751  1
  Zn  Zn32  1  0.036249  0.404520  0.219024  1
  Zn  Zn33  1  0.219024  0.036249  0.404520  1
  Zn  Zn34  1  0.404520  0.219024  0.036249  1
  Zn  Zn35  1  0.665017  0.537867  0.768062  1
  Zn  Zn36  1  0.768062  0.665017  0.537867  1
  Zn  Zn37  1  0.537867  0.768062  0.665017  1
  Zn  Zn38  1  0.334983  0.462133  0.231938  1
  Zn  Zn39  1  0.231938  0.334983  0.462133  1
  Zn  Zn40  1  0.462133  0.231938  0.334983  1
  Ir  Ir41  1  0.618323  0.287329  0.888557  1
  Ir  Ir42  1  0.888557  0.618323  0.287329  1
  Ir  Ir43  1  0.287329  0.888557  0.618323  1
  Ir  Ir44  1  0.381677  0.712671  0.111443  1
  Ir  Ir45  1  0.111443  0.381677  0.712671  1
  Ir  Ir46  1  0.712671  0.111443  0.381677  1
  Ir  Ir47  1  0.809358  0.809358  0.809358  1
  Ir  Ir48  1  0.190642  0.190642  0.190642  1
