# generated using pymatgen
data_ThPRuN
_symmetry_space_group_name_H-M   'P 1'
_cell_length_a   4.07338000
_cell_length_b   4.07338000
_cell_length_c   8.34064200
_cell_angle_alpha   90.00000000
_cell_angle_beta   90.00000000
_cell_angle_gamma   90.00000000
_symmetry_Int_Tables_number   1
_chemical_formula_structural   ThPRuN
_chemical_formula_sum   'Th2 P2 Ru2 N2'
_cell_volume   138.39147370
_cell_formula_units_Z   2
loop_
 _symmetry_equiv_pos_site_id
 _symmetry_equiv_pos_as_xyz
  1  'x, y, z'
loop_
 _atom_site_type_symbol
 _atom_site_label
 _atom_site_symmetry_multiplicity
 _atom_site_fract_x
 _atom_site_fract_y
 _atom_site_fract_z
 _atom_site_occupancy
  Th  Th0  1  0.000000  0.000000  0.138639  1
  Th  Th1  1  0.500002  0.500002  0.861362  1
  P  P2  1  0.500002  0.500002  0.361443  1
  P  P3  1  0.000000  0.000000  0.638556  1
  Ru  Ru4  1  0.500000  0.000000  0.500000  1
  Ru  Ru5  1  0.000000  0.500000  0.500000  1
  N  N6  1  0.500000  0.000000  0.000000  1
  N  N7  1  0.000000  0.500000  0.000000  1
