# generated using pymatgen
data_Sr(CaPd6)2
_symmetry_space_group_name_H-M   'P 1'
_cell_length_a   5.38313580
_cell_length_b   5.38313548
_cell_length_c   11.32423204
_cell_angle_alpha   94.73827754
_cell_angle_beta   94.73828020
_cell_angle_gamma   120.09211675
_symmetry_Int_Tables_number   1
_chemical_formula_structural   Sr(CaPd6)2
_chemical_formula_sum   'Sr1 Ca2 Pd12'
_cell_volume   280.01414812
_cell_formula_units_Z   1
loop_
 _symmetry_equiv_pos_site_id
 _symmetry_equiv_pos_as_xyz
  1  'x, y, z'
loop_
 _atom_site_type_symbol
 _atom_site_label
 _atom_site_symmetry_multiplicity
 _atom_site_fract_x
 _atom_site_fract_y
 _atom_site_fract_z
 _atom_site_occupancy
  Sr  Sr0  1  0.000000  0.000000  0.000000  1
  Ca  Ca1  1  0.129590  0.129590  0.353665  1
  Ca  Ca2  1  0.870410  0.870410  0.646334  1
  Pd  Pd3  1  0.669412  0.330587  0.000000  1
  Pd  Pd4  1  0.330587  0.669412  0.000000  1
  Pd  Pd5  1  0.578439  0.073091  0.204191  1
  Pd  Pd6  1  0.073091  0.578439  0.204191  1
  Pd  Pd7  1  0.568488  0.568488  0.202248  1
  Pd  Pd8  1  0.809496  0.483701  0.410138  1
  Pd  Pd9  1  0.483701  0.809496  0.410138  1
  Pd  Pd10  1  0.516299  0.190504  0.589862  1
  Pd  Pd11  1  0.190504  0.516299  0.589862  1
  Pd  Pd12  1  0.431512  0.431512  0.797752  1
  Pd  Pd13  1  0.926909  0.421561  0.795809  1
  Pd  Pd14  1  0.421561  0.926909  0.795809  1
