# generated using pymatgen
data_Na12Si7GePt8
_symmetry_space_group_name_H-M   'P 1'
_cell_length_a   6.09237752
_cell_length_b   7.52297293
_cell_length_c   13.07366300
_cell_angle_alpha   90.00000000
_cell_angle_beta   90.00000000
_cell_angle_gamma   89.94779448
_symmetry_Int_Tables_number   1
_chemical_formula_structural   Na12Si7GePt8
_chemical_formula_sum   'Na12 Si7 Ge1 Pt8'
_cell_volume   599.20221741
_cell_formula_units_Z   1
loop_
 _symmetry_equiv_pos_site_id
 _symmetry_equiv_pos_as_xyz
  1  'x, y, z'
loop_
 _atom_site_type_symbol
 _atom_site_label
 _atom_site_symmetry_multiplicity
 _atom_site_fract_x
 _atom_site_fract_y
 _atom_site_fract_z
 _atom_site_occupancy
  Na  Na0  1  0.653852  0.205496  0.250000  1
  Na  Na1  1  0.347426  0.790835  0.750000  1
  Na  Na2  1  0.346698  0.703633  0.250000  1
  Na  Na3  1  0.647015  0.296673  0.750000  1
  Na  Na4  1  0.120198  0.388940  0.102035  1
  Na  Na5  1  0.879985  0.612734  0.899560  1
  Na  Na6  1  0.879985  0.612734  0.600440  1
  Na  Na7  1  0.882331  0.889401  0.397665  1
  Na  Na8  1  0.120198  0.388940  0.397965  1
  Na  Na9  1  0.118438  0.108398  0.600511  1
  Na  Na10  1  0.118438  0.108398  0.899489  1
  Na  Na11  1  0.882331  0.889401  0.102335  1
  Si  Si12  1  0.194536  0.067661  0.250000  1
  Si  Si13  1  0.805172  0.931975  0.750000  1
  Si  Si14  1  0.809047  0.569889  0.250000  1
  Si  Si15  1  0.556579  0.250492  0.000397  1
  Si  Si16  1  0.447172  0.750850  0.000842  1
  Si  Si17  1  0.447172  0.750850  0.499158  1
  Si  Si18  1  0.556579  0.250492  0.499603  1
  Ge  Ge19  1  0.174628  0.425979  0.750000  1
  Pt  Pt20  1  0.366044  0.018599  0.092260  1
  Pt  Pt21  1  0.634973  0.982600  0.907888  1
  Pt  Pt22  1  0.634973  0.982600  0.592112  1
  Pt  Pt23  1  0.637742  0.518431  0.407406  1
  Pt  Pt24  1  0.366044  0.018599  0.407740  1
  Pt  Pt25  1  0.367352  0.483485  0.589260  1
  Pt  Pt26  1  0.367352  0.483485  0.910740  1
  Pt  Pt27  1  0.637742  0.518431  0.092594  1
