# generated using pymatgen
data_Ac2La10In4C3
_symmetry_space_group_name_H-M   'P 1'
_cell_length_a   5.26085700
_cell_length_b   5.26085700
_cell_length_c   20.93131400
_cell_angle_alpha   90.00000000
_cell_angle_beta   90.00000000
_cell_angle_gamma   90.00000000
_symmetry_Int_Tables_number   1
_chemical_formula_structural   Ac2La10In4C3
_chemical_formula_sum   'Ac2 La10 In4 C3'
_cell_volume   579.30794779
_cell_formula_units_Z   1
loop_
 _symmetry_equiv_pos_site_id
 _symmetry_equiv_pos_as_xyz
  1  'x, y, z'
loop_
 _atom_site_type_symbol
 _atom_site_label
 _atom_site_symmetry_multiplicity
 _atom_site_fract_x
 _atom_site_fract_y
 _atom_site_fract_z
 _atom_site_occupancy
  Ac  Ac0  1  0.500000  0.000000  0.000000  1
  Ac  Ac1  1  0.000000  0.500000  0.000000  1
  La  La2  1  0.500000  0.500000  0.869592  1
  La  La3  1  0.500000  0.500000  0.130408  1
  La  La4  1  0.500000  0.500000  0.376028  1
  La  La5  1  0.500000  0.500000  0.623972  1
  La  La6  1  0.500000  0.000000  0.250673  1
  La  La7  1  0.500000  0.000000  0.500000  1
  La  La8  1  0.500000  0.000000  0.749327  1
  La  La9  1  0.000000  0.500000  0.250673  1
  La  La10  1  0.000000  0.500000  0.500000  1
  La  La11  1  0.000000  0.500000  0.749327  1
  In  In12  1  0.000000  0.000000  0.873548  1
  In  In13  1  0.000000  0.000000  0.126452  1
  In  In14  1  0.000000  0.000000  0.374315  1
  In  In15  1  0.000000  0.000000  0.625685  1
  C  C16  1  0.500000  0.500000  0.245020  1
  C  C17  1  0.500000  0.500000  0.500000  1
  C  C18  1  0.500000  0.500000  0.754980  1
