# generated using pymatgen
data_LaGa2Ni2Pd
_symmetry_space_group_name_H-M   'P 1'
_cell_length_a   9.13119900
_cell_length_b   9.13120022
_cell_length_c   4.24015900
_cell_angle_alpha   90.00000000
_cell_angle_beta   90.00000000
_cell_angle_gamma   119.99999195
_symmetry_Int_Tables_number   1
_chemical_formula_structural   LaGa2Ni2Pd
_chemical_formula_sum   'La3 Ga6 Ni6 Pd3'
_cell_volume   306.17412306
_cell_formula_units_Z   3
loop_
 _symmetry_equiv_pos_site_id
 _symmetry_equiv_pos_as_xyz
  1  'x, y, z'
loop_
 _atom_site_type_symbol
 _atom_site_label
 _atom_site_symmetry_multiplicity
 _atom_site_fract_x
 _atom_site_fract_y
 _atom_site_fract_z
 _atom_site_occupancy
  La  La0  1  0.666667  0.333333  0.500000  1
  La  La1  1  0.333333  0.666667  0.500000  1
  La  La2  1  0.000000  0.000000  0.000000  1
  Ga  Ga3  1  0.462371  0.462371  0.000000  1
  Ga  Ga4  1  0.537629  0.000000  0.000000  1
  Ga  Ga5  1  0.000000  0.537629  0.000000  1
  Ga  Ga6  1  0.716652  0.716652  0.500000  1
  Ga  Ga7  1  0.283348  0.000000  0.500000  1
  Ga  Ga8  1  0.000000  0.283348  0.500000  1
  Ni  Ni9  1  0.838514  0.221330  0.000000  1
  Ni  Ni10  1  0.778670  0.617184  0.000000  1
  Ni  Ni11  1  0.382816  0.161486  0.000000  1
  Ni  Ni12  1  0.221330  0.838514  0.000000  1
  Ni  Ni13  1  0.617184  0.778670  0.000000  1
  Ni  Ni14  1  0.161486  0.382816  0.000000  1
  Pd  Pd15  1  0.282767  0.282767  0.500000  1
  Pd  Pd16  1  0.717233  0.000000  0.500000  1
  Pd  Pd17  1  0.000000  0.717233  0.500000  1
