# generated using pymatgen
data_Tb8Ga12Ni3Rh
_symmetry_space_group_name_H-M   'P 1'
_cell_length_a   7.06217400
_cell_length_b   8.76441112
_cell_length_c   8.76441100
_cell_angle_alpha   119.99999578
_cell_angle_beta   90.00000000
_cell_angle_gamma   90.00000000
_symmetry_Int_Tables_number   1
_chemical_formula_structural   Tb8Ga12Ni3Rh
_chemical_formula_sum   'Tb8 Ga12 Ni3 Rh1'
_cell_volume   469.80165261
_cell_formula_units_Z   1
loop_
 _symmetry_equiv_pos_site_id
 _symmetry_equiv_pos_as_xyz
  1  'x, y, z'
loop_
 _atom_site_type_symbol
 _atom_site_label
 _atom_site_symmetry_multiplicity
 _atom_site_fract_x
 _atom_site_fract_y
 _atom_site_fract_z
 _atom_site_occupancy
  Tb  Tb0  1  0.753254  0.000000  0.000000  1
  Tb  Tb1  1  0.249901  0.000000  0.000000  1
  Tb  Tb2  1  0.749809  0.479169  0.520831  1
  Tb  Tb3  1  0.250856  0.522919  0.477081  1
  Tb  Tb4  1  0.749809  0.041665  0.520831  1
  Tb  Tb5  1  0.250856  0.954164  0.477081  1
  Tb  Tb6  1  0.749809  0.479169  0.958335  1
  Tb  Tb7  1  0.250856  0.522919  0.045836  1
  Ga  Ga8  1  0.954538  0.828630  0.171370  1
  Ga  Ga9  1  0.046346  0.171562  0.828438  1
  Ga  Ga10  1  0.954538  0.342742  0.171370  1
  Ga  Ga11  1  0.454796  0.171792  0.828208  1
  Ga  Ga12  1  0.046346  0.656875  0.828438  1
  Ga  Ga13  1  0.545854  0.832263  0.167737  1
  Ga  Ga14  1  0.954538  0.828630  0.657258  1
  Ga  Ga15  1  0.454796  0.656416  0.828208  1
  Ga  Ga16  1  0.046346  0.171562  0.343125  1
  Ga  Ga17  1  0.545854  0.335476  0.167737  1
  Ga  Ga18  1  0.454796  0.171792  0.343584  1
  Ga  Ga19  1  0.545854  0.832263  0.664524  1
  Ni  Ni20  1  0.967281  0.666667  0.333333  1
  Ni  Ni21  1  0.026420  0.333333  0.666667  1
  Ni  Ni22  1  0.473199  0.333333  0.666667  1
  Rh  Rh23  1  0.523345  0.666667  0.333333  1
