# generated using pymatgen
data_Ba12Tb3YAl6(GaO15)2
_symmetry_space_group_name_H-M   'P 1'
_cell_length_a   5.97819201
_cell_length_b   7.94335442
_cell_length_c   18.56561400
_cell_angle_alpha   88.44894800
_cell_angle_beta   89.99758480
_cell_angle_gamma   89.99890316
_symmetry_Int_Tables_number   1
_chemical_formula_structural   Ba12Tb3YAl6(GaO15)2
_chemical_formula_sum   'Ba12 Tb3 Y1 Al6 Ga2 O30'
_cell_volume   881.30039144
_cell_formula_units_Z   1
loop_
 _symmetry_equiv_pos_site_id
 _symmetry_equiv_pos_as_xyz
  1  'x, y, z'
loop_
 _atom_site_type_symbol
 _atom_site_label
 _atom_site_symmetry_multiplicity
 _atom_site_fract_x
 _atom_site_fract_y
 _atom_site_fract_z
 _atom_site_occupancy
  Ba  Ba0  1  0.756425  0.501149  0.082429  1
  Ba  Ba1  1  0.243569  0.498841  0.917671  1
  Ba  Ba2  1  0.756173  0.500304  0.417825  1
  Ba  Ba3  1  0.244158  0.499865  0.582000  1
  Ba  Ba4  1  0.747817  0.969834  0.089999  1
  Ba  Ba5  1  0.252213  0.030132  0.910069  1
  Ba  Ba6  1  0.748335  0.028778  0.409975  1
  Ba  Ba7  1  0.251933  0.971080  0.589863  1
  Ba  Ba8  1  0.727218  0.001215  0.751937  1
  Ba  Ba9  1  0.272686  0.998704  0.248134  1
  Ba  Ba10  1  0.673857  0.499246  0.750753  1
  Ba  Ba11  1  0.326002  0.500808  0.249383  1
  Tb  Tb12  1  0.748052  0.752182  0.910726  1
  Tb  Tb13  1  0.251946  0.247805  0.089319  1
  Tb  Tb14  1  0.748150  0.245809  0.591312  1
  Y  Y15  1  0.252114  0.754124  0.408632  1
  Al  Al16  1  0.748075  0.247686  0.944011  1
  Al  Al17  1  0.251899  0.752310  0.056017  1
  Al  Al18  1  0.769563  0.779421  0.267223  1
  Al  Al19  1  0.230149  0.220642  0.733063  1
  Al  Al20  1  0.769328  0.220906  0.232526  1
  Al  Al21  1  0.230601  0.779085  0.767472  1
  Ga  Ga22  1  0.747700  0.753341  0.558859  1
  Ga  Ga23  1  0.252572  0.246683  0.440733  1
  O  O24  1  0.208296  0.999808  0.750393  1
  O  O25  1  0.791542  0.000176  0.249696  1
  O  O26  1  0.500082  0.764191  0.001777  1
  O  O27  1  0.499937  0.235799  0.998265  1
  O  O28  1  0.508256  0.234199  0.499120  1
  O  O29  1  0.491447  0.765861  0.500661  1
  O  O30  1  0.763979  0.951884  0.609938  1
  O  O31  1  0.236445  0.047644  0.389893  1
  O  O32  1  0.761594  0.056803  0.894124  1
  O  O33  1  0.238443  0.943171  0.105894  1
  O  O34  1  0.015408  0.763012  0.995552  1
  O  O35  1  0.984518  0.236985  0.004492  1
  O  O36  1  0.010224  0.235389  0.506070  1
  O  O37  1  0.990188  0.764650  0.493506  1
  O  O38  1  0.316900  0.692101  0.686674  1
  O  O39  1  0.682918  0.307969  0.313284  1
  O  O40  1  0.318064  0.307711  0.813596  1
  O  O41  1  0.682671  0.691979  0.186673  1
  O  O42  1  0.450532  0.754696  0.833231  1
  O  O43  1  0.549451  0.245243  0.166768  1
  O  O44  1  0.448567  0.245510  0.667404  1
  O  O45  1  0.550317  0.754615  0.332629  1
  O  O46  1  0.972921  0.729064  0.810993  1
  O  O47  1  0.027026  0.270874  0.189031  1
  O  O48  1  0.971930  0.271719  0.690947  1
  O  O49  1  0.027514  0.728713  0.309725  1
  O  O50  1  0.753333  0.532527  0.594931  1
  O  O51  1  0.246900  0.467743  0.404762  1
  O  O52  1  0.753433  0.459963  0.907872  1
  O  O53  1  0.246629  0.540055  0.092165  1
