# generated using pymatgen
data_Dy2Ho2Al18CuIr5
_symmetry_space_group_name_H-M   'P 1'
_cell_length_a   7.55708677
_cell_length_b   7.55727617
_cell_length_c   9.44082966
_cell_angle_alpha   90.07302412
_cell_angle_beta   90.08082594
_cell_angle_gamma   119.69335868
_symmetry_Int_Tables_number   1
_chemical_formula_structural   Dy2Ho2Al18CuIr5
_chemical_formula_sum   'Dy2 Ho2 Al18 Cu1 Ir5'
_cell_volume   468.37380980
_cell_formula_units_Z   1
loop_
 _symmetry_equiv_pos_site_id
 _symmetry_equiv_pos_as_xyz
  1  'x, y, z'
loop_
 _atom_site_type_symbol
 _atom_site_label
 _atom_site_symmetry_multiplicity
 _atom_site_fract_x
 _atom_site_fract_y
 _atom_site_fract_z
 _atom_site_occupancy
  Dy  Dy0  1  0.995355  0.670074  0.250256  1
  Dy  Dy1  1  0.004645  0.329926  0.749744  1
  Ho  Ho2  1  0.670054  0.995367  0.250274  1
  Ho  Ho3  1  0.329946  0.004633  0.749726  1
  Al  Al4  1  0.127536  0.127575  0.250559  1
  Al  Al5  1  0.872464  0.872425  0.749441  1
  Al  Al6  1  0.000707  0.337559  0.076882  1
  Al  Al7  1  0.999293  0.662441  0.923118  1
  Al  Al8  1  0.000048  0.666256  0.573894  1
  Al  Al9  1  0.333869  0.000014  0.426165  1
  Al  Al10  1  0.999952  0.333744  0.426106  1
  Al  Al11  1  0.666131  0.999986  0.573835  1
  Al  Al12  1  0.662319  0.999237  0.923164  1
  Al  Al13  1  0.337681  0.000763  0.076836  1
  Al  Al14  1  0.333228  0.333177  0.553145  1
  Al  Al15  1  0.666772  0.666823  0.446855  1
  Al  Al16  1  0.663760  0.663813  0.055897  1
  Al  Al17  1  0.336240  0.336187  0.944103  1
  Al  Al18  1  0.338447  0.547738  0.250392  1
  Al  Al19  1  0.661553  0.452262  0.749608  1
  Al  Al20  1  0.547683  0.338352  0.250390  1
  Al  Al21  1  0.452317  0.661648  0.749610  1
  Cu  Cu22  1  0.000000  0.000000  0.000000  1
  Ir  Ir23  1  0.671821  0.328084  0.999997  1
  Ir  Ir24  1  0.328179  0.671916  0.000003  1
  Ir  Ir25  1  0.328222  0.671859  0.499996  1
  Ir  Ir26  1  0.671778  0.328141  0.500004  1
  Ir  Ir27  1  0.000000  0.000000  0.500000  1
