# generated using pymatgen
data_Tb11YCoPd3
_symmetry_space_group_name_H-M   'P 1'
_cell_length_a   6.44366272
_cell_length_b   7.06481384
_cell_length_c   9.65777600
_cell_angle_alpha   90.00000000
_cell_angle_beta   90.00000000
_cell_angle_gamma   90.12740669
_symmetry_Int_Tables_number   1
_chemical_formula_structural   Tb11YCoPd3
_chemical_formula_sum   'Tb11 Y1 Co1 Pd3'
_cell_volume   439.65253023
_cell_formula_units_Z   1
loop_
 _symmetry_equiv_pos_site_id
 _symmetry_equiv_pos_as_xyz
  1  'x, y, z'
loop_
 _atom_site_type_symbol
 _atom_site_label
 _atom_site_symmetry_multiplicity
 _atom_site_fract_x
 _atom_site_fract_y
 _atom_site_fract_z
 _atom_site_occupancy
  Tb  Tb0  1  0.632431  0.026674  0.250000  1
  Tb  Tb1  1  0.379142  0.956346  0.750000  1
  Tb  Tb2  1  0.146180  0.478436  0.750000  1
  Tb  Tb3  1  0.171211  0.179661  0.056264  1
  Tb  Tb4  1  0.819107  0.810877  0.935104  1
  Tb  Tb5  1  0.670251  0.331173  0.932814  1
  Tb  Tb6  1  0.819107  0.810877  0.564896  1
  Tb  Tb7  1  0.325661  0.681983  0.057313  1
  Tb  Tb8  1  0.171211  0.179661  0.443736  1
  Tb  Tb9  1  0.325661  0.681983  0.442687  1
  Tb  Tb10  1  0.670251  0.331173  0.567186  1
  Y  Y11  1  0.868373  0.523806  0.250000  1
  Co  Co12  1  0.558092  0.616647  0.750000  1
  Pd  Pd13  1  0.435120  0.389954  0.250000  1
  Pd  Pd14  1  0.944011  0.110043  0.750000  1
  Pd  Pd15  1  0.064189  0.890705  0.250000  1
