# generated using pymatgen
data_Tb4Tm4Tc3B24Ru
_symmetry_space_group_name_H-M   'P 1'
_cell_length_a   3.66351800
_cell_length_b   9.12482304
_cell_length_c   11.52162701
_cell_angle_alpha   89.92623255
_cell_angle_beta   90.00000000
_cell_angle_gamma   90.00000000
_symmetry_Int_Tables_number   1
_chemical_formula_structural   Tb4Tm4Tc3B24Ru
_chemical_formula_sum   'Tb4 Tm4 Tc3 B24 Ru1'
_cell_volume   385.15561360
_cell_formula_units_Z   1
loop_
 _symmetry_equiv_pos_site_id
 _symmetry_equiv_pos_as_xyz
  1  'x, y, z'
loop_
 _atom_site_type_symbol
 _atom_site_label
 _atom_site_symmetry_multiplicity
 _atom_site_fract_x
 _atom_site_fract_y
 _atom_site_fract_z
 _atom_site_occupancy
  Tb  Tb0  1  0.000000  0.323079  0.413909  1
  Tb  Tb1  1  0.000000  0.675702  0.584296  1
  Tb  Tb2  1  0.000000  0.822642  0.087243  1
  Tb  Tb3  1  0.000000  0.178332  0.914419  1
  Tm  Tm4  1  0.000000  0.942596  0.370255  1
  Tm  Tm5  1  0.000000  0.057679  0.630587  1
  Tm  Tm6  1  0.000000  0.443195  0.130049  1
  Tm  Tm7  1  0.000000  0.557670  0.869224  1
  Tc  Tc8  1  0.000000  0.639025  0.319733  1
  Tc  Tc9  1  0.000000  0.361022  0.680756  1
  Tc  Tc10  1  0.000000  0.138586  0.179162  1
  B  B11  1  0.500000  0.553422  0.432294  1
  B  B12  1  0.500000  0.446292  0.567334  1
  B  B13  1  0.500000  0.053452  0.067355  1
  B  B14  1  0.500000  0.945732  0.932261  1
  B  B15  1  0.500000  0.749454  0.418167  1
  B  B16  1  0.500000  0.249840  0.581985  1
  B  B17  1  0.500000  0.250173  0.081761  1
  B  B18  1  0.500000  0.750597  0.917847  1
  B  B19  1  0.500000  0.792091  0.265807  1
  B  B20  1  0.500000  0.208101  0.734915  1
  B  B21  1  0.500000  0.292094  0.234387  1
  B  B22  1  0.500000  0.708921  0.765461  1
  B  B23  1  0.500000  0.630291  0.185347  1
  B  B24  1  0.500000  0.369869  0.815168  1
  B  B25  1  0.500000  0.129735  0.314349  1
  B  B26  1  0.500000  0.869630  0.685512  1
  B  B27  1  0.500000  0.981747  0.212433  1
  B  B28  1  0.500000  0.016688  0.787764  1
  B  B29  1  0.500000  0.482140  0.287296  1
  B  B30  1  0.500000  0.517780  0.712309  1
  B  B31  1  0.500000  0.600450  0.027484  1
  B  B32  1  0.500000  0.401278  0.972173  1
  B  B33  1  0.500000  0.099658  0.472672  1
  B  B34  1  0.500000  0.900017  0.528193  1
  Ru  Ru35  1  0.000000  0.861023  0.820099  1
