# generated using pymatgen
data_PrNdPd10
_symmetry_space_group_name_H-M   'P 1'
_cell_length_a   4.47486700
_cell_length_b   5.40707300
_cell_length_c   9.28398300
_cell_angle_alpha   90.00000000
_cell_angle_beta   90.00000000
_cell_angle_gamma   90.00000000
_symmetry_Int_Tables_number   1
_chemical_formula_structural   PrNdPd10
_chemical_formula_sum   'Pr1 Nd1 Pd10'
_cell_volume   224.63462632
_cell_formula_units_Z   1
loop_
 _symmetry_equiv_pos_site_id
 _symmetry_equiv_pos_as_xyz
  1  'x, y, z'
loop_
 _atom_site_type_symbol
 _atom_site_label
 _atom_site_symmetry_multiplicity
 _atom_site_fract_x
 _atom_site_fract_y
 _atom_site_fract_z
 _atom_site_occupancy
  Pr  Pr0  1  0.000000  0.499963  0.500000  1
  Nd  Nd1  1  0.000000  0.999956  0.000000  1
  Pd  Pd2  1  0.000000  0.999979  0.330935  1
  Pd  Pd3  1  0.000000  0.499993  0.832715  1
  Pd  Pd4  1  0.000000  0.499993  0.167285  1
  Pd  Pd5  1  0.000000  0.999979  0.669065  1
  Pd  Pd6  1  0.500000  0.999990  0.500000  1
  Pd  Pd7  1  0.500000  0.499988  0.000000  1
  Pd  Pd8  1  0.500000  0.249949  0.249502  1
  Pd  Pd9  1  0.500000  0.750032  0.750494  1
  Pd  Pd10  1  0.500000  0.750032  0.249506  1
  Pd  Pd11  1  0.500000  0.249949  0.750498  1
