# generated using pymatgen
data_Dy5ErAl24(Os3Ru)2
_symmetry_space_group_name_H-M   'P 1'
_cell_length_a   8.82419325
_cell_length_b   8.82419291
_cell_length_c   9.55874100
_cell_angle_alpha   90.00000000
_cell_angle_beta   90.00000000
_cell_angle_gamma   120.02726438
_symmetry_Int_Tables_number   1
_chemical_formula_structural   Dy5ErAl24(Os3Ru)2
_chemical_formula_sum   'Dy5 Er1 Al24 Os6 Ru2'
_cell_volume   644.40952238
_cell_formula_units_Z   1
loop_
 _symmetry_equiv_pos_site_id
 _symmetry_equiv_pos_as_xyz
  1  'x, y, z'
loop_
 _atom_site_type_symbol
 _atom_site_label
 _atom_site_symmetry_multiplicity
 _atom_site_fract_x
 _atom_site_fract_y
 _atom_site_fract_z
 _atom_site_occupancy
  Dy  Dy0  1  0.193327  0.386697  0.250000  1
  Dy  Dy1  1  0.613303  0.806673  0.250000  1
  Dy  Dy2  1  0.806625  0.193375  0.750000  1
  Dy  Dy3  1  0.806644  0.613275  0.750000  1
  Dy  Dy4  1  0.386725  0.193356  0.750000  1
  Er  Er5  1  0.193462  0.806538  0.250000  1
  Al  Al6  1  0.560800  0.439200  0.250000  1
  Al  Al7  1  0.560539  0.121348  0.250000  1
  Al  Al8  1  0.878652  0.439461  0.250000  1
  Al  Al9  1  0.439218  0.560782  0.750000  1
  Al  Al10  1  0.439193  0.878407  0.750000  1
  Al  Al11  1  0.121593  0.560807  0.750000  1
  Al  Al12  1  0.324022  0.161899  0.423478  1
  Al  Al13  1  0.837984  0.162016  0.423501  1
  Al  Al14  1  0.838101  0.675978  0.423478  1
  Al  Al15  1  0.675926  0.837966  0.576464  1
  Al  Al16  1  0.162047  0.837953  0.576345  1
  Al  Al17  1  0.162034  0.324074  0.576464  1
  Al  Al18  1  0.675926  0.837966  0.923536  1
  Al  Al19  1  0.162047  0.837953  0.923655  1
  Al  Al20  1  0.162034  0.324074  0.923536  1
  Al  Al21  1  0.324022  0.161899  0.076522  1
  Al  Al22  1  0.837984  0.162016  0.076499  1
  Al  Al23  1  0.838101  0.675978  0.076522  1
  Al  Al24  1  0.666666  0.333334  0.515680  1
  Al  Al25  1  0.333254  0.666746  0.484256  1
  Al  Al26  1  0.333254  0.666746  0.015744  1
  Al  Al27  1  0.666666  0.333334  0.984320  1
  Al  Al28  1  0.000108  0.999892  0.250000  1
  Al  Al29  1  0.000001  0.999999  0.750000  1
  Os  Os30  1  0.499951  0.500049  0.499930  1
  Os  Os31  1  0.499806  0.999890  0.499857  1
  Os  Os32  1  0.000110  0.500194  0.499857  1
  Os  Os33  1  0.499951  0.500049  0.000070  1
  Os  Os34  1  0.499806  0.999890  0.000143  1
  Os  Os35  1  0.000110  0.500194  0.000143  1
  Ru  Ru36  1  0.000001  0.999999  0.499959  1
  Ru  Ru37  1  0.000001  0.999999  0.000041  1
