# generated using pymatgen
data_Al7Zn(NiRu)4
_symmetry_space_group_name_H-M   'P 1'
_cell_length_a   5.80672181
_cell_length_b   5.80677381
_cell_length_c   6.09792001
_cell_angle_alpha   89.99367188
_cell_angle_beta   89.99548432
_cell_angle_gamma   90.28374845
_symmetry_Int_Tables_number   1
_chemical_formula_structural   Al7Zn(NiRu)4
_chemical_formula_sum   'Al7 Zn1 Ni4 Ru4'
_cell_volume   205.60909576
_cell_formula_units_Z   1
loop_
 _symmetry_equiv_pos_site_id
 _symmetry_equiv_pos_as_xyz
  1  'x, y, z'
loop_
 _atom_site_type_symbol
 _atom_site_label
 _atom_site_symmetry_multiplicity
 _atom_site_fract_x
 _atom_site_fract_y
 _atom_site_fract_z
 _atom_site_occupancy
  Al  Al0  1  0.500048  0.499968  0.249976  1
  Al  Al1  1  0.000013  0.000005  0.250141  1
  Al  Al2  1  0.000027  0.500024  0.250143  1
  Al  Al3  1  0.999977  0.000010  0.749851  1
  Al  Al4  1  0.999967  0.499975  0.749850  1
  Al  Al5  1  0.499988  0.000008  0.750018  1
  Al  Al6  1  0.499976  0.500022  0.750015  1
  Zn  Zn7  1  0.500020  0.999999  0.249892  1
  Ni  Ni8  1  0.249178  0.749249  0.999216  1
  Ni  Ni9  1  0.750699  0.250766  0.500831  1
  Ni  Ni10  1  0.249284  0.749210  0.500989  1
  Ni  Ni11  1  0.750849  0.250776  0.999004  1
  Ru  Ru12  1  0.248292  0.251594  0.998646  1
  Ru  Ru13  1  0.751685  0.748389  0.998651  1
  Ru  Ru14  1  0.248408  0.251647  0.501384  1
  Ru  Ru15  1  0.751593  0.748351  0.501392  1
