# generated using pymatgen
data_Ba2PaTlO6
_symmetry_space_group_name_H-M   'P 1'
_cell_length_a   6.15076093
_cell_length_b   6.15076132
_cell_length_c   6.20154900
_cell_angle_alpha   59.84830235
_cell_angle_beta   59.84830028
_cell_angle_gamma   60.09642814
_symmetry_Int_Tables_number   1
_chemical_formula_structural   Ba2PaTlO6
_chemical_formula_sum   'Ba2 Pa1 Tl1 O6'
_cell_volume   165.63698475
_cell_formula_units_Z   1
loop_
 _symmetry_equiv_pos_site_id
 _symmetry_equiv_pos_as_xyz
  1  'x, y, z'
loop_
 _atom_site_type_symbol
 _atom_site_label
 _atom_site_symmetry_multiplicity
 _atom_site_fract_x
 _atom_site_fract_y
 _atom_site_fract_z
 _atom_site_occupancy
  Ba  Ba0  1  0.250436  0.250436  0.258145  1
  Ba  Ba1  1  0.749564  0.749564  0.741855  1
  Pa  Pa2  1  0.500000  0.500000  0.500000  1
  Tl  Tl3  1  0.000000  0.000000  0.000000  1
  O  O4  1  0.299647  0.788623  0.699213  1
  O  O5  1  0.211377  0.700353  0.300787  1
  O  O6  1  0.700353  0.211377  0.300787  1
  O  O7  1  0.788623  0.299647  0.699213  1
  O  O8  1  0.742595  0.742595  0.178155  1
  O  O9  1  0.257405  0.257405  0.821845  1
