# generated using pymatgen
data_Dy3Ho3(AuO7)2
_symmetry_space_group_name_H-M   'P 1'
_cell_length_a   6.48383346
_cell_length_b   6.48426432
_cell_length_c   7.42905301
_cell_angle_alpha   90.00308445
_cell_angle_beta   89.99945772
_cell_angle_gamma   108.80227935
_symmetry_Int_Tables_number   1
_chemical_formula_structural   Dy3Ho3(AuO7)2
_chemical_formula_sum   'Dy3 Ho3 Au2 O14'
_cell_volume   295.67134402
_cell_formula_units_Z   1
loop_
 _symmetry_equiv_pos_site_id
 _symmetry_equiv_pos_as_xyz
  1  'x, y, z'
loop_
 _atom_site_type_symbol
 _atom_site_label
 _atom_site_symmetry_multiplicity
 _atom_site_fract_x
 _atom_site_fract_y
 _atom_site_fract_z
 _atom_site_occupancy
  Dy  Dy0  1  0.471140  0.002262  0.251082  1
  Dy  Dy1  1  0.503927  0.503895  0.500210  1
  Dy  Dy2  1  0.497301  0.497546  0.999850  1
  Ho  Ho3  1  0.002274  0.471075  0.748878  1
  Ho  Ho4  1  0.998227  0.528588  0.248861  1
  Ho  Ho5  1  0.528643  0.998133  0.751111  1
  Au  Au6  1  0.999250  0.999403  0.500315  1
  Au  Au7  1  0.000320  0.000484  0.999711  1
  O  O8  1  0.639660  0.360814  0.750044  1
  O  O9  1  0.360562  0.637981  0.250089  1
  O  O10  1  0.919778  0.080630  0.750032  1
  O  O11  1  0.079345  0.919052  0.250016  1
  O  O12  1  0.917843  0.668475  0.523952  1
  O  O13  1  0.082141  0.331315  0.023666  1
  O  O14  1  0.331280  0.083854  0.975482  1
  O  O15  1  0.668275  0.915691  0.477186  1
  O  O16  1  0.366987  0.633152  0.749950  1
  O  O17  1  0.633699  0.368516  0.249915  1
  O  O18  1  0.920730  0.670275  0.974276  1
  O  O19  1  0.079150  0.329484  0.474523  1
  O  O20  1  0.329550  0.081230  0.526312  1
  O  O21  1  0.669920  0.918147  0.024540  1
