# generated using pymatgen
data_LaPr7(InSi2)4
_symmetry_space_group_name_H-M   'P 1'
_cell_length_a   4.39094900
_cell_length_b   7.59368932
_cell_length_c   14.78623287
_cell_angle_alpha   89.83090432
_cell_angle_beta   90.00000000
_cell_angle_gamma   90.00000000
_symmetry_Int_Tables_number   1
_chemical_formula_structural   LaPr7(InSi2)4
_chemical_formula_sum   'La1 Pr7 In4 Si8'
_cell_volume   493.02264576
_cell_formula_units_Z   1
loop_
 _symmetry_equiv_pos_site_id
 _symmetry_equiv_pos_as_xyz
  1  'x, y, z'
loop_
 _atom_site_type_symbol
 _atom_site_label
 _atom_site_symmetry_multiplicity
 _atom_site_fract_x
 _atom_site_fract_y
 _atom_site_fract_z
 _atom_site_occupancy
  La  La0  1  0.500000  0.886423  0.783070  1
  Pr  Pr1  1  0.500000  0.753010  0.036347  1
  Pr  Pr2  1  0.500000  0.248378  0.964990  1
  Pr  Pr3  1  0.500000  0.251938  0.464098  1
  Pr  Pr4  1  0.500000  0.746592  0.534980  1
  Pr  Pr5  1  0.500000  0.613287  0.283397  1
  Pr  Pr6  1  0.500000  0.386702  0.716178  1
  Pr  Pr7  1  0.500000  0.113228  0.216851  1
  In  In8  1  0.000000  0.937947  0.377297  1
  In  In9  1  0.000000  0.064537  0.621229  1
  In  In10  1  0.000000  0.437412  0.122917  1
  In  In11  1  0.000000  0.559580  0.877969  1
  Si  Si12  1  0.000000  0.553225  0.423408  1
  Si  Si13  1  0.000000  0.444643  0.575604  1
  Si  Si14  1  0.000000  0.054847  0.077015  1
  Si  Si15  1  0.000000  0.948262  0.924819  1
  Si  Si16  1  0.000000  0.818995  0.184624  1
  Si  Si17  1  0.000000  0.183330  0.816494  1
  Si  Si18  1  0.000000  0.319229  0.315352  1
  Si  Si19  1  0.000000  0.678431  0.683362  1
