# generated using pymatgen
data_Lu3Al2GaNi3
_symmetry_space_group_name_H-M   'P 1'
_cell_length_a   6.89882443
_cell_length_b   6.88690143
_cell_length_c   3.76551400
_cell_angle_alpha   90.00000000
_cell_angle_beta   90.00000000
_cell_angle_gamma   119.94283709
_symmetry_Int_Tables_number   1
_chemical_formula_structural   Lu3Al2GaNi3
_chemical_formula_sum   'Lu3 Al2 Ga1 Ni3'
_cell_volume   155.02570979
_cell_formula_units_Z   1
loop_
 _symmetry_equiv_pos_site_id
 _symmetry_equiv_pos_as_xyz
  1  'x, y, z'
loop_
 _atom_site_type_symbol
 _atom_site_label
 _atom_site_symmetry_multiplicity
 _atom_site_fract_x
 _atom_site_fract_y
 _atom_site_fract_z
 _atom_site_occupancy
  Lu  Lu0  1  0.000000  0.418588  0.500000  1
  Lu  Lu1  1  0.586109  0.585088  0.500000  1
  Lu  Lu2  1  0.413891  0.998978  0.500000  1
  Al  Al3  1  0.240153  0.240549  0.000000  1
  Al  Al4  1  0.759847  0.000396  0.000000  1
  Ga  Ga5  1  0.000000  0.755607  0.000000  1
  Ni  Ni6  1  0.335827  0.666798  0.000000  1
  Ni  Ni7  1  0.664173  0.330970  0.000000  1
  Ni  Ni8  1  0.000000  0.003027  0.500000  1
