# generated using pymatgen
data_Sm2Re7Si4W
_symmetry_space_group_name_H-M   'P 1'
_cell_length_a   7.17812829
_cell_length_b   7.76777356
_cell_length_c   4.17636100
_cell_angle_alpha   90.00000000
_cell_angle_beta   90.00000000
_cell_angle_gamma   90.04587988
_symmetry_Int_Tables_number   1
_chemical_formula_structural   Sm2Re7Si4W
_chemical_formula_sum   'Sm2 Re7 Si4 W1'
_cell_volume   232.86577579
_cell_formula_units_Z   1
loop_
 _symmetry_equiv_pos_site_id
 _symmetry_equiv_pos_as_xyz
  1  'x, y, z'
loop_
 _atom_site_type_symbol
 _atom_site_label
 _atom_site_symmetry_multiplicity
 _atom_site_fract_x
 _atom_site_fract_y
 _atom_site_fract_z
 _atom_site_occupancy
  Sm  Sm0  1  0.500781  0.498198  0.000000  1
  Sm  Sm1  1  0.999505  0.999861  0.500000  1
  Re  Re2  1  0.155234  0.606237  0.500000  1
  Re  Re3  1  0.079100  0.340499  0.000000  1
  Re  Re4  1  0.922366  0.659176  0.000000  1
  Re  Re5  1  0.420848  0.838548  0.500000  1
  Re  Re6  1  0.578710  0.164305  0.500000  1
  Re  Re7  1  0.342876  0.108352  0.000000  1
  Re  Re8  1  0.846379  0.392396  0.500000  1
  Si  Si9  1  0.226045  0.807514  0.000000  1
  Si  Si10  1  0.776647  0.194452  0.000000  1
  Si  Si11  1  0.726811  0.690826  0.500000  1
  Si  Si12  1  0.274237  0.306936  0.500000  1
  W  W13  1  0.650463  0.892698  0.000000  1
