# generated using pymatgen
data_Pr(PPd3)2
_symmetry_space_group_name_H-M   'P 1'
_cell_length_a   8.54209700
_cell_length_b   8.54209700
_cell_length_c   8.54209700
_cell_angle_alpha   90.00000000
_cell_angle_beta   90.00000000
_cell_angle_gamma   90.00000000
_symmetry_Int_Tables_number   1
_chemical_formula_structural   Pr(PPd3)2
_chemical_formula_sum   'Pr4 P8 Pd24'
_cell_volume   623.29478937
_cell_formula_units_Z   4
loop_
 _symmetry_equiv_pos_site_id
 _symmetry_equiv_pos_as_xyz
  1  'x, y, z'
loop_
 _atom_site_type_symbol
 _atom_site_label
 _atom_site_symmetry_multiplicity
 _atom_site_fract_x
 _atom_site_fract_y
 _atom_site_fract_z
 _atom_site_occupancy
  Pr  Pr0  1  0.500000  0.500000  0.000000  1
  Pr  Pr1  1  0.500000  0.000000  0.500000  1
  Pr  Pr2  1  0.000000  0.500000  0.500000  1
  Pr  Pr3  1  0.000000  0.000000  0.000000  1
  P  P4  1  0.807366  0.307366  0.192634  1
  P  P5  1  0.192634  0.807366  0.307366  1
  P  P6  1  0.692634  0.692634  0.692634  1
  P  P7  1  0.307366  0.192634  0.807366  1
  P  P8  1  0.192634  0.692634  0.807366  1
  P  P9  1  0.807366  0.192634  0.692634  1
  P  P10  1  0.307366  0.307366  0.307366  1
  P  P11  1  0.692634  0.807366  0.192634  1
  Pd  Pd12  1  0.421262  0.846179  0.161916  1
  Pd  Pd13  1  0.578738  0.346179  0.338084  1
  Pd  Pd14  1  0.078738  0.153821  0.661916  1
  Pd  Pd15  1  0.921262  0.653821  0.838084  1
  Pd  Pd16  1  0.161916  0.421262  0.846179  1
  Pd  Pd17  1  0.338084  0.578738  0.346179  1
  Pd  Pd18  1  0.661916  0.078738  0.153821  1
  Pd  Pd19  1  0.838084  0.921262  0.653821  1
  Pd  Pd20  1  0.846179  0.161916  0.421262  1
  Pd  Pd21  1  0.346179  0.338084  0.578738  1
  Pd  Pd22  1  0.153821  0.661916  0.078738  1
  Pd  Pd23  1  0.653821  0.838084  0.921262  1
  Pd  Pd24  1  0.578738  0.153821  0.838084  1
  Pd  Pd25  1  0.421262  0.653821  0.661916  1
  Pd  Pd26  1  0.921262  0.846179  0.338084  1
  Pd  Pd27  1  0.078738  0.346179  0.161916  1
  Pd  Pd28  1  0.838084  0.578738  0.153821  1
  Pd  Pd29  1  0.661916  0.421262  0.653821  1
  Pd  Pd30  1  0.338084  0.921262  0.846179  1
  Pd  Pd31  1  0.161916  0.078738  0.346179  1
  Pd  Pd32  1  0.153821  0.838084  0.578738  1
  Pd  Pd33  1  0.653821  0.661916  0.421262  1
  Pd  Pd34  1  0.846179  0.338084  0.921262  1
  Pd  Pd35  1  0.346179  0.161916  0.078738  1
