# generated using pymatgen
data_CaY2Ga6Ni7Ir2
_symmetry_space_group_name_H-M   'P 1'
_cell_length_a   9.22030176
_cell_length_b   9.22030134
_cell_length_c   3.85925200
_cell_angle_alpha   90.00000000
_cell_angle_beta   90.00000000
_cell_angle_gamma   121.15456851
_symmetry_Int_Tables_number   1
_chemical_formula_structural   CaY2Ga6Ni7Ir2
_chemical_formula_sum   'Ca1 Y2 Ga6 Ni7 Ir2'
_cell_volume   280.77139249
_cell_formula_units_Z   1
loop_
 _symmetry_equiv_pos_site_id
 _symmetry_equiv_pos_as_xyz
  1  'x, y, z'
loop_
 _atom_site_type_symbol
 _atom_site_label
 _atom_site_symmetry_multiplicity
 _atom_site_fract_x
 _atom_site_fract_y
 _atom_site_fract_z
 _atom_site_occupancy
  Ca  Ca0  1  0.000000  0.000000  0.000000  1
  Y  Y1  1  0.325887  0.674113  0.500000  1
  Y  Y2  1  0.674113  0.325887  0.500000  1
  Ga  Ga3  1  0.326866  0.326866  0.500000  1
  Ga  Ga4  1  0.690046  0.994665  0.500000  1
  Ga  Ga5  1  0.673134  0.673134  0.500000  1
  Ga  Ga6  1  0.005335  0.309954  0.500000  1
  Ga  Ga7  1  0.994665  0.690046  0.500000  1
  Ga  Ga8  1  0.309954  0.005335  0.500000  1
  Ni  Ni9  1  0.186649  0.361028  0.000000  1
  Ni  Ni10  1  0.813351  0.638972  0.000000  1
  Ni  Ni11  1  0.174157  0.825843  0.000000  1
  Ni  Ni12  1  0.638972  0.813351  0.000000  1
  Ni  Ni13  1  0.361028  0.186649  0.000000  1
  Ni  Ni14  1  0.825843  0.174157  0.000000  1
  Ni  Ni15  1  0.500000  0.500000  0.000000  1
  Ir  Ir16  1  0.500000  0.000000  0.000000  1
  Ir  Ir17  1  0.000000  0.500000  0.000000  1
