# generated using pymatgen
data_La3Ag3IrPd2
_symmetry_space_group_name_H-M   'P 1'
_cell_length_a   7.68456300
_cell_length_b   7.68456258
_cell_length_c   4.09922600
_cell_angle_alpha   90.00000000
_cell_angle_beta   90.00000000
_cell_angle_gamma   120.00000612
_symmetry_Int_Tables_number   1
_chemical_formula_structural   La3Ag3IrPd2
_chemical_formula_sum   'La3 Ag3 Ir1 Pd2'
_cell_volume   209.63837980
_cell_formula_units_Z   1
loop_
 _symmetry_equiv_pos_site_id
 _symmetry_equiv_pos_as_xyz
  1  'x, y, z'
loop_
 _atom_site_type_symbol
 _atom_site_label
 _atom_site_symmetry_multiplicity
 _atom_site_fract_x
 _atom_site_fract_y
 _atom_site_fract_z
 _atom_site_occupancy
  La  La0  1  0.414434  0.400740  0.500000  1
  La  La1  1  0.599260  0.013693  0.500000  1
  La  La2  1  0.986307  0.585566  0.500000  1
  Ag  Ag3  1  0.751067  0.755039  0.000000  1
  Ag  Ag4  1  0.244961  0.996029  0.000000  1
  Ag  Ag5  1  0.003971  0.248933  0.000000  1
  Ir  Ir6  1  0.666667  0.333333  0.000000  1
  Pd  Pd7  1  0.333333  0.666667  0.000000  1
  Pd  Pd8  1  0.000000  0.000000  0.500000  1
