# generated using pymatgen
data_Sc8BPBr12
_symmetry_space_group_name_H-M   'P 1'
_cell_length_a   3.77544900
_cell_length_b   12.57058552
_cell_length_c   13.02628584
_cell_angle_alpha   89.73517495
_cell_angle_beta   90.00000000
_cell_angle_gamma   90.00000000
_symmetry_Int_Tables_number   1
_chemical_formula_structural   Sc8BPBr12
_chemical_formula_sum   'Sc8 B1 P1 Br12'
_cell_volume   618.21577062
_cell_formula_units_Z   1
loop_
 _symmetry_equiv_pos_site_id
 _symmetry_equiv_pos_as_xyz
  1  'x, y, z'
loop_
 _atom_site_type_symbol
 _atom_site_label
 _atom_site_symmetry_multiplicity
 _atom_site_fract_x
 _atom_site_fract_y
 _atom_site_fract_z
 _atom_site_occupancy
  Sc  Sc0  1  0.000000  0.106614  0.084889  1
  Sc  Sc1  1  0.000000  0.893386  0.915111  1
  Sc  Sc2  1  0.000000  0.597975  0.422034  1
  Sc  Sc3  1  0.000000  0.402025  0.577966  1
  Sc  Sc4  1  0.500000  0.127565  0.850411  1
  Sc  Sc5  1  0.500000  0.872435  0.149589  1
  Sc  Sc6  1  0.500000  0.618595  0.639130  1
  Sc  Sc7  1  0.500000  0.381405  0.360870  1
  B  B8  1  0.500000  0.500000  0.500000  1
  P  P9  1  0.500000  0.000000  0.000000  1
  Br  Br10  1  0.500000  0.269701  0.680210  1
  Br  Br11  1  0.500000  0.730299  0.319790  1
  Br  Br12  1  0.500000  0.767510  0.818195  1
  Br  Br13  1  0.500000  0.232490  0.181805  1
  Br  Br14  1  0.000000  0.259168  0.931641  1
  Br  Br15  1  0.000000  0.740832  0.068359  1
  Br  Br16  1  0.000000  0.480456  0.242520  1
  Br  Br17  1  0.000000  0.519544  0.757480  1
  Br  Br18  1  0.000000  0.980395  0.258877  1
  Br  Br19  1  0.000000  0.019605  0.741123  1
  Br  Br20  1  0.000000  0.242208  0.432027  1
  Br  Br21  1  0.000000  0.757792  0.567973  1
