# generated using pymatgen
data_Mn4Nb4FeOs3
_symmetry_space_group_name_H-M   'P 1'
_cell_length_a   4.88073331
_cell_length_b   4.93110609
_cell_length_c   8.19690000
_cell_angle_alpha   90.00000000
_cell_angle_beta   90.00000000
_cell_angle_gamma   60.38935742
_symmetry_Int_Tables_number   1
_chemical_formula_structural   Mn4Nb4FeOs3
_chemical_formula_sum   'Mn4 Nb4 Fe1 Os3'
_cell_volume   171.51427756
_cell_formula_units_Z   1
loop_
 _symmetry_equiv_pos_site_id
 _symmetry_equiv_pos_as_xyz
  1  'x, y, z'
loop_
 _atom_site_type_symbol
 _atom_site_label
 _atom_site_symmetry_multiplicity
 _atom_site_fract_x
 _atom_site_fract_y
 _atom_site_fract_z
 _atom_site_occupancy
  Mn  Mn0  1  0.825520  0.831990  0.750000  1
  Mn  Mn1  1  0.180827  0.637991  0.250000  1
  Mn  Mn2  1  0.641714  0.180394  0.250000  1
  Mn  Mn3  1  0.178169  0.177251  0.250000  1
  Nb  Nb4  1  0.332599  0.334151  0.565514  1
  Nb  Nb5  1  0.664156  0.669357  0.432702  1
  Nb  Nb6  1  0.664156  0.669357  0.067298  1
  Nb  Nb7  1  0.332599  0.334151  0.934486  1
  Fe  Fe8  1  0.343617  0.836100  0.750000  1
  Os  Os9  1  0.004826  0.989800  0.493726  1
  Os  Os10  1  0.004826  0.989800  0.006274  1
  Os  Os11  1  0.826991  0.349659  0.750000  1
