# generated using pymatgen
data_Tm8Zn(Si4Rh)3
_symmetry_space_group_name_H-M   'P 1'
_cell_length_a   8.12641200
_cell_length_b   8.12641316
_cell_length_c   7.71719400
_cell_angle_alpha   90.00000000
_cell_angle_beta   90.00000000
_cell_angle_gamma   120.00000340
_symmetry_Int_Tables_number   1
_chemical_formula_structural   Tm8Zn(Si4Rh)3
_chemical_formula_sum   'Tm8 Zn1 Si12 Rh3'
_cell_volume   441.35471503
_cell_formula_units_Z   1
loop_
 _symmetry_equiv_pos_site_id
 _symmetry_equiv_pos_as_xyz
  1  'x, y, z'
loop_
 _atom_site_type_symbol
 _atom_site_label
 _atom_site_symmetry_multiplicity
 _atom_site_fract_x
 _atom_site_fract_y
 _atom_site_fract_z
 _atom_site_occupancy
  Tm  Tm0  1  0.000000  0.000000  0.752803  1
  Tm  Tm1  1  0.000000  0.000000  0.251707  1
  Tm  Tm2  1  0.487904  0.512096  0.746619  1
  Tm  Tm3  1  0.487904  0.975810  0.746619  1
  Tm  Tm4  1  0.024190  0.512096  0.746619  1
  Tm  Tm5  1  0.507869  0.492131  0.252890  1
  Tm  Tm6  1  0.984263  0.492131  0.252890  1
  Tm  Tm7  1  0.507869  0.015737  0.252890  1
  Zn  Zn8  1  0.666667  0.333333  0.946157  1
  Si  Si9  1  0.835948  0.164052  0.003251  1
  Si  Si10  1  0.835948  0.671895  0.003251  1
  Si  Si11  1  0.328105  0.164052  0.003251  1
  Si  Si12  1  0.833433  0.166567  0.504260  1
  Si  Si13  1  0.833433  0.666866  0.504260  1
  Si  Si14  1  0.333134  0.166567  0.504260  1
  Si  Si15  1  0.166565  0.833435  0.497488  1
  Si  Si16  1  0.666870  0.833435  0.497488  1
  Si  Si17  1  0.166565  0.333130  0.497488  1
  Si  Si18  1  0.168041  0.831959  0.000123  1
  Si  Si19  1  0.663920  0.831959  0.000123  1
  Si  Si20  1  0.168041  0.336080  0.000123  1
  Rh  Rh21  1  0.666667  0.333333  0.530145  1
  Rh  Rh22  1  0.333333  0.666667  0.464792  1
  Rh  Rh23  1  0.333333  0.666667  0.040501  1
