# generated using pymatgen
data_NaYbZr2F11
_symmetry_space_group_name_H-M   'P 1'
_cell_length_a   5.89156395
_cell_length_b   5.89156369
_cell_length_c   8.01299877
_cell_angle_alpha   69.52963973
_cell_angle_beta   69.52963873
_cell_angle_gamma   73.07611531
_symmetry_Int_Tables_number   1
_chemical_formula_structural   NaYbZr2F11
_chemical_formula_sum   'Na1 Yb1 Zr2 F11'
_cell_volume   239.56079668
_cell_formula_units_Z   1
loop_
 _symmetry_equiv_pos_site_id
 _symmetry_equiv_pos_as_xyz
  1  'x, y, z'
loop_
 _atom_site_type_symbol
 _atom_site_label
 _atom_site_symmetry_multiplicity
 _atom_site_fract_x
 _atom_site_fract_y
 _atom_site_fract_z
 _atom_site_occupancy
  Na  Na0  1  0.000000  0.000000  0.000000  1
  Yb  Yb1  1  0.000000  0.000000  0.500000  1
  Zr  Zr2  1  0.499113  0.499113  0.769903  1
  Zr  Zr3  1  0.500887  0.500887  0.230097  1
  F  F4  1  0.223632  0.795391  0.699141  1
  F  F5  1  0.204609  0.776368  0.300859  1
  F  F6  1  0.776368  0.204609  0.300859  1
  F  F7  1  0.795391  0.223632  0.699141  1
  F  F8  1  0.500000  0.500000  0.500000  1
  F  F9  1  0.666601  0.333399  0.000000  1
  F  F10  1  0.333399  0.666601  0.000000  1
  F  F11  1  0.260754  0.260754  0.348982  1
  F  F12  1  0.739246  0.739246  0.651018  1
  F  F13  1  0.265464  0.265464  0.889809  1
  F  F14  1  0.734536  0.734536  0.110191  1
