# generated using pymatgen
data_CaTbTm2(Ga2Ag)4
_symmetry_space_group_name_H-M   'P 1'
_cell_length_a   4.35612000
_cell_length_b   6.97469297
_cell_length_c   10.30168450
_cell_angle_alpha   89.67468844
_cell_angle_beta   90.00000000
_cell_angle_gamma   90.00000000
_symmetry_Int_Tables_number   1
_chemical_formula_structural   CaTbTm2(Ga2Ag)4
_chemical_formula_sum   'Ca1 Tb1 Tm2 Ga8 Ag4'
_cell_volume   312.98690960
_cell_formula_units_Z   1
loop_
 _symmetry_equiv_pos_site_id
 _symmetry_equiv_pos_as_xyz
  1  'x, y, z'
loop_
 _atom_site_type_symbol
 _atom_site_label
 _atom_site_symmetry_multiplicity
 _atom_site_fract_x
 _atom_site_fract_y
 _atom_site_fract_z
 _atom_site_occupancy
  Ca  Ca0  1  0.250000  0.776058  0.826239  1
  Tb  Tb1  1  0.250000  0.279182  0.674832  1
  Tm  Tm2  1  0.750000  0.221428  0.174086  1
  Tm  Tm3  1  0.750000  0.723049  0.325258  1
  Ga  Ga4  1  0.250000  0.929217  0.157086  1
  Ga  Ga5  1  0.750000  0.072968  0.847523  1
  Ga  Ga6  1  0.750000  0.571384  0.651579  1
  Ga  Ga7  1  0.250000  0.428422  0.343872  1
  Ga  Ga8  1  0.250000  0.701158  0.533373  1
  Ga  Ga9  1  0.750000  0.297631  0.462374  1
  Ga  Ga10  1  0.750000  0.799777  0.037553  1
  Ga  Ga11  1  0.250000  0.201063  0.966460  1
  Ag  Ag12  1  0.250000  0.544094  0.097656  1
  Ag  Ag13  1  0.750000  0.455043  0.905256  1
  Ag  Ag14  1  0.750000  0.955117  0.594378  1
  Ag  Ag15  1  0.250000  0.044408  0.402477  1
