# generated using pymatgen
data_Nd10TeAs9
_symmetry_space_group_name_H-M   'P 1'
_cell_length_a   7.42577912
_cell_length_b   8.60173099
_cell_length_c   9.58981400
_cell_angle_alpha   102.95363147
_cell_angle_beta   97.39226886
_cell_angle_gamma   106.85603258
_symmetry_Int_Tables_number   1
_chemical_formula_structural   Nd10TeAs9
_chemical_formula_sum   'Nd10 Te1 As9'
_cell_volume   558.85801920
_cell_formula_units_Z   1
loop_
 _symmetry_equiv_pos_site_id
 _symmetry_equiv_pos_as_xyz
  1  'x, y, z'
loop_
 _atom_site_type_symbol
 _atom_site_label
 _atom_site_symmetry_multiplicity
 _atom_site_fract_x
 _atom_site_fract_y
 _atom_site_fract_z
 _atom_site_occupancy
  Nd  Nd0  1  0.902078  0.549158  0.800071  1
  Nd  Nd1  1  0.687639  0.155291  0.396966  1
  Nd  Nd2  1  0.500624  0.749839  0.001424  1
  Nd  Nd3  1  0.689560  0.636953  0.394853  1
  Nd  Nd4  1  0.310440  0.363047  0.605147  1
  Nd  Nd5  1  0.102286  0.945785  0.187828  1
  Nd  Nd6  1  0.499376  0.250161  0.998576  1
  Nd  Nd7  1  0.312361  0.844709  0.603034  1
  Nd  Nd8  1  0.097922  0.450842  0.199929  1
  Nd  Nd9  1  0.897714  0.054215  0.812172  1
  Te  Te10  1  0.000000  0.000000  0.500000  1
  As  As11  1  0.799588  0.599816  0.099961  1
  As  As12  1  0.599819  0.199995  0.700171  1
  As  As13  1  0.400181  0.800005  0.299829  1
  As  As14  1  0.799215  0.100621  0.103385  1
  As  As15  1  0.200412  0.400184  0.900039  1
  As  As16  1  0.606778  0.702219  0.701915  1
  As  As17  1  0.393222  0.297781  0.298085  1
  As  As18  1  0.200785  0.899379  0.896615  1
  As  As19  1  0.000000  0.500000  0.500000  1
