# generated using pymatgen
data_LiSc4Al17Ni6
_symmetry_space_group_name_H-M   'P 1'
_cell_length_a   7.30938745
_cell_length_b   7.31045545
_cell_length_c   9.07497600
_cell_angle_alpha   90.00000000
_cell_angle_beta   90.00000000
_cell_angle_gamma   119.65654089
_symmetry_Int_Tables_number   1
_chemical_formula_structural   LiSc4Al17Ni6
_chemical_formula_sum   'Li1 Sc4 Al17 Ni6'
_cell_volume   421.39969223
_cell_formula_units_Z   1
loop_
 _symmetry_equiv_pos_site_id
 _symmetry_equiv_pos_as_xyz
  1  'x, y, z'
loop_
 _atom_site_type_symbol
 _atom_site_label
 _atom_site_symmetry_multiplicity
 _atom_site_fract_x
 _atom_site_fract_y
 _atom_site_fract_z
 _atom_site_occupancy
  Li  Li0  1  0.340401  0.561463  0.250000  1
  Sc  Sc1  1  0.986871  0.670161  0.250000  1
  Sc  Sc2  1  0.007803  0.328768  0.750000  1
  Sc  Sc3  1  0.676608  0.000239  0.250000  1
  Sc  Sc4  1  0.327947  0.006405  0.750000  1
  Al  Al5  1  0.000960  0.341012  0.077876  1
  Al  Al6  1  0.003384  0.664322  0.926346  1
  Al  Al7  1  0.003384  0.664322  0.573654  1
  Al  Al8  1  0.334122  0.988705  0.422465  1
  Al  Al9  1  0.000960  0.341012  0.422124  1
  Al  Al10  1  0.666095  0.005372  0.574113  1
  Al  Al11  1  0.666095  0.005372  0.925887  1
  Al  Al12  1  0.334122  0.988705  0.077535  1
  Al  Al13  1  0.659393  0.439246  0.750000  1
  Al  Al14  1  0.551523  0.338382  0.250000  1
  Al  Al15  1  0.443634  0.658796  0.750000  1
  Al  Al16  1  0.330301  0.329403  0.547148  1
  Al  Al17  1  0.666171  0.670837  0.441494  1
  Al  Al18  1  0.666171  0.670837  0.058506  1
  Al  Al19  1  0.330301  0.329403  0.952852  1
  Al  Al20  1  0.124771  0.123538  0.250000  1
  Al  Al21  1  0.879960  0.879076  0.750000  1
  Ni  Ni22  1  0.671509  0.326978  0.000644  1
  Ni  Ni23  1  0.328174  0.671767  0.992224  1
  Ni  Ni24  1  0.328174  0.671767  0.507776  1
  Ni  Ni25  1  0.671509  0.326978  0.499356  1
  Ni  Ni26  1  0.999828  0.998566  0.000460  1
  Ni  Ni27  1  0.999828  0.998566  0.499540  1
