# generated using pymatgen
data_Sr4Ga18(IrPt)3
_symmetry_space_group_name_H-M   'P 1'
_cell_length_a   7.70545621
_cell_length_b   7.70545681
_cell_length_c   9.85311200
_cell_angle_alpha   89.98015101
_cell_angle_beta   89.98015515
_cell_angle_gamma   119.26159773
_symmetry_Int_Tables_number   1
_chemical_formula_structural   Sr4Ga18(IrPt)3
_chemical_formula_sum   'Sr4 Ga18 Ir3 Pt3'
_cell_volume   510.36897896
_cell_formula_units_Z   1
loop_
 _symmetry_equiv_pos_site_id
 _symmetry_equiv_pos_as_xyz
  1  'x, y, z'
loop_
 _atom_site_type_symbol
 _atom_site_label
 _atom_site_symmetry_multiplicity
 _atom_site_fract_x
 _atom_site_fract_y
 _atom_site_fract_z
 _atom_site_occupancy
  Sr  Sr0  1  0.995887  0.671835  0.249706  1
  Sr  Sr1  1  0.001936  0.326394  0.750923  1
  Sr  Sr2  1  0.673606  0.998064  0.249077  1
  Sr  Sr3  1  0.328165  0.004113  0.750294  1
  Ga  Ga4  1  0.138441  0.137420  0.249723  1
  Ga  Ga5  1  0.862580  0.861559  0.750277  1
  Ga  Ga6  1  0.007359  0.339060  0.076880  1
  Ga  Ga7  1  0.000867  0.665098  0.923619  1
  Ga  Ga8  1  0.998981  0.660426  0.574636  1
  Ga  Ga9  1  0.339574  0.001019  0.425364  1
  Ga  Ga10  1  0.001774  0.339330  0.424739  1
  Ga  Ga11  1  0.660670  0.998226  0.575261  1
  Ga  Ga12  1  0.660940  0.992641  0.923120  1
  Ga  Ga13  1  0.334902  0.999133  0.076381  1
  Ga  Ga14  1  0.336411  0.336615  0.552630  1
  Ga  Ga15  1  0.663385  0.663589  0.447370  1
  Ga  Ga16  1  0.661838  0.664365  0.056918  1
  Ga  Ga17  1  0.335635  0.338162  0.943082  1
  Ga  Ga18  1  0.339766  0.546216  0.249936  1
  Ga  Ga19  1  0.660055  0.457329  0.747511  1
  Ga  Ga20  1  0.542671  0.339945  0.252489  1
  Ga  Ga21  1  0.453784  0.660234  0.750064  1
  Ir  Ir22  1  0.330124  0.669876  0.000000  1
  Ir  Ir23  1  0.330654  0.669346  0.500000  1
  Ir  Ir24  1  0.669646  0.330354  0.500000  1
  Pt  Pt25  1  0.670452  0.329548  0.000000  1
  Pt  Pt26  1  0.999999  0.000001  0.000000  1
  Pt  Pt27  1  0.999899  0.000101  0.500000  1
