# generated using pymatgen
data_Sc3Pa(InNi2)2
_symmetry_space_group_name_H-M   'P 1'
_cell_length_a   7.24261746
_cell_length_b   7.24261746
_cell_length_c   3.39954300
_cell_angle_alpha   90.00000000
_cell_angle_beta   90.00000000
_cell_angle_gamma   92.67986331
_symmetry_Int_Tables_number   1
_chemical_formula_structural   Sc3Pa(InNi2)2
_chemical_formula_sum   'Sc3 Pa1 In2 Ni4'
_cell_volume   178.12973236
_cell_formula_units_Z   1
loop_
 _symmetry_equiv_pos_site_id
 _symmetry_equiv_pos_as_xyz
  1  'x, y, z'
loop_
 _atom_site_type_symbol
 _atom_site_label
 _atom_site_symmetry_multiplicity
 _atom_site_fract_x
 _atom_site_fract_y
 _atom_site_fract_z
 _atom_site_occupancy
  Sc  Sc0  1  0.172739  0.333211  0.500000  1
  Sc  Sc1  1  0.833211  0.672739  0.500000  1
  Sc  Sc2  1  0.323438  0.823438  0.500000  1
  Pa  Pa3  1  0.669723  0.169723  0.500000  1
  In  In4  1  0.013174  0.994118  0.000000  1
  In  In5  1  0.494118  0.513174  0.000000  1
  Ni  Ni6  1  0.866279  0.366279  0.000000  1
  Ni  Ni7  1  0.384424  0.127099  0.000000  1
  Ni  Ni8  1  0.627099  0.884424  0.000000  1
  Ni  Ni9  1  0.115795  0.615795  0.000000  1
