# generated using pymatgen
data_NaPuN2
_symmetry_space_group_name_H-M   'P 1'
_cell_length_a   5.94279517
_cell_length_b   5.94279482
_cell_length_c   5.94279499
_cell_angle_alpha   34.05678715
_cell_angle_beta   34.05679006
_cell_angle_gamma   34.05679196
_symmetry_Int_Tables_number   1
_chemical_formula_structural   NaPuN2
_chemical_formula_sum   'Na1 Pu1 N2'
_cell_volume   58.67763834
_cell_formula_units_Z   1
loop_
 _symmetry_equiv_pos_site_id
 _symmetry_equiv_pos_as_xyz
  1  'x, y, z'
loop_
 _atom_site_type_symbol
 _atom_site_label
 _atom_site_symmetry_multiplicity
 _atom_site_fract_x
 _atom_site_fract_y
 _atom_site_fract_z
 _atom_site_occupancy
  Na  Na0  1  0.500000  0.500000  0.500000  1
  Pu  Pu1  1  0.000000  0.000000  0.000000  1
  N  N2  1  0.726863  0.726863  0.726863  1
  N  N3  1  0.273137  0.273137  0.273137  1
