# generated using pymatgen
data_Tb7HoGaPd24
_symmetry_space_group_name_H-M   'P 1'
_cell_length_a   8.36068500
_cell_length_b   8.36068500
_cell_length_c   8.36068500
_cell_angle_alpha   89.99830047
_cell_angle_beta   89.99830047
_cell_angle_gamma   90.00169953
_symmetry_Int_Tables_number   1
_chemical_formula_structural   Tb7HoGaPd24
_chemical_formula_sum   'Tb7 Ho1 Ga1 Pd24'
_cell_volume   584.42069051
_cell_formula_units_Z   1
loop_
 _symmetry_equiv_pos_site_id
 _symmetry_equiv_pos_as_xyz
  1  'x, y, z'
loop_
 _atom_site_type_symbol
 _atom_site_label
 _atom_site_symmetry_multiplicity
 _atom_site_fract_x
 _atom_site_fract_y
 _atom_site_fract_z
 _atom_site_occupancy
  Tb  Tb0  1  0.251795  0.748203  0.251797  1
  Tb  Tb1  1  0.748203  0.251795  0.251797  1
  Tb  Tb2  1  0.748203  0.748203  0.748205  1
  Tb  Tb3  1  0.748219  0.748219  0.251781  1
  Tb  Tb4  1  0.748203  0.251792  0.748208  1
  Tb  Tb5  1  0.251792  0.748203  0.748208  1
  Tb  Tb6  1  0.251792  0.251792  0.251797  1
  Ho  Ho7  1  0.251822  0.251822  0.748178  1
  Ga  Ga8  1  0.000037  0.000037  0.999963  1
  Pd  Pd9  1  0.499780  0.499780  0.746980  1
  Pd  Pd10  1  0.499780  0.253020  0.500220  1
  Pd  Pd11  1  0.253020  0.499780  0.500220  1
  Pd  Pd12  1  0.499987  0.499987  0.253032  1
  Pd  Pd13  1  0.499987  0.746968  0.500013  1
  Pd  Pd14  1  0.746968  0.499987  0.500013  1
  Pd  Pd15  1  0.000201  0.000201  0.708150  1
  Pd  Pd16  1  0.000201  0.291850  0.999799  1
  Pd  Pd17  1  0.291850  0.000201  0.999799  1
  Pd  Pd18  1  0.999993  0.999993  0.291878  1
  Pd  Pd19  1  0.999993  0.708122  0.000007  1
  Pd  Pd20  1  0.708122  0.999993  0.000007  1
  Pd  Pd21  1  0.000215  0.499808  0.739668  1
  Pd  Pd22  1  0.499808  0.260332  0.999785  1
  Pd  Pd23  1  0.260332  0.000215  0.500192  1
  Pd  Pd24  1  0.000215  0.260332  0.500192  1
  Pd  Pd25  1  0.499808  0.000215  0.739668  1
  Pd  Pd26  1  0.260332  0.499808  0.999785  1
  Pd  Pd27  1  0.000005  0.499982  0.260316  1
  Pd  Pd28  1  0.499982  0.739684  0.999995  1
  Pd  Pd29  1  0.000005  0.739684  0.500018  1
  Pd  Pd30  1  0.499982  0.000005  0.260316  1
  Pd  Pd31  1  0.739684  0.000005  0.500018  1
  Pd  Pd32  1  0.739684  0.499982  0.999995  1
