# generated using pymatgen
data_CsSc2(CoH6)2
_symmetry_space_group_name_H-M   'P 1'
_cell_length_a   4.56746200
_cell_length_b   4.56746413
_cell_length_c   9.37309100
_cell_angle_alpha   90.00000000
_cell_angle_beta   90.00000000
_cell_angle_gamma   119.99999909
_symmetry_Int_Tables_number   1
_chemical_formula_structural   CsSc2(CoH6)2
_chemical_formula_sum   'Cs1 Sc2 Co2 H12'
_cell_volume   169.34156026
_cell_formula_units_Z   1
loop_
 _symmetry_equiv_pos_site_id
 _symmetry_equiv_pos_as_xyz
  1  'x, y, z'
loop_
 _atom_site_type_symbol
 _atom_site_label
 _atom_site_symmetry_multiplicity
 _atom_site_fract_x
 _atom_site_fract_y
 _atom_site_fract_z
 _atom_site_occupancy
  Cs  Cs0  1  0.000000  0.000000  0.000000  1
  Sc  Sc1  1  0.666667  0.333333  0.384487  1
  Sc  Sc2  1  0.333333  0.666667  0.615513  1
  Co  Co3  1  0.666667  0.333333  0.681919  1
  Co  Co4  1  0.333333  0.666667  0.318081  1
  H  H5  1  0.168767  0.831233  0.409026  1
  H  H6  1  0.662468  0.831233  0.409026  1
  H  H7  1  0.168767  0.337532  0.409026  1
  H  H8  1  0.831233  0.168767  0.590974  1
  H  H9  1  0.337532  0.168767  0.590974  1
  H  H10  1  0.831233  0.662468  0.590974  1
  H  H11  1  0.510025  0.020049  0.781846  1
  H  H12  1  0.510025  0.489975  0.781846  1
  H  H13  1  0.979951  0.489975  0.781846  1
  H  H14  1  0.489975  0.979951  0.218154  1
  H  H15  1  0.489975  0.510025  0.218154  1
  H  H16  1  0.020049  0.510025  0.218154  1
