# generated using pymatgen
data_Er5Lu7(RuRh)2
_symmetry_space_group_name_H-M   'P 1'
_cell_length_a   6.25404974
_cell_length_b   7.18128213
_cell_length_c   9.00831389
_cell_angle_alpha   89.99375711
_cell_angle_beta   90.06539787
_cell_angle_gamma   89.90838195
_symmetry_Int_Tables_number   1
_chemical_formula_structural   Er5Lu7(RuRh)2
_chemical_formula_sum   'Er5 Lu7 Ru2 Rh2'
_cell_volume   404.58147207
_cell_formula_units_Z   1
loop_
 _symmetry_equiv_pos_site_id
 _symmetry_equiv_pos_as_xyz
  1  'x, y, z'
loop_
 _atom_site_type_symbol
 _atom_site_label
 _atom_site_symmetry_multiplicity
 _atom_site_fract_x
 _atom_site_fract_y
 _atom_site_fract_z
 _atom_site_occupancy
  Er  Er0  1  0.673502  0.176319  0.437334  1
  Er  Er1  1  0.873959  0.963177  0.750882  1
  Er  Er2  1  0.373103  0.537648  0.249933  1
  Er  Er3  1  0.628571  0.466171  0.750249  1
  Er  Er4  1  0.129344  0.033929  0.249242  1
  Lu  Lu5  1  0.672420  0.175794  0.063201  1
  Lu  Lu6  1  0.171439  0.324088  0.935525  1
  Lu  Lu7  1  0.828251  0.678997  0.438397  1
  Lu  Lu8  1  0.327043  0.819743  0.562387  1
  Lu  Lu9  1  0.327983  0.820359  0.937963  1
  Lu  Lu10  1  0.828305  0.679311  0.061627  1
  Lu  Lu11  1  0.171908  0.323503  0.564766  1
  Ru  Ru12  1  0.044066  0.614016  0.749573  1
  Ru  Ru13  1  0.544508  0.886178  0.248717  1
  Rh  Rh14  1  0.452268  0.113787  0.751472  1
  Rh  Rh15  1  0.953331  0.386979  0.248734  1
