# generated using pymatgen
data_Dy7Th(ZnCo)2
_symmetry_space_group_name_H-M   'P 1'
_cell_length_a   9.38660399
_cell_length_b   9.38660417
_cell_length_c   9.39755900
_cell_angle_alpha   59.96138258
_cell_angle_beta   59.96138194
_cell_angle_gamma   60.07065751
_symmetry_Int_Tables_number   1
_chemical_formula_structural   Dy7Th(ZnCo)2
_chemical_formula_sum   'Dy14 Th2 Zn4 Co4'
_cell_volume   585.45621191
_cell_formula_units_Z   2
loop_
 _symmetry_equiv_pos_site_id
 _symmetry_equiv_pos_as_xyz
  1  'x, y, z'
loop_
 _atom_site_type_symbol
 _atom_site_label
 _atom_site_symmetry_multiplicity
 _atom_site_fract_x
 _atom_site_fract_y
 _atom_site_fract_z
 _atom_site_occupancy
  Dy  Dy0  1  0.600850  0.196090  0.601531  1
  Dy  Dy1  1  0.196090  0.600850  0.601531  1
  Dy  Dy2  1  0.060558  0.441045  0.439333  1
  Dy  Dy3  1  0.441045  0.060558  0.059064  1
  Dy  Dy4  1  0.441045  0.060558  0.439333  1
  Dy  Dy5  1  0.060558  0.441045  0.059064  1
  Dy  Dy6  1  0.439056  0.439056  0.060944  1
  Dy  Dy7  1  0.059274  0.059274  0.440726  1
  Dy  Dy8  1  0.187255  0.813910  0.813298  1
  Dy  Dy9  1  0.813910  0.187255  0.185537  1
  Dy  Dy10  1  0.813910  0.187255  0.813298  1
  Dy  Dy11  1  0.187255  0.813910  0.185537  1
  Dy  Dy12  1  0.813914  0.813914  0.186086  1
  Dy  Dy13  1  0.187914  0.187914  0.812086  1
  Th  Th14  1  0.595918  0.595918  0.599870  1
  Th  Th15  1  0.595918  0.595918  0.208295  1
  Zn  Zn16  1  0.828595  0.828595  0.826715  1
  Zn  Zn17  1  0.828595  0.828595  0.516097  1
  Zn  Zn18  1  0.829183  0.513708  0.828555  1
  Zn  Zn19  1  0.513708  0.829183  0.828555  1
  Co  Co20  1  0.394161  0.394161  0.390548  1
  Co  Co21  1  0.394161  0.394161  0.821131  1
  Co  Co22  1  0.397697  0.819433  0.391436  1
  Co  Co23  1  0.819433  0.397697  0.391436  1
