# generated using pymatgen
data_Dy4Al4PdRu3
_symmetry_space_group_name_H-M   'P 1'
_cell_length_a   4.07636800
_cell_length_b   7.02024310
_cell_length_c   8.12608877
_cell_angle_alpha   89.73372163
_cell_angle_beta   90.00000000
_cell_angle_gamma   90.00000000
_symmetry_Int_Tables_number   1
_chemical_formula_structural   Dy4Al4PdRu3
_chemical_formula_sum   'Dy4 Al4 Pd1 Ru3'
_cell_volume   232.54253750
_cell_formula_units_Z   1
loop_
 _symmetry_equiv_pos_site_id
 _symmetry_equiv_pos_as_xyz
  1  'x, y, z'
loop_
 _atom_site_type_symbol
 _atom_site_label
 _atom_site_symmetry_multiplicity
 _atom_site_fract_x
 _atom_site_fract_y
 _atom_site_fract_z
 _atom_site_occupancy
  Dy  Dy0  1  0.250000  0.027369  0.324609  1
  Dy  Dy1  1  0.250000  0.541425  0.182078  1
  Dy  Dy2  1  0.750000  0.966821  0.679439  1
  Dy  Dy3  1  0.750000  0.470678  0.815360  1
  Al  Al4  1  0.250000  0.136330  0.935253  1
  Al  Al5  1  0.250000  0.637671  0.559490  1
  Al  Al6  1  0.750000  0.854788  0.059479  1
  Al  Al7  1  0.750000  0.364053  0.443597  1
  Pd  Pd8  1  0.750000  0.229482  0.121009  1
  Ru  Ru9  1  0.250000  0.267552  0.622715  1
  Ru  Ru10  1  0.250000  0.769982  0.879940  1
  Ru  Ru11  1  0.750000  0.733851  0.377033  1
