# generated using pymatgen
data_LaY2Tm2Bi3
_symmetry_space_group_name_H-M   'P 1'
_cell_length_a   8.32089400
_cell_length_b   9.51637400
_cell_length_c   12.18256400
_cell_angle_alpha   90.00000000
_cell_angle_beta   90.00000000
_cell_angle_gamma   90.00000000
_symmetry_Int_Tables_number   1
_chemical_formula_structural   LaY2Tm2Bi3
_chemical_formula_sum   'La4 Y8 Tm8 Bi12'
_cell_volume   964.67315457
_cell_formula_units_Z   4
loop_
 _symmetry_equiv_pos_site_id
 _symmetry_equiv_pos_as_xyz
  1  'x, y, z'
loop_
 _atom_site_type_symbol
 _atom_site_label
 _atom_site_symmetry_multiplicity
 _atom_site_fract_x
 _atom_site_fract_y
 _atom_site_fract_z
 _atom_site_occupancy
  La  La0  1  0.182376  0.749692  0.720178  1
  La  La1  1  0.682376  0.750308  0.779822  1
  La  La2  1  0.817624  0.249692  0.279822  1
  La  La3  1  0.317624  0.250308  0.220178  1
  Y  Y4  1  0.692421  0.561216  0.061003  1
  Y  Y5  1  0.192421  0.938784  0.438997  1
  Y  Y6  1  0.307579  0.061216  0.938997  1
  Y  Y7  1  0.807579  0.438784  0.561003  1
  Y  Y8  1  0.352099  0.749889  0.217554  1
  Y  Y9  1  0.852099  0.750111  0.282446  1
  Y  Y10  1  0.647901  0.249889  0.782446  1
  Y  Y11  1  0.147901  0.250111  0.717554  1
  Tm  Tm12  1  0.023275  0.749989  0.988111  1
  Tm  Tm13  1  0.523275  0.750011  0.511889  1
  Tm  Tm14  1  0.976725  0.249989  0.011889  1
  Tm  Tm15  1  0.476725  0.250011  0.488111  1
  Tm  Tm16  1  0.308290  0.432929  0.939369  1
  Tm  Tm17  1  0.808290  0.067071  0.560631  1
  Tm  Tm18  1  0.691710  0.932929  0.060631  1
  Tm  Tm19  1  0.191710  0.567071  0.439369  1
  Bi  Bi20  1  0.434895  0.009514  0.669654  1
  Bi  Bi21  1  0.934895  0.490486  0.830346  1
  Bi  Bi22  1  0.565105  0.509514  0.330346  1
  Bi  Bi23  1  0.065105  0.990486  0.169654  1
  Bi  Bi24  1  0.566049  0.990454  0.330663  1
  Bi  Bi25  1  0.066049  0.509546  0.169337  1
  Bi  Bi26  1  0.433951  0.490454  0.669337  1
  Bi  Bi27  1  0.933951  0.009546  0.830663  1
  Bi  Bi28  1  0.404312  0.746382  0.964153  1
  Bi  Bi29  1  0.904312  0.753618  0.535847  1
  Bi  Bi30  1  0.595688  0.246382  0.035847  1
  Bi  Bi31  1  0.095688  0.253618  0.464153  1
