# generated using pymatgen
data_Ho10P9
_symmetry_space_group_name_H-M   'P 1'
_cell_length_a   8.93009755
_cell_length_b   6.91938793
_cell_length_c   10.56537400
_cell_angle_alpha   77.34357582
_cell_angle_beta   114.99599102
_cell_angle_gamma   130.22312958
_symmetry_Int_Tables_number   1
_chemical_formula_structural   Ho10P9
_chemical_formula_sum   'Ho10 P9'
_cell_volume   450.41515414
_cell_formula_units_Z   1
loop_
 _symmetry_equiv_pos_site_id
 _symmetry_equiv_pos_as_xyz
  1  'x, y, z'
loop_
 _atom_site_type_symbol
 _atom_site_label
 _atom_site_symmetry_multiplicity
 _atom_site_fract_x
 _atom_site_fract_y
 _atom_site_fract_z
 _atom_site_occupancy
  Ho  Ho0  1  0.420871  0.517277  0.331306  1
  Ho  Ho1  1  0.028014  0.630587  0.038741  1
  Ho  Ho2  1  0.236381  0.325184  0.934743  1
  Ho  Ho3  1  0.824867  0.915680  0.140219  1
  Ho  Ho4  1  0.617510  0.704423  0.727179  1
  Ho  Ho5  1  0.225925  0.818579  0.434481  1
  Ho  Ho6  1  0.021496  0.117284  0.533157  1
  Ho  Ho7  1  0.623970  0.217581  0.231945  1
  Ho  Ho8  1  0.820139  0.420432  0.623634  1
  Ho  Ho9  1  0.408041  0.008124  0.830594  1
  P  P10  1  0.020438  0.863259  0.784095  1
  P  P11  1  0.425126  0.267299  0.584646  1
  P  P12  1  0.823277  0.668257  0.381967  1
  P  P13  1  0.421400  0.766933  0.080062  1
  P  P14  1  0.623636  0.968477  0.483953  1
  P  P15  1  0.022593  0.367017  0.281688  1
  P  P16  1  0.222981  0.566619  0.685448  1
  P  P17  1  0.624295  0.470219  0.981077  1
  P  P18  1  0.220519  0.068100  0.181020  1
