# generated using pymatgen
data_HoEr3TmIr2
_symmetry_space_group_name_H-M   'P 1'
_cell_length_a   6.44966790
_cell_length_b   7.17386816
_cell_length_c   8.41414769
_cell_angle_alpha   96.40550031
_cell_angle_beta   112.53596689
_cell_angle_gamma   90.00000373
_symmetry_Int_Tables_number   1
_chemical_formula_structural   HoEr3TmIr2
_chemical_formula_sum   'Ho2 Er6 Tm2 Ir4'
_cell_volume   356.95358247
_cell_formula_units_Z   2
loop_
 _symmetry_equiv_pos_site_id
 _symmetry_equiv_pos_as_xyz
  1  'x, y, z'
loop_
 _atom_site_type_symbol
 _atom_site_label
 _atom_site_symmetry_multiplicity
 _atom_site_fract_x
 _atom_site_fract_y
 _atom_site_fract_z
 _atom_site_occupancy
  Ho  Ho0  1  0.970038  0.918983  0.181842  1
  Ho  Ho1  1  0.788195  0.581017  0.818158  1
  Er  Er2  1  0.030031  0.081199  0.818292  1
  Er  Er3  1  0.211740  0.418801  0.181708  1
  Er  Er4  1  0.654131  0.817989  0.442153  1
  Er  Er5  1  0.211978  0.682011  0.557847  1
  Er  Er6  1  0.345849  0.182094  0.557985  1
  Er  Er7  1  0.787864  0.317906  0.442015  1
  Tm  Tm8  1  0.427519  0.750000  0.000000  1
  Tm  Tm9  1  0.572207  0.250000  0.000000  1
  Ir  Ir10  1  0.825743  0.572817  0.218088  1
  Ir  Ir11  1  0.607655  0.927183  0.781912  1
  Ir  Ir12  1  0.174558  0.426707  0.782065  1
  Ir  Ir13  1  0.392492  0.073293  0.217935  1
