# generated using pymatgen
data_V12SiNi8As3N4
_symmetry_space_group_name_H-M   'P 1'
_cell_length_a   7.64185563
_cell_length_b   7.64185581
_cell_length_c   7.64854646
_cell_angle_alpha   60.02893289
_cell_angle_beta   60.02893101
_cell_angle_gamma   59.99999723
_symmetry_Int_Tables_number   1
_chemical_formula_structural   V12SiNi8As3N4
_chemical_formula_sum   'V12 Si1 Ni8 As3 N4'
_cell_volume   315.97400250
_cell_formula_units_Z   1
loop_
 _symmetry_equiv_pos_site_id
 _symmetry_equiv_pos_as_xyz
  1  'x, y, z'
loop_
 _atom_site_type_symbol
 _atom_site_label
 _atom_site_symmetry_multiplicity
 _atom_site_fract_x
 _atom_site_fract_y
 _atom_site_fract_z
 _atom_site_occupancy
  V  V0  1  0.817041  0.817041  0.180986  1
  V  V1  1  0.181311  0.181311  0.818970  1
  V  V2  1  0.818408  0.181311  0.818970  1
  V  V3  1  0.184931  0.817041  0.180986  1
  V  V4  1  0.181311  0.818408  0.818970  1
  V  V5  1  0.817041  0.184931  0.180986  1
  V  V6  1  0.432959  0.432959  0.069014  1
  V  V7  1  0.068689  0.068689  0.431030  1
  V  V8  1  0.431592  0.068689  0.431030  1
  V  V9  1  0.065069  0.432959  0.069014  1
  V  V10  1  0.068689  0.431592  0.431030  1
  V  V11  1  0.432959  0.065069  0.069014  1
  Si  Si12  1  0.625000  0.625000  0.125000  1
  Ni  Ni13  1  0.752368  0.418368  0.410893  1
  Ni  Ni14  1  0.418368  0.752368  0.410893  1
  Ni  Ni15  1  0.414935  0.414935  0.755194  1
  Ni  Ni16  1  0.418368  0.418368  0.410893  1
  Ni  Ni17  1  0.497632  0.831632  0.839107  1
  Ni  Ni18  1  0.831632  0.497632  0.839107  1
  Ni  Ni19  1  0.835065  0.835065  0.494806  1
  Ni  Ni20  1  0.831632  0.831632  0.839107  1
  As  As21  1  0.125000  0.625000  0.625000  1
  As  As22  1  0.625000  0.125000  0.625000  1
  As  As23  1  0.625000  0.625000  0.625000  1
  N  N24  1  0.625000  0.125000  0.125000  1
  N  N25  1  0.125000  0.625000  0.125000  1
  N  N26  1  0.125000  0.125000  0.625000  1
  N  N27  1  0.125000  0.125000  0.125000  1
