# generated using pymatgen
data_Er3Tm2CoSb2
_symmetry_space_group_name_H-M   'P 1'
_cell_length_a   7.75244900
_cell_length_b   8.75631300
_cell_length_c   12.07994700
_cell_angle_alpha   90.00000000
_cell_angle_beta   90.00000000
_cell_angle_gamma   90.00000000
_symmetry_Int_Tables_number   1
_chemical_formula_structural   Er3Tm2CoSb2
_chemical_formula_sum   'Er12 Tm8 Co4 Sb8'
_cell_volume   820.02147133
_cell_formula_units_Z   4
loop_
 _symmetry_equiv_pos_site_id
 _symmetry_equiv_pos_as_xyz
  1  'x, y, z'
loop_
 _atom_site_type_symbol
 _atom_site_label
 _atom_site_symmetry_multiplicity
 _atom_site_fract_x
 _atom_site_fract_y
 _atom_site_fract_z
 _atom_site_occupancy
  Er  Er0  1  0.157251  0.750000  0.204767  1
  Er  Er1  1  0.657251  0.250000  0.295233  1
  Er  Er2  1  0.842749  0.250000  0.795233  1
  Er  Er3  1  0.342749  0.750000  0.704767  1
  Er  Er4  1  0.451326  0.750000  0.997931  1
  Er  Er5  1  0.951326  0.250000  0.502069  1
  Er  Er6  1  0.548674  0.250000  0.002069  1
  Er  Er7  1  0.048674  0.750000  0.497931  1
  Er  Er8  1  0.622903  0.750000  0.308349  1
  Er  Er9  1  0.122903  0.250000  0.191651  1
  Er  Er10  1  0.377097  0.250000  0.691651  1
  Er  Er11  1  0.877097  0.750000  0.808349  1
  Tm  Tm12  1  0.823815  0.962896  0.065697  1
  Tm  Tm13  1  0.323815  0.037104  0.434303  1
  Tm  Tm14  1  0.176185  0.462896  0.934303  1
  Tm  Tm15  1  0.676185  0.537104  0.565697  1
  Tm  Tm16  1  0.176185  0.037104  0.934303  1
  Tm  Tm17  1  0.676185  0.962896  0.565697  1
  Tm  Tm18  1  0.823815  0.537104  0.065697  1
  Tm  Tm19  1  0.323815  0.462896  0.434303  1
  Co  Co20  1  0.432428  0.750000  0.490971  1
  Co  Co21  1  0.932428  0.250000  0.009029  1
  Co  Co22  1  0.567572  0.250000  0.509029  1
  Co  Co23  1  0.067572  0.750000  0.990971  1
  Sb  Sb24  1  0.931031  0.991404  0.327146  1
  Sb  Sb25  1  0.431031  0.008596  0.172854  1
  Sb  Sb26  1  0.068969  0.491404  0.672854  1
  Sb  Sb27  1  0.568969  0.508596  0.827146  1
  Sb  Sb28  1  0.068969  0.008596  0.672854  1
  Sb  Sb29  1  0.568969  0.991404  0.827146  1
  Sb  Sb30  1  0.931031  0.508596  0.327146  1
  Sb  Sb31  1  0.431031  0.491404  0.172854  1
