# generated using pymatgen
data_Tb7Th(AlCo)2
_symmetry_space_group_name_H-M   'P 1'
_cell_length_a   9.50711825
_cell_length_b   9.50711777
_cell_length_c   9.42741064
_cell_angle_alpha   60.53602489
_cell_angle_beta   60.53602114
_cell_angle_gamma   59.96499914
_symmetry_Int_Tables_number   1
_chemical_formula_structural   Tb7Th(AlCo)2
_chemical_formula_sum   'Tb14 Th2 Al4 Co4'
_cell_volume   607.19740133
_cell_formula_units_Z   2
loop_
 _symmetry_equiv_pos_site_id
 _symmetry_equiv_pos_as_xyz
  1  'x, y, z'
loop_
 _atom_site_type_symbol
 _atom_site_label
 _atom_site_symmetry_multiplicity
 _atom_site_fract_x
 _atom_site_fract_y
 _atom_site_fract_z
 _atom_site_occupancy
  Tb  Tb0  1  0.189692  0.810802  0.812194  1
  Tb  Tb1  1  0.058219  0.058219  0.443426  1
  Tb  Tb2  1  0.441223  0.055671  0.059313  1
  Tb  Tb3  1  0.810802  0.189692  0.812194  1
  Tb  Tb4  1  0.439280  0.055263  0.446449  1
  Tb  Tb5  1  0.597112  0.203054  0.599534  1
  Tb  Tb6  1  0.816170  0.816170  0.186251  1
  Tb  Tb7  1  0.203054  0.597112  0.599534  1
  Tb  Tb8  1  0.810050  0.188234  0.191413  1
  Tb  Tb9  1  0.055263  0.439280  0.446449  1
  Tb  Tb10  1  0.188234  0.810050  0.191413  1
  Tb  Tb11  1  0.602838  0.602838  0.197325  1
  Tb  Tb12  1  0.183815  0.183815  0.815972  1
  Tb  Tb13  1  0.055671  0.441223  0.059313  1
  Th  Th14  1  0.436358  0.436358  0.065927  1
  Th  Th15  1  0.596154  0.596154  0.586700  1
  Al  Al16  1  0.826312  0.826312  0.520901  1
  Al  Al17  1  0.827298  0.827298  0.826809  1
  Al  Al18  1  0.521116  0.828956  0.824903  1
  Al  Al19  1  0.828956  0.521116  0.824903  1
  Co  Co20  1  0.399928  0.399928  0.364276  1
  Co  Co21  1  0.821366  0.390746  0.395801  1
  Co  Co22  1  0.390746  0.821366  0.395801  1
  Co  Co23  1  0.400343  0.400343  0.833203  1
