# generated using pymatgen
data_CePrTh2(B2Ir5)2
_symmetry_space_group_name_H-M   'P 1'
_cell_length_a   11.12154407
_cell_length_b   11.12154441
_cell_length_c   11.12154495
_cell_angle_alpha   28.86831736
_cell_angle_beta   28.86831386
_cell_angle_gamma   28.86832076
_symmetry_Int_Tables_number   1
_chemical_formula_structural   CePrTh2(B2Ir5)2
_chemical_formula_sum   'Ce1 Pr1 Th2 B4 Ir10'
_cell_volume   283.55529534
_cell_formula_units_Z   1
loop_
 _symmetry_equiv_pos_site_id
 _symmetry_equiv_pos_as_xyz
  1  'x, y, z'
loop_
 _atom_site_type_symbol
 _atom_site_label
 _atom_site_symmetry_multiplicity
 _atom_site_fract_x
 _atom_site_fract_y
 _atom_site_fract_z
 _atom_site_occupancy
  Ce  Ce0  1  0.051489  0.051489  0.051489  1
  Pr  Pr1  1  0.847473  0.847473  0.847473  1
  Th  Th2  1  0.151949  0.151949  0.151949  1
  Th  Th3  1  0.949826  0.949826  0.949826  1
  B  B4  1  0.617836  0.617836  0.617836  1
  B  B5  1  0.716830  0.716830  0.716830  1
  B  B6  1  0.382303  0.382303  0.382303  1
  B  B7  1  0.283095  0.283095  0.283095  1
  Ir  Ir8  1  0.407903  0.898903  0.407903  1
  Ir  Ir9  1  0.898903  0.407903  0.407903  1
  Ir  Ir10  1  0.500037  0.500037  0.000236  1
  Ir  Ir11  1  0.500037  0.000236  0.500037  1
  Ir  Ir12  1  0.000236  0.500037  0.500037  1
  Ir  Ir13  1  0.499884  0.499884  0.499884  1
  Ir  Ir14  1  0.591774  0.100747  0.591774  1
  Ir  Ir15  1  0.591774  0.591774  0.100747  1
  Ir  Ir16  1  0.100747  0.591774  0.591774  1
  Ir  Ir17  1  0.407903  0.407903  0.898903  1
