# generated using pymatgen
data_K2Ge(TeO4)3
_symmetry_space_group_name_H-M   'P 1'
_cell_length_a   7.06000847
_cell_length_b   7.23992638
_cell_length_c   7.06013824
_cell_angle_alpha   90.00000018
_cell_angle_beta   61.69515719
_cell_angle_gamma   120.84664458
_symmetry_Int_Tables_number   1
_chemical_formula_structural   K2Ge(TeO4)3
_chemical_formula_sum   'K2 Ge1 Te3 O12'
_cell_volume   258.28555520
_cell_formula_units_Z   1
loop_
 _symmetry_equiv_pos_site_id
 _symmetry_equiv_pos_as_xyz
  1  'x, y, z'
loop_
 _atom_site_type_symbol
 _atom_site_label
 _atom_site_symmetry_multiplicity
 _atom_site_fract_x
 _atom_site_fract_y
 _atom_site_fract_z
 _atom_site_occupancy
  K  K0  1  0.263348  0.129034  0.631589  1
  K  K1  1  0.736652  0.865686  0.368411  1
  Ge  Ge2  1  0.000000  0.497350  0.000000  1
  Te  Te3  1  0.500011  0.497340  0.999990  1
  Te  Te4  1  0.499989  0.997329  0.000010  1
  Te  Te5  1  0.000000  0.497318  0.500000  1
  O  O6  1  0.656162  0.825399  0.930509  1
  O  O7  1  0.856064  0.425378  0.318845  1
  O  O8  1  0.246925  0.425381  0.927975  1
  O  O9  1  0.258574  0.825389  0.328077  1
  O  O10  1  0.246889  0.816195  0.927990  1
  O  O11  1  0.258605  0.427841  0.328058  1
  O  O12  1  0.343838  0.169236  0.069491  1
  O  O13  1  0.143936  0.569315  0.681155  1
  O  O14  1  0.753111  0.569305  0.072010  1
  O  O15  1  0.741395  0.169236  0.671942  1
  O  O16  1  0.753075  0.178455  0.072025  1
  O  O17  1  0.741426  0.566816  0.671923  1
