# generated using pymatgen
data_Y2(TmBi)3
_symmetry_space_group_name_H-M   'P 1'
_cell_length_a   8.22080300
_cell_length_b   9.43242700
_cell_length_c   12.03012500
_cell_angle_alpha   90.00000000
_cell_angle_beta   90.00000000
_cell_angle_gamma   90.00000000
_symmetry_Int_Tables_number   1
_chemical_formula_structural   Y2(TmBi)3
_chemical_formula_sum   'Y8 Tm12 Bi12'
_cell_volume   932.84144664
_cell_formula_units_Z   4
loop_
 _symmetry_equiv_pos_site_id
 _symmetry_equiv_pos_as_xyz
  1  'x, y, z'
loop_
 _atom_site_type_symbol
 _atom_site_label
 _atom_site_symmetry_multiplicity
 _atom_site_fract_x
 _atom_site_fract_y
 _atom_site_fract_z
 _atom_site_occupancy
  Y  Y0  1  0.186587  0.750000  0.718782  1
  Y  Y1  1  0.686587  0.750000  0.781218  1
  Y  Y2  1  0.813413  0.250000  0.281218  1
  Y  Y3  1  0.313413  0.250000  0.218782  1
  Y  Y4  1  0.353614  0.750000  0.216056  1
  Y  Y5  1  0.853614  0.750000  0.283944  1
  Y  Y6  1  0.646386  0.250000  0.783944  1
  Y  Y7  1  0.146386  0.250000  0.716056  1
  Tm  Tm8  1  0.025140  0.750000  0.989195  1
  Tm  Tm9  1  0.525140  0.750000  0.510805  1
  Tm  Tm10  1  0.974860  0.250000  0.010805  1
  Tm  Tm11  1  0.474860  0.250000  0.489195  1
  Tm  Tm12  1  0.306303  0.434339  0.940390  1
  Tm  Tm13  1  0.806303  0.065661  0.559610  1
  Tm  Tm14  1  0.693697  0.934339  0.059610  1
  Tm  Tm15  1  0.193697  0.565661  0.440390  1
  Tm  Tm16  1  0.693697  0.565661  0.059610  1
  Tm  Tm17  1  0.193697  0.934339  0.440390  1
  Tm  Tm18  1  0.306303  0.065661  0.940390  1
  Tm  Tm19  1  0.806303  0.434339  0.559610  1
  Bi  Bi20  1  0.433885  0.003811  0.672455  1
  Bi  Bi21  1  0.933885  0.496189  0.827545  1
  Bi  Bi22  1  0.566115  0.503811  0.327545  1
  Bi  Bi23  1  0.066115  0.996189  0.172455  1
  Bi  Bi24  1  0.566115  0.996189  0.327545  1
  Bi  Bi25  1  0.066115  0.503811  0.172455  1
  Bi  Bi26  1  0.433885  0.496189  0.672455  1
  Bi  Bi27  1  0.933885  0.003811  0.827545  1
  Bi  Bi28  1  0.407329  0.750000  0.958121  1
  Bi  Bi29  1  0.907329  0.750000  0.541879  1
  Bi  Bi30  1  0.592671  0.250000  0.041879  1
  Bi  Bi31  1  0.092671  0.250000  0.458121  1
