# generated using pymatgen
data_YbIn3BiB4Ir9
_symmetry_space_group_name_H-M   'P 1'
_cell_length_a   5.66427500
_cell_length_b   5.66427521
_cell_length_c   10.42262500
_cell_angle_alpha   90.00000000
_cell_angle_beta   90.00000000
_cell_angle_gamma   120.00000460
_symmetry_Int_Tables_number   1
_chemical_formula_structural   YbIn3BiB4Ir9
_chemical_formula_sum   'Yb1 In3 Bi1 B4 Ir9'
_cell_volume   289.59856162
_cell_formula_units_Z   1
loop_
 _symmetry_equiv_pos_site_id
 _symmetry_equiv_pos_as_xyz
  1  'x, y, z'
loop_
 _atom_site_type_symbol
 _atom_site_label
 _atom_site_symmetry_multiplicity
 _atom_site_fract_x
 _atom_site_fract_y
 _atom_site_fract_z
 _atom_site_occupancy
  Yb  Yb0  1  0.000000  0.000000  0.927797  1
  In  In1  1  0.666667  0.333333  0.505942  1
  In  In2  1  0.000000  0.000000  0.320272  1
  In  In3  1  0.333333  0.666667  0.505942  1
  Bi  Bi4  1  0.000000  0.000000  0.627459  1
  B  B5  1  0.666667  0.333333  0.153046  1
  B  B6  1  0.333333  0.666667  0.865229  1
  B  B7  1  0.666667  0.333333  0.865229  1
  B  B8  1  0.333333  0.666667  0.153046  1
  Ir  Ir9  1  0.000000  0.502380  0.280594  1
  Ir  Ir10  1  0.463789  0.000000  0.734727  1
  Ir  Ir11  1  0.502380  0.000000  0.280594  1
  Ir  Ir12  1  0.000000  0.495066  0.010024  1
  Ir  Ir13  1  0.536211  0.536211  0.734727  1
  Ir  Ir14  1  0.000000  0.463789  0.734727  1
  Ir  Ir15  1  0.504934  0.504934  0.010024  1
  Ir  Ir16  1  0.495066  0.000000  0.010024  1
  Ir  Ir17  1  0.497620  0.497620  0.280594  1
