# generated using pymatgen
data_LiZr8(In2Co)7
_symmetry_space_group_name_H-M   'P 1'
_cell_length_a   9.45415714
_cell_length_b   9.45415684
_cell_length_c   9.45620254
_cell_angle_alpha   60.41556216
_cell_angle_beta   60.41556459
_cell_angle_gamma   60.44209908
_symmetry_Int_Tables_number   1
_chemical_formula_structural   LiZr8(In2Co)7
_chemical_formula_sum   'Li1 Zr8 In14 Co7'
_cell_volume   603.38579473
_cell_formula_units_Z   1
loop_
 _symmetry_equiv_pos_site_id
 _symmetry_equiv_pos_as_xyz
  1  'x, y, z'
loop_
 _atom_site_type_symbol
 _atom_site_label
 _atom_site_symmetry_multiplicity
 _atom_site_fract_x
 _atom_site_fract_y
 _atom_site_fract_z
 _atom_site_occupancy
  Li  Li0  1  0.500000  0.500000  0.500000  1
  Zr  Zr1  1  0.120601  0.638122  0.120470  1
  Zr  Zr2  1  0.361878  0.879399  0.879530  1
  Zr  Zr3  1  0.879304  0.879304  0.879142  1
  Zr  Zr4  1  0.638122  0.120601  0.120470  1
  Zr  Zr5  1  0.879550  0.879550  0.361883  1
  Zr  Zr6  1  0.120696  0.120696  0.120858  1
  Zr  Zr7  1  0.879399  0.361878  0.879530  1
  Zr  Zr8  1  0.120450  0.120450  0.638117  1
  In  In9  1  0.499870  0.839845  0.160161  1
  In  In10  1  0.500351  0.839267  0.500588  1
  In  In11  1  0.499649  0.160733  0.499412  1
  In  In12  1  0.500472  0.500472  0.839258  1
  In  In13  1  0.160733  0.499649  0.499412  1
  In  In14  1  0.839849  0.160151  0.500000  1
  In  In15  1  0.160151  0.839849  0.500000  1
  In  In16  1  0.500130  0.160155  0.839839  1
  In  In17  1  0.160155  0.500130  0.839839  1
  In  In18  1  0.499528  0.499528  0.160742  1
  In  In19  1  0.839267  0.500351  0.500588  1
  In  In20  1  0.839845  0.499870  0.160161  1
  In  In21  1  0.250469  0.250469  0.250474  1
  In  In22  1  0.749531  0.749531  0.749526  1
  Co  Co23  1  0.782394  0.782394  0.215841  1
  Co  Co24  1  0.000000  0.000000  0.000000  1
  Co  Co25  1  0.217861  0.783892  0.217862  1
  Co  Co26  1  0.216108  0.782139  0.782138  1
  Co  Co27  1  0.217606  0.217606  0.784159  1
  Co  Co28  1  0.782139  0.216108  0.782138  1
  Co  Co29  1  0.783892  0.217861  0.217862  1
