# generated using pymatgen
data_SmGa2CuNi2
_symmetry_space_group_name_H-M   'P 1'
_cell_length_a   8.89218300
_cell_length_b   8.89218293
_cell_length_c   4.12994000
_cell_angle_alpha   90.00000000
_cell_angle_beta   90.00000000
_cell_angle_gamma   120.00000399
_symmetry_Int_Tables_number   1
_chemical_formula_structural   SmGa2CuNi2
_chemical_formula_sum   'Sm3 Ga6 Cu3 Ni6'
_cell_volume   282.80763929
_cell_formula_units_Z   3
loop_
 _symmetry_equiv_pos_site_id
 _symmetry_equiv_pos_as_xyz
  1  'x, y, z'
loop_
 _atom_site_type_symbol
 _atom_site_label
 _atom_site_symmetry_multiplicity
 _atom_site_fract_x
 _atom_site_fract_y
 _atom_site_fract_z
 _atom_site_occupancy
  Sm  Sm0  1  0.333333  0.666667  0.500000  1
  Sm  Sm1  1  0.666667  0.333333  0.500000  1
  Sm  Sm2  1  0.000000  0.000000  0.000000  1
  Ga  Ga3  1  0.481421  0.000000  0.000000  1
  Ga  Ga4  1  0.000000  0.481421  0.000000  1
  Ga  Ga5  1  0.518579  0.518579  0.000000  1
  Ga  Ga6  1  0.719701  0.000000  0.500000  1
  Ga  Ga7  1  0.000000  0.719701  0.500000  1
  Ga  Ga8  1  0.280299  0.280299  0.500000  1
  Cu  Cu9  1  0.292077  0.000000  0.500000  1
  Cu  Cu10  1  0.000000  0.292077  0.500000  1
  Cu  Cu11  1  0.707923  0.707923  0.500000  1
  Ni  Ni12  1  0.198821  0.371161  0.000000  1
  Ni  Ni13  1  0.628839  0.827660  0.000000  1
  Ni  Ni14  1  0.172340  0.801179  0.000000  1
  Ni  Ni15  1  0.827660  0.628839  0.000000  1
  Ni  Ni16  1  0.801179  0.172340  0.000000  1
  Ni  Ni17  1  0.371161  0.198821  0.000000  1
