# generated using pymatgen
data_Ti4GaP
_symmetry_space_group_name_H-M   'P 1'
_cell_length_a   3.43912000
_cell_length_b   6.88467055
_cell_length_c   11.93027506
_cell_angle_alpha   90.01085468
_cell_angle_beta   90.00000000
_cell_angle_gamma   90.00000000
_symmetry_Int_Tables_number   1
_chemical_formula_structural   Ti4GaP
_chemical_formula_sum   'Ti12 Ga3 P3'
_cell_volume   282.47560100
_cell_formula_units_Z   3
loop_
 _symmetry_equiv_pos_site_id
 _symmetry_equiv_pos_as_xyz
  1  'x, y, z'
loop_
 _atom_site_type_symbol
 _atom_site_label
 _atom_site_symmetry_multiplicity
 _atom_site_fract_x
 _atom_site_fract_y
 _atom_site_fract_z
 _atom_site_occupancy
  Ti  Ti0  1  0.000000  0.746738  0.998277  1
  Ti  Ti1  1  0.000000  0.245247  0.503779  1
  Ti  Ti2  1  0.000000  0.630141  0.626962  1
  Ti  Ti3  1  0.000000  0.126145  0.126041  1
  Ti  Ti4  1  0.000000  0.123852  0.870137  1
  Ti  Ti5  1  0.000000  0.626898  0.374996  1
  Ti  Ti6  1  0.500000  0.897263  0.510558  1
  Ti  Ti7  1  0.500000  0.390338  0.997913  1
  Ti  Ti8  1  0.500000  0.814416  0.795085  1
  Ti  Ti9  1  0.500000  0.305763  0.307021  1
  Ti  Ti10  1  0.500000  0.286918  0.694004  1
  Ti  Ti11  1  0.500000  0.806135  0.195202  1
  Ga  Ga12  1  0.000000  0.500849  0.166737  1
  Ga  Ga13  1  0.000000  0.500214  0.831081  1
  Ga  Ga14  1  0.000000  0.999888  0.335775  1
  P  P15  1  0.500000  0.000084  0.998148  1
  P  P16  1  0.500000  0.499858  0.501688  1
  P  P17  1  0.000000  0.999452  0.666596  1
