# generated using pymatgen
data_HoLu(Si7Rh3)2
_symmetry_space_group_name_H-M   'P 1'
_cell_length_a   7.97898567
_cell_length_b   7.97898484
_cell_length_c   7.97898656
_cell_angle_alpha   57.08893530
_cell_angle_beta   57.08893751
_cell_angle_gamma   57.08893692
_symmetry_Int_Tables_number   1
_chemical_formula_structural   HoLu(Si7Rh3)2
_chemical_formula_sum   'Ho1 Lu1 Si14 Rh6'
_cell_volume   335.09389097
_cell_formula_units_Z   1
loop_
 _symmetry_equiv_pos_site_id
 _symmetry_equiv_pos_as_xyz
  1  'x, y, z'
loop_
 _atom_site_type_symbol
 _atom_site_label
 _atom_site_symmetry_multiplicity
 _atom_site_fract_x
 _atom_site_fract_y
 _atom_site_fract_z
 _atom_site_occupancy
  Ho  Ho0  1  0.500000  0.500000  0.500000  1
  Lu  Lu1  1  0.000000  0.000000  0.000000  1
  Si  Si2  1  0.750059  0.750059  0.750059  1
  Si  Si3  1  0.249941  0.249941  0.249941  1
  Si  Si4  1  0.851726  0.065465  0.672231  1
  Si  Si5  1  0.672231  0.851726  0.065465  1
  Si  Si6  1  0.065465  0.672231  0.851726  1
  Si  Si7  1  0.648444  0.828048  0.434376  1
  Si  Si8  1  0.434376  0.648444  0.828048  1
  Si  Si9  1  0.828048  0.434376  0.648444  1
  Si  Si10  1  0.171952  0.565624  0.351556  1
  Si  Si11  1  0.565624  0.351556  0.171952  1
  Si  Si12  1  0.351556  0.171952  0.565624  1
  Si  Si13  1  0.934535  0.327769  0.148274  1
  Si  Si14  1  0.327769  0.148274  0.934535  1
  Si  Si15  1  0.148274  0.934535  0.327769  1
  Rh  Rh16  1  0.070190  0.428603  0.750587  1
  Rh  Rh17  1  0.249413  0.929810  0.571397  1
  Rh  Rh18  1  0.571397  0.249413  0.929810  1
  Rh  Rh19  1  0.929810  0.571397  0.249413  1
  Rh  Rh20  1  0.428603  0.750587  0.070190  1
  Rh  Rh21  1  0.750587  0.070190  0.428603  1
