# generated using pymatgen
data_Zr3Re3Si2P
_symmetry_space_group_name_H-M   'P 1'
_cell_length_a   6.94595300
_cell_length_b   6.94595260
_cell_length_c   3.46585400
_cell_angle_alpha   90.00000000
_cell_angle_beta   90.00000000
_cell_angle_gamma   120.00000667
_symmetry_Int_Tables_number   1
_chemical_formula_structural   Zr3Re3Si2P
_chemical_formula_sum   'Zr3 Re3 Si2 P1'
_cell_volume   144.81199015
_cell_formula_units_Z   1
loop_
 _symmetry_equiv_pos_site_id
 _symmetry_equiv_pos_as_xyz
  1  'x, y, z'
loop_
 _atom_site_type_symbol
 _atom_site_label
 _atom_site_symmetry_multiplicity
 _atom_site_fract_x
 _atom_site_fract_y
 _atom_site_fract_z
 _atom_site_occupancy
  Zr  Zr0  1  0.404293  0.998273  0.500000  1
  Zr  Zr1  1  0.001727  0.406019  0.500000  1
  Zr  Zr2  1  0.593981  0.595707  0.500000  1
  Re  Re3  1  0.746743  0.998974  0.000000  1
  Re  Re4  1  0.001026  0.747769  0.000000  1
  Re  Re5  1  0.252231  0.253257  0.000000  1
  Si  Si6  1  0.666667  0.333333  0.000000  1
  Si  Si7  1  0.000000  0.000000  0.500000  1
  P  P8  1  0.333333  0.666667  0.000000  1
