# generated using pymatgen
data_Ac4Mg5Pb6
_symmetry_space_group_name_H-M   'P 1'
_cell_length_a   11.21441572
_cell_length_b   11.21441508
_cell_length_c   17.64414900
_cell_angle_alpha   90.00000000
_cell_angle_beta   90.00000000
_cell_angle_gamma   154.13914633
_symmetry_Int_Tables_number   1
_chemical_formula_structural   Ac4Mg5Pb6
_chemical_formula_sum   'Ac8 Mg10 Pb12'
_cell_volume   967.89175786
_cell_formula_units_Z   2
loop_
 _symmetry_equiv_pos_site_id
 _symmetry_equiv_pos_as_xyz
  1  'x, y, z'
loop_
 _atom_site_type_symbol
 _atom_site_label
 _atom_site_symmetry_multiplicity
 _atom_site_fract_x
 _atom_site_fract_y
 _atom_site_fract_z
 _atom_site_occupancy
  Ac  Ac0  1  0.019706  0.980294  0.768024  1
  Ac  Ac1  1  0.980294  0.019706  0.268024  1
  Ac  Ac2  1  0.035000  0.965000  0.501967  1
  Ac  Ac3  1  0.965000  0.035000  0.001967  1
  Ac  Ac4  1  0.165378  0.834622  0.964712  1
  Ac  Ac5  1  0.834622  0.165378  0.464712  1
  Ac  Ac6  1  0.176654  0.823346  0.322582  1
  Ac  Ac7  1  0.823346  0.176654  0.822582  1
  Mg  Mg8  1  0.154268  0.845732  0.640710  1
  Mg  Mg9  1  0.845732  0.154268  0.140710  1
  Mg  Mg10  1  0.302880  0.697120  0.644199  1
  Mg  Mg11  1  0.697120  0.302880  0.144199  1
  Mg  Mg12  1  0.342022  0.657978  0.998979  1
  Mg  Mg13  1  0.657978  0.342022  0.498979  1
  Mg  Mg14  1  0.440124  0.559876  0.592872  1
  Mg  Mg15  1  0.559876  0.440124  0.092872  1
  Mg  Mg16  1  0.649423  0.350577  0.783105  1
  Mg  Mg17  1  0.350577  0.649423  0.283105  1
  Pb  Pb18  1  0.111736  0.888264  0.148138  1
  Pb  Pb19  1  0.888264  0.111736  0.648138  1
  Pb  Pb20  1  0.222341  0.777659  0.783760  1
  Pb  Pb21  1  0.777659  0.222341  0.283760  1
  Pb  Pb22  1  0.229848  0.770152  0.502107  1
  Pb  Pb23  1  0.770152  0.229848  0.002107  1
  Pb  Pb24  1  0.427719  0.572281  0.857971  1
  Pb  Pb25  1  0.572281  0.427719  0.357971  1
  Pb  Pb26  1  0.560953  0.439047  0.916787  1
  Pb  Pb27  1  0.439047  0.560953  0.416787  1
  Pb  Pb28  1  0.572346  0.427654  0.638545  1
  Pb  Pb29  1  0.427654  0.572346  0.138545  1
