# generated using pymatgen
data_Dy2LuPa(ReB6)2
_symmetry_space_group_name_H-M   'P 1'
_cell_length_a   3.68759600
_cell_length_b   9.14846545
_cell_length_c   11.50929811
_cell_angle_alpha   90.37917799
_cell_angle_beta   90.00000000
_cell_angle_gamma   90.00000000
_symmetry_Int_Tables_number   1
_chemical_formula_structural   Dy2LuPa(ReB6)2
_chemical_formula_sum   'Dy4 Lu2 Pa2 Re4 B24'
_cell_volume   388.26738979
_cell_formula_units_Z   2
loop_
 _symmetry_equiv_pos_site_id
 _symmetry_equiv_pos_as_xyz
  1  'x, y, z'
loop_
 _atom_site_type_symbol
 _atom_site_label
 _atom_site_symmetry_multiplicity
 _atom_site_fract_x
 _atom_site_fract_y
 _atom_site_fract_z
 _atom_site_occupancy
  Dy  Dy0  1  0.000000  0.822992  0.085440  1
  Dy  Dy1  1  0.000000  0.177008  0.914560  1
  Dy  Dy2  1  0.000000  0.944824  0.372255  1
  Dy  Dy3  1  0.000000  0.055176  0.627745  1
  Lu  Lu4  1  0.000000  0.444028  0.126075  1
  Lu  Lu5  1  0.000000  0.555972  0.873925  1
  Pa  Pa6  1  0.000000  0.322178  0.412868  1
  Pa  Pa7  1  0.000000  0.677822  0.587132  1
  Re  Re8  1  0.000000  0.634263  0.323414  1
  Re  Re9  1  0.000000  0.365737  0.676586  1
  Re  Re10  1  0.000000  0.142577  0.181305  1
  Re  Re11  1  0.000000  0.857423  0.818695  1
  B  B12  1  0.500000  0.553071  0.432521  1
  B  B13  1  0.500000  0.446929  0.567479  1
  B  B14  1  0.500000  0.054387  0.067109  1
  B  B15  1  0.500000  0.945613  0.932891  1
  B  B16  1  0.500000  0.747350  0.419142  1
  B  B17  1  0.500000  0.252650  0.580858  1
  B  B18  1  0.500000  0.250161  0.080084  1
  B  B19  1  0.500000  0.749839  0.919916  1
  B  B20  1  0.500000  0.790767  0.264651  1
  B  B21  1  0.500000  0.209233  0.735349  1
  B  B22  1  0.500000  0.293731  0.233175  1
  B  B23  1  0.500000  0.706269  0.766825  1
  B  B24  1  0.500000  0.629852  0.184351  1
  B  B25  1  0.500000  0.370148  0.815649  1
  B  B26  1  0.500000  0.133289  0.313589  1
  B  B27  1  0.500000  0.866711  0.686411  1
  B  B28  1  0.500000  0.982933  0.211684  1
  B  B29  1  0.500000  0.017067  0.788316  1
  B  B30  1  0.500000  0.482291  0.285543  1
  B  B31  1  0.500000  0.517709  0.714457  1
  B  B32  1  0.500000  0.601012  0.028377  1
  B  B33  1  0.500000  0.398988  0.971623  1
  B  B34  1  0.500000  0.112544  0.469133  1
  B  B35  1  0.500000  0.887456  0.530867  1
