# generated using pymatgen
data_CeYEr6(ReB6)4
_symmetry_space_group_name_H-M   'P 1'
_cell_length_a   3.67652000
_cell_length_b   9.14986171
_cell_length_c   11.53036605
_cell_angle_alpha   90.03899819
_cell_angle_beta   90.00000000
_cell_angle_gamma   90.00000000
_symmetry_Int_Tables_number   1
_chemical_formula_structural   CeYEr6(ReB6)4
_chemical_formula_sum   'Ce1 Y1 Er6 Re4 B24'
_cell_volume   387.87738338
_cell_formula_units_Z   1
loop_
 _symmetry_equiv_pos_site_id
 _symmetry_equiv_pos_as_xyz
  1  'x, y, z'
loop_
 _atom_site_type_symbol
 _atom_site_label
 _atom_site_symmetry_multiplicity
 _atom_site_fract_x
 _atom_site_fract_y
 _atom_site_fract_z
 _atom_site_occupancy
  Ce  Ce0  1  0.000000  0.322904  0.413882  1
  Y  Y1  1  0.000000  0.677684  0.586805  1
  Er  Er2  1  0.000000  0.823246  0.085499  1
  Er  Er3  1  0.000000  0.176121  0.913928  1
  Er  Er4  1  0.000000  0.942801  0.369853  1
  Er  Er5  1  0.000000  0.056296  0.630569  1
  Er  Er6  1  0.000000  0.443414  0.128749  1
  Er  Er7  1  0.000000  0.556954  0.870642  1
  Re  Re8  1  0.000000  0.638586  0.320251  1
  Re  Re9  1  0.000000  0.360990  0.679450  1
  Re  Re10  1  0.000000  0.138877  0.179143  1
  Re  Re11  1  0.000000  0.861655  0.821337  1
  B  B12  1  0.500000  0.553998  0.432153  1
  B  B13  1  0.500000  0.446015  0.568002  1
  B  B14  1  0.500000  0.053170  0.066548  1
  B  B15  1  0.500000  0.946942  0.933290  1
  B  B16  1  0.500000  0.750149  0.418160  1
  B  B17  1  0.500000  0.250443  0.582700  1
  B  B18  1  0.500000  0.249212  0.080429  1
  B  B19  1  0.500000  0.750491  0.918937  1
  B  B20  1  0.500000  0.792591  0.265067  1
  B  B21  1  0.500000  0.207606  0.735534  1
  B  B22  1  0.500000  0.291592  0.233607  1
  B  B23  1  0.500000  0.707766  0.765807  1
  B  B24  1  0.500000  0.631531  0.184511  1
  B  B25  1  0.500000  0.369392  0.815182  1
  B  B26  1  0.500000  0.130445  0.313789  1
  B  B27  1  0.500000  0.869403  0.685932  1
  B  B28  1  0.500000  0.981894  0.211456  1
  B  B29  1  0.500000  0.017837  0.788370  1
  B  B30  1  0.500000  0.483585  0.287097  1
  B  B31  1  0.500000  0.517757  0.713171  1
  B  B32  1  0.500000  0.600781  0.027773  1
  B  B33  1  0.500000  0.399554  0.971656  1
  B  B34  1  0.500000  0.098921  0.472460  1
  B  B35  1  0.500000  0.899395  0.528259  1
