# generated using pymatgen
data_YTm5Co16(TcP6)2
_symmetry_space_group_name_H-M   'P 1'
_cell_length_a   3.69184600
_cell_length_b   10.48164500
_cell_length_c   12.16524000
_cell_angle_alpha   90.00000000
_cell_angle_beta   90.00000000
_cell_angle_gamma   90.00000000
_symmetry_Int_Tables_number   1
_chemical_formula_structural   YTm5Co16(TcP6)2
_chemical_formula_sum   'Y1 Tm5 Co16 Tc2 P12'
_cell_volume   470.75365935
_cell_formula_units_Z   1
loop_
 _symmetry_equiv_pos_site_id
 _symmetry_equiv_pos_as_xyz
  1  'x, y, z'
loop_
 _atom_site_type_symbol
 _atom_site_label
 _atom_site_symmetry_multiplicity
 _atom_site_fract_x
 _atom_site_fract_y
 _atom_site_fract_z
 _atom_site_occupancy
  Y  Y0  1  0.500000  0.000000  0.475277  1
  Tm  Tm1  1  0.000000  0.500000  0.525143  1
  Tm  Tm2  1  0.500000  0.818077  0.205575  1
  Tm  Tm3  1  0.500000  0.181923  0.205575  1
  Tm  Tm4  1  0.000000  0.681676  0.794014  1
  Tm  Tm5  1  0.000000  0.318324  0.794014  1
  Co  Co6  1  0.500000  0.500000  0.702184  1
  Co  Co7  1  0.000000  0.000000  0.296687  1
  Co  Co8  1  0.000000  0.500000  0.986730  1
  Co  Co9  1  0.500000  0.000000  0.013038  1
  Co  Co10  1  0.500000  0.332366  0.989458  1
  Co  Co11  1  0.500000  0.667634  0.989458  1
  Co  Co12  1  0.000000  0.167954  0.010484  1
  Co  Co13  1  0.000000  0.832046  0.010484  1
  Co  Co14  1  0.500000  0.297640  0.431182  1
  Co  Co15  1  0.500000  0.702360  0.431182  1
  Co  Co16  1  0.000000  0.204316  0.569002  1
  Co  Co17  1  0.000000  0.795684  0.569002  1
  Co  Co18  1  0.500000  0.878043  0.708006  1
  Co  Co19  1  0.500000  0.121957  0.708006  1
  Co  Co20  1  0.000000  0.621480  0.292403  1
  Co  Co21  1  0.000000  0.378520  0.292403  1
  Tc  Tc22  1  0.500000  0.500000  0.156953  1
  Tc  Tc23  1  0.000000  0.000000  0.843744  1
  P  P24  1  0.500000  0.500000  0.879980  1
  P  P25  1  0.000000  0.000000  0.119590  1
  P  P26  1  0.500000  0.500000  0.350013  1
  P  P27  1  0.000000  0.000000  0.651327  1
  P  P28  1  0.500000  0.312869  0.616651  1
  P  P29  1  0.500000  0.687131  0.616651  1
  P  P30  1  0.000000  0.188263  0.382806  1
  P  P31  1  0.000000  0.811737  0.382806  1
  P  P32  1  0.500000  0.845334  0.892179  1
  P  P33  1  0.500000  0.154666  0.892179  1
  P  P34  1  0.000000  0.654281  0.107906  1
  P  P35  1  0.000000  0.345719  0.107906  1
