# generated using pymatgen
data_LiHo6Al11(Si3Ru2)4
_symmetry_space_group_name_H-M   'P 1'
_cell_length_a   8.62670257
_cell_length_b   8.62670254
_cell_length_c   9.19449700
_cell_angle_alpha   90.04422030
_cell_angle_beta   89.95577970
_cell_angle_gamma   119.86054686
_symmetry_Int_Tables_number   1
_chemical_formula_structural   LiHo6Al11(Si3Ru2)4
_chemical_formula_sum   'Li1 Ho6 Al11 Si12 Ru8'
_cell_volume   593.41244366
_cell_formula_units_Z   1
loop_
 _symmetry_equiv_pos_site_id
 _symmetry_equiv_pos_as_xyz
  1  'x, y, z'
loop_
 _atom_site_type_symbol
 _atom_site_label
 _atom_site_symmetry_multiplicity
 _atom_site_fract_x
 _atom_site_fract_y
 _atom_site_fract_z
 _atom_site_occupancy
  Li  Li0  1  0.835035  0.164965  0.413715  1
  Ho  Ho1  1  0.807203  0.192797  0.747605  1
  Ho  Ho2  1  0.191668  0.808332  0.250095  1
  Ho  Ho3  1  0.385063  0.193368  0.749142  1
  Ho  Ho4  1  0.616262  0.808443  0.251059  1
  Ho  Ho5  1  0.806632  0.614937  0.749142  1
  Ho  Ho6  1  0.191557  0.383738  0.251059  1
  Al  Al7  1  0.165150  0.834850  0.581940  1
  Al  Al8  1  0.330128  0.165294  0.417564  1
  Al  Al9  1  0.165335  0.834665  0.917569  1
  Al  Al10  1  0.671870  0.839081  0.579808  1
  Al  Al11  1  0.834141  0.165859  0.082136  1
  Al  Al12  1  0.834706  0.669872  0.417564  1
  Al  Al13  1  0.669247  0.834657  0.918073  1
  Al  Al14  1  0.160919  0.328130  0.579808  1
  Al  Al15  1  0.331092  0.165422  0.083417  1
  Al  Al16  1  0.165343  0.330753  0.918073  1
  Al  Al17  1  0.834578  0.668908  0.083417  1
  Si  Si18  1  0.666736  0.333264  0.957709  1
  Si  Si19  1  0.333305  0.666695  0.043239  1
  Si  Si20  1  0.333140  0.666860  0.458867  1
  Si  Si21  1  0.669012  0.330988  0.536890  1
  Si  Si22  1  0.436870  0.563130  0.748877  1
  Si  Si23  1  0.563158  0.436842  0.250131  1
  Si  Si24  1  0.124858  0.562708  0.749919  1
  Si  Si25  1  0.874801  0.432032  0.253943  1
  Si  Si26  1  0.437292  0.875142  0.749919  1
  Si  Si27  1  0.567968  0.125199  0.253943  1
  Si  Si28  1  0.999297  0.000703  0.749713  1
  Si  Si29  1  0.998442  0.001558  0.251847  1
  Ru  Ru30  1  0.499671  0.500329  0.000116  1
  Ru  Ru31  1  0.000036  0.500631  0.999775  1
  Ru  Ru32  1  0.500078  0.499922  0.499900  1
  Ru  Ru33  1  0.499369  0.999964  0.999775  1
  Ru  Ru34  1  0.003233  0.507081  0.501497  1
  Ru  Ru35  1  0.492919  0.996767  0.501497  1
  Ru  Ru36  1  0.999720  0.000280  0.999236  1
  Ru  Ru37  1  0.004166  0.995834  0.502022  1
