# generated using pymatgen
data_YbY19(NiHg3)2
_symmetry_space_group_name_H-M   'P 1'
_cell_length_a   9.67562900
_cell_length_b   9.67562867
_cell_length_c   9.58665000
_cell_angle_alpha   90.00000000
_cell_angle_beta   90.00000000
_cell_angle_gamma   119.99999086
_symmetry_Int_Tables_number   1
_chemical_formula_structural   YbY19(NiHg3)2
_chemical_formula_sum   'Yb1 Y19 Ni2 Hg6'
_cell_volume   777.24143337
_cell_formula_units_Z   1
loop_
 _symmetry_equiv_pos_site_id
 _symmetry_equiv_pos_as_xyz
  1  'x, y, z'
loop_
 _atom_site_type_symbol
 _atom_site_label
 _atom_site_symmetry_multiplicity
 _atom_site_fract_x
 _atom_site_fract_y
 _atom_site_fract_z
 _atom_site_occupancy
  Yb  Yb0  1  0.000000  0.000000  0.500000  1
  Y  Y1  1  0.000000  0.000000  0.000000  1
  Y  Y2  1  0.543487  0.456513  0.251545  1
  Y  Y3  1  0.543487  0.086974  0.251545  1
  Y  Y4  1  0.913026  0.456513  0.251545  1
  Y  Y5  1  0.456513  0.543487  0.748455  1
  Y  Y6  1  0.456513  0.913026  0.748455  1
  Y  Y7  1  0.086974  0.543487  0.748455  1
  Y  Y8  1  0.208884  0.791116  0.435028  1
  Y  Y9  1  0.208884  0.417770  0.435028  1
  Y  Y10  1  0.582230  0.791116  0.435028  1
  Y  Y11  1  0.791116  0.208884  0.564972  1
  Y  Y12  1  0.791116  0.582230  0.564972  1
  Y  Y13  1  0.417770  0.208884  0.564972  1
  Y  Y14  1  0.790171  0.209829  0.936675  1
  Y  Y15  1  0.790171  0.580341  0.936675  1
  Y  Y16  1  0.419659  0.209829  0.936675  1
  Y  Y17  1  0.209829  0.790171  0.063325  1
  Y  Y18  1  0.209829  0.419659  0.063325  1
  Y  Y19  1  0.580341  0.790171  0.063325  1
  Ni  Ni20  1  0.333333  0.666667  0.250603  1
  Ni  Ni21  1  0.666667  0.333333  0.749397  1
  Hg  Hg22  1  0.879963  0.120037  0.250191  1
  Hg  Hg23  1  0.879963  0.759927  0.250191  1
  Hg  Hg24  1  0.240073  0.120037  0.250191  1
  Hg  Hg25  1  0.120037  0.879963  0.749809  1
  Hg  Hg26  1  0.120037  0.240073  0.749809  1
  Hg  Hg27  1  0.759927  0.879963  0.749809  1
