# generated using pymatgen
data_Ca7La(OsC2)4
_symmetry_space_group_name_H-M   'P 1'
_cell_length_a   5.20628600
_cell_length_b   6.54041834
_cell_length_c   10.55780649
_cell_angle_alpha   90.37676766
_cell_angle_beta   90.00000000
_cell_angle_gamma   90.00000000
_symmetry_Int_Tables_number   1
_chemical_formula_structural   Ca7La(OsC2)4
_chemical_formula_sum   'Ca7 La1 Os4 C8'
_cell_volume   359.49914141
_cell_formula_units_Z   1
loop_
 _symmetry_equiv_pos_site_id
 _symmetry_equiv_pos_as_xyz
  1  'x, y, z'
loop_
 _atom_site_type_symbol
 _atom_site_label
 _atom_site_symmetry_multiplicity
 _atom_site_fract_x
 _atom_site_fract_y
 _atom_site_fract_z
 _atom_site_occupancy
  Ca  Ca0  1  0.750000  0.300799  0.447448  1
  Ca  Ca1  1  0.750000  0.807815  0.049692  1
  Ca  Ca2  1  0.250000  0.190649  0.951027  1
  Ca  Ca3  1  0.250000  0.539014  0.209641  1
  Ca  Ca4  1  0.750000  0.460928  0.786746  1
  Ca  Ca5  1  0.750000  0.968328  0.729947  1
  Ca  Ca6  1  0.250000  0.039083  0.273094  1
  La  La7  1  0.250000  0.696062  0.547703  1
  Os  Os8  1  0.250000  0.731050  0.852809  1
  Os  Os9  1  0.750000  0.266463  0.148629  1
  Os  Os10  1  0.750000  0.768500  0.344953  1
  Os  Os11  1  0.250000  0.228474  0.655808  1
  C  C12  1  0.250000  0.470868  0.759301  1
  C  C13  1  0.750000  0.529334  0.238986  1
  C  C14  1  0.750000  0.028794  0.255866  1
  C  C15  1  0.250000  0.966967  0.744349  1
  C  C16  1  0.250000  0.790340  0.024041  1
  C  C17  1  0.750000  0.210633  0.976662  1
  C  C18  1  0.750000  0.718468  0.519274  1
  C  C19  1  0.250000  0.287431  0.484023  1
