# generated using pymatgen
data_BeNb10Si4B
_symmetry_space_group_name_H-M   'P 1'
_cell_length_a   7.49185073
_cell_length_b   7.49185122
_cell_length_c   7.49828754
_cell_angle_alpha   128.68955643
_cell_angle_beta   128.69388243
_cell_angle_gamma   75.44353301
_symmetry_Int_Tables_number   1
_chemical_formula_structural   BeNb10Si4B
_chemical_formula_sum   'Be1 Nb10 Si4 B1'
_cell_volume   249.58708586
_cell_formula_units_Z   1
loop_
 _symmetry_equiv_pos_site_id
 _symmetry_equiv_pos_as_xyz
  1  'x, y, z'
loop_
 _atom_site_type_symbol
 _atom_site_label
 _atom_site_symmetry_multiplicity
 _atom_site_fract_x
 _atom_site_fract_y
 _atom_site_fract_z
 _atom_site_occupancy
  Be  Be0  1  0.123520  0.624566  0.748086  1
  Nb  Nb1  1  0.020950  0.189335  0.505673  1
  Nb  Nb2  1  0.522123  0.012903  0.826171  1
  Nb  Nb3  1  0.192121  0.683061  0.163482  1
  Nb  Nb4  1  0.480421  0.971362  0.163482  1
  Nb  Nb5  1  0.684475  0.535875  0.505139  1
  Nb  Nb6  1  0.969263  0.820664  0.505139  1
  Nb  Nb7  1  0.316337  0.484722  0.505673  1
  Nb  Nb8  1  0.813269  0.304049  0.826171  1
  Nb  Nb9  1  0.497772  0.507586  0.005357  1
  Nb  Nb10  1  0.993620  0.994245  0.987865  1
  Si  Si11  1  0.376595  0.120717  0.497312  1
  Si  Si12  1  0.878516  0.379741  0.258256  1
  Si  Si13  1  0.754183  0.748275  0.002248  1
  Si  Si14  1  0.253973  0.248065  0.002248  1
  B  B15  1  0.622862  0.874835  0.497698  1
