# generated using pymatgen
data_Eu2(FeN)3
_symmetry_space_group_name_H-M   'P 1'
_cell_length_a   6.36086781
_cell_length_b   6.36086763
_cell_length_c   6.15856428
_cell_angle_alpha   87.94118901
_cell_angle_beta   87.94117544
_cell_angle_gamma   118.48155148
_symmetry_Int_Tables_number   1
_chemical_formula_structural   Eu2(FeN)3
_chemical_formula_sum   'Eu4 Fe6 N6'
_cell_volume   218.48039822
_cell_formula_units_Z   2
loop_
 _symmetry_equiv_pos_site_id
 _symmetry_equiv_pos_as_xyz
  1  'x, y, z'
loop_
 _atom_site_type_symbol
 _atom_site_label
 _atom_site_symmetry_multiplicity
 _atom_site_fract_x
 _atom_site_fract_y
 _atom_site_fract_z
 _atom_site_occupancy
  Eu  Eu0  1  0.826094  0.675019  0.897581  1
  Eu  Eu1  1  0.324981  0.173906  0.602419  1
  Eu  Eu2  1  0.173906  0.324981  0.102419  1
  Eu  Eu3  1  0.675019  0.826094  0.397581  1
  Fe  Fe4  1  0.809829  0.190171  0.750000  1
  Fe  Fe5  1  0.190171  0.809829  0.250000  1
  Fe  Fe6  1  0.563191  0.163445  0.107835  1
  Fe  Fe7  1  0.436809  0.836555  0.892165  1
  Fe  Fe8  1  0.836555  0.436809  0.392165  1
  Fe  Fe9  1  0.163445  0.563191  0.607835  1
  N  N10  1  0.419616  0.580384  0.750000  1
  N  N11  1  0.580384  0.419616  0.250000  1
  N  N12  1  0.012301  0.740576  0.511020  1
  N  N13  1  0.740576  0.012301  0.011020  1
  N  N14  1  0.987699  0.259424  0.488980  1
  N  N15  1  0.259424  0.987699  0.988980  1
