# generated using pymatgen
data_Y3HoAl10(Ga4Ir3)2
_symmetry_space_group_name_H-M   'P 1'
_cell_length_a   7.53902734
_cell_length_b   7.53818317
_cell_length_c   9.56715003
_cell_angle_alpha   90.10303639
_cell_angle_beta   89.85294344
_cell_angle_gamma   119.67312470
_symmetry_Int_Tables_number   1
_chemical_formula_structural   Y3HoAl10(Ga4Ir3)2
_chemical_formula_sum   'Y3 Ho1 Al10 Ga8 Ir6'
_cell_volume   472.40533288
_cell_formula_units_Z   1
loop_
 _symmetry_equiv_pos_site_id
 _symmetry_equiv_pos_as_xyz
  1  'x, y, z'
loop_
 _atom_site_type_symbol
 _atom_site_label
 _atom_site_symmetry_multiplicity
 _atom_site_fract_x
 _atom_site_fract_y
 _atom_site_fract_z
 _atom_site_occupancy
  Y  Y0  1  0.996488  0.666850  0.245725  1
  Y  Y1  1  0.003515  0.333146  0.754274  1
  Y  Y2  1  0.672472  0.998700  0.249198  1
  Ho  Ho3  1  0.327422  0.001224  0.750862  1
  Al  Al4  1  0.997626  0.665454  0.570806  1
  Al  Al5  1  0.334396  0.000788  0.427909  1
  Al  Al6  1  0.002528  0.334699  0.429331  1
  Al  Al7  1  0.665443  0.999226  0.572395  1
  Al  Al8  1  0.663953  0.996938  0.926729  1
  Al  Al9  1  0.335871  0.003054  0.072968  1
  Al  Al10  1  0.333667  0.333476  0.556301  1
  Al  Al11  1  0.666329  0.666363  0.443850  1
  Al  Al12  1  0.666682  0.666123  0.054499  1
  Al  Al13  1  0.333316  0.333722  0.945354  1
  Ga  Ga14  1  0.130062  0.126455  0.250632  1
  Ga  Ga15  1  0.870194  0.873594  0.749366  1
  Ga  Ga16  1  0.999944  0.333465  0.079718  1
  Ga  Ga17  1  0.000306  0.666784  0.920097  1
  Ga  Ga18  1  0.341042  0.548683  0.250890  1
  Ga  Ga19  1  0.658687  0.451015  0.749107  1
  Ga  Ga20  1  0.546179  0.339320  0.249992  1
  Ga  Ga21  1  0.453800  0.660864  0.750008  1
  Ir  Ir22  1  0.667107  0.325856  0.999124  1
  Ir  Ir23  1  0.332793  0.674124  0.000705  1
  Ir  Ir24  1  0.328117  0.671841  0.500933  1
  Ir  Ir25  1  0.671794  0.328176  0.499230  1
  Ir  Ir26  1  0.000137  0.000030  0.999899  1
  Ir  Ir27  1  0.000133  0.000028  0.500099  1
