# generated using pymatgen
data_TmPa2Sn3Ir2Rh
_symmetry_space_group_name_H-M   'P 1'
_cell_length_a   7.42179500
_cell_length_b   7.47913338
_cell_length_c   3.99402200
_cell_angle_alpha   90.00000000
_cell_angle_beta   90.00000000
_cell_angle_gamma   119.74672278
_symmetry_Int_Tables_number   1
_chemical_formula_structural   TmPa2Sn3Ir2Rh
_chemical_formula_sum   'Tm1 Pa2 Sn3 Ir2 Rh1'
_cell_volume   192.48818196
_cell_formula_units_Z   1
loop_
 _symmetry_equiv_pos_site_id
 _symmetry_equiv_pos_as_xyz
  1  'x, y, z'
loop_
 _atom_site_type_symbol
 _atom_site_label
 _atom_site_symmetry_multiplicity
 _atom_site_fract_x
 _atom_site_fract_y
 _atom_site_fract_z
 _atom_site_occupancy
  Tm  Tm0  1  0.408541  0.000000  0.000000  1
  Pa  Pa1  1  0.001319  0.414479  0.000000  1
  Pa  Pa2  1  0.586839  0.585521  0.000000  1
  Sn  Sn3  1  0.254704  0.242588  0.500000  1
  Sn  Sn4  1  0.012117  0.757412  0.500000  1
  Sn  Sn5  1  0.733880  0.000000  0.500000  1
  Ir  Ir6  1  0.683673  0.354665  0.500000  1
  Ir  Ir7  1  0.329007  0.645335  0.500000  1
  Rh  Rh8  1  0.989920  0.000000  0.000000  1
