# generated using pymatgen
data_Ti6ZnP2
_symmetry_space_group_name_H-M   'P 1'
_cell_length_a   6.80771600
_cell_length_b   6.80771773
_cell_length_c   3.44242600
_cell_angle_alpha   90.00000000
_cell_angle_beta   90.00000000
_cell_angle_gamma   119.99999157
_symmetry_Int_Tables_number   1
_chemical_formula_structural   Ti6ZnP2
_chemical_formula_sum   'Ti6 Zn1 P2'
_cell_volume   138.16506704
_cell_formula_units_Z   1
loop_
 _symmetry_equiv_pos_site_id
 _symmetry_equiv_pos_as_xyz
  1  'x, y, z'
loop_
 _atom_site_type_symbol
 _atom_site_label
 _atom_site_symmetry_multiplicity
 _atom_site_fract_x
 _atom_site_fract_y
 _atom_site_fract_z
 _atom_site_occupancy
  Ti  Ti0  1  0.000021  0.256912  0.500000  1
  Ti  Ti1  1  0.256891  0.999979  0.500000  1
  Ti  Ti2  1  0.743088  0.743109  0.500000  1
  Ti  Ti3  1  0.593197  0.977687  0.000000  1
  Ti  Ti4  1  0.384490  0.406803  0.000000  1
  Ti  Ti5  1  0.022313  0.615510  0.000000  1
  Zn  Zn6  1  0.666667  0.333333  0.500000  1
  P  P7  1  0.000000  0.000000  0.000000  1
  P  P8  1  0.333333  0.666667  0.500000  1
