# generated using pymatgen
data_TmTh3(Al3Rh)6
_symmetry_space_group_name_H-M   'P 1'
_cell_length_a   7.64019996
_cell_length_b   7.65055232
_cell_length_c   9.51207200
_cell_angle_alpha   90.00000000
_cell_angle_beta   90.00000000
_cell_angle_gamma   119.43321382
_symmetry_Int_Tables_number   1
_chemical_formula_structural   TmTh3(Al3Rh)6
_chemical_formula_sum   'Tm1 Th3 Al18 Rh6'
_cell_volume   484.23417991
_cell_formula_units_Z   1
loop_
 _symmetry_equiv_pos_site_id
 _symmetry_equiv_pos_as_xyz
  1  'x, y, z'
loop_
 _atom_site_type_symbol
 _atom_site_label
 _atom_site_symmetry_multiplicity
 _atom_site_fract_x
 _atom_site_fract_y
 _atom_site_fract_z
 _atom_site_occupancy
  Tm  Tm0  1  0.328400  0.005740  0.750000  1
  Th  Th1  1  0.994972  0.671258  0.250000  1
  Th  Th2  1  0.003708  0.329345  0.750000  1
  Th  Th3  1  0.670325  0.994035  0.250000  1
  Al  Al4  1  0.134870  0.132219  0.250000  1
  Al  Al5  1  0.871518  0.870441  0.750000  1
  Al  Al6  1  0.005823  0.335515  0.074320  1
  Al  Al7  1  0.001207  0.670237  0.921908  1
  Al  Al8  1  0.001207  0.670237  0.578092  1
  Al  Al9  1  0.335063  0.004175  0.431994  1
  Al  Al10  1  0.005823  0.335515  0.425680  1
  Al  Al11  1  0.659040  0.995577  0.578005  1
  Al  Al12  1  0.659040  0.995577  0.921995  1
  Al  Al13  1  0.335063  0.004175  0.068006  1
  Al  Al14  1  0.336049  0.332157  0.553365  1
  Al  Al15  1  0.663244  0.663184  0.456323  1
  Al  Al16  1  0.663244  0.663184  0.043677  1
  Al  Al17  1  0.336049  0.332157  0.946635  1
  Al  Al18  1  0.341447  0.544421  0.250000  1
  Al  Al19  1  0.656615  0.449622  0.750000  1
  Al  Al20  1  0.544248  0.338356  0.250000  1
  Al  Al21  1  0.452380  0.662460  0.750000  1
  Rh  Rh22  1  0.673641  0.328196  0.999689  1
  Rh  Rh23  1  0.327387  0.671669  0.000024  1
  Rh  Rh24  1  0.327387  0.671669  0.499976  1
  Rh  Rh25  1  0.673641  0.328196  0.500311  1
  Rh  Rh26  1  0.999306  0.000343  0.999741  1
  Rh  Rh27  1  0.999306  0.000343  0.500259  1
