# generated using pymatgen
data_Nd6Sn7Hg3
_symmetry_space_group_name_H-M   'P 1'
_cell_length_a   6.59998886
_cell_length_b   6.59998808
_cell_length_c   10.43859419
_cell_angle_alpha   90.55664414
_cell_angle_beta   90.55665153
_cell_angle_gamma   102.82851701
_symmetry_Int_Tables_number   1
_chemical_formula_structural   Nd6Sn7Hg3
_chemical_formula_sum   'Nd6 Sn7 Hg3'
_cell_volume   443.29991009
_cell_formula_units_Z   1
loop_
 _symmetry_equiv_pos_site_id
 _symmetry_equiv_pos_as_xyz
  1  'x, y, z'
loop_
 _atom_site_type_symbol
 _atom_site_label
 _atom_site_symmetry_multiplicity
 _atom_site_fract_x
 _atom_site_fract_y
 _atom_site_fract_z
 _atom_site_occupancy
  Nd  Nd0  1  0.626397  0.626397  0.251258  1
  Nd  Nd1  1  0.373274  0.373274  0.745994  1
  Nd  Nd2  1  0.205354  0.798162  0.499379  1
  Nd  Nd3  1  0.205547  0.792362  0.000668  1
  Nd  Nd4  1  0.798162  0.205354  0.499379  1
  Nd  Nd5  1  0.792362  0.205547  0.000668  1
  Sn  Sn6  1  0.016678  0.016678  0.246023  1
  Sn  Sn7  1  0.983617  0.983617  0.752726  1
  Sn  Sn8  1  0.690347  0.690347  0.547167  1
  Sn  Sn9  1  0.493491  0.071833  0.248374  1
  Sn  Sn10  1  0.930958  0.507096  0.752327  1
  Sn  Sn11  1  0.507096  0.930958  0.752327  1
  Sn  Sn12  1  0.071833  0.493491  0.248374  1
  Hg  Hg13  1  0.310518  0.310518  0.039128  1
  Hg  Hg14  1  0.688742  0.688742  0.960599  1
  Hg  Hg15  1  0.305625  0.305625  0.455608  1
