# generated using pymatgen
data_Zr16Co4Ir3Ru
_symmetry_space_group_name_H-M   'P 1'
_cell_length_a   8.69143590
_cell_length_b   8.69264237
_cell_length_c   8.69215956
_cell_angle_alpha   59.89030362
_cell_angle_beta   59.88508170
_cell_angle_gamma   59.89029495
_symmetry_Int_Tables_number   1
_chemical_formula_structural   Zr16Co4Ir3Ru
_chemical_formula_sum   'Zr16 Co4 Ir3 Ru1'
_cell_volume   463.18723118
_cell_formula_units_Z   1
loop_
 _symmetry_equiv_pos_site_id
 _symmetry_equiv_pos_as_xyz
  1  'x, y, z'
loop_
 _atom_site_type_symbol
 _atom_site_label
 _atom_site_symmetry_multiplicity
 _atom_site_fract_x
 _atom_site_fract_y
 _atom_site_fract_z
 _atom_site_occupancy
  Zr  Zr0  1  0.060707  0.646359  0.646315  1
  Zr  Zr1  1  0.646277  0.060878  0.646286  1
  Zr  Zr2  1  0.646335  0.646384  0.060720  1
  Zr  Zr3  1  0.645490  0.645535  0.645467  1
  Zr  Zr4  1  0.802922  0.802882  0.196980  1
  Zr  Zr5  1  0.196671  0.196687  0.803044  1
  Zr  Zr6  1  0.802923  0.196944  0.802938  1
  Zr  Zr7  1  0.196688  0.802991  0.196722  1
  Zr  Zr8  1  0.196970  0.802878  0.802933  1
  Zr  Zr9  1  0.803056  0.196656  0.196680  1
  Zr  Zr10  1  0.436405  0.436335  0.065815  1
  Zr  Zr11  1  0.063909  0.063810  0.436448  1
  Zr  Zr12  1  0.436435  0.065740  0.436391  1
  Zr  Zr13  1  0.063923  0.436393  0.063889  1
  Zr  Zr14  1  0.065815  0.436380  0.436403  1
  Zr  Zr15  1  0.436503  0.063809  0.063874  1
  Co  Co16  1  0.425856  0.857661  0.857525  1
  Co  Co17  1  0.857538  0.425854  0.857609  1
  Co  Co18  1  0.857487  0.857695  0.425842  1
  Co  Co19  1  0.858194  0.858389  0.858266  1
  Ir  Ir20  1  0.749813  0.416416  0.416409  1
  Ir  Ir21  1  0.416444  0.749648  0.416461  1
  Ir  Ir22  1  0.416412  0.416433  0.749747  1
  Ru  Ru23  1  0.417226  0.417244  0.417237  1
