# generated using pymatgen
data_DyEr3Cu2(Si2Ru)2
_symmetry_space_group_name_H-M   'P 1'
_cell_length_a   4.20938900
_cell_length_b   6.92871228
_cell_length_c   7.33474248
_cell_angle_alpha   91.18321706
_cell_angle_beta   90.00000000
_cell_angle_gamma   90.00000000
_symmetry_Int_Tables_number   1
_chemical_formula_structural   DyEr3Cu2(Si2Ru)2
_chemical_formula_sum   'Dy1 Er3 Cu2 Si4 Ru2'
_cell_volume   213.87688344
_cell_formula_units_Z   1
loop_
 _symmetry_equiv_pos_site_id
 _symmetry_equiv_pos_as_xyz
  1  'x, y, z'
loop_
 _atom_site_type_symbol
 _atom_site_label
 _atom_site_symmetry_multiplicity
 _atom_site_fract_x
 _atom_site_fract_y
 _atom_site_fract_z
 _atom_site_occupancy
  Dy  Dy0  1  0.250000  0.994240  0.797292  1
  Er  Er1  1  0.750000  0.006006  0.203298  1
  Er  Er2  1  0.250000  0.493298  0.689452  1
  Er  Er3  1  0.750000  0.506941  0.310794  1
  Cu  Cu4  1  0.750000  0.832483  0.574025  1
  Cu  Cu5  1  0.250000  0.166976  0.423673  1
  Si  Si6  1  0.250000  0.297922  0.091589  1
  Si  Si7  1  0.750000  0.701685  0.910451  1
  Si  Si8  1  0.250000  0.794800  0.389636  1
  Si  Si9  1  0.750000  0.206255  0.608783  1
  Ru  Ru10  1  0.750000  0.346285  0.934574  1
  Ru  Ru11  1  0.250000  0.653111  0.066433  1
