# generated using pymatgen
data_Tm(Ge2Rh3)2
_symmetry_space_group_name_H-M   'P 1'
_cell_length_a   7.22027400
_cell_length_b   7.22027289
_cell_length_c   3.83376100
_cell_angle_alpha   90.00000000
_cell_angle_beta   90.00000000
_cell_angle_gamma   119.99999593
_symmetry_Int_Tables_number   1
_chemical_formula_structural   Tm(Ge2Rh3)2
_chemical_formula_sum   'Tm1 Ge4 Rh6'
_cell_volume   173.08641201
_cell_formula_units_Z   1
loop_
 _symmetry_equiv_pos_site_id
 _symmetry_equiv_pos_as_xyz
  1  'x, y, z'
loop_
 _atom_site_type_symbol
 _atom_site_label
 _atom_site_symmetry_multiplicity
 _atom_site_fract_x
 _atom_site_fract_y
 _atom_site_fract_z
 _atom_site_occupancy
  Tm  Tm0  1  0.000000  0.000000  0.000000  1
  Ge  Ge1  1  0.803436  0.196564  0.500000  1
  Ge  Ge2  1  0.803436  0.606871  0.500000  1
  Ge  Ge3  1  0.393129  0.196564  0.500000  1
  Ge  Ge4  1  0.333333  0.666667  0.000000  1
  Rh  Rh5  1  0.533420  0.466580  0.000000  1
  Rh  Rh6  1  0.533420  0.066839  0.000000  1
  Rh  Rh7  1  0.933161  0.466580  0.000000  1
  Rh  Rh8  1  0.197385  0.802615  0.500000  1
  Rh  Rh9  1  0.197385  0.394771  0.500000  1
  Rh  Rh10  1  0.605229  0.802615  0.500000  1
