# generated using pymatgen
data_HoEr5(Si3Pt2)4
_symmetry_space_group_name_H-M   'P 1'
_cell_length_a   4.23187000
_cell_length_b   8.53365648
_cell_length_c   12.89764405
_cell_angle_alpha   80.25484220
_cell_angle_beta   90.00000000
_cell_angle_gamma   90.00000000
_symmetry_Int_Tables_number   1
_chemical_formula_structural   HoEr5(Si3Pt2)4
_chemical_formula_sum   'Ho1 Er5 Si12 Pt8'
_cell_volume   459.05582141
_cell_formula_units_Z   1
loop_
 _symmetry_equiv_pos_site_id
 _symmetry_equiv_pos_as_xyz
  1  'x, y, z'
loop_
 _atom_site_type_symbol
 _atom_site_label
 _atom_site_symmetry_multiplicity
 _atom_site_fract_x
 _atom_site_fract_y
 _atom_site_fract_z
 _atom_site_occupancy
  Ho  Ho0  1  0.250000  0.073538  0.184323  1
  Er  Er1  1  0.250000  0.766234  0.439194  1
  Er  Er2  1  0.250000  0.583691  0.186559  1
  Er  Er3  1  0.750000  0.233743  0.560806  1
  Er  Er4  1  0.750000  0.416291  0.813460  1
  Er  Er5  1  0.750000  0.926496  0.815675  1
  Si  Si6  1  0.750000  0.588718  0.571422  1
  Si  Si7  1  0.750000  0.126990  0.004611  1
  Si  Si8  1  0.750000  0.872857  0.573573  1
  Si  Si9  1  0.250000  0.696376  0.713748  1
  Si  Si10  1  0.750000  0.303655  0.286264  1
  Si  Si11  1  0.750000  0.805665  0.277016  1
  Si  Si12  1  0.250000  0.873020  0.995318  1
  Si  Si13  1  0.250000  0.194262  0.723008  1
  Si  Si14  1  0.250000  0.378524  0.001287  1
  Si  Si15  1  0.250000  0.127155  0.426443  1
  Si  Si16  1  0.750000  0.621502  0.998685  1
  Si  Si17  1  0.250000  0.411283  0.428571  1
  Pt  Pt18  1  0.750000  0.352105  0.099265  1
  Pt  Pt19  1  0.250000  0.971209  0.624239  1
  Pt  Pt20  1  0.750000  0.849220  0.089099  1
  Pt  Pt21  1  0.750000  0.028732  0.375916  1
  Pt  Pt22  1  0.250000  0.648081  0.900665  1
  Pt  Pt23  1  0.250000  0.150670  0.910837  1
  Pt  Pt24  1  0.750000  0.533311  0.375987  1
  Pt  Pt25  1  0.250000  0.466672  0.624029  1
