# generated using pymatgen
data_Ca5Ni2P12Ru17
_symmetry_space_group_name_H-M   'P 1'
_cell_length_a   12.47816100
_cell_length_b   12.56928110
_cell_length_c   3.93958700
_cell_angle_alpha   90.00000000
_cell_angle_beta   90.00000000
_cell_angle_gamma   120.24184892
_symmetry_Int_Tables_number   1
_chemical_formula_structural   Ca5Ni2P12Ru17
_chemical_formula_sum   'Ca5 Ni2 P12 Ru17'
_cell_volume   533.80027762
_cell_formula_units_Z   1
loop_
 _symmetry_equiv_pos_site_id
 _symmetry_equiv_pos_as_xyz
  1  'x, y, z'
loop_
 _atom_site_type_symbol
 _atom_site_label
 _atom_site_symmetry_multiplicity
 _atom_site_fract_x
 _atom_site_fract_y
 _atom_site_fract_z
 _atom_site_occupancy
  Ca  Ca0  1  0.666991  0.333564  0.000000  1
  Ca  Ca1  1  0.333009  0.666573  0.000000  1
  Ca  Ca2  1  0.184217  0.183769  0.500000  1
  Ca  Ca3  1  0.815783  0.999552  0.500000  1
  Ca  Ca4  1  0.000000  0.815167  0.500000  1
  Ni  Ni5  1  0.000000  0.279735  0.500000  1
  Ni  Ni6  1  0.000000  0.001029  0.000000  1
  P  P7  1  0.373383  0.374057  0.000000  1
  P  P8  1  0.626617  0.000674  0.000000  1
  P  P9  1  0.000000  0.623751  0.000000  1
  P  P10  1  0.835872  0.309757  0.500000  1
  P  P11  1  0.692308  0.524991  0.500000  1
  P  P12  1  0.476655  0.168695  0.500000  1
  P  P13  1  0.307692  0.832682  0.500000  1
  P  P14  1  0.523345  0.692039  0.500000  1
  P  P15  1  0.164128  0.473884  0.500000  1
  P  P16  1  0.820079  0.819858  0.000000  1
  P  P17  1  0.179921  0.999779  0.000000  1
  P  P18  1  0.000000  0.178856  0.000000  1
  Ru  Ru19  1  0.554981  0.557108  0.000000  1
  Ru  Ru20  1  0.445019  0.002125  0.000000  1
  Ru  Ru21  1  0.000000  0.441962  0.000000  1
  Ru  Ru22  1  0.821336  0.194313  0.000000  1
  Ru  Ru23  1  0.806937  0.622481  0.000000  1
  Ru  Ru24  1  0.377912  0.185211  0.000000  1
  Ru  Ru25  1  0.193063  0.815544  0.000000  1
  Ru  Ru26  1  0.622088  0.807300  0.000000  1
  Ru  Ru27  1  0.178664  0.372976  0.000000  1
  Ru  Ru28  1  0.639342  0.127796  0.500000  1
  Ru  Ru29  1  0.874973  0.509518  0.500000  1
  Ru  Ru30  1  0.488746  0.365554  0.500000  1
  Ru  Ru31  1  0.125027  0.634545  0.500000  1
  Ru  Ru32  1  0.511254  0.876808  0.500000  1
  Ru  Ru33  1  0.360658  0.488454  0.500000  1
  Ru  Ru34  1  0.719627  0.719759  0.500000  1
  Ru  Ru35  1  0.280373  0.000132  0.500000  1
