# generated using pymatgen
data_TmZr3(BRu)16
_symmetry_space_group_name_H-M   'P 1'
_cell_length_a   9.14679791
_cell_length_b   7.43098407
_cell_length_c   7.43098500
_cell_angle_alpha   89.99948694
_cell_angle_beta   113.96700219
_cell_angle_gamma   113.96700133
_symmetry_Int_Tables_number   1
_chemical_formula_structural   TmZr3(BRu)16
_chemical_formula_sum   'Tm1 Zr3 B16 Ru16'
_cell_volume   413.42398801
_cell_formula_units_Z   1
loop_
 _symmetry_equiv_pos_site_id
 _symmetry_equiv_pos_as_xyz
  1  'x, y, z'
loop_
 _atom_site_type_symbol
 _atom_site_label
 _atom_site_symmetry_multiplicity
 _atom_site_fract_x
 _atom_site_fract_y
 _atom_site_fract_z
 _atom_site_occupancy
  Tm  Tm0  1  0.250000  0.125000  0.875000  1
  Zr  Zr1  1  0.750000  0.874999  0.124999  1
  Zr  Zr2  1  0.250000  0.625000  0.375001  1
  Zr  Zr3  1  0.750000  0.375000  0.625000  1
  B  B4  1  0.914411  0.288211  0.067877  1
  B  B5  1  0.413821  0.568201  0.125044  1
  B  B6  1  0.086179  0.211222  0.154380  1
  B  B7  1  0.585672  0.153310  0.211409  1
  B  B8  1  0.413898  0.067486  0.288436  1
  B  B9  1  0.914411  0.626201  0.346535  1
  B  B10  1  0.585589  0.653466  0.373799  1
  B  B11  1  0.086179  0.874957  0.431798  1
  B  B12  1  0.914328  0.125737  0.567638  1
  B  B13  1  0.413898  0.346411  0.625461  1
  B  B14  1  0.086102  0.374539  0.653590  1
  B  B15  1  0.585589  0.932124  0.711790  1
  B  B16  1  0.413821  0.845620  0.788777  1
  B  B17  1  0.914328  0.788591  0.846689  1
  B  B18  1  0.585672  0.432362  0.874263  1
  B  B19  1  0.086102  0.711563  0.932513  1
  Ru  Ru20  1  0.872878  0.550652  0.033671  1
  Ru  Ru21  1  0.373981  0.835764  0.051812  1
  Ru  Ru22  1  0.126018  0.948187  0.164237  1
  Ru  Ru23  1  0.628722  0.467098  0.178815  1
  Ru  Ru24  1  0.374612  0.339647  0.324204  1
  Ru  Ru25  1  0.872878  0.322225  0.339205  1
  Ru  Ru26  1  0.627123  0.966329  0.449349  1
  Ru  Ru27  1  0.126018  0.177831  0.461782  1
  Ru  Ru28  1  0.871279  0.821186  0.532903  1
  Ru  Ru29  1  0.374612  0.034965  0.550408  1
  Ru  Ru30  1  0.125387  0.675795  0.660353  1
  Ru  Ru31  1  0.627123  0.660794  0.677774  1
  Ru  Ru32  1  0.373981  0.538218  0.822170  1
  Ru  Ru33  1  0.871279  0.050093  0.838377  1
  Ru  Ru34  1  0.628722  0.161624  0.949907  1
  Ru  Ru35  1  0.125387  0.449592  0.965034  1
