# generated using pymatgen
data_Yb3Sc(Ir2O7)2
_symmetry_space_group_name_H-M   'P 1'
_cell_length_a   7.14838632
_cell_length_b   7.20467977
_cell_length_c   7.20467800
_cell_angle_alpha   59.99999893
_cell_angle_beta   59.73915272
_cell_angle_gamma   59.73915962
_symmetry_Int_Tables_number   1
_chemical_formula_structural   Yb3Sc(Ir2O7)2
_chemical_formula_sum   'Yb3 Sc1 Ir4 O14'
_cell_volume   261.33567509
_cell_formula_units_Z   1
loop_
 _symmetry_equiv_pos_site_id
 _symmetry_equiv_pos_as_xyz
  1  'x, y, z'
loop_
 _atom_site_type_symbol
 _atom_site_label
 _atom_site_symmetry_multiplicity
 _atom_site_fract_x
 _atom_site_fract_y
 _atom_site_fract_z
 _atom_site_occupancy
  Yb  Yb0  1  0.625000  0.625000  0.125000  1
  Yb  Yb1  1  0.625000  0.625000  0.625000  1
  Yb  Yb2  1  0.625000  0.125000  0.625000  1
  Sc  Sc3  1  0.125000  0.625000  0.625000  1
  Ir  Ir4  1  0.625000  0.125000  0.125000  1
  Ir  Ir5  1  0.125000  0.125000  0.125000  1
  Ir  Ir6  1  0.125000  0.625000  0.125000  1
  Ir  Ir7  1  0.125000  0.125000  0.625000  1
  O  O8  1  0.057748  0.453937  0.453937  1
  O  O9  1  0.794460  0.793472  0.206034  1
  O  O10  1  0.794460  0.206034  0.206034  1
  O  O11  1  0.057748  0.453937  0.034377  1
  O  O12  1  0.455540  0.043966  0.456528  1
  O  O13  1  0.779347  0.740217  0.740217  1
  O  O14  1  0.057748  0.034377  0.453937  1
  O  O15  1  0.794460  0.206034  0.793472  1
  O  O16  1  0.470653  0.509783  0.509783  1
  O  O17  1  0.192252  0.215623  0.796063  1
  O  O18  1  0.192252  0.796063  0.215623  1
  O  O19  1  0.455540  0.043966  0.043966  1
  O  O20  1  0.455540  0.456528  0.043966  1
  O  O21  1  0.192252  0.796063  0.796063  1
