# generated using pymatgen
data_KOs(OF2)2
_symmetry_space_group_name_H-M   'P 1'
_cell_length_a   4.95571011
_cell_length_b   6.74147257
_cell_length_c   8.47022198
_cell_angle_alpha   87.13437506
_cell_angle_beta   73.01327108
_cell_angle_gamma   80.17870220
_symmetry_Int_Tables_number   1
_chemical_formula_structural   KOs(OF2)2
_chemical_formula_sum   'K2 Os2 O4 F8'
_cell_volume   266.66783351
_cell_formula_units_Z   2
loop_
 _symmetry_equiv_pos_site_id
 _symmetry_equiv_pos_as_xyz
  1  'x, y, z'
loop_
 _atom_site_type_symbol
 _atom_site_label
 _atom_site_symmetry_multiplicity
 _atom_site_fract_x
 _atom_site_fract_y
 _atom_site_fract_z
 _atom_site_occupancy
  K  K0  1  0.085620  0.249987  0.827324  1
  K  K1  1  0.914380  0.750013  0.172676  1
  Os  Os2  1  0.644625  0.749858  0.710755  1
  Os  Os3  1  0.355375  0.250142  0.289245  1
  O  O4  1  0.437852  0.843883  0.582625  1
  O  O5  1  0.979368  0.655724  0.582708  1
  O  O6  1  0.562148  0.156117  0.417375  1
  O  O7  1  0.020632  0.344276  0.417292  1
  F  F8  1  0.751649  0.008929  0.727109  1
  F  F9  1  0.521119  0.490766  0.727399  1
  F  F10  1  0.248351  0.991071  0.272891  1
  F  F11  1  0.478881  0.509234  0.272601  1
  F  F12  1  0.307880  0.844673  0.901963  1
  F  F13  1  0.790372  0.655401  0.901999  1
  F  F14  1  0.692120  0.155327  0.098037  1
  F  F15  1  0.209628  0.344599  0.098001  1
