# generated using pymatgen
data_DyY19Cd6RuRh
_symmetry_space_group_name_H-M   'P 1'
_cell_length_a   9.66787800
_cell_length_b   9.66787718
_cell_length_c   9.83571000
_cell_angle_alpha   90.00000000
_cell_angle_beta   90.00000000
_cell_angle_gamma   120.00000281
_symmetry_Int_Tables_number   1
_chemical_formula_structural   DyY19Cd6RuRh
_chemical_formula_sum   'Dy1 Y19 Cd6 Ru1 Rh1'
_cell_volume   796.15682158
_cell_formula_units_Z   1
loop_
 _symmetry_equiv_pos_site_id
 _symmetry_equiv_pos_as_xyz
  1  'x, y, z'
loop_
 _atom_site_type_symbol
 _atom_site_label
 _atom_site_symmetry_multiplicity
 _atom_site_fract_x
 _atom_site_fract_y
 _atom_site_fract_z
 _atom_site_occupancy
  Dy  Dy0  1  0.000000  0.000000  0.499728  1
  Y  Y1  1  0.000000  0.000000  0.000295  1
  Y  Y2  1  0.209139  0.790861  0.440363  1
  Y  Y3  1  0.209139  0.418278  0.440363  1
  Y  Y4  1  0.581722  0.790861  0.440363  1
  Y  Y5  1  0.790425  0.209575  0.560193  1
  Y  Y6  1  0.790425  0.580849  0.560193  1
  Y  Y7  1  0.419151  0.209575  0.560193  1
  Y  Y8  1  0.790320  0.209680  0.939649  1
  Y  Y9  1  0.790320  0.580639  0.939649  1
  Y  Y10  1  0.419361  0.209680  0.939649  1
  Y  Y11  1  0.209255  0.790745  0.059774  1
  Y  Y12  1  0.209255  0.418509  0.059774  1
  Y  Y13  1  0.581491  0.790745  0.059774  1
  Y  Y14  1  0.542165  0.457835  0.249994  1
  Y  Y15  1  0.542165  0.084330  0.249994  1
  Y  Y16  1  0.915670  0.457835  0.249994  1
  Y  Y17  1  0.458678  0.541322  0.750012  1
  Y  Y18  1  0.458678  0.917358  0.750012  1
  Y  Y19  1  0.082642  0.541322  0.750012  1
  Cd  Cd20  1  0.885124  0.114876  0.250076  1
  Cd  Cd21  1  0.885124  0.770250  0.250076  1
  Cd  Cd22  1  0.229750  0.114876  0.250076  1
  Cd  Cd23  1  0.114836  0.885164  0.749920  1
  Cd  Cd24  1  0.114836  0.229670  0.749920  1
  Cd  Cd25  1  0.770330  0.885164  0.749920  1
  Ru  Ru26  1  0.666667  0.333333  0.750011  1
  Rh  Rh27  1  0.333333  0.666667  0.250028  1
