# generated using pymatgen
data_Y9Ho11(SnSb)8
_symmetry_space_group_name_H-M   'P 1'
_cell_length_a   8.08422903
_cell_length_b   8.13269202
_cell_length_c   15.40892202
_cell_angle_alpha   89.99638211
_cell_angle_beta   90.00516417
_cell_angle_gamma   90.00784352
_symmetry_Int_Tables_number   1
_chemical_formula_structural   Y9Ho11(SnSb)8
_chemical_formula_sum   'Y9 Ho11 Sn8 Sb8'
_cell_volume   1013.08336838
_cell_formula_units_Z   1
loop_
 _symmetry_equiv_pos_site_id
 _symmetry_equiv_pos_as_xyz
  1  'x, y, z'
loop_
 _atom_site_type_symbol
 _atom_site_label
 _atom_site_symmetry_multiplicity
 _atom_site_fract_x
 _atom_site_fract_y
 _atom_site_fract_z
 _atom_site_occupancy
  Y  Y0  1  0.890932  0.661456  0.880902  1
  Y  Y1  1  0.556932  0.329545  0.892064  1
  Y  Y2  1  0.056995  0.170353  0.607932  1
  Y  Y3  1  0.443004  0.670349  0.392044  1
  Y  Y4  1  0.942964  0.829714  0.108046  1
  Y  Y5  1  0.443017  0.670333  0.107954  1
  Y  Y6  1  0.942990  0.829645  0.392043  1
  Y  Y7  1  0.556964  0.329615  0.607930  1
  Y  Y8  1  0.056995  0.170368  0.892036  1
  Ho  Ho9  1  0.390885  0.838560  0.880712  1
  Ho  Ho10  1  0.890858  0.661436  0.619259  1
  Ho  Ho11  1  0.609129  0.161439  0.380713  1
  Ho  Ho12  1  0.109124  0.338596  0.119267  1
  Ho  Ho13  1  0.609116  0.161411  0.119313  1
  Ho  Ho14  1  0.109143  0.338580  0.380710  1
  Ho  Ho15  1  0.390879  0.838588  0.619257  1
  Ho  Ho16  1  0.222389  0.499418  0.749935  1
  Ho  Ho17  1  0.722216  0.000606  0.749952  1
  Ho  Ho18  1  0.777747  0.500517  0.250024  1
  Ho  Ho19  1  0.277745  0.999487  0.249999  1
  Sn  Sn20  1  0.587542  0.628278  0.749842  1
  Sn  Sn21  1  0.088081  0.871933  0.749804  1
  Sn  Sn22  1  0.412171  0.371643  0.250019  1
  Sn  Sn23  1  0.912202  0.128365  0.250015  1
  Sn  Sn24  1  0.360372  0.142110  0.749985  1
  Sn  Sn25  1  0.860306  0.357634  0.749842  1
  Sn  Sn26  1  0.639623  0.857872  0.250010  1
  Sn  Sn27  1  0.139625  0.642120  0.250004  1
  Sb  Sb28  1  0.267533  0.017880  0.046833  1
  Sb  Sb29  1  0.767550  0.482099  0.453172  1
  Sb  Sb30  1  0.732466  0.982111  0.546807  1
  Sb  Sb31  1  0.232955  0.517658  0.953233  1
  Sb  Sb32  1  0.732231  0.982640  0.953273  1
  Sb  Sb33  1  0.232447  0.517884  0.546811  1
  Sb  Sb34  1  0.267546  0.017886  0.453173  1
  Sb  Sb35  1  0.767330  0.481872  0.047086  1
