# generated using pymatgen
data_Pr8In2RuPt
_symmetry_space_group_name_H-M   'P 1'
_cell_length_a   10.08133169
_cell_length_b   10.08133207
_cell_length_c   10.08247000
_cell_angle_alpha   59.99625950
_cell_angle_beta   59.99625825
_cell_angle_gamma   60.14804947
_symmetry_Int_Tables_number   1
_chemical_formula_structural   Pr8In2RuPt
_chemical_formula_sum   'Pr16 In4 Ru2 Pt2'
_cell_volume   725.34850346
_cell_formula_units_Z   2
loop_
 _symmetry_equiv_pos_site_id
 _symmetry_equiv_pos_as_xyz
  1  'x, y, z'
loop_
 _atom_site_type_symbol
 _atom_site_label
 _atom_site_symmetry_multiplicity
 _atom_site_fract_x
 _atom_site_fract_y
 _atom_site_fract_z
 _atom_site_occupancy
  Pr  Pr0  1  0.347214  0.347214  0.353146  1
  Pr  Pr1  1  0.347214  0.347214  0.952425  1
  Pr  Pr2  1  0.344910  0.956052  0.349519  1
  Pr  Pr3  1  0.956052  0.344910  0.349519  1
  Pr  Pr4  1  0.814970  0.189700  0.192220  1
  Pr  Pr5  1  0.189700  0.814970  0.803108  1
  Pr  Pr6  1  0.189700  0.814970  0.192220  1
  Pr  Pr7  1  0.814970  0.189700  0.803108  1
  Pr  Pr8  1  0.190479  0.190479  0.809521  1
  Pr  Pr9  1  0.806184  0.806184  0.193816  1
  Pr  Pr10  1  0.938877  0.558155  0.563602  1
  Pr  Pr11  1  0.558155  0.938877  0.939367  1
  Pr  Pr12  1  0.558155  0.938877  0.563602  1
  Pr  Pr13  1  0.938877  0.558155  0.939367  1
  Pr  Pr14  1  0.560098  0.560098  0.939902  1
  Pr  Pr15  1  0.939297  0.939297  0.560703  1
  In  In16  1  0.580768  0.580768  0.579947  1
  In  In17  1  0.580768  0.580768  0.258515  1
  In  In18  1  0.581181  0.257747  0.580536  1
  In  In19  1  0.257747  0.581181  0.580536  1
  Ru  Ru20  1  0.142195  0.142195  0.137495  1
  Ru  Ru21  1  0.142195  0.142195  0.578115  1
  Pt  Pt22  1  0.145193  0.575095  0.139856  1
  Pt  Pt23  1  0.575095  0.145193  0.139856  1
