# generated using pymatgen
data_La5P12Pd3Ru16
_symmetry_space_group_name_H-M   'P 1'
_cell_length_a   12.78025000
_cell_length_b   12.78024986
_cell_length_c   4.04688400
_cell_angle_alpha   90.00000000
_cell_angle_beta   90.00000000
_cell_angle_gamma   120.00000037
_symmetry_Int_Tables_number   1
_chemical_formula_structural   La5P12Pd3Ru16
_chemical_formula_sum   'La5 P12 Pd3 Ru16'
_cell_volume   572.44014064
_cell_formula_units_Z   1
loop_
 _symmetry_equiv_pos_site_id
 _symmetry_equiv_pos_as_xyz
  1  'x, y, z'
loop_
 _atom_site_type_symbol
 _atom_site_label
 _atom_site_symmetry_multiplicity
 _atom_site_fract_x
 _atom_site_fract_y
 _atom_site_fract_z
 _atom_site_occupancy
  La  La0  1  0.180755  0.180755  0.500000  1
  La  La1  1  0.819245  0.000000  0.500000  1
  La  La2  1  0.000000  0.819245  0.500000  1
  La  La3  1  0.333333  0.666667  0.000000  1
  La  La4  1  0.666667  0.333333  0.000000  1
  P  P5  1  0.809853  0.809853  0.000000  1
  P  P6  1  0.190147  0.000000  0.000000  1
  P  P7  1  0.000000  0.190147  0.000000  1
  P  P8  1  0.178300  0.476935  0.500000  1
  P  P9  1  0.523065  0.701364  0.500000  1
  P  P10  1  0.298636  0.821700  0.500000  1
  P  P11  1  0.701364  0.523065  0.500000  1
  P  P12  1  0.821700  0.298636  0.500000  1
  P  P13  1  0.476935  0.178300  0.500000  1
  P  P14  1  0.370183  0.370183  0.000000  1
  P  P15  1  0.629817  0.000000  0.000000  1
  P  P16  1  0.000000  0.629817  0.000000  1
  Pd  Pd17  1  0.553697  0.553697  0.000000  1
  Pd  Pd18  1  0.446303  0.000000  0.000000  1
  Pd  Pd19  1  0.000000  0.446303  0.000000  1
  Ru  Ru20  1  0.709744  0.709744  0.500000  1
  Ru  Ru21  1  0.290256  0.000000  0.500000  1
  Ru  Ru22  1  0.000000  0.290256  0.500000  1
  Ru  Ru23  1  0.185562  0.380104  0.000000  1
  Ru  Ru24  1  0.619896  0.805459  0.000000  1
  Ru  Ru25  1  0.194541  0.814438  0.000000  1
  Ru  Ru26  1  0.805459  0.619896  0.000000  1
  Ru  Ru27  1  0.814438  0.194541  0.000000  1
  Ru  Ru28  1  0.380104  0.185562  0.000000  1
  Ru  Ru29  1  0.369515  0.491606  0.500000  1
  Ru  Ru30  1  0.508394  0.877910  0.500000  1
  Ru  Ru31  1  0.122090  0.630485  0.500000  1
  Ru  Ru32  1  0.877910  0.508394  0.500000  1
  Ru  Ru33  1  0.630485  0.122090  0.500000  1
  Ru  Ru34  1  0.491606  0.369515  0.500000  1
  Ru  Ru35  1  0.000000  0.000000  0.000000  1
