# generated using pymatgen
data_Sc6Zn17SiAg6
_symmetry_space_group_name_H-M   'P 1'
_cell_length_a   8.94274134
_cell_length_b   8.95663759
_cell_length_c   8.95699100
_cell_angle_alpha   59.99908382
_cell_angle_beta   59.94985286
_cell_angle_gamma   59.94851670
_symmetry_Int_Tables_number   1
_chemical_formula_structural   Sc6Zn17SiAg6
_chemical_formula_sum   'Sc6 Zn17 Si1 Ag6'
_cell_volume   506.90410946
_cell_formula_units_Z   1
loop_
 _symmetry_equiv_pos_site_id
 _symmetry_equiv_pos_as_xyz
  1  'x, y, z'
loop_
 _atom_site_type_symbol
 _atom_site_label
 _atom_site_symmetry_multiplicity
 _atom_site_fract_x
 _atom_site_fract_y
 _atom_site_fract_z
 _atom_site_occupancy
  Sc  Sc0  1  0.710218  0.289908  0.289893  1
  Sc  Sc1  1  0.289782  0.710092  0.710107  1
  Sc  Sc2  1  0.289785  0.710109  0.290001  1
  Sc  Sc3  1  0.710215  0.289891  0.709999  1
  Sc  Sc4  1  0.289776  0.290011  0.710116  1
  Sc  Sc5  1  0.710224  0.709989  0.289884  1
  Zn  Zn6  1  0.632698  0.122434  0.122442  1
  Zn  Zn7  1  0.367302  0.877566  0.877558  1
  Zn  Zn8  1  0.500000  0.000000  0.000000  1
  Zn  Zn9  1  0.000000  0.500000  0.500000  1
  Zn  Zn10  1  0.000000  0.500000  0.000000  1
  Zn  Zn11  1  0.500000  0.000000  0.500000  1
  Zn  Zn12  1  0.000000  0.000000  0.500000  1
  Zn  Zn13  1  0.500000  0.500000  0.000000  1
  Zn  Zn14  1  0.337465  0.336941  0.336937  1
  Zn  Zn15  1  0.662535  0.663059  0.663063  1
  Zn  Zn16  1  0.337452  0.336946  0.988661  1
  Zn  Zn17  1  0.337456  0.988661  0.336942  1
  Zn  Zn18  1  0.662548  0.663054  0.011339  1
  Zn  Zn19  1  0.662544  0.011339  0.663058  1
  Zn  Zn20  1  0.988833  0.337063  0.337039  1
  Zn  Zn21  1  0.011167  0.662937  0.662961  1
  Zn  Zn22  1  0.000000  0.000000  0.000000  1
  Si  Si23  1  0.500000  0.500000  0.500000  1
  Ag  Ag24  1  0.122483  0.120504  0.120543  1
  Ag  Ag25  1  0.877517  0.879496  0.879457  1
  Ag  Ag26  1  0.122485  0.120501  0.636480  1
  Ag  Ag27  1  0.122524  0.636471  0.120506  1
  Ag  Ag28  1  0.877515  0.879499  0.363520  1
  Ag  Ag29  1  0.877476  0.363529  0.879494  1
