# generated using pymatgen
data_AgBiIr4(PbO7)2
_symmetry_space_group_name_H-M   'P 1'
_cell_length_a   7.39159823
_cell_length_b   7.28233181
_cell_length_c   7.39159943
_cell_angle_alpha   59.29603733
_cell_angle_beta   59.77679405
_cell_angle_gamma   59.29603398
_symmetry_Int_Tables_number   1
_chemical_formula_structural   AgBiIr4(PbO7)2
_chemical_formula_sum   'Ag1 Bi1 Ir4 Pb2 O14'
_cell_volume   277.84736278
_cell_formula_units_Z   1
loop_
 _symmetry_equiv_pos_site_id
 _symmetry_equiv_pos_as_xyz
  1  'x, y, z'
loop_
 _atom_site_type_symbol
 _atom_site_label
 _atom_site_symmetry_multiplicity
 _atom_site_fract_x
 _atom_site_fract_y
 _atom_site_fract_z
 _atom_site_occupancy
  Ag  Ag0  1  0.125000  0.625000  0.125000  1
  Bi  Bi1  1  0.125000  0.125000  0.125000  1
  Ir  Ir2  1  0.125000  0.625000  0.625000  1
  Ir  Ir3  1  0.625000  0.125000  0.625000  1
  Ir  Ir4  1  0.625000  0.625000  0.125000  1
  Ir  Ir5  1  0.625000  0.625000  0.625000  1
  Pb  Pb6  1  0.625000  0.125000  0.125000  1
  Pb  Pb7  1  0.125000  0.125000  0.625000  1
  O  O8  1  0.688916  0.706198  0.302602  1
  O  O9  1  0.296582  0.292580  0.706229  1
  O  O10  1  0.705581  0.291880  0.705581  1
  O  O11  1  0.300715  0.707319  0.300715  1
  O  O12  1  0.302602  0.706198  0.688916  1
  O  O13  1  0.706229  0.292580  0.296582  1
  O  O14  1  0.561084  0.543802  0.947398  1
  O  O15  1  0.953418  0.957420  0.543771  1
  O  O16  1  0.544419  0.958120  0.544419  1
  O  O17  1  0.949285  0.542681  0.949285  1
  O  O18  1  0.947398  0.543802  0.561084  1
  O  O19  1  0.543771  0.957420  0.953418  1
  O  O20  1  0.240815  0.269149  0.240815  1
  O  O21  1  0.009185  0.980851  0.009185  1
