# generated using pymatgen
data_Os5RuW2
_symmetry_space_group_name_H-M   'P 1'
_cell_length_a   5.56648527
_cell_length_b   5.56648609
_cell_length_c   4.40459000
_cell_angle_alpha   90.00000000
_cell_angle_beta   90.00000000
_cell_angle_gamma   120.14227689
_symmetry_Int_Tables_number   1
_chemical_formula_structural   Os5RuW2
_chemical_formula_sum   'Os5 Ru1 W2'
_cell_volume   118.02496704
_cell_formula_units_Z   1
loop_
 _symmetry_equiv_pos_site_id
 _symmetry_equiv_pos_as_xyz
  1  'x, y, z'
loop_
 _atom_site_type_symbol
 _atom_site_label
 _atom_site_symmetry_multiplicity
 _atom_site_fract_x
 _atom_site_fract_y
 _atom_site_fract_z
 _atom_site_occupancy
  Os  Os0  1  0.167587  0.332701  0.250000  1
  Os  Os1  1  0.667299  0.832413  0.250000  1
  Os  Os2  1  0.166440  0.833560  0.250000  1
  Os  Os3  1  0.830147  0.666632  0.750000  1
  Os  Os4  1  0.333368  0.169853  0.750000  1
  Ru  Ru5  1  0.833563  0.166437  0.750000  1
  W  W6  1  0.334144  0.665856  0.750000  1
  W  W7  1  0.667454  0.332546  0.250000  1
