# generated using pymatgen
data_Cr3Sb12Os
_symmetry_space_group_name_H-M   'P 1'
_cell_length_a   8.23175977
_cell_length_b   8.32032092
_cell_length_c   8.23175864
_cell_angle_alpha   109.68929598
_cell_angle_beta   109.25226004
_cell_angle_gamma   109.68930771
_symmetry_Int_Tables_number   1
_chemical_formula_structural   Cr3Sb12Os
_chemical_formula_sum   'Cr3 Sb12 Os1'
_cell_volume   432.84017185
_cell_formula_units_Z   1
loop_
 _symmetry_equiv_pos_site_id
 _symmetry_equiv_pos_as_xyz
  1  'x, y, z'
loop_
 _atom_site_type_symbol
 _atom_site_label
 _atom_site_symmetry_multiplicity
 _atom_site_fract_x
 _atom_site_fract_y
 _atom_site_fract_z
 _atom_site_occupancy
  Cr  Cr0  1  0.000000  0.000000  0.500000  1
  Cr  Cr1  1  0.500000  0.000000  0.000000  1
  Cr  Cr2  1  0.500000  0.500000  0.500000  1
  Sb  Sb3  1  0.848491  0.654996  0.501274  1
  Sb  Sb4  1  0.852100  0.346684  0.187629  1
  Sb  Sb5  1  0.147900  0.653316  0.812371  1
  Sb  Sb6  1  0.335528  0.494584  0.147900  1
  Sb  Sb7  1  0.151509  0.345004  0.498726  1
  Sb  Sb8  1  0.652782  0.806504  0.151509  1
  Sb  Sb9  1  0.187629  0.840943  0.335528  1
  Sb  Sb10  1  0.664472  0.505416  0.852100  1
  Sb  Sb11  1  0.812371  0.159057  0.664472  1
  Sb  Sb12  1  0.347218  0.193496  0.848491  1
  Sb  Sb13  1  0.501274  0.846276  0.652782  1
  Sb  Sb14  1  0.498726  0.153724  0.347218  1
  Os  Os15  1  0.000000  0.500000  0.000000  1
