# generated using pymatgen
data_Yb4Sb6Pt3Rh4
_symmetry_space_group_name_H-M   'P 1'
_cell_length_a   7.71142890
_cell_length_b   7.63556700
_cell_length_c   7.63556717
_cell_angle_alpha   109.26907885
_cell_angle_beta   109.67260570
_cell_angle_gamma   109.67260691
_symmetry_Int_Tables_number   1
_chemical_formula_structural   Yb4Sb6Pt3Rh4
_chemical_formula_sum   'Yb4 Sb6 Pt3 Rh4'
_cell_volume   345.23131261
_cell_formula_units_Z   1
loop_
 _symmetry_equiv_pos_site_id
 _symmetry_equiv_pos_as_xyz
  1  'x, y, z'
loop_
 _atom_site_type_symbol
 _atom_site_label
 _atom_site_symmetry_multiplicity
 _atom_site_fract_x
 _atom_site_fract_y
 _atom_site_fract_z
 _atom_site_occupancy
  Yb  Yb0  1  0.500000  0.000000  0.000000  1
  Yb  Yb1  1  0.997630  0.497630  0.995260  1
  Yb  Yb2  1  0.002370  0.004740  0.502370  1
  Yb  Yb3  1  0.500000  0.497630  0.502370  1
  Sb  Sb4  1  0.311375  0.991349  0.313052  1
  Sb  Sb5  1  0.998323  0.686948  0.678297  1
  Sb  Sb6  1  0.688625  0.686948  0.008651  1
  Sb  Sb7  1  0.679974  0.991349  0.678297  1
  Sb  Sb8  1  0.001677  0.321703  0.313052  1
  Sb  Sb9  1  0.320026  0.321703  0.008651  1
  Pt  Pt10  1  0.252814  0.505629  0.752814  1
  Pt  Pt11  1  0.500000  0.247186  0.752814  1
  Pt  Pt12  1  0.747186  0.247186  0.494371  1
  Rh  Rh13  1  0.500000  0.752457  0.247543  1
  Rh  Rh14  1  0.000000  0.000000  0.000000  1
  Rh  Rh15  1  0.252457  0.752457  0.504914  1
  Rh  Rh16  1  0.747543  0.495086  0.247543  1
