# generated using pymatgen
data_Nd6Mg(P3Rh5)4
_symmetry_space_group_name_H-M   'P 1'
_cell_length_a   13.62664900
_cell_length_b   13.62664857
_cell_length_c   3.92979600
_cell_angle_alpha   90.00000000
_cell_angle_beta   90.00000000
_cell_angle_gamma   119.99999860
_symmetry_Int_Tables_number   1
_chemical_formula_structural   Nd6Mg(P3Rh5)4
_chemical_formula_sum   'Nd6 Mg1 P12 Rh20'
_cell_volume   631.94425381
_cell_formula_units_Z   1
loop_
 _symmetry_equiv_pos_site_id
 _symmetry_equiv_pos_as_xyz
  1  'x, y, z'
loop_
 _atom_site_type_symbol
 _atom_site_label
 _atom_site_symmetry_multiplicity
 _atom_site_fract_x
 _atom_site_fract_y
 _atom_site_fract_z
 _atom_site_occupancy
  Nd  Nd0  1  0.530193  0.717014  0.251597  1
  Nd  Nd1  1  0.282986  0.813180  0.251597  1
  Nd  Nd2  1  0.186820  0.469807  0.251597  1
  Nd  Nd3  1  0.469807  0.282986  0.748403  1
  Nd  Nd4  1  0.717014  0.186820  0.748403  1
  Nd  Nd5  1  0.813180  0.530193  0.748403  1
  Mg  Mg6  1  0.000000  0.000000  0.000000  1
  P  P7  1  0.523431  0.135201  0.249562  1
  P  P8  1  0.864799  0.388231  0.249562  1
  P  P9  1  0.611769  0.476569  0.249562  1
  P  P10  1  0.950082  0.723458  0.245186  1
  P  P11  1  0.276542  0.226624  0.245186  1
  P  P12  1  0.773376  0.049918  0.245186  1
  P  P13  1  0.388231  0.523431  0.750438  1
  P  P14  1  0.476569  0.864799  0.750438  1
  P  P15  1  0.135201  0.611769  0.750438  1
  P  P16  1  0.723458  0.773376  0.754814  1
  P  P17  1  0.226624  0.950082  0.754814  1
  P  P18  1  0.049918  0.276542  0.754814  1
  Rh  Rh19  1  0.333333  0.666667  0.750951  1
  Rh  Rh20  1  0.923004  0.253784  0.245606  1
  Rh  Rh21  1  0.746216  0.669220  0.245606  1
  Rh  Rh22  1  0.330780  0.076996  0.245606  1
  Rh  Rh23  1  0.443309  0.027161  0.748966  1
  Rh  Rh24  1  0.972839  0.416149  0.748966  1
  Rh  Rh25  1  0.583851  0.556691  0.748966  1
  Rh  Rh26  1  0.666667  0.333333  0.249049  1
  Rh  Rh27  1  0.097090  0.205656  0.258688  1
  Rh  Rh28  1  0.794344  0.891434  0.258688  1
  Rh  Rh29  1  0.108566  0.902910  0.258688  1
  Rh  Rh30  1  0.027161  0.583851  0.251034  1
  Rh  Rh31  1  0.416149  0.443309  0.251034  1
  Rh  Rh32  1  0.556691  0.972839  0.251034  1
  Rh  Rh33  1  0.669220  0.923004  0.754394  1
  Rh  Rh34  1  0.076996  0.746216  0.754394  1
  Rh  Rh35  1  0.253784  0.330780  0.754394  1
  Rh  Rh36  1  0.902910  0.794344  0.741312  1
  Rh  Rh37  1  0.205656  0.108566  0.741312  1
  Rh  Rh38  1  0.891434  0.097090  0.741312  1
