# generated using pymatgen
data_TbTm15(AlPt)4
_symmetry_space_group_name_H-M   'P 1'
_cell_length_a   9.48916482
_cell_length_b   9.48916514
_cell_length_c   9.48837300
_cell_angle_alpha   60.00275791
_cell_angle_beta   60.00275681
_cell_angle_gamma   59.98919218
_symmetry_Int_Tables_number   1
_chemical_formula_structural   TbTm15(AlPt)4
_chemical_formula_sum   'Tb1 Tm15 Al4 Pt4'
_cell_volume   604.10907015
_cell_formula_units_Z   1
loop_
 _symmetry_equiv_pos_site_id
 _symmetry_equiv_pos_as_xyz
  1  'x, y, z'
loop_
 _atom_site_type_symbol
 _atom_site_label
 _atom_site_symmetry_multiplicity
 _atom_site_fract_x
 _atom_site_fract_y
 _atom_site_fract_z
 _atom_site_occupancy
  Tb  Tb0  1  0.934205  0.934205  0.565795  1
  Tm  Tm1  1  0.353778  0.353778  0.353938  1
  Tm  Tm2  1  0.353778  0.353778  0.938506  1
  Tm  Tm3  1  0.354078  0.936870  0.354526  1
  Tm  Tm4  1  0.936870  0.354078  0.354526  1
  Tm  Tm5  1  0.807007  0.194800  0.192283  1
  Tm  Tm6  1  0.194800  0.807007  0.805910  1
  Tm  Tm7  1  0.194800  0.807007  0.192283  1
  Tm  Tm8  1  0.807007  0.194800  0.805910  1
  Tm  Tm9  1  0.192847  0.192847  0.807153  1
  Tm  Tm10  1  0.806212  0.806212  0.193788  1
  Tm  Tm11  1  0.935417  0.563112  0.564897  1
  Tm  Tm12  1  0.563112  0.935417  0.936575  1
  Tm  Tm13  1  0.563112  0.935417  0.564897  1
  Tm  Tm14  1  0.935417  0.563112  0.936575  1
  Tm  Tm15  1  0.564983  0.564983  0.935017  1
  Al  Al16  1  0.578393  0.578393  0.578065  1
  Al  Al17  1  0.578393  0.578393  0.265148  1
  Al  Al18  1  0.577837  0.267487  0.577338  1
  Al  Al19  1  0.267487  0.577837  0.577338  1
  Pt  Pt20  1  0.143636  0.143636  0.142186  1
  Pt  Pt21  1  0.143636  0.143636  0.570544  1
  Pt  Pt22  1  0.142102  0.571094  0.143403  1
  Pt  Pt23  1  0.571094  0.142102  0.143403  1
