# generated using pymatgen
data_Nd2B2Pd4Pt3Au
_symmetry_space_group_name_H-M   'P 1'
_cell_length_a   5.52514056
_cell_length_b   5.52529738
_cell_length_c   7.72286101
_cell_angle_alpha   90.00311314
_cell_angle_beta   90.13240291
_cell_angle_gamma   120.09305217
_symmetry_Int_Tables_number   1
_chemical_formula_structural   Nd2B2Pd4Pt3Au
_chemical_formula_sum   'Nd2 B2 Pd4 Pt3 Au1'
_cell_volume   203.98501730
_cell_formula_units_Z   1
loop_
 _symmetry_equiv_pos_site_id
 _symmetry_equiv_pos_as_xyz
  1  'x, y, z'
loop_
 _atom_site_type_symbol
 _atom_site_label
 _atom_site_symmetry_multiplicity
 _atom_site_fract_x
 _atom_site_fract_y
 _atom_site_fract_z
 _atom_site_occupancy
  Nd  Nd0  1  0.000055  0.000518  0.502921  1
  Nd  Nd1  1  0.000078  0.999995  0.000803  1
  B  B2  1  0.333617  0.659914  0.998822  1
  B  B3  1  0.666436  0.339238  0.999067  1
  Pd  Pd4  1  0.667059  0.333864  0.499252  1
  Pd  Pd5  1  0.500560  0.000539  0.193752  1
  Pd  Pd6  1  0.499821  0.000124  0.804322  1
  Pd  Pd7  1  0.999938  0.499968  0.197463  1
  Pt  Pt8  1  0.998652  0.499211  0.807375  1
  Pt  Pt9  1  0.500852  0.499520  0.195325  1
  Pt  Pt10  1  0.500137  0.499277  0.802185  1
  Au  Au11  1  0.332795  0.667831  0.498712  1
