# generated using pymatgen
data_Lu2Mn5NiP7Ir6
_symmetry_space_group_name_H-M   'P 1'
_cell_length_a   9.37531168
_cell_length_b   9.45098022
_cell_length_c   3.80273000
_cell_angle_alpha   90.00000000
_cell_angle_beta   90.00000000
_cell_angle_gamma   120.16171239
_symmetry_Int_Tables_number   1
_chemical_formula_structural   Lu2Mn5NiP7Ir6
_chemical_formula_sum   'Lu2 Mn5 Ni1 P7 Ir6'
_cell_volume   291.32562724
_cell_formula_units_Z   1
loop_
 _symmetry_equiv_pos_site_id
 _symmetry_equiv_pos_as_xyz
  1  'x, y, z'
loop_
 _atom_site_type_symbol
 _atom_site_label
 _atom_site_symmetry_multiplicity
 _atom_site_fract_x
 _atom_site_fract_y
 _atom_site_fract_z
 _atom_site_occupancy
  Lu  Lu0  1  0.667098  0.335512  0.000000  1
  Lu  Lu1  1  0.000079  0.999262  0.500000  1
  Mn  Mn2  1  0.060720  0.552556  0.000000  1
  Mn  Mn3  1  0.445539  0.509045  0.000000  1
  Mn  Mn4  1  0.548373  0.760726  0.500000  1
  Mn  Mn5  1  0.236817  0.789046  0.500000  1
  Mn  Mn6  1  0.210835  0.447074  0.500000  1
  Ni  Ni7  1  0.494631  0.934464  0.000000  1
  P  P8  1  0.449990  0.065918  0.500000  1
  P  P9  1  0.933555  0.388796  0.500000  1
  P  P10  1  0.610982  0.547560  0.500000  1
  P  P11  1  0.747221  0.966945  0.000000  1
  P  P12  1  0.036231  0.778023  0.000000  1
  P  P13  1  0.224011  0.256895  0.000000  1
  P  P14  1  0.332327  0.664830  0.000000  1
  Ir  Ir15  1  0.763297  0.735716  0.000000  1
  Ir  Ir16  1  0.268333  0.029883  0.000000  1
  Ir  Ir17  1  0.972645  0.235596  0.000000  1
  Ir  Ir18  1  0.718308  0.111211  0.500000  1
  Ir  Ir19  1  0.888821  0.609417  0.500000  1
  Ir  Ir20  1  0.390186  0.281525  0.500000  1
