# generated using pymatgen
data_Ca3Yb5Bi12
_symmetry_space_group_name_H-M   'P 1'
_cell_length_a   6.47596800
_cell_length_b   6.76971424
_cell_length_c   14.95740453
_cell_angle_alpha   89.96952368
_cell_angle_beta   90.00000000
_cell_angle_gamma   90.00000000
_symmetry_Int_Tables_number   1
_chemical_formula_structural   Ca3Yb5Bi12
_chemical_formula_sum   'Ca3 Yb5 Bi12'
_cell_volume   655.73929425
_cell_formula_units_Z   1
loop_
 _symmetry_equiv_pos_site_id
 _symmetry_equiv_pos_as_xyz
  1  'x, y, z'
loop_
 _atom_site_type_symbol
 _atom_site_label
 _atom_site_symmetry_multiplicity
 _atom_site_fract_x
 _atom_site_fract_y
 _atom_site_fract_z
 _atom_site_occupancy
  Ca  Ca0  1  0.561282  0.500000  0.250000  1
  Ca  Ca1  1  0.061201  0.000000  0.750000  1
  Ca  Ca2  1  0.438801  0.500000  0.750000  1
  Yb  Yb3  1  0.938798  0.000000  0.250000  1
  Yb  Yb4  1  0.749994  0.750066  0.999810  1
  Yb  Yb5  1  0.749994  0.249934  0.500190  1
  Yb  Yb6  1  0.250010  0.249996  0.000281  1
  Yb  Yb7  1  0.250010  0.750004  0.499719  1
  Bi  Bi8  1  0.750176  0.750384  0.433952  1
  Bi  Bi9  1  0.750176  0.249616  0.066048  1
  Bi  Bi10  1  0.249985  0.249989  0.565859  1
  Bi  Bi11  1  0.249985  0.750011  0.934141  1
  Bi  Bi12  1  0.420597  0.933334  0.149894  1
  Bi  Bi13  1  0.420597  0.066666  0.350106  1
  Bi  Bi14  1  0.079214  0.433287  0.350206  1
  Bi  Bi15  1  0.079214  0.566713  0.149794  1
  Bi  Bi16  1  0.579341  0.066743  0.850289  1
  Bi  Bi17  1  0.579341  0.933257  0.649711  1
  Bi  Bi18  1  0.920643  0.566686  0.649710  1
  Bi  Bi19  1  0.920643  0.433314  0.850290  1
