# generated using pymatgen
data_Li12Pr12Te5(WO16)3
_symmetry_space_group_name_H-M   'P 1'
_cell_length_a   11.02827810
_cell_length_b   11.02827858
_cell_length_c   11.04030100
_cell_angle_alpha   109.49330900
_cell_angle_beta   109.49329886
_cell_angle_gamma   109.44912623
_symmetry_Int_Tables_number   1
_chemical_formula_structural   Li12Pr12Te5(WO16)3
_chemical_formula_sum   'Li12 Pr12 Te5 W3 O48'
_cell_volume   1033.37044888
_cell_formula_units_Z   1
loop_
 _symmetry_equiv_pos_site_id
 _symmetry_equiv_pos_as_xyz
  1  'x, y, z'
loop_
 _atom_site_type_symbol
 _atom_site_label
 _atom_site_symmetry_multiplicity
 _atom_site_fract_x
 _atom_site_fract_y
 _atom_site_fract_z
 _atom_site_occupancy
  Li  Li0  1  0.875748  0.749679  0.123292  1
  Li  Li1  1  0.249679  0.873933  0.126387  1
  Li  Li2  1  0.875142  0.125050  0.250001  1
  Li  Li3  1  0.373931  0.624253  0.247544  1
  Li  Li4  1  0.749909  0.624859  0.374859  1
  Li  Li5  1  0.625051  0.249910  0.375050  1
  Li  Li6  1  0.374949  0.750091  0.624950  1
  Li  Li7  1  0.250091  0.375142  0.625140  1
  Li  Li8  1  0.124860  0.874950  0.749999  1
  Li  Li9  1  0.626068  0.375747  0.752456  1
  Li  Li10  1  0.124254  0.250323  0.876709  1
  Li  Li11  1  0.750322  0.126069  0.873615  1
  Pr  Pr12  1  0.748953  0.372755  0.124218  1
  Pr  Pr13  1  0.376388  0.249796  0.126574  1
  Pr  Pr14  1  0.626593  0.876388  0.249813  1
  Pr  Pr15  1  0.127246  0.376199  0.251465  1
  Pr  Pr16  1  0.250203  0.126593  0.376777  1
  Pr  Pr17  1  0.123802  0.751047  0.375266  1
  Pr  Pr18  1  0.749795  0.873407  0.623221  1
  Pr  Pr19  1  0.876199  0.248954  0.624735  1
  Pr  Pr20  1  0.373408  0.123610  0.750184  1
  Pr  Pr21  1  0.872754  0.623801  0.748536  1
  Pr  Pr22  1  0.251047  0.627245  0.875781  1
  Pr  Pr23  1  0.623612  0.750204  0.873427  1
  Te  Te24  1  0.000000  0.000000  0.000000  1
  Te  Te25  1  0.500000  0.500001  0.000000  1
  Te  Te26  1  0.000000  0.500002  0.000000  1
  Te  Te27  1  0.500000  0.000000  0.500000  1
  Te  Te28  1  0.000000  0.500001  0.500000  1
  W  W29  1  0.500002  0.000000  0.000000  1
  W  W30  1  0.000000  0.000000  0.499999  1
  W  W31  1  0.499999  0.499999  0.499999  1
  O  O32  1  0.907426  0.329497  0.022841  1
  O  O33  1  0.117080  0.193080  0.023515  1
  O  O34  1  0.406807  0.885243  0.078006  1
  O  O35  1  0.670611  0.692966  0.076450  1
  O  O36  1  0.671081  0.977843  0.092647  1
  O  O37  1  0.424000  0.617080  0.093564  1
  O  O38  1  0.922073  0.592575  0.115415  1
  O  O39  1  0.192966  0.022355  0.116516  1
  O  O40  1  0.578256  0.192765  0.171393  1
  O  O41  1  0.593591  0.477350  0.170418  1
  O  O42  1  0.170503  0.577928  0.193344  1
  O  O43  1  0.022649  0.116241  0.193069  1
  O  O44  1  0.385242  0.478437  0.307236  1
  O  O45  1  0.923132  0.329449  0.307149  1
  O  O46  1  0.306918  0.923999  0.330434  1
  O  O47  1  0.021564  0.906805  0.328800  1
  O  O48  1  0.906317  0.576869  0.384016  1
  O  O49  1  0.477843  0.306761  0.385196  1
  O  O50  1  0.522356  0.829391  0.405839  1
  O  O51  1  0.885491  0.078256  0.406863  1
  O  O52  1  0.806761  0.828919  0.421565  1
  O  O53  1  0.616242  0.093591  0.423173  1
  O  O54  1  0.307234  0.385491  0.478627  1
  O  O55  1  0.170551  0.593685  0.477700  1
  O  O56  1  0.692765  0.614509  0.521371  1
  O  O57  1  0.829448  0.406316  0.522300  1
  O  O58  1  0.193241  0.171083  0.578436  1
  O  O59  1  0.383759  0.906409  0.576828  1
  O  O60  1  0.114509  0.921743  0.593137  1
  O  O61  1  0.477645  0.170610  0.594161  1
  O  O62  1  0.522158  0.693239  0.614805  1
  O  O63  1  0.093684  0.423131  0.615985  1
  O  O64  1  0.978436  0.093195  0.671199  1
  O  O65  1  0.693080  0.075999  0.669565  1
  O  O66  1  0.614758  0.521563  0.692763  1
  O  O67  1  0.076869  0.670553  0.692851  1
  O  O68  1  0.977349  0.883758  0.806930  1
  O  O69  1  0.829496  0.422072  0.806656  1
  O  O70  1  0.406408  0.522651  0.829583  1
  O  O71  1  0.421744  0.807234  0.828607  1
  O  O72  1  0.807034  0.977644  0.883483  1
  O  O73  1  0.077929  0.407426  0.884585  1
  O  O74  1  0.576001  0.382919  0.906435  1
  O  O75  1  0.328919  0.022158  0.907352  1
  O  O76  1  0.329390  0.307034  0.923552  1
  O  O77  1  0.593195  0.114759  0.921995  1
  O  O78  1  0.092575  0.670504  0.977157  1
  O  O79  1  0.882920  0.806919  0.976485  1
