# generated using pymatgen
data_Tb2Tm2B12IrRu
_symmetry_space_group_name_H-M   'P 1'
_cell_length_a   3.64391500
_cell_length_b   9.14140679
_cell_length_c   11.48264502
_cell_angle_alpha   90.04806915
_cell_angle_beta   90.00000000
_cell_angle_gamma   90.00000000
_symmetry_Int_Tables_number   1
_chemical_formula_structural   Tb2Tm2B12IrRu
_chemical_formula_sum   'Tb4 Tm4 B24 Ir2 Ru2'
_cell_volume   382.49261966
_cell_formula_units_Z   2
loop_
 _symmetry_equiv_pos_site_id
 _symmetry_equiv_pos_as_xyz
  1  'x, y, z'
loop_
 _atom_site_type_symbol
 _atom_site_label
 _atom_site_symmetry_multiplicity
 _atom_site_fract_x
 _atom_site_fract_y
 _atom_site_fract_z
 _atom_site_occupancy
  Tb  Tb0  1  0.000000  0.318991  0.412445  1
  Tb  Tb1  1  0.000000  0.681009  0.587555  1
  Tb  Tb2  1  0.000000  0.822632  0.084961  1
  Tb  Tb3  1  0.000000  0.177368  0.915039  1
  Tm  Tm4  1  0.000000  0.945979  0.372591  1
  Tm  Tm5  1  0.000000  0.054021  0.627409  1
  Tm  Tm6  1  0.000000  0.442342  0.126074  1
  Tm  Tm7  1  0.000000  0.557658  0.873926  1
  B  B8  1  0.500000  0.553800  0.433194  1
  B  B9  1  0.500000  0.446200  0.566806  1
  B  B10  1  0.500000  0.054812  0.067446  1
  B  B11  1  0.500000  0.945188  0.932554  1
  B  B12  1  0.500000  0.751540  0.419683  1
  B  B13  1  0.500000  0.248460  0.580317  1
  B  B14  1  0.500000  0.249113  0.080778  1
  B  B15  1  0.500000  0.750887  0.919222  1
  B  B16  1  0.500000  0.792828  0.265638  1
  B  B17  1  0.500000  0.207172  0.734362  1
  B  B18  1  0.500000  0.291970  0.234497  1
  B  B19  1  0.500000  0.708030  0.765503  1
  B  B20  1  0.500000  0.630801  0.183591  1
  B  B21  1  0.500000  0.369199  0.816409  1
  B  B22  1  0.500000  0.131385  0.315308  1
  B  B23  1  0.500000  0.868615  0.684692  1
  B  B24  1  0.500000  0.983888  0.213470  1
  B  B25  1  0.500000  0.016112  0.786530  1
  B  B26  1  0.500000  0.482174  0.285945  1
  B  B27  1  0.500000  0.517826  0.714055  1
  B  B28  1  0.500000  0.606381  0.029331  1
  B  B29  1  0.500000  0.393619  0.970669  1
  B  B30  1  0.500000  0.106416  0.471327  1
  B  B31  1  0.500000  0.893584  0.528673  1
  Ir  Ir32  1  0.000000  0.638247  0.321109  1
  Ir  Ir33  1  0.000000  0.361753  0.678891  1
  Ru  Ru34  1  0.000000  0.138465  0.179789  1
  Ru  Ru35  1  0.000000  0.861535  0.820211  1
