# generated using pymatgen
data_CeNd3Sm4(Si3Rh)4
_symmetry_space_group_name_H-M   'P 1'
_cell_length_a   8.26369005
_cell_length_b   8.26215068
_cell_length_c   8.33942700
_cell_angle_alpha   90.00000000
_cell_angle_beta   90.00000000
_cell_angle_gamma   119.99384838
_symmetry_Int_Tables_number   1
_chemical_formula_structural   CeNd3Sm4(Si3Rh)4
_chemical_formula_sum   'Ce1 Nd3 Sm4 Si12 Rh4'
_cell_volume   493.12939513
_cell_formula_units_Z   1
loop_
 _symmetry_equiv_pos_site_id
 _symmetry_equiv_pos_as_xyz
  1  'x, y, z'
loop_
 _atom_site_type_symbol
 _atom_site_label
 _atom_site_symmetry_multiplicity
 _atom_site_fract_x
 _atom_site_fract_y
 _atom_site_fract_z
 _atom_site_occupancy
  Ce  Ce0  1  0.000001  0.000000  0.750000  1
  Nd  Nd1  1  0.000000  0.000000  0.250000  1
  Nd  Nd2  1  0.501006  0.499004  0.250000  1
  Nd  Nd3  1  0.501006  0.002000  0.250000  1
  Sm  Sm4  1  0.499001  0.500971  0.750000  1
  Sm  Sm5  1  0.499001  0.998032  0.750000  1
  Sm  Sm6  1  0.001928  0.500965  0.750000  1
  Sm  Sm7  1  0.998105  0.499052  0.250000  1
  Si  Si8  1  0.833731  0.166941  0.997829  1
  Si  Si9  1  0.833731  0.666791  0.997829  1
  Si  Si10  1  0.332938  0.166469  0.997183  1
  Si  Si11  1  0.833731  0.166941  0.502171  1
  Si  Si12  1  0.833731  0.666791  0.502171  1
  Si  Si13  1  0.332938  0.166469  0.502817  1
  Si  Si14  1  0.166343  0.833018  0.502967  1
  Si  Si15  1  0.666921  0.833461  0.503530  1
  Si  Si16  1  0.166343  0.333326  0.502967  1
  Si  Si17  1  0.166343  0.833018  0.997033  1
  Si  Si18  1  0.666921  0.833461  0.996470  1
  Si  Si19  1  0.166343  0.333326  0.997033  1
  Rh  Rh20  1  0.667115  0.333557  0.995296  1
  Rh  Rh21  1  0.667115  0.333557  0.504704  1
  Rh  Rh22  1  0.332852  0.666426  0.496791  1
  Rh  Rh23  1  0.332852  0.666426  0.003209  1
