# generated using pymatgen
data_Yb6Al24FeRu7
_symmetry_space_group_name_H-M   'P 1'
_cell_length_a   8.82398200
_cell_length_b   8.82398114
_cell_length_c   9.53628600
_cell_angle_alpha   90.00000000
_cell_angle_beta   90.00000000
_cell_angle_gamma   120.00001074
_symmetry_Int_Tables_number   1
_chemical_formula_structural   Yb6Al24FeRu7
_chemical_formula_sum   'Yb6 Al24 Fe1 Ru7'
_cell_volume   643.04155142
_cell_formula_units_Z   1
loop_
 _symmetry_equiv_pos_site_id
 _symmetry_equiv_pos_as_xyz
  1  'x, y, z'
loop_
 _atom_site_type_symbol
 _atom_site_label
 _atom_site_symmetry_multiplicity
 _atom_site_fract_x
 _atom_site_fract_y
 _atom_site_fract_z
 _atom_site_occupancy
  Yb  Yb0  1  0.804703  0.195297  0.750066  1
  Yb  Yb1  1  0.195297  0.804703  0.249934  1
  Yb  Yb2  1  0.390593  0.195297  0.750066  1
  Yb  Yb3  1  0.609407  0.804703  0.249934  1
  Yb  Yb4  1  0.804703  0.609407  0.750066  1
  Yb  Yb5  1  0.195297  0.390593  0.249934  1
  Al  Al6  1  0.666667  0.333333  0.007012  1
  Al  Al7  1  0.333333  0.666667  0.992988  1
  Al  Al8  1  0.333333  0.666667  0.503986  1
  Al  Al9  1  0.666667  0.333333  0.496014  1
  Al  Al10  1  0.840197  0.159803  0.422438  1
  Al  Al11  1  0.159803  0.840197  0.577562  1
  Al  Al12  1  0.319607  0.159803  0.422438  1
  Al  Al13  1  0.157438  0.842562  0.924353  1
  Al  Al14  1  0.680393  0.840197  0.577562  1
  Al  Al15  1  0.842562  0.157438  0.075647  1
  Al  Al16  1  0.840197  0.680393  0.422438  1
  Al  Al17  1  0.685124  0.842562  0.924353  1
  Al  Al18  1  0.159803  0.319607  0.577562  1
  Al  Al19  1  0.314876  0.157438  0.075647  1
  Al  Al20  1  0.157438  0.314876  0.924353  1
  Al  Al21  1  0.842562  0.685124  0.075647  1
  Al  Al22  1  0.438732  0.561268  0.750363  1
  Al  Al23  1  0.561268  0.438732  0.249637  1
  Al  Al24  1  0.122535  0.561268  0.750363  1
  Al  Al25  1  0.877465  0.438732  0.249637  1
  Al  Al26  1  0.438732  0.877465  0.750363  1
  Al  Al27  1  0.561268  0.122535  0.249637  1
  Al  Al28  1  0.000000  0.000000  0.755441  1
  Al  Al29  1  0.000000  0.000000  0.244559  1
  Fe  Fe30  1  0.000000  0.000000  0.000000  1
  Ru  Ru31  1  0.500000  0.500000  0.000000  1
  Ru  Ru32  1  0.000000  0.500000  0.000000  1
  Ru  Ru33  1  0.500000  0.500000  0.500000  1
  Ru  Ru34  1  0.500000  0.000000  0.000000  1
  Ru  Ru35  1  0.000000  0.500000  0.500000  1
  Ru  Ru36  1  0.500000  0.000000  0.500000  1
  Ru  Ru37  1  0.000000  0.000000  0.500000  1
