# generated using pymatgen
data_TbPrMg(Si3Pd10)2
_symmetry_space_group_name_H-M   'P 1'
_cell_length_a   8.70557462
_cell_length_b   8.70558570
_cell_length_c   8.70557200
_cell_angle_alpha   60.00003280
_cell_angle_beta   60.00009506
_cell_angle_gamma   60.00005548
_symmetry_Int_Tables_number   1
_chemical_formula_structural   TbPrMg(Si3Pd10)2
_chemical_formula_sum   'Tb1 Pr1 Mg1 Si6 Pd20'
_cell_volume   466.52868664
_cell_formula_units_Z   1
loop_
 _symmetry_equiv_pos_site_id
 _symmetry_equiv_pos_as_xyz
  1  'x, y, z'
loop_
 _atom_site_type_symbol
 _atom_site_label
 _atom_site_symmetry_multiplicity
 _atom_site_fract_x
 _atom_site_fract_y
 _atom_site_fract_z
 _atom_site_occupancy
  Tb  Tb0  1  0.250000  0.250000  0.250000  1
  Pr  Pr1  1  0.750000  0.750000  0.750000  1
  Mg  Mg2  1  0.000000  0.000000  0.000000  1
  Si  Si3  1  0.733858  0.266142  0.266142  1
  Si  Si4  1  0.266142  0.733858  0.733858  1
  Si  Si5  1  0.266142  0.733858  0.266142  1
  Si  Si6  1  0.733858  0.266142  0.733858  1
  Si  Si7  1  0.266142  0.266142  0.733858  1
  Si  Si8  1  0.733858  0.733858  0.266142  1
  Pd  Pd9  1  0.383345  0.383346  0.383346  1
  Pd  Pd10  1  0.614159  0.614159  0.614159  1
  Pd  Pd11  1  0.383345  0.383346  0.849965  1
  Pd  Pd12  1  0.383345  0.849965  0.383345  1
  Pd  Pd13  1  0.614159  0.614159  0.157522  1
  Pd  Pd14  1  0.614159  0.157523  0.614159  1
  Pd  Pd15  1  0.849965  0.383345  0.383345  1
  Pd  Pd16  1  0.157522  0.614159  0.614159  1
  Pd  Pd17  1  0.342949  0.000881  0.000881  1
  Pd  Pd18  1  0.655289  0.000881  0.000881  1
  Pd  Pd19  1  0.000881  0.342948  0.655289  1
  Pd  Pd20  1  0.000881  0.655289  0.342948  1
  Pd  Pd21  1  0.000881  0.342949  0.000881  1
  Pd  Pd22  1  0.655288  0.000881  0.342949  1
  Pd  Pd23  1  0.000881  0.655288  0.000881  1
  Pd  Pd24  1  0.342949  0.000881  0.655288  1
  Pd  Pd25  1  0.000881  0.000881  0.342949  1
  Pd  Pd26  1  0.000881  0.000881  0.655288  1
  Pd  Pd27  1  0.655290  0.342948  0.000881  1
  Pd  Pd28  1  0.342948  0.655289  0.000882  1
