# generated using pymatgen
data_Pr32Tl3Rh19
_symmetry_space_group_name_H-M   'P 1'
_cell_length_a   11.92451400
_cell_length_b   11.92451367
_cell_length_c   10.10286000
_cell_angle_alpha   90.00000000
_cell_angle_beta   90.00000000
_cell_angle_gamma   90.74560768
_symmetry_Int_Tables_number   1
_chemical_formula_structural   Pr32Tl3Rh19
_chemical_formula_sum   'Pr32 Tl3 Rh19'
_cell_volume   1436.44474330
_cell_formula_units_Z   1
loop_
 _symmetry_equiv_pos_site_id
 _symmetry_equiv_pos_as_xyz
  1  'x, y, z'
loop_
 _atom_site_type_symbol
 _atom_site_label
 _atom_site_symmetry_multiplicity
 _atom_site_fract_x
 _atom_site_fract_y
 _atom_site_fract_z
 _atom_site_occupancy
  Pr  Pr0  1  0.499414  0.499414  0.806528  1
  Pr  Pr1  1  0.992843  0.992843  0.799736  1
  Pr  Pr2  1  0.499414  0.499414  0.193472  1
  Pr  Pr3  1  0.992843  0.992843  0.200264  1
  Pr  Pr4  1  0.715041  0.071441  0.000000  1
  Pr  Pr5  1  0.301379  0.913036  0.000000  1
  Pr  Pr6  1  0.215569  0.440773  0.000000  1
  Pr  Pr7  1  0.787055  0.576339  0.000000  1
  Pr  Pr8  1  0.440773  0.215569  0.000000  1
  Pr  Pr9  1  0.576339  0.787055  0.000000  1
  Pr  Pr10  1  0.071441  0.715041  0.000000  1
  Pr  Pr11  1  0.913036  0.301379  0.000000  1
  Pr  Pr12  1  0.582485  0.207105  0.693777  1
  Pr  Pr13  1  0.419461  0.790324  0.693451  1
  Pr  Pr14  1  0.079979  0.292333  0.696815  1
  Pr  Pr15  1  0.917892  0.706953  0.695104  1
  Pr  Pr16  1  0.292333  0.079979  0.696815  1
  Pr  Pr17  1  0.706953  0.917892  0.695104  1
  Pr  Pr18  1  0.207105  0.582485  0.693777  1
  Pr  Pr19  1  0.790324  0.419461  0.693451  1
  Pr  Pr20  1  0.419461  0.790324  0.306549  1
  Pr  Pr21  1  0.582485  0.207105  0.306223  1
  Pr  Pr22  1  0.917892  0.706953  0.304896  1
  Pr  Pr23  1  0.079979  0.292333  0.303185  1
  Pr  Pr24  1  0.706953  0.917892  0.304896  1
  Pr  Pr25  1  0.292333  0.079979  0.303185  1
  Pr  Pr26  1  0.790324  0.419461  0.306549  1
  Pr  Pr27  1  0.207105  0.582485  0.306223  1
  Pr  Pr28  1  0.643170  0.643170  0.500000  1
  Pr  Pr29  1  0.356808  0.356808  0.500000  1
  Pr  Pr30  1  0.141696  0.856836  0.500000  1
  Pr  Pr31  1  0.856836  0.141696  0.500000  1
  Tl  Tl32  1  0.498576  0.999614  0.500000  1
  Tl  Tl33  1  0.999614  0.498576  0.500000  1
  Tl  Tl34  1  0.160007  0.160007  0.000000  1
  Rh  Rh35  1  0.676119  0.676119  0.776012  1
  Rh  Rh36  1  0.322034  0.322034  0.780310  1
  Rh  Rh37  1  0.178146  0.823224  0.776236  1
  Rh  Rh38  1  0.823224  0.178146  0.776236  1
  Rh  Rh39  1  0.322034  0.322034  0.219690  1
  Rh  Rh40  1  0.676119  0.676119  0.223988  1
  Rh  Rh41  1  0.823224  0.178146  0.223764  1
  Rh  Rh42  1  0.178146  0.823224  0.223764  1
  Rh  Rh43  1  0.104298  0.104298  0.500000  1
  Rh  Rh44  1  0.896370  0.896370  0.500000  1
  Rh  Rh45  1  0.601850  0.396592  0.500000  1
  Rh  Rh46  1  0.396592  0.601850  0.500000  1
  Rh  Rh47  1  0.501430  0.998530  0.842388  1
  Rh  Rh48  1  0.998530  0.501430  0.842388  1
  Rh  Rh49  1  0.501430  0.998530  0.157612  1
  Rh  Rh50  1  0.998530  0.501430  0.157612  1
  Rh  Rh51  1  0.845507  0.845507  0.000000  1
  Rh  Rh52  1  0.656183  0.345320  0.000000  1
  Rh  Rh53  1  0.345320  0.656183  0.000000  1
