# generated using pymatgen
data_La6Tb7Dy3(CdIr)4
_symmetry_space_group_name_H-M   'P 1'
_cell_length_a   9.84228301
_cell_length_b   9.84507308
_cell_length_c   9.84289334
_cell_angle_alpha   59.98857802
_cell_angle_beta   59.96973804
_cell_angle_gamma   59.99473138
_symmetry_Int_Tables_number   1
_chemical_formula_structural   La6Tb7Dy3(CdIr)4
_chemical_formula_sum   'La6 Tb7 Dy3 Cd4 Ir4'
_cell_volume   674.16838091
_cell_formula_units_Z   1
loop_
 _symmetry_equiv_pos_site_id
 _symmetry_equiv_pos_as_xyz
  1  'x, y, z'
loop_
 _atom_site_type_symbol
 _atom_site_label
 _atom_site_symmetry_multiplicity
 _atom_site_fract_x
 _atom_site_fract_y
 _atom_site_fract_z
 _atom_site_occupancy
  La  La0  1  0.193016  0.807315  0.806474  1
  La  La1  1  0.806474  0.193194  0.193016  1
  La  La2  1  0.807443  0.192557  0.807443  1
  La  La3  1  0.193431  0.806569  0.193431  1
  La  La4  1  0.806425  0.807298  0.192977  1
  La  La5  1  0.192977  0.193299  0.806425  1
  Tb  Tb6  1  0.596839  0.596744  0.597171  1
  Tb  Tb7  1  0.597380  0.596952  0.208408  1
  Tb  Tb8  1  0.597171  0.209245  0.596839  1
  Tb  Tb9  1  0.208408  0.597259  0.597380  1
  Tb  Tb10  1  0.062728  0.437377  0.436632  1
  Tb  Tb11  1  0.436632  0.063263  0.062728  1
  Tb  Tb12  1  0.437042  0.062958  0.437042  1
  Dy  Dy13  1  0.062840  0.437160  0.062840  1
  Dy  Dy14  1  0.436824  0.437494  0.062556  1
  Dy  Dy15  1  0.062556  0.063126  0.436824  1
  Cd  Cd16  1  0.828875  0.828411  0.828749  1
  Cd  Cd17  1  0.829192  0.828733  0.513464  1
  Cd  Cd18  1  0.828749  0.513964  0.828875  1
  Cd  Cd19  1  0.513464  0.828610  0.829192  1
  Ir  Ir20  1  0.391602  0.390648  0.391097  1
  Ir  Ir21  1  0.391236  0.390885  0.827594  1
  Ir  Ir22  1  0.391097  0.826652  0.391602  1
  Ir  Ir23  1  0.827594  0.390284  0.391236  1
