# generated using pymatgen
data_K3Tl(IO3)6
_symmetry_space_group_name_H-M   'P 1'
_cell_length_a   7.14145583
_cell_length_b   7.23363311
_cell_length_c   10.90427100
_cell_angle_alpha   98.63558724
_cell_angle_beta   108.14951994
_cell_angle_gamma   103.12098811
_symmetry_Int_Tables_number   1
_chemical_formula_structural   K3Tl(IO3)6
_chemical_formula_sum   'K3 Tl1 I6 O18'
_cell_volume   506.23627874
_cell_formula_units_Z   1
loop_
 _symmetry_equiv_pos_site_id
 _symmetry_equiv_pos_as_xyz
  1  'x, y, z'
loop_
 _atom_site_type_symbol
 _atom_site_label
 _atom_site_symmetry_multiplicity
 _atom_site_fract_x
 _atom_site_fract_y
 _atom_site_fract_z
 _atom_site_occupancy
  K  K0  1  0.372438  0.536869  0.292139  1
  K  K1  1  0.627562  0.463131  0.707861  1
  K  K2  1  0.000000  0.500000  0.500000  1
  Tl  Tl3  1  0.000000  0.000000  0.000000  1
  I  I4  1  0.556835  0.033875  0.195136  1
  I  I5  1  0.443165  0.966125  0.804864  1
  I  I6  1  0.778530  0.533949  0.103766  1
  I  I7  1  0.221470  0.466051  0.896234  1
  I  I8  1  0.129571  0.061688  0.379156  1
  I  I9  1  0.870429  0.938312  0.620844  1
  O  O10  1  0.588950  0.656118  0.125743  1
  O  O11  1  0.411050  0.343882  0.874257  1
  O  O12  1  0.009027  0.353722  0.737561  1
  O  O13  1  0.990973  0.646278  0.262439  1
  O  O14  1  0.609845  0.300509  0.236279  1
  O  O15  1  0.390155  0.699491  0.763721  1
  O  O16  1  0.052670  0.129532  0.215708  1
  O  O17  1  0.947330  0.870468  0.784292  1
  O  O18  1  0.317387  0.957790  0.039709  1
  O  O19  1  0.682613  0.042210  0.960291  1
  O  O20  1  0.292392  0.304688  0.474650  1
  O  O21  1  0.707608  0.695312  0.525350  1
  O  O22  1  0.885142  0.076283  0.402391  1
  O  O23  1  0.114858  0.923717  0.597609  1
  O  O24  1  0.565124  0.035695  0.687978  1
  O  O25  1  0.434876  0.964305  0.312022  1
  O  O26  1  0.123566  0.332100  0.008012  1
  O  O27  1  0.876434  0.667900  0.991988  1
