# generated using pymatgen
data_Mg4H8OsRu
_symmetry_space_group_name_H-M   'P 1'
_cell_length_a   5.49384689
_cell_length_b   5.49384791
_cell_length_c   4.82576600
_cell_angle_alpha   90.00000000
_cell_angle_beta   90.00000000
_cell_angle_gamma   100.95820755
_symmetry_Int_Tables_number   1
_chemical_formula_structural   Mg4H8OsRu
_chemical_formula_sum   'Mg4 H8 Os1 Ru1'
_cell_volume   142.99718083
_cell_formula_units_Z   1
loop_
 _symmetry_equiv_pos_site_id
 _symmetry_equiv_pos_as_xyz
  1  'x, y, z'
loop_
 _atom_site_type_symbol
 _atom_site_label
 _atom_site_symmetry_multiplicity
 _atom_site_fract_x
 _atom_site_fract_y
 _atom_site_fract_z
 _atom_site_occupancy
  Mg  Mg0  1  0.350900  0.067942  0.250000  1
  Mg  Mg1  1  0.071271  0.351778  0.750000  1
  Mg  Mg2  1  0.648222  0.928729  0.750000  1
  Mg  Mg3  1  0.932058  0.649100  0.250000  1
  H  H4  1  0.130914  0.356243  0.250000  1
  H  H5  1  0.354634  0.130513  0.750000  1
  H  H6  1  0.869487  0.645366  0.750000  1
  H  H7  1  0.643757  0.869086  0.250000  1
  H  H8  1  0.721770  0.278230  0.014535  1
  H  H9  1  0.277816  0.722184  0.984287  1
  H  H10  1  0.721770  0.278230  0.485465  1
  H  H11  1  0.277816  0.722184  0.515713  1
  Os  Os12  1  0.867812  0.132188  0.250000  1
  Ru  Ru13  1  0.131773  0.868227  0.750000  1
