# generated using pymatgen
data_Dy5Ho15(Ir5Au)2
_symmetry_space_group_name_H-M   'P 1'
_cell_length_a   11.01458358
_cell_length_b   10.94933900
_cell_length_c   6.32092509
_cell_angle_alpha   90.00128745
_cell_angle_beta   89.86466451
_cell_angle_gamma   90.00285003
_symmetry_Int_Tables_number   1
_chemical_formula_structural   Dy5Ho15(Ir5Au)2
_chemical_formula_sum   'Dy5 Ho15 Ir10 Au2'
_cell_volume   762.31666864
_cell_formula_units_Z   1
loop_
 _symmetry_equiv_pos_site_id
 _symmetry_equiv_pos_as_xyz
  1  'x, y, z'
loop_
 _atom_site_type_symbol
 _atom_site_label
 _atom_site_symmetry_multiplicity
 _atom_site_fract_x
 _atom_site_fract_y
 _atom_site_fract_z
 _atom_site_occupancy
  Dy  Dy0  1  0.292174  0.088511  0.371742  1
  Dy  Dy1  1  0.292091  0.911545  0.871764  1
  Dy  Dy2  1  0.698128  0.092407  0.865527  1
  Dy  Dy3  1  0.698134  0.907710  0.365526  1
  Dy  Dy4  1  0.578114  0.789162  0.876824  1
  Ho  Ho5  1  0.578021  0.210691  0.377000  1
  Ho  Ho6  1  0.408163  0.790647  0.376858  1
  Ho  Ho7  1  0.408217  0.209364  0.876878  1
  Ho  Ho8  1  0.209726  0.411121  0.621485  1
  Ho  Ho9  1  0.209706  0.588877  0.121489  1
  Ho  Ho10  1  0.789094  0.419623  0.123365  1
  Ho  Ho11  1  0.789130  0.580314  0.623321  1
  Ho  Ho12  1  0.917569  0.705101  0.139023  1
  Ho  Ho13  1  0.917549  0.294877  0.639015  1
  Ho  Ho14  1  0.096067  0.702514  0.624164  1
  Ho  Ho15  1  0.096074  0.297481  0.124151  1
  Ho  Ho16  1  0.009561  0.997435  0.499803  1
  Ho  Ho17  1  0.009569  0.002588  0.999840  1
  Ho  Ho18  1  0.499838  0.498714  0.000755  1
  Ho  Ho19  1  0.499889  0.501153  0.500690  1
  Ir  Ir20  1  0.153724  0.154120  0.750351  1
  Ir  Ir21  1  0.153741  0.845885  0.250343  1
  Ir  Ir22  1  0.655562  0.346324  0.748114  1
  Ir  Ir23  1  0.655648  0.653591  0.248377  1
  Ir  Ir24  1  0.347276  0.346383  0.251569  1
  Ir  Ir25  1  0.347164  0.653565  0.751499  1
  Ir  Ir26  1  0.499740  0.999886  0.121280  1
  Ir  Ir27  1  0.499737  0.000378  0.621039  1
  Ir  Ir28  1  0.999705  0.500940  0.878650  1
  Ir  Ir29  1  0.999687  0.499056  0.378629  1
  Au  Au30  1  0.845533  0.155008  0.250497  1
  Au  Au31  1  0.845668  0.845031  0.750435  1
