# generated using pymatgen
data_CuS2NO10
_symmetry_space_group_name_H-M   'P 1'
_cell_length_a   4.74792028
_cell_length_b   5.93317731
_cell_length_c   7.80256765
_cell_angle_alpha   105.27959114
_cell_angle_beta   105.14473570
_cell_angle_gamma   91.35027434
_symmetry_Int_Tables_number   1
_chemical_formula_structural   CuS2NO10
_chemical_formula_sum   'Cu1 S2 N1 O10'
_cell_volume   203.65613245
_cell_formula_units_Z   1
loop_
 _symmetry_equiv_pos_site_id
 _symmetry_equiv_pos_as_xyz
  1  'x, y, z'
loop_
 _atom_site_type_symbol
 _atom_site_label
 _atom_site_symmetry_multiplicity
 _atom_site_fract_x
 _atom_site_fract_y
 _atom_site_fract_z
 _atom_site_occupancy
  Cu  Cu0  1  0.000000  0.000000  0.000000  1
  S  S1  1  0.384592  0.078531  0.775613  1
  S  S2  1  0.615408  0.921469  0.224387  1
  N  N3  1  0.500000  0.500000  0.500000  1
  O  O4  1  0.720365  0.533465  0.609594  1
  O  O5  1  0.279635  0.466535  0.390406  1
  O  O6  1  0.285150  0.177176  0.951443  1
  O  O7  1  0.714850  0.822824  0.048557  1
  O  O8  1  0.720928  0.126878  0.840220  1
  O  O9  1  0.279072  0.873122  0.159780  1
  O  O10  1  0.284678  0.829534  0.700389  1
  O  O11  1  0.715322  0.170466  0.299611  1
  O  O12  1  0.295003  0.222239  0.649866  1
  O  O13  1  0.704997  0.777761  0.350134  1
