# generated using pymatgen
data_CsNb4AsO13
_symmetry_space_group_name_H-M   'P 1'
_cell_length_a   7.55816025
_cell_length_b   7.55816020
_cell_length_c   10.25507500
_cell_angle_alpha   90.00000000
_cell_angle_beta   90.00000000
_cell_angle_gamma   91.27944767
_symmetry_Int_Tables_number   1
_chemical_formula_structural   CsNb4AsO13
_chemical_formula_sum   'Cs2 Nb8 As2 O26'
_cell_volume   585.68316270
_cell_formula_units_Z   2
loop_
 _symmetry_equiv_pos_site_id
 _symmetry_equiv_pos_as_xyz
  1  'x, y, z'
loop_
 _atom_site_type_symbol
 _atom_site_label
 _atom_site_symmetry_multiplicity
 _atom_site_fract_x
 _atom_site_fract_y
 _atom_site_fract_z
 _atom_site_occupancy
  Cs  Cs0  1  0.435410  0.435410  0.446055  1
  Cs  Cs1  1  0.564590  0.564590  0.946055  1
  Nb  Nb2  1  0.555288  0.898710  0.253990  1
  Nb  Nb3  1  0.101290  0.444712  0.753990  1
  Nb  Nb4  1  0.444712  0.101290  0.753990  1
  Nb  Nb5  1  0.898710  0.555288  0.253990  1
  Nb  Nb6  1  0.175409  0.833814  0.503046  1
  Nb  Nb7  1  0.166186  0.824591  0.003046  1
  Nb  Nb8  1  0.833814  0.175409  0.503046  1
  Nb  Nb9  1  0.824591  0.166186  0.003046  1
  As  As10  1  0.161838  0.161838  0.246481  1
  As  As11  1  0.838162  0.838162  0.746481  1
  O  O12  1  0.665163  0.665163  0.250881  1
  O  O13  1  0.334837  0.334837  0.750881  1
  O  O14  1  0.384317  0.128276  0.247802  1
  O  O15  1  0.871724  0.615683  0.747802  1
  O  O16  1  0.615683  0.871724  0.747802  1
  O  O17  1  0.128276  0.384317  0.247802  1
  O  O18  1  0.806520  0.359243  0.384639  1
  O  O19  1  0.644662  0.195977  0.614011  1
  O  O20  1  0.804023  0.355338  0.114011  1
  O  O21  1  0.640757  0.193480  0.884639  1
  O  O22  1  0.195977  0.644662  0.614011  1
  O  O23  1  0.359243  0.806520  0.384639  1
  O  O24  1  0.193480  0.640757  0.884639  1
  O  O25  1  0.355338  0.804023  0.114011  1
  O  O26  1  0.068554  0.068554  0.387744  1
  O  O27  1  0.933834  0.933834  0.607262  1
  O  O28  1  0.066166  0.066166  0.107262  1
  O  O29  1  0.931446  0.931446  0.887744  1
  O  O30  1  0.692424  0.997855  0.386663  1
  O  O31  1  0.009446  0.309752  0.610836  1
  O  O32  1  0.690248  0.990554  0.110836  1
  O  O33  1  0.002145  0.307576  0.886663  1
  O  O34  1  0.309752  0.009446  0.610836  1
  O  O35  1  0.997855  0.692424  0.386663  1
  O  O36  1  0.307576  0.002145  0.886663  1
  O  O37  1  0.990554  0.690248  0.110836  1
