# generated using pymatgen
data_HoTm3Re4F28
_symmetry_space_group_name_H-M   'P 1'
_cell_length_a   5.54310194
_cell_length_b   8.83597558
_cell_length_c   11.97435181
_cell_angle_alpha   62.76308397
_cell_angle_beta   90.02937924
_cell_angle_gamma   90.00642737
_symmetry_Int_Tables_number   1
_chemical_formula_structural   HoTm3Re4F28
_chemical_formula_sum   'Ho1 Tm3 Re4 F28'
_cell_volume   521.45942788
_cell_formula_units_Z   1
loop_
 _symmetry_equiv_pos_site_id
 _symmetry_equiv_pos_as_xyz
  1  'x, y, z'
loop_
 _atom_site_type_symbol
 _atom_site_label
 _atom_site_symmetry_multiplicity
 _atom_site_fract_x
 _atom_site_fract_y
 _atom_site_fract_z
 _atom_site_occupancy
  Ho  Ho0  1  0.741494  0.814909  0.264374  1
  Tm  Tm1  1  0.758359  0.814765  0.764242  1
  Tm  Tm2  1  0.258458  0.185493  0.735773  1
  Tm  Tm3  1  0.241354  0.186916  0.235614  1
  Re  Re4  1  0.758707  0.273624  0.956333  1
  Re  Re5  1  0.258215  0.726874  0.544106  1
  Re  Re6  1  0.241794  0.726960  0.042212  1
  Re  Re7  1  0.741565  0.271885  0.457328  1
  F  F8  1  0.441600  0.705074  0.913814  1
  F  F9  1  0.941635  0.294392  0.585549  1
  F  F10  1  0.558911  0.295170  0.084955  1
  F  F11  1  0.060122  0.704491  0.415321  1
  F  F12  1  0.438682  0.274718  0.546244  1
  F  F13  1  0.937830  0.724895  0.953703  1
  F  F14  1  0.561144  0.723609  0.456036  1
  F  F15  1  0.061617  0.275644  0.045648  1
  F  F16  1  0.776069  0.524982  0.857344  1
  F  F17  1  0.275556  0.475314  0.642815  1
  F  F18  1  0.224013  0.475601  0.142047  1
  F  F19  1  0.723694  0.522767  0.358033  1
  F  F20  1  0.755284  0.023181  0.052039  1
  F  F21  1  0.255493  0.977331  0.447154  1
  F  F22  1  0.244987  0.977559  0.946256  1
  F  F23  1  0.744745  0.021391  0.553755  1
  F  F24  1  0.965558  0.726544  0.639541  1
  F  F25  1  0.466458  0.273512  0.860607  1
  F  F26  1  0.033834  0.273394  0.361165  1
  F  F27  1  0.534237  0.725468  0.137830  1
  F  F28  1  0.050858  0.746254  0.175261  1
  F  F29  1  0.547962  0.252410  0.324626  1
  F  F30  1  0.952408  0.253020  0.824187  1
  F  F31  1  0.451806  0.747245  0.676283  1
  F  F32  1  0.414928  0.972312  0.232472  1
  F  F33  1  0.919040  0.032125  0.267330  1
  F  F34  1  0.580782  0.029073  0.767038  1
  F  F35  1  0.080803  0.971099  0.732965  1
