# generated using pymatgen
data_Dy3Ho5In8
_symmetry_space_group_name_H-M   'P 1'
_cell_length_a   6.49074300
_cell_length_b   6.49074383
_cell_length_c   10.36386300
_cell_angle_alpha   90.00000000
_cell_angle_beta   90.00000000
_cell_angle_gamma   104.53976172
_symmetry_Int_Tables_number   1
_chemical_formula_structural   Dy3Ho5In8
_chemical_formula_sum   'Dy3 Ho5 In8'
_cell_volume   422.64339052
_cell_formula_units_Z   1
loop_
 _symmetry_equiv_pos_site_id
 _symmetry_equiv_pos_as_xyz
  1  'x, y, z'
loop_
 _atom_site_type_symbol
 _atom_site_label
 _atom_site_symmetry_multiplicity
 _atom_site_fract_x
 _atom_site_fract_y
 _atom_site_fract_z
 _atom_site_occupancy
  Dy  Dy0  1  0.481700  0.481700  0.750000  1
  Dy  Dy1  1  0.985468  0.985468  0.250000  1
  Dy  Dy2  1  0.014043  0.014043  0.750000  1
  Ho  Ho3  1  0.518020  0.518020  0.250000  1
  Ho  Ho4  1  0.247764  0.752484  0.499814  1
  Ho  Ho5  1  0.247764  0.752484  0.000186  1
  Ho  Ho6  1  0.752484  0.247764  0.499814  1
  Ho  Ho7  1  0.752484  0.247764  0.000186  1
  In  In8  1  0.252937  0.252937  0.011002  1
  In  In9  1  0.747224  0.747224  0.989863  1
  In  In10  1  0.252937  0.252937  0.488998  1
  In  In11  1  0.747224  0.747224  0.510137  1
  In  In12  1  0.490714  0.011807  0.250000  1
  In  In13  1  0.988182  0.509248  0.750000  1
  In  In14  1  0.509248  0.988182  0.750000  1
  In  In15  1  0.011807  0.490714  0.250000  1
