# generated using pymatgen
data_Nd4AlZn2GaPt4
_symmetry_space_group_name_H-M   'P 1'
_cell_length_a   4.49095800
_cell_length_b   7.06404748
_cell_length_c   7.96411612
_cell_angle_alpha   90.22356897
_cell_angle_beta   90.00000000
_cell_angle_gamma   90.00000000
_symmetry_Int_Tables_number   1
_chemical_formula_structural   Nd4AlZn2GaPt4
_chemical_formula_sum   'Nd4 Al1 Zn2 Ga1 Pt4'
_cell_volume   252.65440839
_cell_formula_units_Z   1
loop_
 _symmetry_equiv_pos_site_id
 _symmetry_equiv_pos_as_xyz
  1  'x, y, z'
loop_
 _atom_site_type_symbol
 _atom_site_label
 _atom_site_symmetry_multiplicity
 _atom_site_fract_x
 _atom_site_fract_y
 _atom_site_fract_z
 _atom_site_occupancy
  Nd  Nd0  1  0.250000  0.026373  0.687787  1
  Nd  Nd1  1  0.250000  0.523208  0.808769  1
  Nd  Nd2  1  0.750000  0.976151  0.311967  1
  Nd  Nd3  1  0.750000  0.473095  0.191621  1
  Al  Al4  1  0.750000  0.850277  0.932490  1
  Zn  Zn5  1  0.250000  0.156967  0.070847  1
  Zn  Zn6  1  0.250000  0.658885  0.428367  1
  Ga  Ga7  1  0.750000  0.346150  0.567844  1
  Pt  Pt8  1  0.250000  0.272754  0.394847  1
  Pt  Pt9  1  0.250000  0.773102  0.100485  1
  Pt  Pt10  1  0.750000  0.723945  0.616773  1
  Pt  Pt11  1  0.750000  0.219089  0.888202  1
