# generated using pymatgen
data_Ho8Hf11Si16Ir
_symmetry_space_group_name_H-M   'P 1'
_cell_length_a   7.24675717
_cell_length_b   7.24675691
_cell_length_c   13.19813715
_cell_angle_alpha   89.75256152
_cell_angle_beta   90.24743582
_cell_angle_gamma   89.96312437
_symmetry_Int_Tables_number   1
_chemical_formula_structural   Ho8Hf11Si16Ir
_chemical_formula_sum   'Ho8 Hf11 Si16 Ir1'
_cell_volume   693.09352969
_cell_formula_units_Z   1
loop_
 _symmetry_equiv_pos_site_id
 _symmetry_equiv_pos_as_xyz
  1  'x, y, z'
loop_
 _atom_site_type_symbol
 _atom_site_label
 _atom_site_symmetry_multiplicity
 _atom_site_fract_x
 _atom_site_fract_y
 _atom_site_fract_z
 _atom_site_occupancy
  Ho  Ho0  1  0.997750  0.345704  0.211002  1
  Ho  Ho1  1  0.005835  0.652671  0.717335  1
  Ho  Ho2  1  0.155076  0.494012  0.464964  1
  Ho  Ho3  1  0.502054  0.848807  0.032879  1
  Ho  Ho4  1  0.848807  0.502054  0.967121  1
  Ho  Ho5  1  0.494012  0.155076  0.535036  1
  Ho  Ho6  1  0.345704  0.997750  0.788998  1
  Ho  Ho7  1  0.652671  0.005835  0.282665  1
  Hf  Hf8  1  0.824476  0.824476  0.500000  1
  Hf  Hf9  1  0.322592  0.676501  0.247777  1
  Hf  Hf10  1  0.676501  0.322592  0.752223  1
  Hf  Hf11  1  0.145640  0.998164  0.371544  1
  Hf  Hf12  1  0.854246  0.002815  0.878557  1
  Hf  Hf13  1  0.502059  0.646785  0.626044  1
  Hf  Hf14  1  0.354369  0.496962  0.877422  1
  Hf  Hf15  1  0.496962  0.354369  0.122578  1
  Hf  Hf16  1  0.646785  0.502059  0.373956  1
  Hf  Hf17  1  0.998164  0.145640  0.628456  1
  Hf  Hf18  1  0.002815  0.854246  0.121443  1
  Si  Si19  1  0.358155  0.295964  0.314980  1
  Si  Si20  1  0.640851  0.704863  0.818889  1
  Si  Si21  1  0.206108  0.860609  0.567448  1
  Si  Si22  1  0.137233  0.789655  0.930709  1
  Si  Si23  1  0.789655  0.137233  0.069291  1
  Si  Si24  1  0.860609  0.206108  0.432552  1
  Si  Si25  1  0.295964  0.358155  0.685020  1
  Si  Si26  1  0.704863  0.640851  0.181111  1
  Si  Si27  1  0.291985  0.057124  0.179881  1
  Si  Si28  1  0.703662  0.949868  0.685965  1
  Si  Si29  1  0.449359  0.796493  0.434627  1
  Si  Si30  1  0.207796  0.554065  0.063327  1
  Si  Si31  1  0.554065  0.207796  0.936673  1
  Si  Si32  1  0.796493  0.449359  0.565373  1
  Si  Si33  1  0.057124  0.291985  0.820119  1
  Si  Si34  1  0.949868  0.703662  0.314035  1
  Ir  Ir35  1  0.169690  0.169690  0.000000  1
