# generated using pymatgen
data_DyNpAl6
_symmetry_space_group_name_H-M   'P 1'
_cell_length_a   14.56443464
_cell_length_b   14.56443431
_cell_length_c   14.56443364
_cell_angle_alpha   24.17321207
_cell_angle_beta   24.17321253
_cell_angle_gamma   24.17321523
_symmetry_Int_Tables_number   1
_chemical_formula_structural   DyNpAl6
_chemical_formula_sum   'Dy3 Np3 Al18'
_cell_volume   455.30556740
_cell_formula_units_Z   3
loop_
 _symmetry_equiv_pos_site_id
 _symmetry_equiv_pos_as_xyz
  1  'x, y, z'
loop_
 _atom_site_type_symbol
 _atom_site_label
 _atom_site_symmetry_multiplicity
 _atom_site_fract_x
 _atom_site_fract_y
 _atom_site_fract_z
 _atom_site_occupancy
  Dy  Dy0  1  0.110863  0.110863  0.110863  1
  Dy  Dy1  1  0.891707  0.891707  0.891707  1
  Dy  Dy2  1  0.391940  0.391940  0.391940  1
  Np  Np3  1  0.001643  0.001643  0.001643  1
  Np  Np4  1  0.501117  0.501117  0.501117  1
  Np  Np5  1  0.610792  0.610792  0.610792  1
  Al  Al6  1  0.914123  0.377677  0.377677  1
  Al  Al7  1  0.419663  0.875040  0.875040  1
  Al  Al8  1  0.377677  0.377677  0.914123  1
  Al  Al9  1  0.875040  0.875040  0.419663  1
  Al  Al10  1  0.377677  0.914123  0.377677  1
  Al  Al11  1  0.875040  0.419663  0.875040  1
  Al  Al12  1  0.587402  0.125840  0.125840  1
  Al  Al13  1  0.082780  0.628173  0.628173  1
  Al  Al14  1  0.125840  0.125840  0.587402  1
  Al  Al15  1  0.628173  0.628173  0.082780  1
  Al  Al16  1  0.125840  0.587402  0.125840  1
  Al  Al17  1  0.628173  0.082780  0.628173  1
  Al  Al18  1  0.503678  0.503678  0.996774  1
  Al  Al19  1  0.002076  0.002076  0.500457  1
  Al  Al20  1  0.503678  0.996774  0.503678  1
  Al  Al21  1  0.002076  0.500457  0.002076  1
  Al  Al22  1  0.996774  0.503678  0.503678  1
  Al  Al23  1  0.500457  0.002076  0.002076  1
