# generated using pymatgen
data_Sc4Co16Si7Tc4P5
_symmetry_space_group_name_H-M   'P 1'
_cell_length_a   3.68146500
_cell_length_b   10.30106330
_cell_length_c   11.79300334
_cell_angle_alpha   90.02766988
_cell_angle_beta   90.00000000
_cell_angle_gamma   90.00000000
_symmetry_Int_Tables_number   1
_chemical_formula_structural   Sc4Co16Si7Tc4P5
_chemical_formula_sum   'Sc4 Co16 Si7 Tc4 P5'
_cell_volume   447.22606086
_cell_formula_units_Z   1
loop_
 _symmetry_equiv_pos_site_id
 _symmetry_equiv_pos_as_xyz
  1  'x, y, z'
loop_
 _atom_site_type_symbol
 _atom_site_label
 _atom_site_symmetry_multiplicity
 _atom_site_fract_x
 _atom_site_fract_y
 _atom_site_fract_z
 _atom_site_occupancy
  Sc  Sc0  1  0.250000  0.581378  0.704297  1
  Sc  Sc1  1  0.250000  0.922544  0.203023  1
  Sc  Sc2  1  0.750000  0.422663  0.296726  1
  Sc  Sc3  1  0.750000  0.078197  0.796585  1
  Co  Co4  1  0.250000  0.413219  0.487755  1
  Co  Co5  1  0.250000  0.088476  0.986088  1
  Co  Co6  1  0.750000  0.593098  0.517193  1
  Co  Co7  1  0.750000  0.910682  0.010884  1
  Co  Co8  1  0.250000  0.210224  0.172528  1
  Co  Co9  1  0.250000  0.289170  0.672167  1
  Co  Co10  1  0.750000  0.786267  0.822934  1
  Co  Co11  1  0.750000  0.711157  0.328516  1
  Co  Co12  1  0.250000  0.883255  0.702331  1
  Co  Co13  1  0.250000  0.614658  0.203429  1
  Co  Co14  1  0.750000  0.114011  0.296442  1
  Co  Co15  1  0.750000  0.385952  0.796459  1
  Co  Co16  1  0.250000  0.466171  0.931700  1
  Co  Co17  1  0.250000  0.032245  0.432027  1
  Co  Co18  1  0.750000  0.533082  0.069300  1
  Co  Co19  1  0.750000  0.963329  0.570128  1
  Si  Si20  1  0.250000  0.416052  0.117292  1
  Si  Si21  1  0.250000  0.083450  0.617102  1
  Si  Si22  1  0.750000  0.582389  0.884092  1
  Si  Si23  1  0.750000  0.916954  0.382745  1
  Si  Si24  1  0.250000  0.264300  0.862270  1
  Si  Si25  1  0.250000  0.235526  0.363296  1
  Si  Si26  1  0.750000  0.735976  0.137160  1
  Tc  Tc27  1  0.250000  0.709212  0.989358  1
  Tc  Tc28  1  0.250000  0.789832  0.491067  1
  Tc  Tc29  1  0.750000  0.290732  0.009482  1
  Tc  Tc30  1  0.750000  0.209775  0.509978  1
  P  P31  1  0.750000  0.765864  0.637092  1
  P  P32  1  0.250000  0.595979  0.390039  1
  P  P33  1  0.250000  0.903883  0.889680  1
  P  P34  1  0.750000  0.404991  0.609969  1
  P  P35  1  0.750000  0.095308  0.108864  1
