# generated using pymatgen
data_CrFe4Mo(P2W)2
_symmetry_space_group_name_H-M   'P 1'
_cell_length_a   3.63736100
_cell_length_b   5.89516505
_cell_length_c   6.70171713
_cell_angle_alpha   90.16147044
_cell_angle_beta   90.00000000
_cell_angle_gamma   90.00000000
_symmetry_Int_Tables_number   1
_chemical_formula_structural   CrFe4Mo(P2W)2
_chemical_formula_sum   'Cr1 Fe4 Mo1 P4 W2'
_cell_volume   143.70330042
_cell_formula_units_Z   1
loop_
 _symmetry_equiv_pos_site_id
 _symmetry_equiv_pos_as_xyz
  1  'x, y, z'
loop_
 _atom_site_type_symbol
 _atom_site_label
 _atom_site_symmetry_multiplicity
 _atom_site_fract_x
 _atom_site_fract_y
 _atom_site_fract_z
 _atom_site_occupancy
  Cr  Cr0  1  0.250000  0.529560  0.674564  1
  Fe  Fe1  1  0.250000  0.640227  0.063409  1
  Fe  Fe2  1  0.750000  0.359186  0.933560  1
  Fe  Fe3  1  0.250000  0.143856  0.440106  1
  Fe  Fe4  1  0.750000  0.855297  0.563070  1
  Mo  Mo5  1  0.750000  0.971337  0.168240  1
  P  P6  1  0.250000  0.270549  0.122638  1
  P  P7  1  0.750000  0.724197  0.872834  1
  P  P8  1  0.250000  0.771595  0.381155  1
  P  P9  1  0.750000  0.234875  0.622054  1
  W  W10  1  0.250000  0.023384  0.828545  1
  W  W11  1  0.750000  0.475937  0.329825  1
