# generated using pymatgen
data_YbV2TeO7
_symmetry_space_group_name_H-M   'P 1'
_cell_length_a   6.89393486
_cell_length_b   7.13812920
_cell_length_c   8.39160210
_cell_angle_alpha   93.55049678
_cell_angle_beta   114.80700229
_cell_angle_gamma   114.89911320
_symmetry_Int_Tables_number   1
_chemical_formula_structural   YbV2TeO7
_chemical_formula_sum   'Yb2 V4 Te2 O14'
_cell_volume   325.41689288
_cell_formula_units_Z   2
loop_
 _symmetry_equiv_pos_site_id
 _symmetry_equiv_pos_as_xyz
  1  'x, y, z'
loop_
 _atom_site_type_symbol
 _atom_site_label
 _atom_site_symmetry_multiplicity
 _atom_site_fract_x
 _atom_site_fract_y
 _atom_site_fract_z
 _atom_site_occupancy
  Yb  Yb0  1  0.431437  0.064478  0.177013  1
  Yb  Yb1  1  0.568563  0.935522  0.822987  1
  V  V2  1  0.026561  0.885948  0.660448  1
  V  V3  1  0.499995  0.574074  0.335596  1
  V  V4  1  0.500005  0.425926  0.664404  1
  V  V5  1  0.973439  0.114052  0.339552  1
  Te  Te6  1  0.043509  0.696285  0.296695  1
  Te  Te7  1  0.956491  0.303715  0.703305  1
  O  O8  1  0.135446  0.982574  0.265678  1
  O  O9  1  0.441241  0.386193  0.164870  1
  O  O10  1  0.186151  0.176739  0.628001  1
  O  O11  1  0.327245  0.739084  0.266746  1
  O  O12  1  0.201705  0.772450  0.555862  1
  O  O13  1  0.672755  0.260916  0.733254  1
  O  O14  1  0.813849  0.823261  0.371999  1
  O  O15  1  0.755535  0.096390  0.130210  1
  O  O16  1  0.864554  0.017426  0.734322  1
  O  O17  1  0.266703  0.402567  0.419301  1
  O  O18  1  0.558759  0.613807  0.835130  1
  O  O19  1  0.798295  0.227550  0.444138  1
  O  O20  1  0.244465  0.903610  0.869790  1
  O  O21  1  0.733297  0.597433  0.580699  1
