# generated using pymatgen
data_CaSc4Ni8As7Rh
_symmetry_space_group_name_H-M   'P 1'
_cell_length_a   3.83429400
_cell_length_b   9.76267612
_cell_length_c   9.78543911
_cell_angle_alpha   119.83596015
_cell_angle_beta   90.00000000
_cell_angle_gamma   90.00000000
_symmetry_Int_Tables_number   1
_chemical_formula_structural   CaSc4Ni8As7Rh
_chemical_formula_sum   'Ca1 Sc4 Ni8 As7 Rh1'
_cell_volume   317.74648095
_cell_formula_units_Z   1
loop_
 _symmetry_equiv_pos_site_id
 _symmetry_equiv_pos_as_xyz
  1  'x, y, z'
loop_
 _atom_site_type_symbol
 _atom_site_label
 _atom_site_symmetry_multiplicity
 _atom_site_fract_x
 _atom_site_fract_y
 _atom_site_fract_z
 _atom_site_occupancy
  Ca  Ca0  1  0.500000  0.333645  0.665088  1
  Sc  Sc1  1  0.500000  0.764651  0.888590  1
  Sc  Sc2  1  0.500000  0.121577  0.231574  1
  Sc  Sc3  1  0.500000  0.107296  0.876676  1
  Sc  Sc4  1  0.000000  0.663760  0.333679  1
  Ni  Ni5  1  0.000000  0.357013  0.415280  1
  Ni  Ni6  1  0.000000  0.061222  0.641764  1
  Ni  Ni7  1  0.000000  0.879269  0.163303  1
  Ni  Ni8  1  0.000000  0.285783  0.125323  1
  Ni  Ni9  1  0.000000  0.842348  0.714537  1
  Ni  Ni10  1  0.500000  0.943490  0.389104  1
  Ni  Ni11  1  0.500000  0.444029  0.061065  1
  Ni  Ni12  1  0.500000  0.615901  0.554899  1
  As  As13  1  0.500000  0.714944  0.141612  1
  As  As14  1  0.500000  0.422784  0.290767  1
  As  As15  1  0.500000  0.867223  0.577359  1
  As  As16  1  0.000000  0.000495  0.000010  1
  As  As17  1  0.000000  0.575527  0.674815  1
  As  As18  1  0.000000  0.107835  0.425510  1
  As  As19  1  0.000000  0.311104  0.891491  1
  Rh  Rh20  1  0.000000  0.580102  0.937555  1
