# generated using pymatgen
data_TaNb6Co8Si14W
_symmetry_space_group_name_H-M   'P 1'
_cell_length_a   9.21906224
_cell_length_b   9.21906223
_cell_length_c   9.21926416
_cell_angle_alpha   94.29884699
_cell_angle_beta   94.13785162
_cell_angle_gamma   148.52649674
_symmetry_Int_Tables_number   1
_chemical_formula_structural   TaNb6Co8Si14W
_chemical_formula_sum   'Ta1 Nb6 Co8 Si14 W1'
_cell_volume   393.76404406
_cell_formula_units_Z   1
loop_
 _symmetry_equiv_pos_site_id
 _symmetry_equiv_pos_as_xyz
  1  'x, y, z'
loop_
 _atom_site_type_symbol
 _atom_site_label
 _atom_site_symmetry_multiplicity
 _atom_site_fract_x
 _atom_site_fract_y
 _atom_site_fract_z
 _atom_site_occupancy
  Ta  Ta0  1  0.689880  0.499993  0.189873  1
  Nb  Nb1  1  0.500548  0.691410  0.191956  1
  Nb  Nb2  1  0.500568  0.308589  0.809157  1
  Nb  Nb3  1  0.133538  0.132987  0.266523  1
  Nb  Nb4  1  0.865888  0.866351  0.732240  1
  Nb  Nb5  1  0.133543  0.866996  0.000539  1
  Nb  Nb6  1  0.865870  0.133656  0.999527  1
  Co  Co7  1  0.399231  0.897476  0.797701  1
  Co  Co8  1  0.100692  0.600524  0.201298  1
  Co  Co9  1  0.900219  0.102533  0.501758  1
  Co  Co10  1  0.600780  0.399470  0.500169  1
  Co  Co11  1  0.600773  0.100604  0.201298  1
  Co  Co12  1  0.900226  0.398470  0.797701  1
  Co  Co13  1  0.100699  0.899390  0.500169  1
  Co  Co14  1  0.399224  0.601540  0.501758  1
  Si  Si15  1  0.292631  0.294015  0.586645  1
  Si  Si16  1  0.707566  0.708261  0.415826  1
  Si  Si17  1  0.292627  0.705979  0.998606  1
  Si  Si18  1  0.707565  0.291730  0.999295  1
  Si  Si19  1  0.094811  0.500004  0.594815  1
  Si  Si20  1  0.906124  0.500001  0.406125  1
  Si  Si21  1  0.500054  0.906142  0.406197  1
  Si  Si22  1  0.500057  0.093859  0.593916  1
  Si  Si23  1  0.248086  0.249612  0.998481  1
  Si  Si24  1  0.748869  0.750395  0.998481  1
  Si  Si25  1  0.296965  0.000002  0.296967  1
  Si  Si26  1  0.703195  0.000007  0.703202  1
  Si  Si27  1  0.000227  0.702756  0.702983  1
  Si  Si28  1  0.000221  0.297239  0.297460  1
  W  W29  1  0.309324  0.500008  0.809332  1
