# generated using pymatgen
data_RbTb5Er(CBr6)2
_symmetry_space_group_name_H-M   'P 1'
_cell_length_a   8.90956076
_cell_length_b   8.88776178
_cell_length_c   9.40676024
_cell_angle_alpha   72.34218740
_cell_angle_beta   71.01399027
_cell_angle_gamma   72.83285611
_symmetry_Int_Tables_number   1
_chemical_formula_structural   RbTb5Er(CBr6)2
_chemical_formula_sum   'Rb1 Tb5 Er1 C2 Br12'
_cell_volume   655.02472987
_cell_formula_units_Z   1
loop_
 _symmetry_equiv_pos_site_id
 _symmetry_equiv_pos_as_xyz
  1  'x, y, z'
loop_
 _atom_site_type_symbol
 _atom_site_label
 _atom_site_symmetry_multiplicity
 _atom_site_fract_x
 _atom_site_fract_y
 _atom_site_fract_z
 _atom_site_occupancy
  Rb  Rb0  1  0.999938  0.500037  0.000002  1
  Tb  Tb1  1  0.474319  0.116342  0.182269  1
  Tb  Tb2  1  0.777900  0.032825  0.406849  1
  Tb  Tb3  1  0.593400  0.724217  0.475123  1
  Tb  Tb4  1  0.406466  0.275701  0.524909  1
  Tb  Tb5  1  0.222160  0.967030  0.593718  1
  Er  Er6  1  0.525794  0.884052  0.815478  1
  C  C7  1  0.492906  0.026205  0.423199  1
  C  C8  1  0.507209  0.973093  0.578131  1
  Br  Br9  1  0.798253  0.159045  0.082096  1
  Br  Br10  1  0.583617  0.785454  0.137647  1
  Br  Br11  1  0.350822  0.433520  0.223752  1
  Br  Br12  1  0.135446  0.070164  0.295882  1
  Br  Br13  1  0.923493  0.721619  0.354011  1
  Br  Br14  1  0.714276  0.365542  0.431169  1
  Br  Br15  1  0.285470  0.634668  0.569301  1
  Br  Br16  1  0.076142  0.278296  0.645963  1
  Br  Br17  1  0.861712  0.929336  0.706170  1
  Br  Br18  1  0.647568  0.569884  0.777739  1
  Br  Br19  1  0.417168  0.211635  0.858916  1
  Br  Br20  1  0.205945  0.841334  0.917677  1
