# generated using pymatgen
data_LaTb5(Ir5Rh)3
_symmetry_space_group_name_H-M   'P 1'
_cell_length_a   5.33630600
_cell_length_b   5.33630415
_cell_length_c   17.50970200
_cell_angle_alpha   90.00000000
_cell_angle_beta   90.00000000
_cell_angle_gamma   119.99999907
_symmetry_Int_Tables_number   1
_chemical_formula_structural   LaTb5(Ir5Rh)3
_chemical_formula_sum   'La1 Tb5 Ir15 Rh3'
_cell_volume   431.80800668
_cell_formula_units_Z   1
loop_
 _symmetry_equiv_pos_site_id
 _symmetry_equiv_pos_as_xyz
  1  'x, y, z'
loop_
 _atom_site_type_symbol
 _atom_site_label
 _atom_site_symmetry_multiplicity
 _atom_site_fract_x
 _atom_site_fract_y
 _atom_site_fract_z
 _atom_site_occupancy
  La  La0  1  0.333333  0.666667  0.750000  1
  Tb  Tb1  1  0.333333  0.666667  0.541052  1
  Tb  Tb2  1  0.666667  0.333333  0.041163  1
  Tb  Tb3  1  0.666667  0.333333  0.458837  1
  Tb  Tb4  1  0.333333  0.666667  0.958948  1
  Tb  Tb5  1  0.666667  0.333333  0.250000  1
  Ir  Ir6  1  0.167525  0.335050  0.126123  1
  Ir  Ir7  1  0.832434  0.664869  0.625189  1
  Ir  Ir8  1  0.664950  0.832475  0.126123  1
  Ir  Ir9  1  0.167525  0.832475  0.126123  1
  Ir  Ir10  1  0.832434  0.167566  0.625189  1
  Ir  Ir11  1  0.335131  0.167566  0.625189  1
  Ir  Ir12  1  0.832434  0.664869  0.874811  1
  Ir  Ir13  1  0.832434  0.167566  0.874811  1
  Ir  Ir14  1  0.335131  0.167566  0.874811  1
  Ir  Ir15  1  0.664950  0.832475  0.373877  1
  Ir  Ir16  1  0.167525  0.832475  0.373877  1
  Ir  Ir17  1  0.167525  0.335050  0.373877  1
  Ir  Ir18  1  0.000000  0.000000  0.250000  1
  Ir  Ir19  1  0.000000  0.000000  0.000034  1
  Ir  Ir20  1  0.000000  0.000000  0.499966  1
  Rh  Rh21  1  0.000000  0.000000  0.750000  1
  Rh  Rh22  1  0.333333  0.666667  0.250000  1
  Rh  Rh23  1  0.666667  0.333333  0.750000  1
