# generated using pymatgen
data_NdTm2Cr(Co4P3)2
_symmetry_space_group_name_H-M   'P 1'
_cell_length_a   3.69430300
_cell_length_b   10.54150700
_cell_length_c   12.20839300
_cell_angle_alpha   90.00000000
_cell_angle_beta   90.00000000
_cell_angle_gamma   90.00000000
_symmetry_Int_Tables_number   1
_chemical_formula_structural   NdTm2Cr(Co4P3)2
_chemical_formula_sum   'Nd2 Tm4 Cr2 Co16 P12'
_cell_volume   475.43780837
_cell_formula_units_Z   2
loop_
 _symmetry_equiv_pos_site_id
 _symmetry_equiv_pos_as_xyz
  1  'x, y, z'
loop_
 _atom_site_type_symbol
 _atom_site_label
 _atom_site_symmetry_multiplicity
 _atom_site_fract_x
 _atom_site_fract_y
 _atom_site_fract_z
 _atom_site_occupancy
  Nd  Nd0  1  0.000000  0.500000  0.523353  1
  Nd  Nd1  1  0.500000  0.000000  0.476647  1
  Tm  Tm2  1  0.500000  0.818271  0.203151  1
  Tm  Tm3  1  0.500000  0.181729  0.203151  1
  Tm  Tm4  1  0.000000  0.681729  0.796849  1
  Tm  Tm5  1  0.000000  0.318271  0.796849  1
  Cr  Cr6  1  0.500000  0.500000  0.153600  1
  Cr  Cr7  1  0.000000  0.000000  0.846400  1
  Co  Co8  1  0.500000  0.500000  0.706182  1
  Co  Co9  1  0.000000  0.000000  0.293818  1
  Co  Co10  1  0.000000  0.500000  0.987218  1
  Co  Co11  1  0.500000  0.000000  0.012782  1
  Co  Co12  1  0.500000  0.332373  0.992492  1
  Co  Co13  1  0.500000  0.667627  0.992492  1
  Co  Co14  1  0.000000  0.167627  0.007508  1
  Co  Co15  1  0.000000  0.832373  0.007508  1
  Co  Co16  1  0.500000  0.295438  0.429084  1
  Co  Co17  1  0.500000  0.704562  0.429084  1
  Co  Co18  1  0.000000  0.204562  0.570916  1
  Co  Co19  1  0.000000  0.795438  0.570916  1
  Co  Co20  1  0.500000  0.879178  0.711816  1
  Co  Co21  1  0.500000  0.120822  0.711816  1
  Co  Co22  1  0.000000  0.620822  0.288184  1
  Co  Co23  1  0.000000  0.379178  0.288184  1
  P  P24  1  0.500000  0.500000  0.882774  1
  P  P25  1  0.000000  0.000000  0.117226  1
  P  P26  1  0.500000  0.500000  0.339664  1
  P  P27  1  0.000000  0.000000  0.660336  1
  P  P28  1  0.500000  0.308835  0.618869  1
  P  P29  1  0.500000  0.691165  0.618869  1
  P  P30  1  0.000000  0.191165  0.381131  1
  P  P31  1  0.000000  0.808835  0.381131  1
  P  P32  1  0.500000  0.846903  0.892442  1
  P  P33  1  0.500000  0.153097  0.892442  1
  P  P34  1  0.000000  0.653097  0.107558  1
  P  P35  1  0.000000  0.346903  0.107558  1
