# generated using pymatgen
data_Ce6Al24Ru5Rh3
_symmetry_space_group_name_H-M   'P 1'
_cell_length_a   8.90176000
_cell_length_b   8.89836071
_cell_length_c   9.53497521
_cell_angle_alpha   89.73464775
_cell_angle_beta   90.00000000
_cell_angle_gamma   120.01263027
_symmetry_Int_Tables_number   1
_chemical_formula_structural   Ce6Al24Ru5Rh3
_chemical_formula_sum   'Ce6 Al24 Ru5 Rh3'
_cell_volume   653.99524181
_cell_formula_units_Z   1
loop_
 _symmetry_equiv_pos_site_id
 _symmetry_equiv_pos_as_xyz
  1  'x, y, z'
loop_
 _atom_site_type_symbol
 _atom_site_label
 _atom_site_symmetry_multiplicity
 _atom_site_fract_x
 _atom_site_fract_y
 _atom_site_fract_z
 _atom_site_occupancy
  Ce  Ce0  1  0.808068  0.616136  0.747402  1
  Ce  Ce1  1  0.192136  0.807290  0.250894  1
  Ce  Ce2  1  0.615153  0.807290  0.250894  1
  Ce  Ce3  1  0.384847  0.192710  0.749106  1
  Ce  Ce4  1  0.807864  0.192710  0.749106  1
  Ce  Ce5  1  0.191932  0.383864  0.252598  1
  Al  Al6  1  0.332668  0.665337  0.479689  1
  Al  Al7  1  0.666185  0.332368  0.975577  1
  Al  Al8  1  0.667332  0.334663  0.520311  1
  Al  Al9  1  0.333815  0.667632  0.024423  1
  Al  Al10  1  0.162706  0.325413  0.578232  1
  Al  Al11  1  0.674987  0.836546  0.576961  1
  Al  Al12  1  0.161558  0.836546  0.576961  1
  Al  Al13  1  0.835866  0.161103  0.076772  1
  Al  Al14  1  0.838442  0.163454  0.423039  1
  Al  Al15  1  0.837417  0.674834  0.076215  1
  Al  Al16  1  0.325237  0.161103  0.076772  1
  Al  Al17  1  0.674763  0.838897  0.923228  1
  Al  Al18  1  0.162583  0.325166  0.923785  1
  Al  Al19  1  0.837294  0.674587  0.421768  1
  Al  Al20  1  0.999377  0.998753  0.250003  1
  Al  Al21  1  0.000623  0.001247  0.749997  1
  Al  Al22  1  0.562444  0.124888  0.248501  1
  Al  Al23  1  0.437634  0.563274  0.749692  1
  Al  Al24  1  0.125640  0.563274  0.749692  1
  Al  Al25  1  0.874360  0.436726  0.250308  1
  Al  Al26  1  0.562366  0.436726  0.250308  1
  Al  Al27  1  0.437556  0.875112  0.751499  1
  Al  Al28  1  0.164134  0.838897  0.923228  1
  Al  Al29  1  0.325013  0.163454  0.423039  1
  Ru  Ru30  1  0.000000  0.000000  0.500000  1
  Ru  Ru31  1  0.000000  0.000000  0.000000  1
  Ru  Ru32  1  0.000000  0.500000  0.500000  1
  Ru  Ru33  1  0.500000  0.500000  0.500000  1
  Ru  Ru34  1  0.500000  0.000000  0.000000  1
  Rh  Rh35  1  0.500000  0.000000  0.500000  1
  Rh  Rh36  1  0.500000  0.500000  0.000000  1
  Rh  Rh37  1  0.000000  0.500000  0.000000  1
