# generated using pymatgen
data_Sc4Tc4OsRu3
_symmetry_space_group_name_H-M   'P 1'
_cell_length_a   5.22154175
_cell_length_b   5.10261348
_cell_length_c   8.76874900
_cell_angle_alpha   90.00000000
_cell_angle_beta   90.00000000
_cell_angle_gamma   120.15111330
_symmetry_Int_Tables_number   1
_chemical_formula_structural   Sc4Tc4OsRu3
_chemical_formula_sum   'Sc4 Tc4 Os1 Ru3'
_cell_volume   202.02093373
_cell_formula_units_Z   1
loop_
 _symmetry_equiv_pos_site_id
 _symmetry_equiv_pos_as_xyz
  1  'x, y, z'
loop_
 _atom_site_type_symbol
 _atom_site_label
 _atom_site_symmetry_multiplicity
 _atom_site_fract_x
 _atom_site_fract_y
 _atom_site_fract_z
 _atom_site_occupancy
  Sc  Sc0  1  0.330717  0.663886  0.433535  1
  Sc  Sc1  1  0.669844  0.335826  0.565022  1
  Sc  Sc2  1  0.669844  0.335826  0.934978  1
  Sc  Sc3  1  0.330717  0.663886  0.066465  1
  Tc  Tc4  1  0.163462  0.341082  0.750000  1
  Tc  Tc5  1  0.165703  0.823772  0.750000  1
  Tc  Tc6  1  0.342876  0.172899  0.250000  1
  Tc  Tc7  1  0.824507  0.659165  0.250000  1
  Os  Os8  1  0.824802  0.170133  0.250000  1
  Ru  Ru9  1  0.648520  0.825265  0.750000  1
  Ru  Ru10  1  0.014503  0.004130  0.998744  1
  Ru  Ru11  1  0.014503  0.004130  0.501256  1
