# generated using pymatgen
data_Pr8Lu12Ga15Se
_symmetry_space_group_name_H-M   'P 1'
_cell_length_a   7.62350800
_cell_length_b   7.95173843
_cell_length_c   14.92483600
_cell_angle_alpha   90.00000000
_cell_angle_beta   90.00000000
_cell_angle_gamma   90.82355979
_symmetry_Int_Tables_number   1
_chemical_formula_structural   Pr8Lu12Ga15Se
_chemical_formula_sum   'Pr8 Lu12 Ga15 Se1'
_cell_volume   904.65220872
_cell_formula_units_Z   1
loop_
 _symmetry_equiv_pos_site_id
 _symmetry_equiv_pos_as_xyz
  1  'x, y, z'
loop_
 _atom_site_type_symbol
 _atom_site_label
 _atom_site_symmetry_multiplicity
 _atom_site_fract_x
 _atom_site_fract_y
 _atom_site_fract_z
 _atom_site_occupancy
  Pr  Pr0  1  0.016373  0.179723  0.407074  1
  Pr  Pr1  1  0.515806  0.319793  0.405694  1
  Pr  Pr2  1  0.489379  0.674622  0.905081  1
  Pr  Pr3  1  0.489379  0.674622  0.594919  1
  Pr  Pr4  1  0.985180  0.823123  0.598461  1
  Pr  Pr5  1  0.985180  0.823123  0.901539  1
  Pr  Pr6  1  0.515806  0.319793  0.094306  1
  Pr  Pr7  1  0.016373  0.179723  0.092926  1
  Lu  Lu8  1  0.324199  0.172800  0.624586  1
  Lu  Lu9  1  0.671339  0.825948  0.376262  1
  Lu  Lu10  1  0.671833  0.997695  0.750000  1
  Lu  Lu11  1  0.173328  0.673318  0.376717  1
  Lu  Lu12  1  0.817419  0.330873  0.877897  1
  Lu  Lu13  1  0.817419  0.330873  0.622103  1
  Lu  Lu14  1  0.837548  0.494846  0.250000  1
  Lu  Lu15  1  0.337430  0.008911  0.250000  1
  Lu  Lu16  1  0.324199  0.172800  0.875414  1
  Lu  Lu17  1  0.173328  0.673318  0.123283  1
  Lu  Lu18  1  0.671339  0.825948  0.123738  1
  Lu  Lu19  1  0.156705  0.490667  0.750000  1
  Ga  Ga20  1  0.469715  0.612208  0.250000  1
  Ga  Ga21  1  0.019513  0.135811  0.750000  1
  Ga  Ga22  1  0.525576  0.385533  0.750000  1
  Ga  Ga23  1  0.155277  0.470318  0.542436  1
  Ga  Ga24  1  0.968946  0.885009  0.250000  1
  Ga  Ga25  1  0.723052  0.122512  0.250000  1
  Ga  Ga26  1  0.844346  0.537143  0.040067  1
  Ga  Ga27  1  0.343440  0.965071  0.038463  1
  Ga  Ga28  1  0.155277  0.470318  0.957564  1
  Ga  Ga29  1  0.653691  0.030287  0.542440  1
  Ga  Ga30  1  0.343440  0.965071  0.461537  1
  Ga  Ga31  1  0.844346  0.537143  0.459933  1
  Ga  Ga32  1  0.786075  0.626137  0.750000  1
  Ga  Ga33  1  0.220080  0.376923  0.250000  1
  Ga  Ga34  1  0.653691  0.030287  0.957560  1
  Se  Se35  1  0.303969  0.857710  0.750000  1
