# generated using pymatgen
data_NaV(Se2O5)2
_symmetry_space_group_name_H-M   'P 1'
_cell_length_a   6.32681900
_cell_length_b   6.82249300
_cell_length_c   10.60188100
_cell_angle_alpha   90.00000000
_cell_angle_beta   90.00000000
_cell_angle_gamma   90.00000000
_symmetry_Int_Tables_number   1
_chemical_formula_structural   NaV(Se2O5)2
_chemical_formula_sum   'Na2 V2 Se8 O20'
_cell_volume   457.62678316
_cell_formula_units_Z   2
loop_
 _symmetry_equiv_pos_site_id
 _symmetry_equiv_pos_as_xyz
  1  'x, y, z'
loop_
 _atom_site_type_symbol
 _atom_site_label
 _atom_site_symmetry_multiplicity
 _atom_site_fract_x
 _atom_site_fract_y
 _atom_site_fract_z
 _atom_site_occupancy
  Na  Na0  1  0.500000  0.500000  0.290111  1
  Na  Na1  1  0.500000  0.000000  0.790111  1
  V  V2  1  0.000000  0.500000  0.404652  1
  V  V3  1  0.000000  0.000000  0.904652  1
  Se  Se4  1  0.713544  0.371537  0.004178  1
  Se  Se5  1  0.286455  0.628462  0.004178  1
  Se  Se6  1  0.212402  0.136556  0.189923  1
  Se  Se7  1  0.787599  0.863443  0.189923  1
  Se  Se8  1  0.713544  0.128463  0.504178  1
  Se  Se9  1  0.286455  0.871537  0.504178  1
  Se  Se10  1  0.212402  0.363444  0.689923  1
  Se  Se11  1  0.787599  0.636555  0.689923  1
  O  O12  1  0.099651  0.184911  0.045224  1
  O  O13  1  0.900349  0.815089  0.045224  1
  O  O14  1  0.576558  0.278508  0.125172  1
  O  O15  1  0.423442  0.721491  0.125172  1
  O  O16  1  0.170186  0.353168  0.266088  1
  O  O17  1  0.829814  0.646831  0.266088  1
  O  O18  1  0.000000  0.000000  0.270237  1
  O  O19  1  0.738706  0.324928  0.403217  1
  O  O20  1  0.261294  0.675073  0.403217  1
  O  O21  1  0.500000  0.000000  0.410716  1
  O  O22  1  0.099651  0.315089  0.545224  1
  O  O23  1  0.900349  0.684910  0.545224  1
  O  O24  1  0.576558  0.221491  0.625173  1
  O  O25  1  0.423442  0.778508  0.625173  1
  O  O26  1  0.170186  0.146832  0.766087  1
  O  O27  1  0.829814  0.853167  0.766087  1
  O  O28  1  0.000000  0.500000  0.770237  1
  O  O29  1  0.738706  0.175072  0.903217  1
  O  O30  1  0.261294  0.824927  0.903217  1
  O  O31  1  0.500000  0.500000  0.910716  1
