# generated using pymatgen
data_Tb3Y4Th7Rh6
_symmetry_space_group_name_H-M   'P 1'
_cell_length_a   9.97584400
_cell_length_b   9.83339687
_cell_length_c   6.37021517
_cell_angle_alpha   90.20179197
_cell_angle_beta   90.00000000
_cell_angle_gamma   120.48036981
_symmetry_Int_Tables_number   1
_chemical_formula_structural   Tb3Y4Th7Rh6
_chemical_formula_sum   'Tb3 Y4 Th7 Rh6'
_cell_volume   538.53222121
_cell_formula_units_Z   1
loop_
 _symmetry_equiv_pos_site_id
 _symmetry_equiv_pos_as_xyz
  1  'x, y, z'
loop_
 _atom_site_type_symbol
 _atom_site_label
 _atom_site_symmetry_multiplicity
 _atom_site_fract_x
 _atom_site_fract_y
 _atom_site_fract_z
 _atom_site_occupancy
  Tb  Tb0  1  0.462754  0.539056  0.942567  1
  Tb  Tb1  1  0.076302  0.539056  0.942567  1
  Tb  Tb2  1  0.462994  0.925987  0.944521  1
  Y  Y3  1  0.873195  0.746391  0.742334  1
  Y  Y4  1  0.539165  0.462249  0.446468  1
  Y  Y5  1  0.923084  0.462249  0.446468  1
  Y  Y6  1  0.539168  0.078335  0.447815  1
  Th  Th7  1  0.333553  0.667106  0.463962  1
  Th  Th8  1  0.666885  0.333768  0.964328  1
  Th  Th9  1  0.125505  0.870866  0.243658  1
  Th  Th10  1  0.745361  0.870866  0.243658  1
  Th  Th11  1  0.126804  0.253608  0.241368  1
  Th  Th12  1  0.869954  0.124428  0.741449  1
  Th  Th13  1  0.254474  0.124428  0.741449  1
  Rh  Rh14  1  0.813931  0.184385  0.188743  1
  Rh  Rh15  1  0.370454  0.184385  0.188743  1
  Rh  Rh16  1  0.814291  0.628581  0.195383  1
  Rh  Rh17  1  0.194189  0.817083  0.684986  1
  Rh  Rh18  1  0.622893  0.817083  0.684986  1
  Rh  Rh19  1  0.185045  0.370090  0.691112  1
