# generated using pymatgen
data_Sc22FeOsRu6
_symmetry_space_group_name_H-M   'P 1'
_cell_length_a   9.44834722
_cell_length_b   9.34610034
_cell_length_c   9.44834753
_cell_angle_alpha   60.35733678
_cell_angle_beta   60.57427378
_cell_angle_gamma   60.35733506
_symmetry_Int_Tables_number   1
_chemical_formula_structural   Sc22FeOsRu6
_chemical_formula_sum   'Sc22 Fe1 Os1 Ru6'
_cell_volume   595.69179649
_cell_formula_units_Z   1
loop_
 _symmetry_equiv_pos_site_id
 _symmetry_equiv_pos_as_xyz
  1  'x, y, z'
loop_
 _atom_site_type_symbol
 _atom_site_label
 _atom_site_symmetry_multiplicity
 _atom_site_fract_x
 _atom_site_fract_y
 _atom_site_fract_z
 _atom_site_occupancy
  Sc  Sc0  1  0.843006  0.841576  0.843006  1
  Sc  Sc1  1  0.528829  0.157966  0.155240  1
  Sc  Sc2  1  0.155240  0.157966  0.528829  1
  Sc  Sc3  1  0.156994  0.527587  0.156994  1
  Sc  Sc4  1  0.844760  0.842034  0.471171  1
  Sc  Sc5  1  0.843006  0.472413  0.843006  1
  Sc  Sc6  1  0.471171  0.842034  0.844760  1
  Sc  Sc7  1  0.156994  0.158424  0.156994  1
  Sc  Sc8  1  0.198355  0.801645  0.198355  1
  Sc  Sc9  1  0.199680  0.802557  0.800320  1
  Sc  Sc10  1  0.800320  0.197443  0.199680  1
  Sc  Sc11  1  0.800320  0.802557  0.199680  1
  Sc  Sc12  1  0.199680  0.197443  0.800320  1
  Sc  Sc13  1  0.801645  0.198355  0.801645  1
  Sc  Sc14  1  0.386264  0.382238  0.386264  1
  Sc  Sc15  1  0.157062  0.614624  0.613692  1
  Sc  Sc16  1  0.613736  0.154768  0.613736  1
  Sc  Sc17  1  0.613692  0.614624  0.157062  1
  Sc  Sc18  1  0.386264  0.845232  0.386264  1
  Sc  Sc19  1  0.386308  0.385376  0.842938  1
  Sc  Sc20  1  0.842938  0.385376  0.386308  1
  Sc  Sc21  1  0.613736  0.617762  0.613736  1
  Fe  Fe22  1  0.500000  0.500000  0.500000  1
  Os  Os23  1  0.500000  0.000000  0.500000  1
  Ru  Ru24  1  0.500000  0.500000  0.000000  1
  Ru  Ru25  1  0.000000  0.000000  0.500000  1
  Ru  Ru26  1  0.000000  0.500000  0.500000  1
  Ru  Ru27  1  0.500000  0.000000  0.000000  1
  Ru  Ru28  1  0.000000  0.500000  0.000000  1
  Ru  Ru29  1  0.000000  0.000000  0.000000  1
