# generated using pymatgen
data_K8HfSb4
_symmetry_space_group_name_H-M   'P 1'
_cell_length_a   11.60677028
_cell_length_b   11.60677001
_cell_length_c   11.60677000
_cell_angle_alpha   60.00000004
_cell_angle_beta   60.00000080
_cell_angle_gamma   59.99999977
_symmetry_Int_Tables_number   1
_chemical_formula_structural   K8HfSb4
_chemical_formula_sum   'K16 Hf2 Sb8'
_cell_volume   1105.65376936
_cell_formula_units_Z   2
loop_
 _symmetry_equiv_pos_site_id
 _symmetry_equiv_pos_as_xyz
  1  'x, y, z'
loop_
 _atom_site_type_symbol
 _atom_site_label
 _atom_site_symmetry_multiplicity
 _atom_site_fract_x
 _atom_site_fract_y
 _atom_site_fract_z
 _atom_site_occupancy
  K  K0  1  0.624928  0.125216  0.624928  1
  K  K1  1  0.624928  0.624928  0.125216  1
  K  K2  1  0.125216  0.624928  0.624928  1
  K  K3  1  0.624928  0.624928  0.624928  1
  K  K4  1  0.025890  0.025890  0.474110  1
  K  K5  1  0.777366  0.222634  0.222634  1
  K  K6  1  0.222634  0.777366  0.777366  1
  K  K7  1  0.777366  0.777366  0.222634  1
  K  K8  1  0.777366  0.222634  0.777366  1
  K  K9  1  0.222634  0.777366  0.222634  1
  K  K10  1  0.474110  0.025890  0.474110  1
  K  K11  1  0.474110  0.025890  0.025890  1
  K  K12  1  0.025890  0.474110  0.474110  1
  K  K13  1  0.025890  0.474110  0.025890  1
  K  K14  1  0.222634  0.222634  0.777366  1
  K  K15  1  0.474110  0.474110  0.025890  1
  Hf  Hf16  1  0.750000  0.750000  0.750000  1
  Hf  Hf17  1  0.500000  0.500000  0.500000  1
  Sb  Sb18  1  0.398962  0.803113  0.398962  1
  Sb  Sb19  1  0.850854  0.850854  0.447438  1
  Sb  Sb20  1  0.447438  0.850854  0.850854  1
  Sb  Sb21  1  0.850854  0.850854  0.850854  1
  Sb  Sb22  1  0.803113  0.398962  0.398962  1
  Sb  Sb23  1  0.398962  0.398962  0.398962  1
  Sb  Sb24  1  0.398962  0.398962  0.803113  1
  Sb  Sb25  1  0.850854  0.447438  0.850854  1
