# generated using pymatgen
data_ErTmTh(SnIr)3
_symmetry_space_group_name_H-M   'P 1'
_cell_length_a   7.44854301
_cell_length_b   7.51703746
_cell_length_c   4.04343500
_cell_angle_alpha   90.00000000
_cell_angle_beta   90.00000000
_cell_angle_gamma   120.32377771
_symmetry_Int_Tables_number   1
_chemical_formula_structural   ErTmTh(SnIr)3
_chemical_formula_sum   'Er1 Tm1 Th1 Sn3 Ir3'
_cell_volume   195.42177237
_cell_formula_units_Z   1
loop_
 _symmetry_equiv_pos_site_id
 _symmetry_equiv_pos_as_xyz
  1  'x, y, z'
loop_
 _atom_site_type_symbol
 _atom_site_label
 _atom_site_symmetry_multiplicity
 _atom_site_fract_x
 _atom_site_fract_y
 _atom_site_fract_z
 _atom_site_occupancy
  Er  Er0  1  0.595122  0.595106  0.500000  1
  Tm  Tm1  1  0.404428  0.999922  0.500000  1
  Th  Th2  1  0.999954  0.412381  0.500000  1
  Sn  Sn3  1  0.000252  0.753535  0.000000  1
  Sn  Sn4  1  0.267087  0.255771  0.000000  1
  Sn  Sn5  1  0.732946  0.988896  0.000000  1
  Ir  Ir6  1  0.323398  0.657490  0.000000  1
  Ir  Ir7  1  0.676169  0.332683  0.000000  1
  Ir  Ir8  1  0.000644  0.004217  0.500000  1
