# generated using pymatgen
data_Dy7Y3(Pb3Se)2
_symmetry_space_group_name_H-M   'P 1'
_cell_length_a   9.15082700
_cell_length_b   9.15082719
_cell_length_c   6.80486900
_cell_angle_alpha   90.00000000
_cell_angle_beta   90.00000000
_cell_angle_gamma   120.00001016
_symmetry_Int_Tables_number   1
_chemical_formula_structural   Dy7Y3(Pb3Se)2
_chemical_formula_sum   'Dy7 Y3 Pb6 Se2'
_cell_volume   493.48170332
_cell_formula_units_Z   1
loop_
 _symmetry_equiv_pos_site_id
 _symmetry_equiv_pos_as_xyz
  1  'x, y, z'
loop_
 _atom_site_type_symbol
 _atom_site_label
 _atom_site_symmetry_multiplicity
 _atom_site_fract_x
 _atom_site_fract_y
 _atom_site_fract_z
 _atom_site_occupancy
  Dy  Dy0  1  0.749798  0.749350  0.749945  1
  Dy  Dy1  1  0.250650  0.000447  0.749945  1
  Dy  Dy2  1  0.999553  0.250202  0.749945  1
  Dy  Dy3  1  0.250650  0.250202  0.250055  1
  Dy  Dy4  1  0.749798  0.000447  0.250055  1
  Dy  Dy5  1  0.999553  0.749350  0.250055  1
  Dy  Dy6  1  0.666667  0.333333  0.500000  1
  Y  Y7  1  0.666667  0.333333  0.000000  1
  Y  Y8  1  0.333333  0.666667  0.000000  1
  Y  Y9  1  0.333333  0.666667  0.500000  1
  Pb  Pb10  1  0.397277  0.397320  0.749923  1
  Pb  Pb11  1  0.602680  0.999957  0.749923  1
  Pb  Pb12  1  0.000043  0.602723  0.749923  1
  Pb  Pb13  1  0.602680  0.602723  0.250077  1
  Pb  Pb14  1  0.397277  0.999957  0.250077  1
  Pb  Pb15  1  0.000043  0.397320  0.250077  1
  Se  Se16  1  0.000000  0.000000  0.000000  1
  Se  Se17  1  0.000000  0.000000  0.500000  1
