# generated using pymatgen
data_Ca6Ru2N7
_symmetry_space_group_name_H-M   'P 1'
_cell_length_a   6.12029872
_cell_length_b   6.12029882
_cell_length_c   6.12029683
_cell_angle_alpha   95.27382370
_cell_angle_beta   95.27381754
_cell_angle_gamma   95.27382406
_symmetry_Int_Tables_number   1
_chemical_formula_structural   Ca6Ru2N7
_chemical_formula_sum   'Ca6 Ru2 N7'
_cell_volume   226.15010440
_cell_formula_units_Z   1
loop_
 _symmetry_equiv_pos_site_id
 _symmetry_equiv_pos_as_xyz
  1  'x, y, z'
loop_
 _atom_site_type_symbol
 _atom_site_label
 _atom_site_symmetry_multiplicity
 _atom_site_fract_x
 _atom_site_fract_y
 _atom_site_fract_z
 _atom_site_occupancy
  Ca  Ca0  1  0.661100  0.105016  0.807324  1
  Ca  Ca1  1  0.105016  0.807324  0.661100  1
  Ca  Ca2  1  0.807324  0.661100  0.105016  1
  Ca  Ca3  1  0.338900  0.894984  0.192676  1
  Ca  Ca4  1  0.894984  0.192676  0.338900  1
  Ca  Ca5  1  0.192676  0.338900  0.894984  1
  Ru  Ru6  1  0.622429  0.622429  0.622429  1
  Ru  Ru7  1  0.377571  0.377571  0.377571  1
  N  N8  1  0.000000  0.000000  0.000000  1
  N  N9  1  0.722284  0.851713  0.462200  1
  N  N10  1  0.851713  0.462200  0.722284  1
  N  N11  1  0.462200  0.722284  0.851713  1
  N  N12  1  0.277716  0.148287  0.537800  1
  N  N13  1  0.148287  0.537800  0.277716  1
  N  N14  1  0.537800  0.277716  0.148287  1
