# generated using pymatgen
data_PaMn2PC
_symmetry_space_group_name_H-M   'P 1'
_cell_length_a   5.57544840
_cell_length_b   5.57544850
_cell_length_c   6.72342400
_cell_angle_alpha   90.00000000
_cell_angle_beta   90.00000000
_cell_angle_gamma   141.06617577
_symmetry_Int_Tables_number   1
_chemical_formula_structural   PaMn2PC
_chemical_formula_sum   'Pa2 Mn4 P2 C2'
_cell_volume   131.34143360
_cell_formula_units_Z   2
loop_
 _symmetry_equiv_pos_site_id
 _symmetry_equiv_pos_as_xyz
  1  'x, y, z'
loop_
 _atom_site_type_symbol
 _atom_site_label
 _atom_site_symmetry_multiplicity
 _atom_site_fract_x
 _atom_site_fract_y
 _atom_site_fract_z
 _atom_site_occupancy
  Pa  Pa0  1  0.550778  0.449222  0.250000  1
  Pa  Pa1  1  0.449222  0.550778  0.750000  1
  Mn  Mn2  1  0.829202  0.170798  0.060416  1
  Mn  Mn3  1  0.170798  0.829202  0.939584  1
  Mn  Mn4  1  0.170798  0.829202  0.560416  1
  Mn  Mn5  1  0.829202  0.170798  0.439584  1
  P  P6  1  0.271653  0.728347  0.250000  1
  P  P7  1  0.728347  0.271653  0.750000  1
  C  C8  1  0.000000  0.000000  0.000000  1
  C  C9  1  0.000000  0.000000  0.500000  1
