# generated using pymatgen
data_Tb5Y7(TcPd)2
_symmetry_space_group_name_H-M   'P 1'
_cell_length_a   6.41543775
_cell_length_b   7.40296151
_cell_length_c   9.30651324
_cell_angle_alpha   90.04069038
_cell_angle_beta   90.18193198
_cell_angle_gamma   90.03970179
_symmetry_Int_Tables_number   1
_chemical_formula_structural   Tb5Y7(TcPd)2
_chemical_formula_sum   'Tb5 Y7 Tc2 Pd2'
_cell_volume   441.99400880
_cell_formula_units_Z   1
loop_
 _symmetry_equiv_pos_site_id
 _symmetry_equiv_pos_as_xyz
  1  'x, y, z'
loop_
 _atom_site_type_symbol
 _atom_site_label
 _atom_site_symmetry_multiplicity
 _atom_site_fract_x
 _atom_site_fract_y
 _atom_site_fract_z
 _atom_site_occupancy
  Tb  Tb0  1  0.629480  0.040327  0.249760  1
  Tb  Tb1  1  0.370168  0.959398  0.750056  1
  Tb  Tb2  1  0.177172  0.185827  0.064264  1
  Tb  Tb3  1  0.822612  0.814424  0.935771  1
  Tb  Tb4  1  0.661651  0.326186  0.939892  1
  Y  Y5  1  0.123990  0.470424  0.749996  1
  Y  Y6  1  0.875987  0.530084  0.249923  1
  Y  Y7  1  0.823379  0.814434  0.564337  1
  Y  Y8  1  0.338657  0.674234  0.059930  1
  Y  Y9  1  0.176706  0.185688  0.435621  1
  Y  Y10  1  0.337989  0.673438  0.440518  1
  Y  Y11  1  0.662201  0.326479  0.559189  1
  Tc  Tc12  1  0.465625  0.380429  0.249491  1
  Tc  Tc13  1  0.534897  0.618344  0.751127  1
  Pd  Pd14  1  0.947986  0.112610  0.750361  1
  Pd  Pd15  1  0.051501  0.887674  0.249764  1
