# generated using pymatgen
data_ScPa2Co6Sn
_symmetry_space_group_name_H-M   'P 1'
_cell_length_a   5.22663700
_cell_length_b   7.21247800
_cell_length_c   8.21724300
_cell_angle_alpha   90.00000000
_cell_angle_beta   90.00000000
_cell_angle_gamma   90.00000000
_symmetry_Int_Tables_number   1
_chemical_formula_structural   ScPa2Co6Sn
_chemical_formula_sum   'Sc2 Pa4 Co12 Sn2'
_cell_volume   309.76544533
_cell_formula_units_Z   2
loop_
 _symmetry_equiv_pos_site_id
 _symmetry_equiv_pos_as_xyz
  1  'x, y, z'
loop_
 _atom_site_type_symbol
 _atom_site_label
 _atom_site_symmetry_multiplicity
 _atom_site_fract_x
 _atom_site_fract_y
 _atom_site_fract_z
 _atom_site_occupancy
  Sc  Sc0  1  0.750000  0.939891  0.405323  1
  Sc  Sc1  1  0.750000  0.439891  0.094677  1
  Pa  Pa2  1  0.750000  0.893891  0.847686  1
  Pa  Pa3  1  0.750000  0.393891  0.652314  1
  Pa  Pa4  1  0.250000  0.115273  0.150257  1
  Pa  Pa5  1  0.250000  0.615273  0.349743  1
  Co  Co6  1  0.750000  0.577338  0.386628  1
  Co  Co7  1  0.750000  0.077338  0.113372  1
  Co  Co8  1  0.250000  0.415644  0.620787  1
  Co  Co9  1  0.250000  0.915644  0.879213  1
  Co  Co10  1  0.999184  0.271747  0.368425  1
  Co  Co11  1  0.500816  0.771747  0.131575  1
  Co  Co12  1  0.494458  0.729305  0.632508  1
  Co  Co13  1  0.005542  0.229305  0.867492  1
  Co  Co14  1  0.005542  0.729305  0.632508  1
  Co  Co15  1  0.494458  0.229305  0.867492  1
  Co  Co16  1  0.500816  0.271747  0.368425  1
  Co  Co17  1  0.999184  0.771747  0.131575  1
  Sn  Sn18  1  0.250000  0.055859  0.587306  1
  Sn  Sn19  1  0.250000  0.555859  0.912694  1
