# generated using pymatgen
data_Y3ErAl4(CoO5)4
_symmetry_space_group_name_H-M   'P 1'
_cell_length_a   5.64197800
_cell_length_b   7.21759681
_cell_length_c   8.32580593
_cell_angle_alpha   89.94591159
_cell_angle_beta   90.00000000
_cell_angle_gamma   90.00000000
_symmetry_Int_Tables_number   1
_chemical_formula_structural   Y3ErAl4(CoO5)4
_chemical_formula_sum   'Y3 Er1 Al4 Co4 O20'
_cell_volume   339.03934134
_cell_formula_units_Z   1
loop_
 _symmetry_equiv_pos_site_id
 _symmetry_equiv_pos_as_xyz
  1  'x, y, z'
loop_
 _atom_site_type_symbol
 _atom_site_label
 _atom_site_symmetry_multiplicity
 _atom_site_fract_x
 _atom_site_fract_y
 _atom_site_fract_z
 _atom_site_occupancy
  Y  Y0  1  0.500000  0.634857  0.669187  1
  Y  Y1  1  0.500000  0.135601  0.830354  1
  Y  Y2  1  0.500000  0.864613  0.169600  1
  Er  Er3  1  0.500000  0.364417  0.330481  1
  Al  Al4  1  0.000000  0.109298  0.143378  1
  Al  Al5  1  0.000000  0.891185  0.857322  1
  Al  Al6  1  0.000000  0.390924  0.642445  1
  Al  Al7  1  0.000000  0.607722  0.356875  1
  Co  Co8  1  0.245724  0.000737  0.499617  1
  Co  Co9  1  0.754276  0.000737  0.499617  1
  Co  Co10  1  0.754208  0.499690  0.000408  1
  Co  Co11  1  0.245792  0.499690  0.000408  1
  O  O12  1  0.500000  0.340050  0.056517  1
  O  O13  1  0.500000  0.659141  0.945357  1
  O  O14  1  0.500000  0.161115  0.553996  1
  O  O15  1  0.500000  0.841459  0.445090  1
  O  O16  1  0.219943  0.999904  0.000517  1
  O  O17  1  0.780057  0.999904  0.000517  1
  O  O18  1  0.778895  0.498112  0.498845  1
  O  O19  1  0.221105  0.498112  0.498845  1
  O  O20  1  0.250222  0.106940  0.291926  1
  O  O21  1  0.750472  0.896231  0.708432  1
  O  O22  1  0.249528  0.896231  0.708432  1
  O  O23  1  0.750709  0.396215  0.791467  1
  O  O24  1  0.749778  0.106940  0.291926  1
  O  O25  1  0.250677  0.602164  0.209062  1
  O  O26  1  0.749323  0.602164  0.209062  1
  O  O27  1  0.249291  0.396215  0.791467  1
  O  O28  1  0.000000  0.345910  0.069941  1
  O  O29  1  0.000000  0.654225  0.930235  1
  O  O30  1  0.000000  0.153721  0.570280  1
  O  O31  1  0.000000  0.845773  0.428391  1
