# generated using pymatgen
data_Y5HoAl18(Si3Os4)2
_symmetry_space_group_name_H-M   'P 1'
_cell_length_a   8.70967600
_cell_length_b   8.68598999
_cell_length_c   9.55247300
_cell_angle_alpha   90.00018222
_cell_angle_beta   89.99994969
_cell_angle_gamma   120.08966776
_symmetry_Int_Tables_number   1
_chemical_formula_structural   Y5HoAl18(Si3Os4)2
_chemical_formula_sum   'Y5 Ho1 Al18 Si6 Os8'
_cell_volume   625.28017226
_cell_formula_units_Z   1
loop_
 _symmetry_equiv_pos_site_id
 _symmetry_equiv_pos_as_xyz
  1  'x, y, z'
loop_
 _atom_site_type_symbol
 _atom_site_label
 _atom_site_symmetry_multiplicity
 _atom_site_fract_x
 _atom_site_fract_y
 _atom_site_fract_z
 _atom_site_occupancy
  Y  Y0  1  0.193108  0.386210  0.250001  1
  Y  Y1  1  0.806908  0.613685  0.750000  1
  Y  Y2  1  0.610589  0.807852  0.250000  1
  Y  Y3  1  0.389499  0.192114  0.749999  1
  Y  Y4  1  0.197272  0.807851  0.250001  1
  Ho  Ho5  1  0.802372  0.192348  0.749998  1
  Al  Al6  1  0.164870  0.329921  0.578554  1
  Al  Al7  1  0.835002  0.670026  0.421548  1
  Al  Al8  1  0.670428  0.834598  0.576912  1
  Al  Al9  1  0.835002  0.670025  0.078452  1
  Al  Al10  1  0.329634  0.165544  0.423190  1
  Al  Al11  1  0.164870  0.329920  0.921446  1
  Al  Al12  1  0.164104  0.834463  0.576833  1
  Al  Al13  1  0.329634  0.165544  0.076811  1
  Al  Al14  1  0.835890  0.165539  0.423328  1
  Al  Al15  1  0.670429  0.834599  0.923088  1
  Al  Al16  1  0.835890  0.165539  0.076672  1
  Al  Al17  1  0.164105  0.834462  0.923166  1
  Al  Al18  1  0.872564  0.433181  0.250001  1
  Al  Al19  1  0.127297  0.566630  0.750000  1
  Al  Al20  1  0.560615  0.433170  0.250000  1
  Al  Al21  1  0.439365  0.566840  0.749999  1
  Al  Al22  1  0.999484  0.998967  0.250001  1
  Al  Al23  1  0.000329  0.001210  0.749999  1
  Si  Si24  1  0.332003  0.663979  0.038904  1
  Si  Si25  1  0.668128  0.335870  0.960870  1
  Si  Si26  1  0.668128  0.335870  0.539129  1
  Si  Si27  1  0.332003  0.663978  0.461096  1
  Si  Si28  1  0.563530  0.127078  0.250000  1
  Si  Si29  1  0.436743  0.873125  0.750000  1
  Os  Os30  1  0.500172  0.000117  0.999861  1
  Os  Os31  1  0.999891  0.499834  0.999852  1
  Os  Os32  1  0.500172  0.000118  0.500140  1
  Os  Os33  1  0.500028  0.499987  0.999997  1
  Os  Os34  1  0.999893  0.499837  0.500145  1
  Os  Os35  1  0.500027  0.499987  0.500004  1
  Os  Os36  1  0.000011  0.999993  0.000021  1
  Os  Os37  1  0.000011  0.999992  0.499979  1
