# generated using pymatgen
data_Nd2YLu3CoI10
_symmetry_space_group_name_H-M   'P 1'
_cell_length_a   7.70924841
_cell_length_b   9.66473150
_cell_length_c   9.70876008
_cell_angle_alpha   106.83730453
_cell_angle_beta   96.21747827
_cell_angle_gamma   105.21234226
_symmetry_Int_Tables_number   1
_chemical_formula_structural   Nd2YLu3CoI10
_chemical_formula_sum   'Nd2 Y1 Lu3 Co1 I10'
_cell_volume   654.66965682
_cell_formula_units_Z   1
loop_
 _symmetry_equiv_pos_site_id
 _symmetry_equiv_pos_as_xyz
  1  'x, y, z'
loop_
 _atom_site_type_symbol
 _atom_site_label
 _atom_site_symmetry_multiplicity
 _atom_site_fract_x
 _atom_site_fract_y
 _atom_site_fract_z
 _atom_site_occupancy
  Nd  Nd0  1  0.884741  0.956728  0.230236  1
  Nd  Nd1  1  0.111379  0.041486  0.768050  1
  Y  Y2  1  0.344450  0.123155  0.162042  1
  Lu  Lu3  1  0.027130  0.722629  0.916160  1
  Lu  Lu4  1  0.971202  0.276843  0.082691  1
  Lu  Lu5  1  0.663923  0.879119  0.841076  1
  Co  Co6  1  0.999075  0.999546  0.999669  1
  I  I7  1  0.651770  0.553334  0.730469  1
  I  I8  1  0.345321  0.450568  0.269635  1
  I  I9  1  0.729535  0.909097  0.542263  1
  I  I10  1  0.266364  0.089327  0.459546  1
  I  I11  1  0.082515  0.379983  0.826014  1
  I  I12  1  0.917107  0.619938  0.173600  1
  I  I13  1  0.446362  0.812504  0.087018  1
  I  I14  1  0.553533  0.183486  0.908442  1
  I  I15  1  0.227265  0.737807  0.660623  1
  I  I16  1  0.778330  0.264449  0.342468  1
