# generated using pymatgen
data_ScFe2PC
_symmetry_space_group_name_H-M   'P 1'
_cell_length_a   5.43751539
_cell_length_b   5.43751589
_cell_length_c   6.52731100
_cell_angle_alpha   90.00000000
_cell_angle_beta   90.00000000
_cell_angle_gamma   142.36216220
_symmetry_Int_Tables_number   1
_chemical_formula_structural   ScFe2PC
_chemical_formula_sum   'Sc2 Fe4 P2 C2'
_cell_volume   117.85301230
_cell_formula_units_Z   2
loop_
 _symmetry_equiv_pos_site_id
 _symmetry_equiv_pos_as_xyz
  1  'x, y, z'
loop_
 _atom_site_type_symbol
 _atom_site_label
 _atom_site_symmetry_multiplicity
 _atom_site_fract_x
 _atom_site_fract_y
 _atom_site_fract_z
 _atom_site_occupancy
  Sc  Sc0  1  0.543423  0.456577  0.250000  1
  Sc  Sc1  1  0.456577  0.543423  0.750000  1
  Fe  Fe2  1  0.833731  0.166269  0.055492  1
  Fe  Fe3  1  0.166269  0.833731  0.944508  1
  Fe  Fe4  1  0.166269  0.833731  0.555492  1
  Fe  Fe5  1  0.833731  0.166269  0.444508  1
  P  P6  1  0.267219  0.732781  0.250000  1
  P  P7  1  0.732781  0.267219  0.750000  1
  C  C8  1  0.000000  0.000000  0.000000  1
  C  C9  1  0.000000  0.000000  0.500000  1
