# generated using pymatgen
data_La3Dy5(CuP)12
_symmetry_space_group_name_H-M   'P 1'
_cell_length_a   3.95006700
_cell_length_b   10.80137643
_cell_length_c   12.98411472
_cell_angle_alpha   90.05893832
_cell_angle_beta   90.00000000
_cell_angle_gamma   90.00000000
_symmetry_Int_Tables_number   1
_chemical_formula_structural   La3Dy5(CuP)12
_chemical_formula_sum   'La3 Dy5 Cu12 P12'
_cell_volume   553.98203049
_cell_formula_units_Z   1
loop_
 _symmetry_equiv_pos_site_id
 _symmetry_equiv_pos_as_xyz
  1  'x, y, z'
loop_
 _atom_site_type_symbol
 _atom_site_label
 _atom_site_symmetry_multiplicity
 _atom_site_fract_x
 _atom_site_fract_y
 _atom_site_fract_z
 _atom_site_occupancy
  La  La0  1  0.250000  0.932661  0.792688  1
  La  La1  1  0.750000  0.432007  0.707240  1
  La  La2  1  0.250000  0.567854  0.293185  1
  Dy  Dy3  1  0.750000  0.068744  0.207520  1
  Dy  Dy4  1  0.250000  0.843266  0.500122  1
  Dy  Dy5  1  0.750000  0.342070  0.000347  1
  Dy  Dy6  1  0.250000  0.657294  0.001712  1
  Dy  Dy7  1  0.750000  0.154641  0.496022  1
  Cu  Cu8  1  0.250000  0.396419  0.510814  1
  Cu  Cu9  1  0.750000  0.901060  0.990535  1
  Cu  Cu10  1  0.250000  0.099699  0.015054  1
  Cu  Cu11  1  0.750000  0.602632  0.488915  1
  Cu  Cu12  1  0.250000  0.269601  0.332940  1
  Cu  Cu13  1  0.750000  0.773320  0.167467  1
  Cu  Cu14  1  0.250000  0.229109  0.834266  1
  Cu  Cu15  1  0.750000  0.730266  0.666181  1
  Cu  Cu16  1  0.250000  0.863442  0.277812  1
  Cu  Cu17  1  0.750000  0.354259  0.221742  1
  Cu  Cu18  1  0.250000  0.640925  0.780149  1
  Cu  Cu19  1  0.750000  0.141318  0.719038  1
  P  P20  1  0.250000  0.234085  0.642974  1
  P  P21  1  0.750000  0.735511  0.856201  1
  P  P22  1  0.250000  0.259281  0.145699  1
  P  P23  1  0.750000  0.766028  0.355791  1
  P  P24  1  0.250000  0.607153  0.597612  1
  P  P25  1  0.750000  0.107459  0.902008  1
  P  P26  1  0.250000  0.896160  0.098811  1
  P  P27  1  0.750000  0.393731  0.403085  1
  P  P28  1  0.250000  0.057772  0.367616  1
  P  P29  1  0.750000  0.557949  0.126428  1
  P  P30  1  0.250000  0.441741  0.875217  1
  P  P31  1  0.750000  0.942542  0.624811  1
