# generated using pymatgen
data_YbHo2ErOs8
_symmetry_space_group_name_H-M   'P 1'
_cell_length_a   5.30623200
_cell_length_b   5.30623088
_cell_length_c   8.81916800
_cell_angle_alpha   90.00000000
_cell_angle_beta   90.00000000
_cell_angle_gamma   119.99999448
_symmetry_Int_Tables_number   1
_chemical_formula_structural   YbHo2ErOs8
_chemical_formula_sum   'Yb1 Ho2 Er1 Os8'
_cell_volume   215.04564359
_cell_formula_units_Z   1
loop_
 _symmetry_equiv_pos_site_id
 _symmetry_equiv_pos_as_xyz
  1  'x, y, z'
loop_
 _atom_site_type_symbol
 _atom_site_label
 _atom_site_symmetry_multiplicity
 _atom_site_fract_x
 _atom_site_fract_y
 _atom_site_fract_z
 _atom_site_occupancy
  Yb  Yb0  1  0.333333  0.666667  0.063041  1
  Ho  Ho1  1  0.666667  0.333333  0.565773  1
  Ho  Ho2  1  0.666667  0.333333  0.939078  1
  Er  Er3  1  0.333333  0.666667  0.429133  1
  Os  Os4  1  0.000000  0.000000  0.501207  1
  Os  Os5  1  0.000000  0.000000  0.000565  1
  Os  Os6  1  0.827946  0.172054  0.250925  1
  Os  Os7  1  0.827946  0.655893  0.250925  1
  Os  Os8  1  0.344107  0.172054  0.250925  1
  Os  Os9  1  0.172946  0.827054  0.749476  1
  Os  Os10  1  0.172946  0.345893  0.749476  1
  Os  Os11  1  0.654107  0.827054  0.749476  1
