# generated using pymatgen
data_NaPrDy5PtBr12
_symmetry_space_group_name_H-M   'P 1'
_cell_length_a   9.33370192
_cell_length_b   9.32040542
_cell_length_c   9.37565179
_cell_angle_alpha   106.92039080
_cell_angle_beta   106.72209325
_cell_angle_gamma   107.58065966
_symmetry_Int_Tables_number   1
_chemical_formula_structural   NaPrDy5PtBr12
_chemical_formula_sum   'Na1 Pr1 Dy5 Pt1 Br12'
_cell_volume   677.84451621
_cell_formula_units_Z   1
loop_
 _symmetry_equiv_pos_site_id
 _symmetry_equiv_pos_as_xyz
  1  'x, y, z'
loop_
 _atom_site_type_symbol
 _atom_site_label
 _atom_site_symmetry_multiplicity
 _atom_site_fract_x
 _atom_site_fract_y
 _atom_site_fract_z
 _atom_site_occupancy
  Na  Na0  1  0.500008  0.500750  0.499058  1
  Pr  Pr1  1  0.886990  0.678820  0.971259  1
  Dy  Dy2  1  0.110515  0.311092  0.029390  1
  Dy  Dy3  1  0.323619  0.030895  0.114094  1
  Dy  Dy4  1  0.031412  0.115358  0.323076  1
  Dy  Dy5  1  0.970164  0.889904  0.679831  1
  Dy  Dy6  1  0.676033  0.967121  0.885983  1
  Pt  Pt7  1  0.000560  0.000292  0.001828  1
  Br  Br8  1  0.226180  0.682664  0.076644  1
  Br  Br9  1  0.451526  0.368402  0.149239  1
  Br  Br10  1  0.681010  0.073315  0.214023  1
  Br  Br11  1  0.928813  0.792317  0.329152  1
  Br  Br12  1  0.149528  0.451344  0.365693  1
  Br  Br13  1  0.368332  0.150472  0.450743  1
  Br  Br14  1  0.632396  0.852215  0.550281  1
  Br  Br15  1  0.849245  0.549202  0.620560  1
  Br  Br16  1  0.075328  0.217651  0.684552  1
  Br  Br17  1  0.319272  0.928883  0.787032  1
  Br  Br18  1  0.534563  0.630706  0.842740  1
  Br  Br19  1  0.784512  0.308598  0.924824  1
