# generated using pymatgen
data_Rb4ZrPaI12
_symmetry_space_group_name_H-M   'P 1'
_cell_length_a   8.45244501
_cell_length_b   8.45244501
_cell_length_c   12.21431000
_cell_angle_alpha   90.00000000
_cell_angle_beta   90.00000000
_cell_angle_gamma   90.00000000
_symmetry_Int_Tables_number   1
_chemical_formula_structural   Rb4ZrPaI12
_chemical_formula_sum   'Rb4 Zr1 Pa1 I12'
_cell_volume   872.63704545
_cell_formula_units_Z   1
loop_
 _symmetry_equiv_pos_site_id
 _symmetry_equiv_pos_as_xyz
  1  'x, y, z'
loop_
 _atom_site_type_symbol
 _atom_site_label
 _atom_site_symmetry_multiplicity
 _atom_site_fract_x
 _atom_site_fract_y
 _atom_site_fract_z
 _atom_site_occupancy
  Rb  Rb0  1  0.000000  0.500000  0.245178  1
  Rb  Rb1  1  0.500000  0.000000  0.245178  1
  Rb  Rb2  1  0.000000  0.500000  0.754822  1
  Rb  Rb3  1  0.500000  0.000000  0.754822  1
  Zr  Zr4  1  0.000000  0.000000  0.000000  1
  Pa  Pa5  1  0.500000  0.500000  0.500000  1
  I  I6  1  0.000000  0.000000  0.235970  1
  I  I7  1  0.500000  0.500000  0.250066  1
  I  I8  1  0.000000  0.000000  0.764029  1
  I  I9  1  0.500000  0.500000  0.749934  1
  I  I10  1  0.185973  0.288441  0.000000  1
  I  I11  1  0.711559  0.185973  0.000000  1
  I  I12  1  0.288441  0.814027  0.000000  1
  I  I13  1  0.693695  0.197039  0.500000  1
  I  I14  1  0.306305  0.802961  0.500000  1
  I  I15  1  0.814027  0.711559  0.000000  1
  I  I16  1  0.802961  0.693695  0.500000  1
  I  I17  1  0.197039  0.306305  0.500000  1
