# generated using pymatgen
data_Y6CoCl10
_symmetry_space_group_name_H-M   'P 1'
_cell_length_a   7.09835513
_cell_length_b   8.73824900
_cell_length_c   8.89601606
_cell_angle_alpha   109.12485280
_cell_angle_beta   97.05792914
_cell_angle_gamma   105.86958789
_symmetry_Int_Tables_number   1
_chemical_formula_structural   Y6CoCl10
_chemical_formula_sum   'Y6 Co1 Cl10'
_cell_volume   487.57316757
_cell_formula_units_Z   1
loop_
 _symmetry_equiv_pos_site_id
 _symmetry_equiv_pos_as_xyz
  1  'x, y, z'
loop_
 _atom_site_type_symbol
 _atom_site_label
 _atom_site_symmetry_multiplicity
 _atom_site_fract_x
 _atom_site_fract_y
 _atom_site_fract_z
 _atom_site_occupancy
  Y  Y0  1  0.867384  0.141218  0.189857  1
  Y  Y1  1  0.132616  0.858782  0.810143  1
  Y  Y2  1  0.528661  0.703196  0.904788  1
  Y  Y3  1  0.471339  0.296804  0.095212  1
  Y  Y4  1  0.633867  0.053854  0.753840  1
  Y  Y5  1  0.366133  0.946146  0.246160  1
  Co  Co6  1  0.500000  0.000000  0.000000  1
  Cl  Cl7  1  0.743457  0.083314  0.456559  1
  Cl  Cl8  1  0.256543  0.916686  0.543441  1
  Cl  Cl9  1  0.950095  0.824929  0.076966  1
  Cl  Cl10  1  0.049905  0.175071  0.923034  1
  Cl  Cl11  1  0.289904  0.253646  0.345132  1
  Cl  Cl12  1  0.710096  0.746354  0.654868  1
  Cl  Cl13  1  0.589627  0.373275  0.836572  1
  Cl  Cl14  1  0.410373  0.626725  0.163428  1
  Cl  Cl15  1  0.851624  0.456952  0.277465  1
  Cl  Cl16  1  0.148376  0.543048  0.722535  1
