# generated using pymatgen
data_Na4Nb5MoS12
_symmetry_space_group_name_H-M   'P 1'
_cell_length_a   14.94689786
_cell_length_b   14.94689782
_cell_length_c   14.94689803
_cell_angle_alpha   22.52590538
_cell_angle_beta   22.52590407
_cell_angle_gamma   22.52590637
_symmetry_Int_Tables_number   1
_chemical_formula_structural   Na4Nb5MoS12
_chemical_formula_sum   'Na4 Nb5 Mo1 S12'
_cell_volume   429.89901298
_cell_formula_units_Z   1
loop_
 _symmetry_equiv_pos_site_id
 _symmetry_equiv_pos_as_xyz
  1  'x, y, z'
loop_
 _atom_site_type_symbol
 _atom_site_label
 _atom_site_symmetry_multiplicity
 _atom_site_fract_x
 _atom_site_fract_y
 _atom_site_fract_z
 _atom_site_occupancy
  Na  Na0  1  0.916343  0.916343  0.916343  1
  Na  Na1  1  0.582998  0.582998  0.582998  1
  Na  Na2  1  0.417220  0.417220  0.417220  1
  Na  Na3  1  0.083664  0.083664  0.083664  1
  Nb  Nb4  1  0.666733  0.666733  0.666733  1
  Nb  Nb5  1  0.999999  0.999999  0.999999  1
  Nb  Nb6  1  0.833689  0.166355  0.499979  1
  Nb  Nb7  1  0.499979  0.833689  0.166355  1
  Nb  Nb8  1  0.166355  0.499979  0.833689  1
  Mo  Mo9  1  0.333187  0.333187  0.333187  1
  S  S10  1  0.971669  0.624032  0.297996  1
  S  S11  1  0.297996  0.971669  0.624032  1
  S  S12  1  0.624032  0.297996  0.971669  1
  S  S13  1  0.695512  0.369973  0.040605  1
  S  S14  1  0.040605  0.695512  0.369973  1
  S  S15  1  0.369973  0.040605  0.695512  1
  S  S16  1  0.870225  0.534819  0.202495  1
  S  S17  1  0.202495  0.870225  0.534819  1
  S  S18  1  0.534819  0.202495  0.870225  1
  S  S19  1  0.797606  0.465236  0.129666  1
  S  S20  1  0.129666  0.797606  0.465236  1
  S  S21  1  0.465236  0.129666  0.797606  1
