# generated using pymatgen
data_Ce4Mn3Si4Ir
_symmetry_space_group_name_H-M   'P 1'
_cell_length_a   7.30035127
_cell_length_b   4.35270600
_cell_length_c   6.53399125
_cell_angle_alpha   90.00000000
_cell_angle_beta   90.17160011
_cell_angle_gamma   90.00000000
_symmetry_Int_Tables_number   1
_chemical_formula_structural   Ce4Mn3Si4Ir
_chemical_formula_sum   'Ce4 Mn3 Si4 Ir1'
_cell_volume   207.62502244
_cell_formula_units_Z   1
loop_
 _symmetry_equiv_pos_site_id
 _symmetry_equiv_pos_as_xyz
  1  'x, y, z'
loop_
 _atom_site_type_symbol
 _atom_site_label
 _atom_site_symmetry_multiplicity
 _atom_site_fract_x
 _atom_site_fract_y
 _atom_site_fract_z
 _atom_site_occupancy
  Ce  Ce0  1  0.519420  0.750000  0.175598  1
  Ce  Ce1  1  0.031999  0.750000  0.339178  1
  Ce  Ce2  1  0.977229  0.249999  0.657816  1
  Ce  Ce3  1  0.474269  0.249999  0.828471  1
  Mn  Mn4  1  0.136177  0.249999  0.063011  1
  Mn  Mn5  1  0.636112  0.249999  0.438541  1
  Mn  Mn6  1  0.362722  0.750000  0.561512  1
  Si  Si7  1  0.813220  0.249999  0.127111  1
  Si  Si8  1  0.312871  0.249999  0.383866  1
  Si  Si9  1  0.685650  0.750000  0.604684  1
  Si  Si10  1  0.192144  0.750000  0.886436  1
  Ir  Ir11  1  0.858188  0.750000  0.933776  1
