# generated using pymatgen
data_Ho(Al5Os)2
_symmetry_space_group_name_H-M   'P 1'
_cell_length_a   6.85728848
_cell_length_b   6.85728832
_cell_length_c   9.16193400
_cell_angle_alpha   90.00000000
_cell_angle_beta   90.00000000
_cell_angle_gamma   96.47355584
_symmetry_Int_Tables_number   1
_chemical_formula_structural   Ho(Al5Os)2
_chemical_formula_sum   'Ho2 Al20 Os4'
_cell_volume   428.06927895
_cell_formula_units_Z   2
loop_
 _symmetry_equiv_pos_site_id
 _symmetry_equiv_pos_as_xyz
  1  'x, y, z'
loop_
 _atom_site_type_symbol
 _atom_site_label
 _atom_site_symmetry_multiplicity
 _atom_site_fract_x
 _atom_site_fract_y
 _atom_site_fract_z
 _atom_site_occupancy
  Ho  Ho0  1  0.869964  0.130036  0.750000  1
  Ho  Ho1  1  0.130036  0.869964  0.250000  1
  Al  Al2  1  0.518723  0.782802  0.750000  1
  Al  Al3  1  0.782802  0.518723  0.250000  1
  Al  Al4  1  0.481277  0.217198  0.250000  1
  Al  Al5  1  0.217198  0.481277  0.750000  1
  Al  Al6  1  0.623697  0.376303  0.954522  1
  Al  Al7  1  0.376303  0.623697  0.045478  1
  Al  Al8  1  0.623697  0.376303  0.545478  1
  Al  Al9  1  0.376303  0.623697  0.454522  1
  Al  Al10  1  0.415973  0.147640  0.750000  1
  Al  Al11  1  0.147640  0.415973  0.250000  1
  Al  Al12  1  0.584027  0.852360  0.250000  1
  Al  Al13  1  0.852360  0.584027  0.750000  1
  Al  Al14  1  0.844637  0.155363  0.399196  1
  Al  Al15  1  0.155363  0.844637  0.600804  1
  Al  Al16  1  0.844637  0.155363  0.100804  1
  Al  Al17  1  0.155363  0.844637  0.899196  1
  Al  Al18  1  0.775769  0.775769  0.000000  1
  Al  Al19  1  0.775769  0.775769  0.500000  1
  Al  Al20  1  0.224231  0.224231  0.000000  1
  Al  Al21  1  0.224231  0.224231  0.500000  1
  Os  Os22  1  0.500000  0.000000  0.000000  1
  Os  Os23  1  0.000000  0.500000  0.000000  1
  Os  Os24  1  0.500000  0.000000  0.500000  1
  Os  Os25  1  0.000000  0.500000  0.500000  1
