# generated using pymatgen
data_TbY2Mg3Si2Ni
_symmetry_space_group_name_H-M   'P 1'
_cell_length_a   7.20630800
_cell_length_b   7.19019602
_cell_length_c   4.23121900
_cell_angle_alpha   90.00000000
_cell_angle_beta   90.00000000
_cell_angle_gamma   119.92606430
_symmetry_Int_Tables_number   1
_chemical_formula_structural   TbY2Mg3Si2Ni
_chemical_formula_sum   'Tb1 Y2 Mg3 Si2 Ni1'
_cell_volume   190.00838424
_cell_formula_units_Z   1
loop_
 _symmetry_equiv_pos_site_id
 _symmetry_equiv_pos_as_xyz
  1  'x, y, z'
loop_
 _atom_site_type_symbol
 _atom_site_label
 _atom_site_symmetry_multiplicity
 _atom_site_fract_x
 _atom_site_fract_y
 _atom_site_fract_z
 _atom_site_occupancy
  Tb  Tb0  1  0.000000  0.588326  0.000000  1
  Y  Y1  1  0.411979  0.412177  0.000000  1
  Y  Y2  1  0.588021  0.000198  0.000000  1
  Mg  Mg3  1  0.241141  0.000178  0.500000  1
  Mg  Mg4  1  0.758859  0.759036  0.500000  1
  Mg  Mg5  1  0.000000  0.240840  0.500000  1
  Si  Si6  1  0.666711  0.333269  0.500000  1
  Si  Si7  1  0.333289  0.666559  0.500000  1
  Ni  Ni8  1  0.000000  0.999418  0.000000  1
