# generated using pymatgen
data_Dy2Tm10AlZnCo4
_symmetry_space_group_name_H-M   'P 1'
_cell_length_a   8.17189734
_cell_length_b   8.13803218
_cell_length_c   8.13803377
_cell_angle_alpha   112.06912973
_cell_angle_beta   109.96968662
_cell_angle_gamma   106.27005055
_symmetry_Int_Tables_number   1
_chemical_formula_structural   Dy2Tm10AlZnCo4
_chemical_formula_sum   'Dy2 Tm10 Al1 Zn1 Co4'
_cell_volume   416.34094312
_cell_formula_units_Z   1
loop_
 _symmetry_equiv_pos_site_id
 _symmetry_equiv_pos_as_xyz
  1  'x, y, z'
loop_
 _atom_site_type_symbol
 _atom_site_label
 _atom_site_symmetry_multiplicity
 _atom_site_fract_x
 _atom_site_fract_y
 _atom_site_fract_z
 _atom_site_occupancy
  Dy  Dy0  1  0.431318  0.233610  0.197709  1
  Dy  Dy1  1  0.568682  0.766390  0.802291  1
  Tm  Tm2  1  0.036673  0.234971  0.801702  1
  Tm  Tm3  1  0.963327  0.765029  0.198298  1
  Tm  Tm4  1  0.181825  0.282988  0.465450  1
  Tm  Tm5  1  0.818175  0.717012  0.534550  1
  Tm  Tm6  1  0.181825  0.716375  0.898836  1
  Tm  Tm7  1  0.818175  0.283625  0.101164  1
  Tm  Tm8  1  0.324021  0.634581  0.307724  1
  Tm  Tm9  1  0.675979  0.365419  0.692276  1
  Tm  Tm10  1  0.324021  0.016298  0.689443  1
  Tm  Tm11  1  0.675979  0.983702  0.310557  1
  Al  Al12  1  0.500000  0.500000  0.000000  1
  Zn  Zn13  1  0.000000  0.000000  0.000000  1
  Co  Co14  1  0.342485  0.999150  0.343334  1
  Co  Co15  1  0.657515  0.000850  0.656666  1
  Co  Co16  1  0.111599  0.615530  0.496069  1
  Co  Co17  1  0.888401  0.384470  0.503931  1
