# generated using pymatgen
data_Pr4TmPb4
_symmetry_space_group_name_H-M   'P 1'
_cell_length_a   8.40827480
_cell_length_b   16.26630400
_cell_length_c   8.53043200
_cell_angle_alpha   90.00000000
_cell_angle_beta   89.97493732
_cell_angle_gamma   90.00000000
_symmetry_Int_Tables_number   1
_chemical_formula_structural   Pr4TmPb4
_chemical_formula_sum   'Pr16 Tm4 Pb16'
_cell_volume   1166.72033003
_cell_formula_units_Z   4
loop_
 _symmetry_equiv_pos_site_id
 _symmetry_equiv_pos_as_xyz
  1  'x, y, z'
loop_
 _atom_site_type_symbol
 _atom_site_label
 _atom_site_symmetry_multiplicity
 _atom_site_fract_x
 _atom_site_fract_y
 _atom_site_fract_z
 _atom_site_occupancy
  Pr  Pr0  1  0.622885  0.618652  0.158365  1
  Pr  Pr1  1  0.123046  0.881134  0.342144  1
  Pr  Pr2  1  0.376505  0.119240  0.842030  1
  Pr  Pr3  1  0.876848  0.380255  0.658043  1
  Pr  Pr4  1  0.376505  0.380760  0.842030  1
  Pr  Pr5  1  0.876848  0.119745  0.658043  1
  Pr  Pr6  1  0.622885  0.881348  0.158365  1
  Pr  Pr7  1  0.123046  0.618866  0.342144  1
  Pr  Pr8  1  0.468130  0.600244  0.678621  1
  Pr  Pr9  1  0.967223  0.899516  0.822004  1
  Pr  Pr10  1  0.533058  0.101245  0.321840  1
  Pr  Pr11  1  0.032814  0.399425  0.177994  1
  Pr  Pr12  1  0.533058  0.398755  0.321840  1
  Pr  Pr13  1  0.032814  0.100575  0.177994  1
  Pr  Pr14  1  0.468130  0.899756  0.678621  1
  Pr  Pr15  1  0.967223  0.600484  0.822004  1
  Tm  Tm16  1  0.291108  0.750000  0.004235  1
  Tm  Tm17  1  0.208937  0.250000  0.503456  1
  Tm  Tm18  1  0.708771  0.250000  0.996070  1
  Tm  Tm19  1  0.790712  0.750000  0.496731  1
  Pb  Pb20  1  0.718467  0.453457  0.968974  1
  Pb  Pb21  1  0.218662  0.046584  0.530545  1
  Pb  Pb22  1  0.281064  0.953656  0.030423  1
  Pb  Pb23  1  0.781623  0.545369  0.468616  1
  Pb  Pb24  1  0.281064  0.546344  0.030423  1
  Pb  Pb25  1  0.781623  0.954631  0.468616  1
  Pb  Pb26  1  0.718467  0.046543  0.968974  1
  Pb  Pb27  1  0.218662  0.453416  0.530545  1
  Pb  Pb28  1  0.428618  0.750000  0.374005  1
  Pb  Pb29  1  0.929383  0.750000  0.124967  1
  Pb  Pb30  1  0.570166  0.250000  0.625180  1
  Pb  Pb31  1  0.070627  0.250000  0.875037  1
  Pb  Pb32  1  0.657299  0.750000  0.848207  1
  Pb  Pb33  1  0.159242  0.750000  0.653789  1
  Pb  Pb34  1  0.341911  0.250000  0.153050  1
  Pb  Pb35  1  0.842581  0.250000  0.346082  1
