# generated using pymatgen
data_TmZr(Ta2N3)4
_symmetry_space_group_name_H-M   'P 1'
_cell_length_a   5.29416700
_cell_length_b   5.29416715
_cell_length_c   10.57924600
_cell_angle_alpha   90.00000000
_cell_angle_beta   90.00000000
_cell_angle_gamma   120.00000530
_symmetry_Int_Tables_number   1
_chemical_formula_structural   TmZr(Ta2N3)4
_chemical_formula_sum   'Tm1 Zr1 Ta8 N12'
_cell_volume   256.79147987
_cell_formula_units_Z   1
loop_
 _symmetry_equiv_pos_site_id
 _symmetry_equiv_pos_as_xyz
  1  'x, y, z'
loop_
 _atom_site_type_symbol
 _atom_site_label
 _atom_site_symmetry_multiplicity
 _atom_site_fract_x
 _atom_site_fract_y
 _atom_site_fract_z
 _atom_site_occupancy
  Tm  Tm0  1  0.333333  0.666667  0.000000  1
  Zr  Zr1  1  0.666667  0.333333  0.000000  1
  Ta  Ta2  1  0.677343  0.678213  0.742441  1
  Ta  Ta3  1  0.321787  0.999131  0.742441  1
  Ta  Ta4  1  0.000869  0.322657  0.742441  1
  Ta  Ta5  1  0.321787  0.322657  0.257559  1
  Ta  Ta6  1  0.677343  0.999131  0.257559  1
  Ta  Ta7  1  0.000869  0.678213  0.257559  1
  Ta  Ta8  1  0.333333  0.666667  0.500000  1
  Ta  Ta9  1  0.666667  0.333333  0.500000  1
  N  N10  1  0.659239  0.659077  0.383911  1
  N  N11  1  0.340923  0.000162  0.383911  1
  N  N12  1  0.999838  0.340761  0.383911  1
  N  N13  1  0.340923  0.340761  0.616089  1
  N  N14  1  0.659239  0.000162  0.616089  1
  N  N15  1  0.999838  0.659077  0.616089  1
  N  N16  1  0.346200  0.340037  0.862939  1
  N  N17  1  0.659963  0.006163  0.862939  1
  N  N18  1  0.993837  0.653800  0.862939  1
  N  N19  1  0.659963  0.653800  0.137061  1
  N  N20  1  0.346200  0.006163  0.137061  1
  N  N21  1  0.993837  0.340037  0.137061  1
