# generated using pymatgen
data_Nd3Mn6N11
_symmetry_space_group_name_H-M   'P 1'
_cell_length_a   10.13602400
_cell_length_b   10.13602400
_cell_length_c   4.89261900
_cell_angle_alpha   90.00000000
_cell_angle_beta   90.00000000
_cell_angle_gamma   90.00000000
_symmetry_Int_Tables_number   1
_chemical_formula_structural   Nd3Mn6N11
_chemical_formula_sum   'Nd6 Mn12 N22'
_cell_volume   502.66269796
_cell_formula_units_Z   2
loop_
 _symmetry_equiv_pos_site_id
 _symmetry_equiv_pos_as_xyz
  1  'x, y, z'
loop_
 _atom_site_type_symbol
 _atom_site_label
 _atom_site_symmetry_multiplicity
 _atom_site_fract_x
 _atom_site_fract_y
 _atom_site_fract_z
 _atom_site_occupancy
  Nd  Nd0  1  0.177883  0.677883  0.982646  1
  Nd  Nd1  1  0.822117  0.322117  0.982646  1
  Nd  Nd2  1  0.677883  0.822117  0.982646  1
  Nd  Nd3  1  0.322117  0.177883  0.982646  1
  Nd  Nd4  1  0.000000  0.000000  0.955452  1
  Nd  Nd5  1  0.500000  0.500000  0.955452  1
  Mn  Mn6  1  0.619834  0.119834  0.101744  1
  Mn  Mn7  1  0.380166  0.880166  0.101744  1
  Mn  Mn8  1  0.119834  0.380166  0.101744  1
  Mn  Mn9  1  0.880166  0.619834  0.101744  1
  Mn  Mn10  1  0.079301  0.220723  0.526395  1
  Mn  Mn11  1  0.920699  0.779277  0.526395  1
  Mn  Mn12  1  0.220723  0.920699  0.526395  1
  Mn  Mn13  1  0.420699  0.720723  0.526395  1
  Mn  Mn14  1  0.779277  0.079301  0.526395  1
  Mn  Mn15  1  0.579301  0.279277  0.526395  1
  Mn  Mn16  1  0.279277  0.420699  0.526395  1
  Mn  Mn17  1  0.720723  0.579301  0.526395  1
  N  N18  1  0.179542  0.084272  0.631450  1
  N  N19  1  0.820458  0.915728  0.631450  1
  N  N20  1  0.084272  0.820458  0.631450  1
  N  N21  1  0.320458  0.584272  0.631450  1
  N  N22  1  0.915728  0.179542  0.631450  1
  N  N23  1  0.679542  0.415728  0.631450  1
  N  N24  1  0.415728  0.320458  0.631450  1
  N  N25  1  0.584272  0.679542  0.631450  1
  N  N26  1  0.000000  0.500000  0.128211  1
  N  N27  1  0.500000  0.000000  0.128211  1
  N  N28  1  0.072714  0.213085  0.159998  1
  N  N29  1  0.927286  0.786915  0.159998  1
  N  N30  1  0.213085  0.927286  0.159998  1
  N  N31  1  0.427286  0.713085  0.159998  1
  N  N32  1  0.786915  0.072714  0.159998  1
  N  N33  1  0.572714  0.286915  0.159998  1
  N  N34  1  0.286915  0.427286  0.159998  1
  N  N35  1  0.713085  0.572714  0.159998  1
  N  N36  1  0.638998  0.138998  0.717093  1
  N  N37  1  0.361002  0.861002  0.717093  1
  N  N38  1  0.138998  0.361002  0.717093  1
  N  N39  1  0.861002  0.638998  0.717093  1
