# generated using pymatgen
data_CaP12(RuRh)2
_symmetry_space_group_name_H-M   'P 1'
_cell_length_a   7.02576767
_cell_length_b   7.03257558
_cell_length_c   7.02576900
_cell_angle_alpha   109.48773642
_cell_angle_beta   109.41318617
_cell_angle_gamma   109.47347529
_symmetry_Int_Tables_number   1
_chemical_formula_structural   CaP12(RuRh)2
_chemical_formula_sum   'Ca1 P12 Ru2 Rh2'
_cell_volume   267.35621301
_cell_formula_units_Z   1
loop_
 _symmetry_equiv_pos_site_id
 _symmetry_equiv_pos_as_xyz
  1  'x, y, z'
loop_
 _atom_site_type_symbol
 _atom_site_label
 _atom_site_symmetry_multiplicity
 _atom_site_fract_x
 _atom_site_fract_y
 _atom_site_fract_z
 _atom_site_occupancy
  Ca  Ca0  1  0.000000  0.000000  0.000000  1
  P  P1  1  0.355937  0.213042  0.857106  1
  P  P2  1  0.644063  0.786958  0.142894  1
  P  P3  1  0.642009  0.500953  0.858945  1
  P  P4  1  0.357991  0.499047  0.141055  1
  P  P5  1  0.214942  0.860030  0.358849  1
  P  P6  1  0.785058  0.139970  0.641151  1
  P  P7  1  0.501180  0.860030  0.645086  1
  P  P8  1  0.498820  0.139970  0.354914  1
  P  P9  1  0.855635  0.354577  0.214786  1
  P  P10  1  0.144365  0.645423  0.785214  1
  P  P11  1  0.860209  0.645423  0.501058  1
  P  P12  1  0.139791  0.354577  0.498942  1
  Ru  Ru13  1  0.000000  0.000000  0.500000  1
  Ru  Ru14  1  0.500000  0.000000  0.000000  1
  Rh  Rh15  1  0.000000  0.500000  0.000000  1
  Rh  Rh16  1  0.500000  0.500000  0.500000  1
