# generated using pymatgen
data_Er16Cd4Pd3Pt
_symmetry_space_group_name_H-M   'P 1'
_cell_length_a   9.61247190
_cell_length_b   9.61034389
_cell_length_c   9.61034400
_cell_angle_alpha   59.99999961
_cell_angle_beta   60.00732256
_cell_angle_gamma   60.00732612
_symmetry_Int_Tables_number   1
_chemical_formula_structural   Er16Cd4Pd3Pt
_chemical_formula_sum   'Er16 Cd4 Pd3 Pt1'
_cell_volume   627.83571417
_cell_formula_units_Z   1
loop_
 _symmetry_equiv_pos_site_id
 _symmetry_equiv_pos_as_xyz
  1  'x, y, z'
loop_
 _atom_site_type_symbol
 _atom_site_label
 _atom_site_symmetry_multiplicity
 _atom_site_fract_x
 _atom_site_fract_y
 _atom_site_fract_z
 _atom_site_occupancy
  Er  Er0  1  0.353895  0.352112  0.352112  1
  Er  Er1  1  0.353895  0.352112  0.941882  1
  Er  Er2  1  0.353895  0.941882  0.352112  1
  Er  Er3  1  0.941390  0.352870  0.352870  1
  Er  Er4  1  0.809749  0.189138  0.189138  1
  Er  Er5  1  0.189278  0.810830  0.810830  1
  Er  Er6  1  0.189278  0.810830  0.189062  1
  Er  Er7  1  0.809749  0.189138  0.811975  1
  Er  Er8  1  0.189278  0.189062  0.810830  1
  Er  Er9  1  0.809749  0.811975  0.189138  1
  Er  Er10  1  0.933815  0.566150  0.566150  1
  Er  Er11  1  0.566084  0.934326  0.934326  1
  Er  Er12  1  0.566084  0.934326  0.565263  1
  Er  Er13  1  0.933815  0.566150  0.933884  1
  Er  Er14  1  0.566084  0.565263  0.934326  1
  Er  Er15  1  0.933815  0.933884  0.566150  1
  Cd  Cd16  1  0.582321  0.582263  0.582263  1
  Cd  Cd17  1  0.582321  0.582263  0.253153  1
  Cd  Cd18  1  0.582321  0.253153  0.582263  1
  Cd  Cd19  1  0.253263  0.582246  0.582246  1
  Pd  Pd20  1  0.143631  0.143689  0.143689  1
  Pd  Pd21  1  0.143631  0.143689  0.568989  1
  Pd  Pd22  1  0.143631  0.568989  0.143689  1
  Pt  Pt23  1  0.569029  0.143657  0.143657  1
