# generated using pymatgen
data_GaI31
_symmetry_space_group_name_H-M   'P 1'
_cell_length_a   9.16918000
_cell_length_b   10.38510117
_cell_length_c   20.67628600
_cell_angle_alpha   85.30545102
_cell_angle_beta   90.00000000
_cell_angle_gamma   90.00000000
_symmetry_Int_Tables_number   1
_chemical_formula_structural   GaI31
_chemical_formula_sum   'Ga1 I31'
_cell_volume   1962.24996806
_cell_formula_units_Z   1
loop_
 _symmetry_equiv_pos_site_id
 _symmetry_equiv_pos_as_xyz
  1  'x, y, z'
loop_
 _atom_site_type_symbol
 _atom_site_label
 _atom_site_symmetry_multiplicity
 _atom_site_fract_x
 _atom_site_fract_y
 _atom_site_fract_z
 _atom_site_occupancy
  Ga  Ga0  1  0.750000  0.899988  0.153608  1
  I  I1  1  0.750000  0.383917  0.366942  1
  I  I2  1  0.250000  0.655488  0.658584  1
  I  I3  1  0.250000  0.118293  0.858877  1
  I  I4  1  0.250000  0.320690  0.161277  1
  I  I5  1  0.750000  0.021387  0.742068  1
  I  I6  1  0.750000  0.894955  0.277576  1
  I  I7  1  0.517587  0.784931  0.113826  1
  I  I8  1  0.250000  0.529857  0.287211  1
  I  I9  1  0.504147  0.803037  0.598745  1
  I  I10  1  0.250000  0.675319  0.806251  1
  I  I11  1  0.250000  0.025115  0.412444  1
  I  I12  1  0.750000  0.487124  0.501754  1
  I  I13  1  0.503756  0.265838  0.902711  1
  I  I14  1  0.250000  0.713822  0.941666  1
  I  I15  1  0.750000  0.306719  0.233950  1
  I  I16  1  0.496195  0.201780  0.394622  1
  I  I17  1  0.750000  0.275081  0.668544  1
  I  I18  1  0.250000  0.776325  0.326338  1
  I  I19  1  0.003805  0.201780  0.394622  1
  I  I20  1  0.750000  0.934864  0.536939  1
  I  I21  1  0.982413  0.784931  0.113826  1
  I  I22  1  0.250000  0.063042  0.134317  1
  I  I23  1  0.750000  0.137791  0.100190  1
  I  I24  1  0.750000  0.750632  0.808023  1
  I  I25  1  0.750000  0.514321  0.736804  1
  I  I26  1  0.250000  0.495530  0.041197  1
  I  I27  1  0.995853  0.803037  0.598745  1
  I  I28  1  0.750000  0.410683  0.945907  1
  I  I29  1  0.250000  0.288905  0.574886  1
  I  I30  1  0.250000  0.208972  0.704839  1
  I  I31  1  0.996244  0.265838  0.902711  1
