# generated using pymatgen
data_Li3Pr3Ag2Rh
_symmetry_space_group_name_H-M   'P 1'
_cell_length_a   7.75313200
_cell_length_b   7.75313177
_cell_length_c   4.06781800
_cell_angle_alpha   90.00000000
_cell_angle_beta   90.00000000
_cell_angle_gamma   120.00000100
_symmetry_Int_Tables_number   1
_chemical_formula_structural   Li3Pr3Ag2Rh
_chemical_formula_sum   'Li3 Pr3 Ag2 Rh1'
_cell_volume   211.76124617
_cell_formula_units_Z   1
loop_
 _symmetry_equiv_pos_site_id
 _symmetry_equiv_pos_as_xyz
  1  'x, y, z'
loop_
 _atom_site_type_symbol
 _atom_site_label
 _atom_site_symmetry_multiplicity
 _atom_site_fract_x
 _atom_site_fract_y
 _atom_site_fract_z
 _atom_site_occupancy
  Li  Li0  1  0.757376  0.756847  0.000000  1
  Li  Li1  1  0.999471  0.242624  0.000000  1
  Li  Li2  1  0.243153  0.000529  0.000000  1
  Pr  Pr3  1  0.975102  0.575922  0.500000  1
  Pr  Pr4  1  0.424078  0.399182  0.500000  1
  Pr  Pr5  1  0.600818  0.024898  0.500000  1
  Ag  Ag6  1  0.333333  0.666667  0.000000  1
  Ag  Ag7  1  0.000000  0.000000  0.500000  1
  Rh  Rh8  1  0.666667  0.333333  0.000000  1
