# generated using pymatgen
data_CaTh11(GePd)12
_symmetry_space_group_name_H-M   'P 1'
_cell_length_a   4.44583200
_cell_length_b   7.64871635
_cell_length_c   23.15585863
_cell_angle_alpha   90.06608367
_cell_angle_beta   90.00000000
_cell_angle_gamma   90.00000000
_symmetry_Int_Tables_number   1
_chemical_formula_structural   CaTh11(GePd)12
_chemical_formula_sum   'Ca1 Th11 Ge12 Pd12'
_cell_volume   787.41231617
_cell_formula_units_Z   1
loop_
 _symmetry_equiv_pos_site_id
 _symmetry_equiv_pos_as_xyz
  1  'x, y, z'
loop_
 _atom_site_type_symbol
 _atom_site_label
 _atom_site_symmetry_multiplicity
 _atom_site_fract_x
 _atom_site_fract_y
 _atom_site_fract_z
 _atom_site_occupancy
  Ca  Ca0  1  0.250000  0.749348  0.500125  1
  Th  Th1  1  0.250000  0.751680  0.336157  1
  Th  Th2  1  0.750000  0.250034  0.665468  1
  Th  Th3  1  0.750000  0.251252  0.166782  1
  Th  Th4  1  0.250000  0.748983  0.832527  1
  Th  Th5  1  0.250000  0.750563  0.167407  1
  Th  Th6  1  0.750000  0.250665  0.833067  1
  Th  Th7  1  0.750000  0.249076  0.334490  1
  Th  Th8  1  0.250000  0.748099  0.663946  1
  Th  Th9  1  0.250000  0.751207  0.999910  1
  Th  Th10  1  0.750000  0.249973  0.999944  1
  Th  Th11  1  0.750000  0.249371  0.500064  1
  Ge  Ge12  1  0.250000  0.084624  0.080123  1
  Ge  Ge13  1  0.750000  0.916545  0.919882  1
  Ge  Ge14  1  0.750000  0.585011  0.413556  1
  Ge  Ge15  1  0.250000  0.416947  0.585197  1
  Ge  Ge16  1  0.250000  0.084638  0.248352  1
  Ge  Ge17  1  0.750000  0.915421  0.752506  1
  Ge  Ge18  1  0.750000  0.584768  0.248314  1
  Ge  Ge19  1  0.250000  0.415448  0.751984  1
  Ge  Ge20  1  0.250000  0.081912  0.415827  1
  Ge  Ge21  1  0.750000  0.913884  0.587250  1
  Ge  Ge22  1  0.750000  0.584643  0.079979  1
  Ge  Ge23  1  0.250000  0.416246  0.920390  1
  Pd  Pd24  1  0.250000  0.418483  0.252587  1
  Pd  Pd25  1  0.750000  0.581503  0.747229  1
  Pd  Pd26  1  0.750000  0.918571  0.251928  1
  Pd  Pd27  1  0.250000  0.081531  0.747280  1
  Pd  Pd28  1  0.250000  0.416457  0.420548  1
  Pd  Pd29  1  0.750000  0.578093  0.580986  1
  Pd  Pd30  1  0.750000  0.918455  0.086175  1
  Pd  Pd31  1  0.250000  0.082024  0.913233  1
  Pd  Pd32  1  0.250000  0.419065  0.085679  1
  Pd  Pd33  1  0.750000  0.582463  0.913998  1
  Pd  Pd34  1  0.750000  0.920497  0.418293  1
  Pd  Pd35  1  0.250000  0.082522  0.578816  1
