# generated using pymatgen
data_Pd3PtPb16
_symmetry_space_group_name_H-M   'P 1'
_cell_length_a   13.49284980
_cell_length_b   13.49285116
_cell_length_c   13.48864729
_cell_angle_alpha   151.13406383
_cell_angle_beta   151.13406877
_cell_angle_gamma   41.32656454
_symmetry_Int_Tables_number   1
_chemical_formula_structural   Pd3PtPb16
_chemical_formula_sum   'Pd3 Pt1 Pb16'
_cell_volume   570.97603947
_cell_formula_units_Z   1
loop_
 _symmetry_equiv_pos_site_id
 _symmetry_equiv_pos_as_xyz
  1  'x, y, z'
loop_
 _atom_site_type_symbol
 _atom_site_label
 _atom_site_symmetry_multiplicity
 _atom_site_fract_x
 _atom_site_fract_y
 _atom_site_fract_z
 _atom_site_occupancy
  Pd  Pd0  1  0.250000  0.250000  0.000000  1
  Pd  Pd1  1  0.000000  0.500000  0.500000  1
  Pd  Pd2  1  0.500000  0.000000  0.500000  1
  Pt  Pt3  1  0.750000  0.750000  0.000000  1
  Pb  Pb4  1  0.139795  0.637348  0.152156  1
  Pb  Pb5  1  0.641864  0.489184  0.506216  1
  Pb  Pb6  1  0.884832  0.889344  0.649428  1
  Pb  Pb7  1  0.385251  0.735115  0.995367  1
  Pb  Pb8  1  0.610656  0.615168  0.350572  1
  Pb  Pb9  1  0.110116  0.760252  0.995367  1
  Pb  Pb10  1  0.862652  0.360205  0.847844  1
  Pb  Pb11  1  0.364353  0.517035  0.506216  1
  Pb  Pb12  1  0.982965  0.135647  0.493784  1
  Pb  Pb13  1  0.485192  0.987639  0.847844  1
  Pb  Pb14  1  0.739748  0.389884  0.004633  1
  Pb  Pb15  1  0.239917  0.235404  0.350572  1
  Pb  Pb16  1  0.764885  0.114749  0.004633  1
  Pb  Pb17  1  0.264596  0.260083  0.649428  1
  Pb  Pb18  1  0.010816  0.858136  0.493784  1
  Pb  Pb19  1  0.512361  0.014808  0.152156  1
