# generated using pymatgen
data_Sc2SiB2Ir2RuRh2
_symmetry_space_group_name_H-M   'P 1'
_cell_length_a   9.36347500
_cell_length_b   9.36347500
_cell_length_c   2.98581000
_cell_angle_alpha   90.00000000
_cell_angle_beta   90.00000000
_cell_angle_gamma   90.00000000
_symmetry_Int_Tables_number   1
_chemical_formula_structural   Sc2SiB2Ir2RuRh2
_chemical_formula_sum   'Sc4 Si2 B4 Ir4 Ru2 Rh4'
_cell_volume   261.77988874
_cell_formula_units_Z   2
loop_
 _symmetry_equiv_pos_site_id
 _symmetry_equiv_pos_as_xyz
  1  'x, y, z'
loop_
 _atom_site_type_symbol
 _atom_site_label
 _atom_site_symmetry_multiplicity
 _atom_site_fract_x
 _atom_site_fract_y
 _atom_site_fract_z
 _atom_site_occupancy
  Sc  Sc0  1  0.172560  0.673301  0.000000  1
  Sc  Sc1  1  0.673301  0.827440  0.000000  1
  Sc  Sc2  1  0.326699  0.172560  0.000000  1
  Sc  Sc3  1  0.827440  0.326699  0.000000  1
  Si  Si4  1  0.000000  0.000000  0.000000  1
  Si  Si5  1  0.500000  0.500000  0.000000  1
  B  B6  1  0.377147  0.877404  0.000000  1
  B  B7  1  0.877404  0.622853  0.000000  1
  B  B8  1  0.122596  0.377147  0.000000  1
  B  B9  1  0.622853  0.122596  0.000000  1
  Ir  Ir10  1  0.288689  0.428537  0.500000  1
  Ir  Ir11  1  0.711312  0.571463  0.500000  1
  Ir  Ir12  1  0.571463  0.288689  0.500000  1
  Ir  Ir13  1  0.428537  0.711312  0.500000  1
  Ru  Ru14  1  0.000000  0.500000  0.500000  1
  Ru  Ru15  1  0.500000  0.000000  0.500000  1
  Rh  Rh16  1  0.928476  0.789892  0.500000  1
  Rh  Rh17  1  0.789892  0.071524  0.500000  1
  Rh  Rh18  1  0.210107  0.928476  0.500000  1
  Rh  Rh19  1  0.071524  0.210107  0.500000  1
