# generated using pymatgen
data_Sc8Ga4AgPt3
_symmetry_space_group_name_H-M   'P 1'
_cell_length_a   6.69170803
_cell_length_b   6.69161500
_cell_length_c   6.69460101
_cell_angle_alpha   90.00000000
_cell_angle_beta   90.00863791
_cell_angle_gamma   90.00000000
_symmetry_Int_Tables_number   1
_chemical_formula_structural   Sc8Ga4AgPt3
_chemical_formula_sum   'Sc8 Ga4 Ag1 Pt3'
_cell_volume   299.77307551
_cell_formula_units_Z   1
loop_
 _symmetry_equiv_pos_site_id
 _symmetry_equiv_pos_as_xyz
  1  'x, y, z'
loop_
 _atom_site_type_symbol
 _atom_site_label
 _atom_site_symmetry_multiplicity
 _atom_site_fract_x
 _atom_site_fract_y
 _atom_site_fract_z
 _atom_site_occupancy
  Sc  Sc0  1  0.252646  0.497899  0.247355  1
  Sc  Sc1  1  0.252646  0.002101  0.247355  1
  Sc  Sc2  1  0.747363  0.002728  0.247321  1
  Sc  Sc3  1  0.747363  0.497272  0.247321  1
  Sc  Sc4  1  0.252655  0.497903  0.752653  1
  Sc  Sc5  1  0.252655  0.002097  0.752653  1
  Sc  Sc6  1  0.747370  0.002742  0.752680  1
  Sc  Sc7  1  0.747370  0.497258  0.752680  1
  Ga  Ga8  1  0.000541  0.250000  0.000006  1
  Ga  Ga9  1  0.999466  0.750000  0.999997  1
  Ga  Ga10  1  0.500414  0.750000  0.499997  1
  Ga  Ga11  1  0.499460  0.250000  0.500000  1
  Ag  Ag12  1  0.999246  0.750000  0.500051  1
  Pt  Pt13  1  0.499122  0.250000  0.999995  1
  Pt  Pt14  1  0.500893  0.750000  0.999991  1
  Pt  Pt15  1  0.000790  0.250000  0.499951  1
