# generated using pymatgen
data_LaNi4(AuO4)3
_symmetry_space_group_name_H-M   'P 1'
_cell_length_a   6.60100798
_cell_length_b   6.60100762
_cell_length_c   6.60100700
_cell_angle_alpha   109.47122181
_cell_angle_beta   109.47122071
_cell_angle_gamma   109.47122166
_symmetry_Int_Tables_number   1
_chemical_formula_structural   LaNi4(AuO4)3
_chemical_formula_sum   'La1 Ni4 Au3 O12'
_cell_volume   221.41588829
_cell_formula_units_Z   1
loop_
 _symmetry_equiv_pos_site_id
 _symmetry_equiv_pos_as_xyz
  1  'x, y, z'
loop_
 _atom_site_type_symbol
 _atom_site_label
 _atom_site_symmetry_multiplicity
 _atom_site_fract_x
 _atom_site_fract_y
 _atom_site_fract_z
 _atom_site_occupancy
  La  La0  1  0.000000  0.000000  0.000000  1
  Ni  Ni1  1  0.500000  0.000000  0.000000  1
  Ni  Ni2  1  0.000000  0.500000  0.000000  1
  Ni  Ni3  1  0.000000  0.000000  0.500000  1
  Ni  Ni4  1  0.500000  0.500000  0.500000  1
  Au  Au5  1  0.500000  0.500000  0.000000  1
  Au  Au6  1  0.500000  0.000000  0.500000  1
  Au  Au7  1  0.000000  0.500000  0.500000  1
  O  O8  1  0.301566  0.824096  0.125662  1
  O  O9  1  0.477470  0.301566  0.175905  1
  O  O10  1  0.874338  0.698434  0.175905  1
  O  O11  1  0.175905  0.477470  0.301566  1
  O  O12  1  0.824096  0.125662  0.301566  1
  O  O13  1  0.301566  0.175905  0.477470  1
  O  O14  1  0.698434  0.824096  0.522530  1
  O  O15  1  0.824096  0.522530  0.698434  1
  O  O16  1  0.175905  0.874338  0.698434  1
  O  O17  1  0.125662  0.301566  0.824096  1
  O  O18  1  0.522530  0.698434  0.824096  1
  O  O19  1  0.698434  0.175905  0.874338  1
