# generated using pymatgen
data_Eu4Ta3TiO14
_symmetry_space_group_name_H-M   'P 1'
_cell_length_a   7.55367578
_cell_length_b   7.55367461
_cell_length_c   7.53318330
_cell_angle_alpha   59.90997627
_cell_angle_beta   59.90997556
_cell_angle_gamma   60.00000367
_symmetry_Int_Tables_number   1
_chemical_formula_structural   Eu4Ta3TiO14
_chemical_formula_sum   'Eu4 Ta3 Ti1 O14'
_cell_volume   303.52038848
_cell_formula_units_Z   1
loop_
 _symmetry_equiv_pos_site_id
 _symmetry_equiv_pos_as_xyz
  1  'x, y, z'
loop_
 _atom_site_type_symbol
 _atom_site_label
 _atom_site_symmetry_multiplicity
 _atom_site_fract_x
 _atom_site_fract_y
 _atom_site_fract_z
 _atom_site_occupancy
  Eu  Eu0  1  0.125000  0.625000  0.125000  1
  Eu  Eu1  1  0.125000  0.125000  0.625000  1
  Eu  Eu2  1  0.625000  0.125000  0.125000  1
  Eu  Eu3  1  0.125000  0.125000  0.125000  1
  Ta  Ta4  1  0.625000  0.625000  0.625000  1
  Ta  Ta5  1  0.125000  0.625000  0.625000  1
  Ta  Ta6  1  0.625000  0.125000  0.625000  1
  Ti  Ti7  1  0.625000  0.625000  0.125000  1
  O  O8  1  0.307874  0.691752  0.692500  1
  O  O9  1  0.559605  0.941878  0.938912  1
  O  O10  1  0.690395  0.690395  0.311088  1
  O  O11  1  0.307874  0.307874  0.692500  1
  O  O12  1  0.999937  0.999937  0.000189  1
  O  O13  1  0.308122  0.690395  0.311088  1
  O  O14  1  0.691752  0.307874  0.692500  1
  O  O15  1  0.941878  0.559605  0.938912  1
  O  O16  1  0.559605  0.559605  0.938912  1
  O  O17  1  0.942126  0.942126  0.557500  1
  O  O18  1  0.250063  0.250063  0.249811  1
  O  O19  1  0.558248  0.942126  0.557500  1
  O  O20  1  0.690395  0.308122  0.311088  1
  O  O21  1  0.942126  0.558248  0.557500  1
