# generated using pymatgen
data_Al8Pd3Ru4Rh
_symmetry_space_group_name_H-M   'P 1'
_cell_length_a   5.98151800
_cell_length_b   5.97930000
_cell_length_c   6.16215700
_cell_angle_alpha   89.99977372
_cell_angle_beta   90.00021779
_cell_angle_gamma   90.00009581
_symmetry_Int_Tables_number   1
_chemical_formula_structural   Al8Pd3Ru4Rh
_chemical_formula_sum   'Al8 Pd3 Ru4 Rh1'
_cell_volume   220.39133569
_cell_formula_units_Z   1
loop_
 _symmetry_equiv_pos_site_id
 _symmetry_equiv_pos_as_xyz
  1  'x, y, z'
loop_
 _atom_site_type_symbol
 _atom_site_label
 _atom_site_symmetry_multiplicity
 _atom_site_fract_x
 _atom_site_fract_y
 _atom_site_fract_z
 _atom_site_occupancy
  Al  Al0  1  0.496866  0.003158  0.253316  1
  Al  Al1  1  0.496866  0.496846  0.253316  1
  Al  Al2  1  0.003160  0.003165  0.254182  1
  Al  Al3  1  0.003160  0.496826  0.254184  1
  Al  Al4  1  0.003150  0.003156  0.745822  1
  Al  Al5  1  0.003150  0.496852  0.745820  1
  Al  Al6  1  0.496852  0.003140  0.746688  1
  Al  Al7  1  0.496852  0.496854  0.746688  1
  Pd  Pd8  1  0.249781  0.249997  0.000017  1
  Pd  Pd9  1  0.750218  0.750001  0.999988  1
  Pd  Pd10  1  0.749761  0.750000  0.499994  1
  Ru  Ru11  1  0.750261  0.250000  0.000001  1
  Ru  Ru12  1  0.249707  0.749999  0.000004  1
  Ru  Ru13  1  0.250298  0.750002  0.499993  1
  Ru  Ru14  1  0.749749  0.249999  0.500009  1
  Rh  Rh15  1  0.250166  0.250003  0.499976  1
