# generated using pymatgen
data_Tb4Co19CuP12
_symmetry_space_group_name_H-M   'P 1'
_cell_length_a   3.67225300
_cell_length_b   10.29524615
_cell_length_c   11.79896131
_cell_angle_alpha   89.85593529
_cell_angle_beta   90.00000000
_cell_angle_gamma   90.00000000
_symmetry_Int_Tables_number   1
_chemical_formula_structural   Tb4Co19CuP12
_chemical_formula_sum   'Tb4 Co19 Cu1 P12'
_cell_volume   446.07895335
_cell_formula_units_Z   1
loop_
 _symmetry_equiv_pos_site_id
 _symmetry_equiv_pos_as_xyz
  1  'x, y, z'
loop_
 _atom_site_type_symbol
 _atom_site_label
 _atom_site_symmetry_multiplicity
 _atom_site_fract_x
 _atom_site_fract_y
 _atom_site_fract_z
 _atom_site_occupancy
  Tb  Tb0  1  0.250000  0.581736  0.700595  1
  Tb  Tb1  1  0.250000  0.918913  0.203680  1
  Tb  Tb2  1  0.750000  0.417357  0.297741  1
  Tb  Tb3  1  0.750000  0.082186  0.796978  1
  Co  Co4  1  0.250000  0.784694  0.491600  1
  Co  Co5  1  0.750000  0.287432  0.009916  1
  Co  Co6  1  0.750000  0.215385  0.508231  1
  Co  Co7  1  0.250000  0.405932  0.488108  1
  Co  Co8  1  0.250000  0.094921  0.987790  1
  Co  Co9  1  0.750000  0.593159  0.512551  1
  Co  Co10  1  0.750000  0.907517  0.013486  1
  Co  Co11  1  0.250000  0.222034  0.176035  1
  Co  Co12  1  0.250000  0.278232  0.675773  1
  Co  Co13  1  0.750000  0.777720  0.821787  1
  Co  Co14  1  0.750000  0.720775  0.327244  1
  Co  Co15  1  0.250000  0.883290  0.697495  1
  Co  Co16  1  0.250000  0.618298  0.199182  1
  Co  Co17  1  0.750000  0.117776  0.301268  1
  Co  Co18  1  0.750000  0.380430  0.801066  1
  Co  Co19  1  0.250000  0.466120  0.932174  1
  Co  Co20  1  0.250000  0.032802  0.432079  1
  Co  Co21  1  0.750000  0.534138  0.066942  1
  Co  Co22  1  0.750000  0.968223  0.567224  1
  Cu  Cu23  1  0.250000  0.711898  0.989514  1
  P  P24  1  0.250000  0.419579  0.112108  1
  P  P25  1  0.250000  0.081002  0.611527  1
  P  P26  1  0.750000  0.577100  0.884156  1
  P  P27  1  0.750000  0.919253  0.388419  1
  P  P28  1  0.250000  0.270290  0.868958  1
  P  P29  1  0.250000  0.228880  0.369231  1
  P  P30  1  0.750000  0.729004  0.137894  1
  P  P31  1  0.750000  0.771776  0.630259  1
  P  P32  1  0.250000  0.601961  0.393122  1
  P  P33  1  0.250000  0.900161  0.890220  1
  P  P34  1  0.750000  0.396813  0.607949  1
  P  P35  1  0.750000  0.103214  0.107699  1
