# generated using pymatgen
data_La2NiP4IrRh2
_symmetry_space_group_name_H-M   'P 1'
_cell_length_a   4.17985000
_cell_length_b   4.17985000
_cell_length_c   9.59702200
_cell_angle_alpha   90.00000000
_cell_angle_beta   90.00000000
_cell_angle_gamma   90.00000000
_symmetry_Int_Tables_number   1
_chemical_formula_structural   La2NiP4IrRh2
_chemical_formula_sum   'La2 Ni1 P4 Ir1 Rh2'
_cell_volume   167.67097274
_cell_formula_units_Z   1
loop_
 _symmetry_equiv_pos_site_id
 _symmetry_equiv_pos_as_xyz
  1  'x, y, z'
loop_
 _atom_site_type_symbol
 _atom_site_label
 _atom_site_symmetry_multiplicity
 _atom_site_fract_x
 _atom_site_fract_y
 _atom_site_fract_z
 _atom_site_occupancy
  La  La0  1  0.000000  0.500000  0.256302  1
  La  La1  1  0.500000  0.000000  0.738520  1
  Ni  Ni2  1  0.000000  0.500000  0.612793  1
  P  P3  1  0.000000  0.000000  0.506891  1
  P  P4  1  0.500000  0.500000  0.506891  1
  P  P5  1  0.000000  0.500000  0.858150  1
  P  P6  1  0.500000  0.000000  0.137703  1
  Ir  Ir7  1  0.500000  0.000000  0.391034  1
  Rh  Rh8  1  0.000000  0.000000  0.995858  1
  Rh  Rh9  1  0.500000  0.500000  0.995858  1
