# generated using pymatgen
data_Zr2NbRe3Si2Ge
_symmetry_space_group_name_H-M   'P 1'
_cell_length_a   6.97966498
_cell_length_b   7.02448742
_cell_length_c   3.41547800
_cell_angle_alpha   90.00000000
_cell_angle_beta   90.00000000
_cell_angle_gamma   120.16392422
_symmetry_Int_Tables_number   1
_chemical_formula_structural   Zr2NbRe3Si2Ge
_chemical_formula_sum   'Zr2 Nb1 Re3 Si2 Ge1'
_cell_volume   144.78100797
_cell_formula_units_Z   1
loop_
 _symmetry_equiv_pos_site_id
 _symmetry_equiv_pos_as_xyz
  1  'x, y, z'
loop_
 _atom_site_type_symbol
 _atom_site_label
 _atom_site_symmetry_multiplicity
 _atom_site_fract_x
 _atom_site_fract_y
 _atom_site_fract_z
 _atom_site_occupancy
  Zr  Zr0  1  0.399566  0.405795  0.500000  1
  Zr  Zr1  1  0.594827  0.995158  0.500000  1
  Nb  Nb2  1  0.006650  0.602019  0.500000  1
  Re  Re3  1  0.747915  0.748764  0.000000  1
  Re  Re4  1  0.247237  0.991262  0.000000  1
  Re  Re5  1  0.004526  0.255547  0.000000  1
  Si  Si6  1  0.326400  0.664935  0.000000  1
  Si  Si7  1  0.999921  0.998684  0.500000  1
  Ge  Ge8  1  0.672956  0.337836  0.000000  1
