# generated using pymatgen
data_TbEr9In8IrPd3
_symmetry_space_group_name_H-M   'P 1'
_cell_length_a   3.60016000
_cell_length_b   8.10900307
_cell_length_c   18.19196760
_cell_angle_alpha   90.03802762
_cell_angle_beta   90.00000000
_cell_angle_gamma   90.00000000
_symmetry_Int_Tables_number   1
_chemical_formula_structural   TbEr9In8IrPd3
_chemical_formula_sum   'Tb1 Er9 In8 Ir1 Pd3'
_cell_volume   531.09088195
_cell_formula_units_Z   1
loop_
 _symmetry_equiv_pos_site_id
 _symmetry_equiv_pos_as_xyz
  1  'x, y, z'
loop_
 _atom_site_type_symbol
 _atom_site_label
 _atom_site_symmetry_multiplicity
 _atom_site_fract_x
 _atom_site_fract_y
 _atom_site_fract_z
 _atom_site_occupancy
  Tb  Tb0  1  0.000000  0.500370  0.499757  1
  Er  Er1  1  0.000000  0.000637  0.000783  1
  Er  Er2  1  0.000000  0.729567  0.277552  1
  Er  Er3  1  0.000000  0.259724  0.719385  1
  Er  Er4  1  0.000000  0.758923  0.779872  1
  Er  Er5  1  0.000000  0.254438  0.220367  1
  Er  Er6  1  0.000000  0.615689  0.086987  1
  Er  Er7  1  0.000000  0.382593  0.916363  1
  Er  Er8  1  0.000000  0.882462  0.583303  1
  Er  Er9  1  0.000000  0.117058  0.415152  1
  In  In10  1  0.500000  0.708854  0.932739  1
  In  In11  1  0.500000  0.292172  0.068075  1
  In  In12  1  0.500000  0.792353  0.431734  1
  In  In13  1  0.500000  0.206873  0.567179  1
  In  In14  1  0.500000  0.578705  0.649491  1
  In  In15  1  0.500000  0.422161  0.351432  1
  In  In16  1  0.500000  0.924613  0.150130  1
  In  In17  1  0.500000  0.078172  0.850444  1
  Ir  Ir18  1  0.500000  0.521031  0.195723  1
  Pd  Pd19  1  0.500000  0.475847  0.804107  1
  Pd  Pd20  1  0.500000  0.976549  0.695483  1
  Pd  Pd21  1  0.500000  0.021209  0.303941  1
