# generated using pymatgen
data_LiZr3(Ni4As3)2
_symmetry_space_group_name_H-M   'P 1'
_cell_length_a   12.61708300
_cell_length_b   12.61708327
_cell_length_c   3.83954400
_cell_angle_alpha   90.00000000
_cell_angle_beta   90.00000000
_cell_angle_gamma   119.99999667
_symmetry_Int_Tables_number   1
_chemical_formula_structural   LiZr3(Ni4As3)2
_chemical_formula_sum   'Li2 Zr6 Ni16 As12'
_cell_volume   529.33209143
_cell_formula_units_Z   2
loop_
 _symmetry_equiv_pos_site_id
 _symmetry_equiv_pos_as_xyz
  1  'x, y, z'
loop_
 _atom_site_type_symbol
 _atom_site_label
 _atom_site_symmetry_multiplicity
 _atom_site_fract_x
 _atom_site_fract_y
 _atom_site_fract_z
 _atom_site_occupancy
  Li  Li0  1  0.666667  0.333333  0.000000  1
  Li  Li1  1  0.333333  0.666667  0.000000  1
  Zr  Zr2  1  0.000000  0.176937  0.500000  1
  Zr  Zr3  1  0.823063  0.823063  0.500000  1
  Zr  Zr4  1  0.176937  0.000000  0.500000  1
  Zr  Zr5  1  0.000000  0.556687  0.000000  1
  Zr  Zr6  1  0.443313  0.443313  0.000000  1
  Zr  Zr7  1  0.556687  0.000000  0.000000  1
  Ni  Ni8  1  0.000000  0.723219  0.500000  1
  Ni  Ni9  1  0.276781  0.276781  0.500000  1
  Ni  Ni10  1  0.723219  0.000000  0.500000  1
  Ni  Ni11  1  0.805483  0.178690  0.000000  1
  Ni  Ni12  1  0.821310  0.626793  0.000000  1
  Ni  Ni13  1  0.373207  0.194517  0.000000  1
  Ni  Ni14  1  0.178690  0.805483  0.000000  1
  Ni  Ni15  1  0.626793  0.821310  0.000000  1
  Ni  Ni16  1  0.194517  0.373207  0.000000  1
  Ni  Ni17  1  0.878659  0.354595  0.500000  1
  Ni  Ni18  1  0.645405  0.524063  0.500000  1
  Ni  Ni19  1  0.475937  0.121341  0.500000  1
  Ni  Ni20  1  0.354595  0.878659  0.500000  1
  Ni  Ni21  1  0.524063  0.645405  0.500000  1
  Ni  Ni22  1  0.121341  0.475937  0.500000  1
  Ni  Ni23  1  0.000000  0.000000  0.000000  1
  As  As24  1  0.000000  0.823272  0.000000  1
  As  As25  1  0.176728  0.176728  0.000000  1
  As  As26  1  0.823272  0.000000  0.000000  1
  As  As27  1  0.687905  0.175411  0.500000  1
  As  As28  1  0.824589  0.512493  0.500000  1
  As  As29  1  0.487507  0.312095  0.500000  1
  As  As30  1  0.175411  0.687905  0.500000  1
  As  As31  1  0.512493  0.824589  0.500000  1
  As  As32  1  0.312095  0.487507  0.500000  1
  As  As33  1  0.000000  0.346965  0.000000  1
  As  As34  1  0.653035  0.653035  0.000000  1
  As  As35  1  0.346965  0.000000  0.000000  1
