# generated using pymatgen
data_LaErCd(Si3Pd10)2
_symmetry_space_group_name_H-M   'P 1'
_cell_length_a   8.71136147
_cell_length_b   8.71125648
_cell_length_c   8.71073000
_cell_angle_alpha   59.99775423
_cell_angle_beta   59.99901549
_cell_angle_gamma   60.00044556
_symmetry_Int_Tables_number   1
_chemical_formula_structural   LaErCd(Si3Pd10)2
_chemical_formula_sum   'La1 Er1 Cd1 Si6 Pd20'
_cell_volume   467.40919302
_cell_formula_units_Z   1
loop_
 _symmetry_equiv_pos_site_id
 _symmetry_equiv_pos_as_xyz
  1  'x, y, z'
loop_
 _atom_site_type_symbol
 _atom_site_label
 _atom_site_symmetry_multiplicity
 _atom_site_fract_x
 _atom_site_fract_y
 _atom_site_fract_z
 _atom_site_occupancy
  La  La0  1  0.250034  0.250002  0.249983  1
  Er  Er1  1  0.750007  0.750016  0.750022  1
  Cd  Cd2  1  0.999997  0.999996  0.000001  1
  Si  Si3  1  0.733140  0.733175  0.266853  1
  Si  Si4  1  0.266852  0.266817  0.733149  1
  Si  Si5  1  0.733138  0.266860  0.733153  1
  Si  Si6  1  0.266866  0.733137  0.266843  1
  Si  Si7  1  0.266866  0.733166  0.733148  1
  Si  Si8  1  0.733133  0.266836  0.266849  1
  Pd  Pd9  1  0.616525  0.616555  0.616533  1
  Pd  Pd10  1  0.385594  0.385584  0.385594  1
  Pd  Pd11  1  0.150331  0.616556  0.616563  1
  Pd  Pd12  1  0.616529  0.150395  0.616531  1
  Pd  Pd13  1  0.843277  0.385575  0.385571  1
  Pd  Pd14  1  0.385599  0.843226  0.385591  1
  Pd  Pd15  1  0.616532  0.616517  0.150421  1
  Pd  Pd16  1  0.385609  0.385602  0.843184  1
  Pd  Pd17  1  0.998962  0.998957  0.656622  1
  Pd  Pd18  1  0.999008  0.999007  0.345407  1
  Pd  Pd19  1  0.345414  0.656579  0.999000  1
  Pd  Pd20  1  0.656598  0.345442  0.998979  1
  Pd  Pd21  1  0.998986  0.656607  0.998987  1
  Pd  Pd22  1  0.656574  0.999000  0.345421  1
  Pd  Pd23  1  0.998991  0.345415  0.998986  1
  Pd  Pd24  1  0.345449  0.998972  0.656606  1
  Pd  Pd25  1  0.656600  0.998989  0.998979  1
  Pd  Pd26  1  0.345414  0.998995  0.999001  1
  Pd  Pd27  1  0.999012  0.656572  0.345404  1
  Pd  Pd28  1  0.998964  0.345449  0.656620  1
