# generated using pymatgen
data_Er3In3SnIr2
_symmetry_space_group_name_H-M   'P 1'
_cell_length_a   7.75896300
_cell_length_b   7.75896146
_cell_length_c   3.89868500
_cell_angle_alpha   90.00000000
_cell_angle_beta   90.00000000
_cell_angle_gamma   120.00001082
_symmetry_Int_Tables_number   1
_chemical_formula_structural   Er3In3SnIr2
_chemical_formula_sum   'Er3 In3 Sn1 Ir2'
_cell_volume   203.26191228
_cell_formula_units_Z   1
loop_
 _symmetry_equiv_pos_site_id
 _symmetry_equiv_pos_as_xyz
  1  'x, y, z'
loop_
 _atom_site_type_symbol
 _atom_site_label
 _atom_site_symmetry_multiplicity
 _atom_site_fract_x
 _atom_site_fract_y
 _atom_site_fract_z
 _atom_site_occupancy
  Er  Er0  1  0.617353  0.031867  0.500000  1
  Er  Er1  1  0.414514  0.382647  0.500000  1
  Er  Er2  1  0.968133  0.585486  0.500000  1
  In  In3  1  0.992436  0.250456  0.000000  1
  In  In4  1  0.749544  0.741981  0.000000  1
  In  In5  1  0.258019  0.007564  0.000000  1
  Sn  Sn6  1  0.333333  0.666667  0.000000  1
  Ir  Ir7  1  0.666667  0.333333  0.000000  1
  Ir  Ir8  1  0.000000  0.000000  0.500000  1
