# generated using pymatgen
data_Mo2IrOs2Rh3
_symmetry_space_group_name_H-M   'P 1'
_cell_length_a   5.52738010
_cell_length_b   5.53762820
_cell_length_c   4.39970800
_cell_angle_alpha   90.00000000
_cell_angle_beta   90.00000000
_cell_angle_gamma   120.01070787
_symmetry_Int_Tables_number   1
_chemical_formula_structural   Mo2IrOs2Rh3
_chemical_formula_sum   'Mo2 Ir1 Os2 Rh3'
_cell_volume   116.61401268
_cell_formula_units_Z   1
loop_
 _symmetry_equiv_pos_site_id
 _symmetry_equiv_pos_as_xyz
  1  'x, y, z'
loop_
 _atom_site_type_symbol
 _atom_site_label
 _atom_site_symmetry_multiplicity
 _atom_site_fract_x
 _atom_site_fract_y
 _atom_site_fract_z
 _atom_site_occupancy
  Mo  Mo0  1  0.326925  0.663797  0.250000  1
  Mo  Mo1  1  0.670834  0.336002  0.750000  1
  Ir  Ir2  1  0.665353  0.834032  0.750000  1
  Os  Os3  1  0.836428  0.668539  0.250000  1
  Os  Os4  1  0.165938  0.833235  0.750000  1
  Rh  Rh5  1  0.335346  0.168431  0.250000  1
  Rh  Rh6  1  0.833873  0.166001  0.250000  1
  Rh  Rh7  1  0.165301  0.329963  0.750000  1
