# generated using pymatgen
data_CaEu3Zn4Fe3H22
_symmetry_space_group_name_H-M   'P 1'
_cell_length_a   6.61474501
_cell_length_b   6.61474494
_cell_length_c   6.61474500
_cell_angle_alpha   89.86655637
_cell_angle_beta   89.86655576
_cell_angle_gamma   89.86655594
_symmetry_Int_Tables_number   1
_chemical_formula_structural   CaEu3Zn4Fe3H22
_chemical_formula_sum   'Ca1 Eu3 Zn4 Fe3 H22'
_cell_volume   289.42483104
_cell_formula_units_Z   1
loop_
 _symmetry_equiv_pos_site_id
 _symmetry_equiv_pos_as_xyz
  1  'x, y, z'
loop_
 _atom_site_type_symbol
 _atom_site_label
 _atom_site_symmetry_multiplicity
 _atom_site_fract_x
 _atom_site_fract_y
 _atom_site_fract_z
 _atom_site_occupancy
  Ca  Ca0  1  0.715043  0.715043  0.715043  1
  Eu  Eu1  1  0.287458  0.287458  0.712720  1
  Eu  Eu2  1  0.287458  0.712720  0.287458  1
  Eu  Eu3  1  0.712720  0.287458  0.287458  1
  Zn  Zn4  1  0.785158  0.785158  0.213822  1
  Zn  Zn5  1  0.785158  0.213822  0.785158  1
  Zn  Zn6  1  0.213822  0.785158  0.785158  1
  Zn  Zn7  1  0.212375  0.212375  0.212375  1
  Fe  Fe8  1  0.998864  0.998864  0.502060  1
  Fe  Fe9  1  0.998864  0.502060  0.998864  1
  Fe  Fe10  1  0.502060  0.998864  0.998864  1
  H  H11  1  0.998677  0.501683  0.237852  1
  H  H12  1  0.503459  0.760879  0.997719  1
  H  H13  1  0.760879  0.997719  0.503459  1
  H  H14  1  0.997719  0.760879  0.503459  1
  H  H15  1  0.501683  0.998677  0.237852  1
  H  H16  1  0.760879  0.503459  0.997719  1
  H  H17  1  0.997719  0.503459  0.760879  1
  H  H18  1  0.501683  0.237852  0.998677  1
  H  H19  1  0.998677  0.237852  0.501683  1
  H  H20  1  0.503459  0.997719  0.760879  1
  H  H21  1  0.237852  0.998677  0.501683  1
  H  H22  1  0.237852  0.501683  0.998677  1
  H  H23  1  0.998043  0.998043  0.259270  1
  H  H24  1  0.998593  0.743312  0.998593  1
  H  H25  1  0.743312  0.998593  0.998593  1
  H  H26  1  0.998593  0.998593  0.743312  1
  H  H27  1  0.998043  0.259270  0.998043  1
  H  H28  1  0.259270  0.998043  0.998043  1
  H  H29  1  0.637158  0.637158  0.367617  1
  H  H30  1  0.637158  0.367617  0.637158  1
  H  H31  1  0.367617  0.637158  0.637158  1
  H  H32  1  0.362697  0.362697  0.362697  1
