# generated using pymatgen
data_TiNbAlB2Ru5
_symmetry_space_group_name_H-M   'P 1'
_cell_length_a   9.27846070
_cell_length_b   9.27846070
_cell_length_c   2.98887300
_cell_angle_alpha   90.00000000
_cell_angle_beta   90.00000000
_cell_angle_gamma   89.41792895
_symmetry_Int_Tables_number   1
_chemical_formula_structural   TiNbAlB2Ru5
_chemical_formula_sum   'Ti2 Nb2 Al2 B4 Ru10'
_cell_volume   257.29829929
_cell_formula_units_Z   2
loop_
 _symmetry_equiv_pos_site_id
 _symmetry_equiv_pos_as_xyz
  1  'x, y, z'
loop_
 _atom_site_type_symbol
 _atom_site_label
 _atom_site_symmetry_multiplicity
 _atom_site_fract_x
 _atom_site_fract_y
 _atom_site_fract_z
 _atom_site_occupancy
  Ti  Ti0  1  0.826008  0.673992  0.000000  1
  Ti  Ti1  1  0.173992  0.326008  0.000000  1
  Nb  Nb2  1  0.323483  0.823483  0.000000  1
  Nb  Nb3  1  0.676517  0.176517  0.000000  1
  Al  Al4  1  0.500000  0.500000  0.000000  1
  Al  Al5  1  0.000000  0.000000  0.000000  1
  B  B6  1  0.626705  0.873295  0.000000  1
  B  B7  1  0.373295  0.126705  0.000000  1
  B  B8  1  0.123976  0.623976  0.000000  1
  B  B9  1  0.876024  0.376024  0.000000  1
  Ru  Ru10  1  0.571889  0.713054  0.500000  1
  Ru  Ru11  1  0.428111  0.286946  0.500000  1
  Ru  Ru12  1  0.067685  0.785690  0.500000  1
  Ru  Ru13  1  0.932315  0.214310  0.500000  1
  Ru  Ru14  1  0.285690  0.567685  0.500000  1
  Ru  Ru15  1  0.714310  0.432315  0.500000  1
  Ru  Ru16  1  0.213054  0.071889  0.500000  1
  Ru  Ru17  1  0.786946  0.928111  0.500000  1
  Ru  Ru18  1  0.500000  0.000000  0.500000  1
  Ru  Ru19  1  0.000000  0.500000  0.500000  1
