# generated using pymatgen
data_Ho3CdIn3CuPd
_symmetry_space_group_name_H-M   'P 1'
_cell_length_a   7.79950100
_cell_length_b   7.79949902
_cell_length_c   3.83888700
_cell_angle_alpha   90.00000000
_cell_angle_beta   90.00000000
_cell_angle_gamma   120.00001152
_symmetry_Int_Tables_number   1
_chemical_formula_structural   Ho3CdIn3CuPd
_chemical_formula_sum   'Ho3 Cd1 In3 Cu1 Pd1'
_cell_volume   202.24110781
_cell_formula_units_Z   1
loop_
 _symmetry_equiv_pos_site_id
 _symmetry_equiv_pos_as_xyz
  1  'x, y, z'
loop_
 _atom_site_type_symbol
 _atom_site_label
 _atom_site_symmetry_multiplicity
 _atom_site_fract_x
 _atom_site_fract_y
 _atom_site_fract_z
 _atom_site_occupancy
  Ho  Ho0  1  0.023514  0.612235  0.500000  1
  Ho  Ho1  1  0.387765  0.411279  0.500000  1
  Ho  Ho2  1  0.588721  0.976486  0.500000  1
  Cd  Cd3  1  0.666667  0.333333  0.000000  1
  In  In4  1  0.749989  0.749176  0.000000  1
  In  In5  1  0.999186  0.250011  0.000000  1
  In  In6  1  0.250824  0.000814  0.000000  1
  Cu  Cu7  1  0.000000  0.000000  0.500000  1
  Pd  Pd8  1  0.333333  0.666667  0.000000  1
