# generated using pymatgen
data_Hf5ZrBeBr12
_symmetry_space_group_name_H-M   'P 1'
_cell_length_a   8.60299556
_cell_length_b   8.58771980
_cell_length_c   8.61838000
_cell_angle_alpha   106.96628283
_cell_angle_beta   106.79915636
_cell_angle_gamma   106.71424902
_symmetry_Int_Tables_number   1
_chemical_formula_structural   Hf5ZrBeBr12
_chemical_formula_sum   'Hf5 Zr1 Be1 Br12'
_cell_volume   532.75909357
_cell_formula_units_Z   1
loop_
 _symmetry_equiv_pos_site_id
 _symmetry_equiv_pos_as_xyz
  1  'x, y, z'
loop_
 _atom_site_type_symbol
 _atom_site_label
 _atom_site_symmetry_multiplicity
 _atom_site_fract_x
 _atom_site_fract_y
 _atom_site_fract_z
 _atom_site_occupancy
  Hf  Hf0  1  0.970624  0.707286  0.902374  1
  Hf  Hf1  1  0.292774  0.097709  0.029696  1
  Hf  Hf2  1  0.097137  0.030331  0.292196  1
  Hf  Hf3  1  0.903126  0.971716  0.708736  1
  Hf  Hf4  1  0.708159  0.903215  0.970756  1
  Zr  Zr5  1  0.029405  0.295843  0.098395  1
  Be  Be6  1  0.000399  0.999807  0.000035  1
  Br  Br7  1  0.919803  0.311480  0.771588  1
  Br  Br8  1  0.681316  0.219946  0.077355  1
  Br  Br9  1  0.442676  0.140137  0.365788  1
  Br  Br10  1  0.859620  0.634076  0.556972  1
  Br  Br11  1  0.222687  0.077503  0.687209  1
  Br  Br12  1  0.634387  0.556670  0.859256  1
  Br  Br13  1  0.370339  0.443454  0.140879  1
  Br  Br14  1  0.776711  0.921103  0.312104  1
  Br  Br15  1  0.142466  0.365667  0.447530  1
  Br  Br16  1  0.557261  0.859181  0.634351  1
  Br  Br17  1  0.312344  0.775795  0.921208  1
  Br  Br18  1  0.078767  0.689083  0.223572  1
