# generated using pymatgen
data_Lu4Zr2Pb5
_symmetry_space_group_name_H-M   'P 1'
_cell_length_a   6.25822517
_cell_length_b   9.28955815
_cell_length_c   11.45548034
_cell_angle_alpha   113.92017428
_cell_angle_beta   105.85205003
_cell_angle_gamma   89.99999983
_symmetry_Int_Tables_number   1
_chemical_formula_structural   Lu4Zr2Pb5
_chemical_formula_sum   'Lu8 Zr4 Pb10'
_cell_volume   580.96225222
_cell_formula_units_Z   2
loop_
 _symmetry_equiv_pos_site_id
 _symmetry_equiv_pos_as_xyz
  1  'x, y, z'
loop_
 _atom_site_type_symbol
 _atom_site_label
 _atom_site_symmetry_multiplicity
 _atom_site_fract_x
 _atom_site_fract_y
 _atom_site_fract_z
 _atom_site_occupancy
  Lu  Lu0  1  0.437512  0.672783  0.875024  1
  Lu  Lu1  1  0.562488  0.327217  0.124976  1
  Lu  Lu2  1  0.937512  0.202241  0.875024  1
  Lu  Lu3  1  0.062488  0.797759  0.124976  1
  Lu  Lu4  1  0.145631  0.259039  0.291262  1
  Lu  Lu5  1  0.854369  0.740961  0.708738  1
  Lu  Lu6  1  0.645631  0.032224  0.291262  1
  Lu  Lu7  1  0.354369  0.967776  0.708738  1
  Zr  Zr8  1  0.557567  0.307567  0.615134  1
  Zr  Zr9  1  0.442433  0.692433  0.384866  1
  Zr  Zr10  1  0.942433  0.692433  0.384866  1
  Zr  Zr11  1  0.057567  0.307567  0.615134  1
  Pb  Pb12  1  0.290279  0.592790  0.580557  1
  Pb  Pb13  1  0.709721  0.407210  0.419443  1
  Pb  Pb14  1  0.790279  0.987767  0.580557  1
  Pb  Pb15  1  0.209721  0.012233  0.419443  1
  Pb  Pb16  1  0.250000  0.000000  0.000000  1
  Pb  Pb17  1  0.750000  0.000000  0.000000  1
  Pb  Pb18  1  0.073449  0.471052  0.146899  1
  Pb  Pb19  1  0.926551  0.528948  0.853101  1
  Pb  Pb20  1  0.573449  0.675847  0.146899  1
  Pb  Pb21  1  0.426551  0.324153  0.853101  1
