# generated using pymatgen
data_Hf2GaIr4Rh
_symmetry_space_group_name_H-M   'P 1'
_cell_length_a   4.08867500
_cell_length_b   5.57287200
_cell_length_c   11.02314800
_cell_angle_alpha   90.00000000
_cell_angle_beta   90.00000000
_cell_angle_gamma   90.00000000
_symmetry_Int_Tables_number   1
_chemical_formula_structural   Hf2GaIr4Rh
_chemical_formula_sum   'Hf4 Ga2 Ir8 Rh2'
_cell_volume   251.16972918
_cell_formula_units_Z   2
loop_
 _symmetry_equiv_pos_site_id
 _symmetry_equiv_pos_as_xyz
  1  'x, y, z'
loop_
 _atom_site_type_symbol
 _atom_site_label
 _atom_site_symmetry_multiplicity
 _atom_site_fract_x
 _atom_site_fract_y
 _atom_site_fract_z
 _atom_site_occupancy
  Hf  Hf0  1  0.500000  0.189123  0.637128  1
  Hf  Hf1  1  0.500000  0.810877  0.362872  1
  Hf  Hf2  1  0.500000  0.689123  0.862872  1
  Hf  Hf3  1  0.500000  0.310877  0.137128  1
  Ga  Ga4  1  0.000000  0.500000  0.500000  1
  Ga  Ga5  1  0.000000  0.000000  0.000000  1
  Ir  Ir6  1  0.500000  0.193484  0.887544  1
  Ir  Ir7  1  0.500000  0.806516  0.112456  1
  Ir  Ir8  1  0.500000  0.693484  0.612456  1
  Ir  Ir9  1  0.500000  0.306516  0.387544  1
  Ir  Ir10  1  0.000000  0.440097  0.750599  1
  Ir  Ir11  1  0.000000  0.559903  0.249401  1
  Ir  Ir12  1  0.000000  0.059903  0.250599  1
  Ir  Ir13  1  0.000000  0.940097  0.749401  1
  Rh  Rh14  1  0.000000  0.000000  0.500000  1
  Rh  Rh15  1  0.000000  0.500000  0.000000  1
