# generated using pymatgen
data_Tb11In9(HgRu)2
_symmetry_space_group_name_H-M   'P 1'
_cell_length_a   3.70352700
_cell_length_b   13.41242473
_cell_length_c   13.38029853
_cell_angle_alpha   111.17072348
_cell_angle_beta   90.00000000
_cell_angle_gamma   90.00000000
_symmetry_Int_Tables_number   1
_chemical_formula_structural   Tb11In9(HgRu)2
_chemical_formula_sum   'Tb11 In9 Hg2 Ru2'
_cell_volume   619.78547805
_cell_formula_units_Z   1
loop_
 _symmetry_equiv_pos_site_id
 _symmetry_equiv_pos_as_xyz
  1  'x, y, z'
loop_
 _atom_site_type_symbol
 _atom_site_label
 _atom_site_symmetry_multiplicity
 _atom_site_fract_x
 _atom_site_fract_y
 _atom_site_fract_z
 _atom_site_occupancy
  Tb  Tb0  1  0.000000  0.936672  0.584293  1
  Tb  Tb1  1  0.000000  0.063328  0.415707  1
  Tb  Tb2  1  0.000000  0.583906  0.929404  1
  Tb  Tb3  1  0.000000  0.416094  0.070596  1
  Tb  Tb4  1  0.000000  0.160174  0.843915  1
  Tb  Tb5  1  0.000000  0.839826  0.156085  1
  Tb  Tb6  1  0.000000  0.389660  0.645863  1
  Tb  Tb7  1  0.000000  0.610340  0.354137  1
  Tb  Tb8  1  0.000000  0.679821  0.703435  1
  Tb  Tb9  1  0.000000  0.320179  0.296565  1
  Tb  Tb10  1  0.000000  0.000000  0.000000  1
  In  In11  1  0.500000  0.158214  0.636404  1
  In  In12  1  0.500000  0.841786  0.363596  1
  In  In13  1  0.500000  0.631663  0.159538  1
  In  In14  1  0.500000  0.368337  0.840462  1
  In  In15  1  0.500000  0.932548  0.785354  1
  In  In16  1  0.500000  0.067452  0.214646  1
  In  In17  1  0.500000  0.781097  0.923751  1
  In  In18  1  0.500000  0.218903  0.076249  1
  In  In19  1  0.500000  0.500000  0.500000  1
  Hg  Hg20  1  0.500000  0.747054  0.548734  1
  Hg  Hg21  1  0.500000  0.252946  0.451266  1
  Ru  Ru22  1  0.500000  0.552612  0.764822  1
  Ru  Ru23  1  0.500000  0.447388  0.235178  1
