# generated using pymatgen
data_Tb2Y2Ga12Au
_symmetry_space_group_name_H-M   'P 1'
_cell_length_a   7.54913055
_cell_length_b   7.55625550
_cell_length_c   7.54913049
_cell_angle_alpha   109.47267717
_cell_angle_beta   109.43005570
_cell_angle_gamma   109.47268820
_symmetry_Int_Tables_number   1
_chemical_formula_structural   Tb2Y2Ga12Au
_chemical_formula_sum   'Tb2 Y2 Ga12 Au1'
_cell_volume   331.65255268
_cell_formula_units_Z   1
loop_
 _symmetry_equiv_pos_site_id
 _symmetry_equiv_pos_as_xyz
  1  'x, y, z'
loop_
 _atom_site_type_symbol
 _atom_site_label
 _atom_site_symmetry_multiplicity
 _atom_site_fract_x
 _atom_site_fract_y
 _atom_site_fract_z
 _atom_site_occupancy
  Tb  Tb0  1  0.500000  0.000000  0.000000  1
  Tb  Tb1  1  0.000000  0.000000  0.500000  1
  Y  Y2  1  0.500000  0.500000  0.500000  1
  Y  Y3  1  0.000000  0.500000  0.000000  1
  Ga  Ga4  1  0.304547  0.000000  0.304547  1
  Ga  Ga5  1  0.000125  0.695576  0.695451  1
  Ga  Ga6  1  0.249995  0.750011  0.500017  1
  Ga  Ga7  1  0.750000  0.500000  0.250000  1
  Ga  Ga8  1  0.499983  0.249989  0.750005  1
  Ga  Ga9  1  0.750005  0.249989  0.499983  1
  Ga  Ga10  1  0.695451  0.695576  0.000125  1
  Ga  Ga11  1  0.695453  0.000000  0.695453  1
  Ga  Ga12  1  0.250000  0.500000  0.750000  1
  Ga  Ga13  1  0.500017  0.750011  0.249995  1
  Ga  Ga14  1  0.304549  0.304424  0.999875  1
  Ga  Ga15  1  0.999875  0.304424  0.304549  1
  Au  Au16  1  0.000000  0.000000  0.000000  1
