# generated using pymatgen
data_Sr3MgTc2O9
_symmetry_space_group_name_H-M   'P 1'
_cell_length_a   5.62228200
_cell_length_b   5.62228147
_cell_length_c   6.89551100
_cell_angle_alpha   90.00000000
_cell_angle_beta   90.00000000
_cell_angle_gamma   119.99999137
_symmetry_Int_Tables_number   1
_chemical_formula_structural   Sr3MgTc2O9
_chemical_formula_sum   'Sr3 Mg1 Tc2 O9'
_cell_volume   188.76537439
_cell_formula_units_Z   1
loop_
 _symmetry_equiv_pos_site_id
 _symmetry_equiv_pos_as_xyz
  1  'x, y, z'
loop_
 _atom_site_type_symbol
 _atom_site_label
 _atom_site_symmetry_multiplicity
 _atom_site_fract_x
 _atom_site_fract_y
 _atom_site_fract_z
 _atom_site_occupancy
  Sr  Sr0  1  0.000000  0.000000  0.000000  1
  Sr  Sr1  1  0.666667  0.333333  0.350196  1
  Sr  Sr2  1  0.333333  0.666667  0.649804  1
  Mg  Mg3  1  0.000000  0.000000  0.500000  1
  Tc  Tc4  1  0.666667  0.333333  0.837375  1
  Tc  Tc5  1  0.333333  0.666667  0.162625  1
  O  O6  1  0.500000  0.000000  0.000000  1
  O  O7  1  0.500000  0.500000  0.000000  1
  O  O8  1  0.000000  0.500000  0.000000  1
  O  O9  1  0.829177  0.658352  0.674568  1
  O  O10  1  0.829177  0.170823  0.674568  1
  O  O11  1  0.341648  0.170823  0.674568  1
  O  O12  1  0.170823  0.341648  0.325432  1
  O  O13  1  0.170823  0.829177  0.325432  1
  O  O14  1  0.658352  0.829177  0.325432  1
