# generated using pymatgen
data_Sm2GaPt6
_symmetry_space_group_name_H-M   'P 1'
_cell_length_a   6.87771405
_cell_length_b   6.87771414
_cell_length_c   6.87771582
_cell_angle_alpha   48.91162597
_cell_angle_beta   48.91162795
_cell_angle_gamma   48.91161877
_symmetry_Int_Tables_number   1
_chemical_formula_structural   Sm2GaPt6
_chemical_formula_sum   'Sm2 Ga1 Pt6'
_cell_volume   169.65566555
_cell_formula_units_Z   1
loop_
 _symmetry_equiv_pos_site_id
 _symmetry_equiv_pos_as_xyz
  1  'x, y, z'
loop_
 _atom_site_type_symbol
 _atom_site_label
 _atom_site_symmetry_multiplicity
 _atom_site_fract_x
 _atom_site_fract_y
 _atom_site_fract_z
 _atom_site_occupancy
  Sm  Sm0  1  0.218774  0.218774  0.218774  1
  Sm  Sm1  1  0.781226  0.781226  0.781226  1
  Ga  Ga2  1  0.500000  0.500000  0.500000  1
  Pt  Pt3  1  0.732795  0.227851  0.227852  1
  Pt  Pt4  1  0.227851  0.732795  0.227852  1
  Pt  Pt5  1  0.772149  0.772149  0.267204  1
  Pt  Pt6  1  0.227851  0.227851  0.732796  1
  Pt  Pt7  1  0.772149  0.267205  0.772148  1
  Pt  Pt8  1  0.267205  0.772149  0.772148  1
