# generated using pymatgen
data_NaNd(SmB12)2
_symmetry_space_group_name_H-M   'P 1'
_cell_length_a   7.15650219
_cell_length_b   7.15650235
_cell_length_c   5.84547300
_cell_angle_alpha   90.00000000
_cell_angle_beta   90.00000000
_cell_angle_gamma   109.42030968
_symmetry_Int_Tables_number   1
_chemical_formula_structural   NaNd(SmB12)2
_chemical_formula_sum   'Na1 Nd1 Sm2 B24'
_cell_volume   282.34575795
_cell_formula_units_Z   1
loop_
 _symmetry_equiv_pos_site_id
 _symmetry_equiv_pos_as_xyz
  1  'x, y, z'
loop_
 _atom_site_type_symbol
 _atom_site_label
 _atom_site_symmetry_multiplicity
 _atom_site_fract_x
 _atom_site_fract_y
 _atom_site_fract_z
 _atom_site_occupancy
  Na  Na0  1  0.748566  0.251434  0.500000  1
  Nd  Nd1  1  0.999117  0.000883  0.000000  1
  Sm  Sm2  1  0.500352  0.499648  0.000000  1
  Sm  Sm3  1  0.251239  0.748761  0.500000  1
  B  B4  1  0.175408  0.325567  0.649374  1
  B  B5  1  0.925328  0.574606  0.150253  1
  B  B6  1  0.674433  0.824592  0.649374  1
  B  B7  1  0.425394  0.074672  0.150253  1
  B  B8  1  0.175408  0.325567  0.350626  1
  B  B9  1  0.925328  0.574606  0.849747  1
  B  B10  1  0.674433  0.824592  0.350626  1
  B  B11  1  0.425394  0.074672  0.849747  1
  B  B12  1  0.400793  0.399183  0.500000  1
  B  B13  1  0.149857  0.650151  0.000000  1
  B  B14  1  0.898935  0.900271  0.500000  1
  B  B15  1  0.649681  0.149346  0.000000  1
  B  B16  1  0.325445  0.175123  0.649373  1
  B  B17  1  0.075267  0.425947  0.150307  1
  B  B18  1  0.824877  0.674555  0.649373  1
  B  B19  1  0.574053  0.924733  0.150307  1
  B  B20  1  0.099729  0.101065  0.500000  1
  B  B21  1  0.850654  0.350319  0.000000  1
  B  B22  1  0.600817  0.599207  0.500000  1
  B  B23  1  0.349849  0.850143  0.000000  1
  B  B24  1  0.325445  0.175123  0.350627  1
  B  B25  1  0.075267  0.425947  0.849693  1
  B  B26  1  0.824877  0.674555  0.350627  1
  B  B27  1  0.574053  0.924733  0.849693  1
