# generated using pymatgen
data_Hf3NbFe4(SiP)2
_symmetry_space_group_name_H-M   'P 1'
_cell_length_a   3.78546700
_cell_length_b   6.26695138
_cell_length_c   7.05393101
_cell_angle_alpha   90.23177416
_cell_angle_beta   90.00000000
_cell_angle_gamma   90.00000000
_symmetry_Int_Tables_number   1
_chemical_formula_structural   Hf3NbFe4(SiP)2
_chemical_formula_sum   'Hf3 Nb1 Fe4 Si2 P2'
_cell_volume   167.34141781
_cell_formula_units_Z   1
loop_
 _symmetry_equiv_pos_site_id
 _symmetry_equiv_pos_as_xyz
  1  'x, y, z'
loop_
 _atom_site_type_symbol
 _atom_site_label
 _atom_site_symmetry_multiplicity
 _atom_site_fract_x
 _atom_site_fract_y
 _atom_site_fract_z
 _atom_site_occupancy
  Hf  Hf0  1  0.750000  0.490531  0.313160  1
  Hf  Hf1  1  0.250000  0.015894  0.811114  1
  Hf  Hf2  1  0.750000  0.988144  0.193170  1
  Nb  Nb3  1  0.250000  0.517422  0.677783  1
  Fe  Fe4  1  0.750000  0.849840  0.563829  1
  Fe  Fe5  1  0.250000  0.147825  0.429706  1
  Fe  Fe6  1  0.750000  0.341813  0.944292  1
  Fe  Fe7  1  0.250000  0.648591  0.064296  1
  Si  Si8  1  0.750000  0.708298  0.882457  1
  Si  Si9  1  0.750000  0.224235  0.613597  1
  P  P10  1  0.250000  0.285386  0.115769  1
  P  P11  1  0.250000  0.782019  0.390827  1
