# generated using pymatgen
data_Ho16Cd4Ir3Pd
_symmetry_space_group_name_H-M   'P 1'
_cell_length_a   9.58763355
_cell_length_b   9.58763380
_cell_length_c   9.58763368
_cell_angle_alpha   60.13964659
_cell_angle_beta   60.13964714
_cell_angle_gamma   60.13964845
_symmetry_Int_Tables_number   1
_chemical_formula_structural   Ho16Cd4Ir3Pd
_chemical_formula_sum   'Ho16 Cd4 Ir3 Pd1'
_cell_volume   625.15967821
_cell_formula_units_Z   1
loop_
 _symmetry_equiv_pos_site_id
 _symmetry_equiv_pos_as_xyz
  1  'x, y, z'
loop_
 _atom_site_type_symbol
 _atom_site_label
 _atom_site_symmetry_multiplicity
 _atom_site_fract_x
 _atom_site_fract_y
 _atom_site_fract_z
 _atom_site_occupancy
  Ho  Ho0  1  0.598458  0.598458  0.598458  1
  Ho  Ho1  1  0.603247  0.603247  0.197564  1
  Ho  Ho2  1  0.603247  0.197564  0.603247  1
  Ho  Ho3  1  0.197564  0.603247  0.603247  1
  Ho  Ho4  1  0.054840  0.440351  0.440351  1
  Ho  Ho5  1  0.438436  0.060624  0.060624  1
  Ho  Ho6  1  0.440351  0.054840  0.440351  1
  Ho  Ho7  1  0.060624  0.438436  0.060624  1
  Ho  Ho8  1  0.440351  0.440351  0.054840  1
  Ho  Ho9  1  0.060624  0.060624  0.438436  1
  Ho  Ho10  1  0.188464  0.812614  0.812614  1
  Ho  Ho11  1  0.815123  0.186651  0.186651  1
  Ho  Ho12  1  0.812614  0.188464  0.812614  1
  Ho  Ho13  1  0.186651  0.815123  0.186651  1
  Ho  Ho14  1  0.812614  0.812614  0.188464  1
  Ho  Ho15  1  0.186651  0.186651  0.815123  1
  Cd  Cd16  1  0.830921  0.830921  0.830921  1
  Cd  Cd17  1  0.831300  0.831300  0.505728  1
  Cd  Cd18  1  0.831300  0.505728  0.831300  1
  Cd  Cd19  1  0.505728  0.831300  0.831300  1
  Ir  Ir20  1  0.392205  0.392205  0.823548  1
  Ir  Ir21  1  0.392205  0.823548  0.392205  1
  Ir  Ir22  1  0.823548  0.392205  0.392205  1
  Pd  Pd23  1  0.392937  0.392937  0.392937  1
