# generated using pymatgen
data_Pr2Ga3SiRh4
_symmetry_space_group_name_H-M   'P 1'
_cell_length_a   4.27779300
_cell_length_b   4.27779300
_cell_length_c   10.16001300
_cell_angle_alpha   90.00000000
_cell_angle_beta   90.00000000
_cell_angle_gamma   90.00000000
_symmetry_Int_Tables_number   1
_chemical_formula_structural   Pr2Ga3SiRh4
_chemical_formula_sum   'Pr2 Ga3 Si1 Rh4'
_cell_volume   185.92328947
_cell_formula_units_Z   1
loop_
 _symmetry_equiv_pos_site_id
 _symmetry_equiv_pos_as_xyz
  1  'x, y, z'
loop_
 _atom_site_type_symbol
 _atom_site_label
 _atom_site_symmetry_multiplicity
 _atom_site_fract_x
 _atom_site_fract_y
 _atom_site_fract_z
 _atom_site_occupancy
  Pr  Pr0  1  0.000000  0.500000  0.245792  1
  Pr  Pr1  1  0.500000  0.000000  0.754100  1
  Ga  Ga2  1  0.000000  0.500000  0.876562  1
  Ga  Ga3  1  0.000000  0.000000  0.497140  1
  Ga  Ga4  1  0.500000  0.500000  0.497140  1
  Si  Si5  1  0.500000  0.000000  0.120753  1
  Rh  Rh6  1  0.000000  0.500000  0.629072  1
  Rh  Rh7  1  0.500000  0.000000  0.359567  1
  Rh  Rh8  1  0.000000  0.000000  0.009937  1
  Rh  Rh9  1  0.500000  0.500000  0.009937  1
