# generated using pymatgen
data_Tb7Mg(Si4W3)4
_symmetry_space_group_name_H-M   'P 1'
_cell_length_a   6.75999977
_cell_length_b   6.94113957
_cell_length_c   12.91839430
_cell_angle_alpha   90.05795586
_cell_angle_beta   89.96265587
_cell_angle_gamma   90.09840598
_symmetry_Int_Tables_number   1
_chemical_formula_structural   Tb7Mg(Si4W3)4
_chemical_formula_sum   'Tb7 Mg1 Si16 W12'
_cell_volume   606.15688163
_cell_formula_units_Z   1
loop_
 _symmetry_equiv_pos_site_id
 _symmetry_equiv_pos_as_xyz
  1  'x, y, z'
loop_
 _atom_site_type_symbol
 _atom_site_label
 _atom_site_symmetry_multiplicity
 _atom_site_fract_x
 _atom_site_fract_y
 _atom_site_fract_z
 _atom_site_occupancy
  Tb  Tb0  1  0.497430  0.668682  0.593783  1
  Tb  Tb1  1  0.996958  0.832144  0.907179  1
  Tb  Tb2  1  0.504850  0.332395  0.093191  1
  Tb  Tb3  1  0.002705  0.165584  0.409886  1
  Tb  Tb4  1  0.503174  0.332018  0.408558  1
  Tb  Tb5  1  0.004433  0.167483  0.093484  1
  Tb  Tb6  1  0.495669  0.668142  0.904521  1
  Mg  Mg7  1  0.985556  0.831390  0.592422  1
  Si  Si8  1  0.660980  0.956604  0.454984  1
  Si  Si9  1  0.162163  0.543355  0.046088  1
  Si  Si10  1  0.338561  0.044058  0.952760  1
  Si  Si11  1  0.842903  0.463992  0.548406  1
  Si  Si12  1  0.330553  0.037446  0.547598  1
  Si  Si13  1  0.838469  0.456439  0.952994  1
  Si  Si14  1  0.662500  0.955989  0.045673  1
  Si  Si15  1  0.160400  0.545130  0.454536  1
  Si  Si16  1  0.465041  0.369516  0.749933  1
  Si  Si17  1  0.966802  0.126123  0.748034  1
  Si  Si18  1  0.536688  0.630136  0.250743  1
  Si  Si19  1  0.035997  0.869996  0.250929  1
  Si  Si20  1  0.701897  0.866529  0.747026  1
  Si  Si21  1  0.190411  0.638139  0.745343  1
  Si  Si22  1  0.302963  0.133521  0.250558  1
  Si  Si23  1  0.804781  0.367595  0.251641  1
  W  W24  1  0.670051  0.163428  0.624048  1
  W  W25  1  0.168235  0.336997  0.873611  1
  W  W26  1  0.332437  0.837639  0.125884  1
  W  W27  1  0.832321  0.664924  0.375702  1
  W  W28  1  0.332409  0.838077  0.374550  1
  W  W29  1  0.832194  0.663678  0.126300  1
  W  W30  1  0.670163  0.161119  0.872500  1
  W  W31  1  0.169713  0.333142  0.626734  1
  W  W32  1  0.834023  0.498394  0.750167  1
  W  W33  1  0.334259  0.000808  0.749502  1
  W  W34  1  0.167526  0.501468  0.250509  1
  W  W35  1  0.664784  0.997916  0.250221  1
