# generated using pymatgen
data_Ca9La(Si3H)2
_symmetry_space_group_name_H-M   'P 1'
_cell_length_a   9.09147314
_cell_length_b   9.09147305
_cell_length_c   9.09701465
_cell_angle_alpha   129.96149411
_cell_angle_beta   129.96149254
_cell_angle_gamma   73.49727231
_symmetry_Int_Tables_number   1
_chemical_formula_structural   Ca9La(Si3H)2
_chemical_formula_sum   'Ca9 La1 Si6 H2'
_cell_volume   431.04960156
_cell_formula_units_Z   1
loop_
 _symmetry_equiv_pos_site_id
 _symmetry_equiv_pos_as_xyz
  1  'x, y, z'
loop_
 _atom_site_type_symbol
 _atom_site_label
 _atom_site_symmetry_multiplicity
 _atom_site_fract_x
 _atom_site_fract_y
 _atom_site_fract_z
 _atom_site_occupancy
  Ca  Ca0  1  0.498952  0.505500  0.000238  1
  Ca  Ca1  1  0.005500  0.998952  0.000238  1
  Ca  Ca2  1  0.181623  0.681623  0.161636  1
  Ca  Ca3  1  0.020037  0.184707  0.502526  1
  Ca  Ca4  1  0.684707  0.520037  0.502526  1
  Ca  Ca5  1  0.481466  0.981466  0.170177  1
  Ca  Ca6  1  0.815154  0.315154  0.833792  1
  Ca  Ca7  1  0.978735  0.814259  0.496061  1
  Ca  Ca8  1  0.314259  0.478735  0.496061  1
  La  La9  1  0.527766  0.027766  0.848593  1
  Si  Si10  1  0.250047  0.247227  0.995160  1
  Si  Si11  1  0.747227  0.750047  0.995160  1
  Si  Si12  1  0.885696  0.385696  0.275448  1
  Si  Si13  1  0.112919  0.612919  0.723251  1
  Si  Si14  1  0.387438  0.112840  0.502592  1
  Si  Si15  1  0.612840  0.887438  0.502592  1
  H  H16  1  0.246264  0.746264  0.494606  1
  H  H17  1  0.749369  0.249369  0.499342  1
