# generated using pymatgen
data_Sn16PdRh3
_symmetry_space_group_name_H-M   'P 1'
_cell_length_a   12.70769396
_cell_length_b   12.70769386
_cell_length_c   12.71283020
_cell_angle_alpha   151.00722767
_cell_angle_beta   151.00722883
_cell_angle_gamma   41.40366435
_symmetry_Int_Tables_number   1
_chemical_formula_structural   Sn16PdRh3
_chemical_formula_sum   'Sn16 Pd1 Rh3'
_cell_volume   481.31978776
_cell_formula_units_Z   1
loop_
 _symmetry_equiv_pos_site_id
 _symmetry_equiv_pos_as_xyz
  1  'x, y, z'
loop_
 _atom_site_type_symbol
 _atom_site_label
 _atom_site_symmetry_multiplicity
 _atom_site_fract_x
 _atom_site_fract_y
 _atom_site_fract_z
 _atom_site_occupancy
  Sn  Sn0  1  0.140431  0.635358  0.148708  1
  Sn  Sn1  1  0.636337  0.487825  0.497067  1
  Sn  Sn2  1  0.885960  0.887108  0.647210  1
  Sn  Sn3  1  0.385950  0.738720  0.998665  1
  Sn  Sn4  1  0.612892  0.614040  0.352790  1
  Sn  Sn5  1  0.112714  0.759943  0.998665  1
  Sn  Sn6  1  0.864642  0.359569  0.851292  1
  Sn  Sn7  1  0.360730  0.509243  0.497067  1
  Sn  Sn8  1  0.990757  0.139270  0.502933  1
  Sn  Sn9  1  0.486649  0.991723  0.851292  1
  Sn  Sn10  1  0.740057  0.387286  0.001335  1
  Sn  Sn11  1  0.239899  0.238750  0.352790  1
  Sn  Sn12  1  0.761280  0.114050  0.001335  1
  Sn  Sn13  1  0.261250  0.260101  0.647210  1
  Sn  Sn14  1  0.012175  0.863663  0.502933  1
  Sn  Sn15  1  0.508277  0.013351  0.148708  1
  Pd  Pd16  1  0.750000  0.750000  0.000000  1
  Rh  Rh17  1  0.250000  0.250000  0.000000  1
  Rh  Rh18  1  0.000000  0.500000  0.500000  1
  Rh  Rh19  1  0.500000  0.000000  0.500000  1
