# generated using pymatgen
data_Ac3MnAlS7
_symmetry_space_group_name_H-M   'P 1'
_cell_length_a   10.49212100
_cell_length_b   10.49167586
_cell_length_c   6.20009700
_cell_angle_alpha   90.00000000
_cell_angle_beta   90.00000000
_cell_angle_gamma   120.00022745
_symmetry_Int_Tables_number   1
_chemical_formula_structural   Ac3MnAlS7
_chemical_formula_sum   'Ac6 Mn2 Al2 S14'
_cell_volume   591.06640479
_cell_formula_units_Z   2
loop_
 _symmetry_equiv_pos_site_id
 _symmetry_equiv_pos_as_xyz
  1  'x, y, z'
loop_
 _atom_site_type_symbol
 _atom_site_label
 _atom_site_symmetry_multiplicity
 _atom_site_fract_x
 _atom_site_fract_y
 _atom_site_fract_z
 _atom_site_occupancy
  Ac  Ac0  1  0.136868  0.374628  0.229303  1
  Ac  Ac1  1  0.237757  0.863127  0.229311  1
  Ac  Ac2  1  0.625367  0.762238  0.229308  1
  Ac  Ac3  1  0.863133  0.625372  0.729302  1
  Ac  Ac4  1  0.762243  0.136873  0.729312  1
  Ac  Ac5  1  0.374633  0.237762  0.729308  1
  Mn  Mn6  1  0.000001  0.000002  0.998593  1
  Mn  Mn7  1  0.999999  0.999998  0.498593  1
  Al  Al8  1  0.666672  0.333336  0.150623  1
  Al  Al9  1  0.333328  0.666664  0.650622  1
  S  S10  1  0.893636  0.413882  0.009787  1
  S  S11  1  0.586129  0.479761  0.009780  1
  S  S12  1  0.520246  0.106366  0.009779  1
  S  S13  1  0.333333  0.666666  0.010678  1
  S  S14  1  0.230158  0.145164  0.268277  1
  S  S15  1  0.854835  0.084999  0.268282  1
  S  S16  1  0.915002  0.769839  0.268281  1
  S  S17  1  0.106364  0.586118  0.509787  1
  S  S18  1  0.413871  0.520239  0.509780  1
  S  S19  1  0.479754  0.893635  0.509780  1
  S  S20  1  0.666666  0.333333  0.510679  1
  S  S21  1  0.769842  0.854836  0.768278  1
  S  S22  1  0.145165  0.915001  0.768281  1
  S  S23  1  0.084998  0.230161  0.768279  1
