# generated using pymatgen
data_NdDy5ZrCo17P12
_symmetry_space_group_name_H-M   'P 1'
_cell_length_a   3.72386700
_cell_length_b   10.62913000
_cell_length_c   12.35871800
_cell_angle_alpha   90.00000000
_cell_angle_beta   90.00000000
_cell_angle_gamma   90.00000000
_symmetry_Int_Tables_number   1
_chemical_formula_structural   NdDy5ZrCo17P12
_chemical_formula_sum   'Nd1 Dy5 Zr1 Co17 P12'
_cell_volume   489.17618183
_cell_formula_units_Z   1
loop_
 _symmetry_equiv_pos_site_id
 _symmetry_equiv_pos_as_xyz
  1  'x, y, z'
loop_
 _atom_site_type_symbol
 _atom_site_label
 _atom_site_symmetry_multiplicity
 _atom_site_fract_x
 _atom_site_fract_y
 _atom_site_fract_z
 _atom_site_occupancy
  Nd  Nd0  1  0.500000  0.000000  0.477051  1
  Dy  Dy1  1  0.000000  0.500000  0.529033  1
  Dy  Dy2  1  0.500000  0.820952  0.206651  1
  Dy  Dy3  1  0.500000  0.179048  0.206651  1
  Dy  Dy4  1  0.000000  0.682657  0.796104  1
  Dy  Dy5  1  0.000000  0.317343  0.796104  1
  Zr  Zr6  1  0.500000  0.500000  0.154027  1
  Co  Co7  1  0.000000  0.000000  0.838906  1
  Co  Co8  1  0.500000  0.500000  0.703417  1
  Co  Co9  1  0.000000  0.000000  0.293270  1
  Co  Co10  1  0.000000  0.500000  0.983016  1
  Co  Co11  1  0.500000  0.000000  0.012772  1
  Co  Co12  1  0.500000  0.327150  0.988236  1
  Co  Co13  1  0.500000  0.672850  0.988236  1
  Co  Co14  1  0.000000  0.161635  0.001424  1
  Co  Co15  1  0.000000  0.838365  0.001424  1
  Co  Co16  1  0.500000  0.296625  0.434172  1
  Co  Co17  1  0.500000  0.703375  0.434172  1
  Co  Co18  1  0.000000  0.205026  0.571154  1
  Co  Co19  1  0.000000  0.794974  0.571154  1
  Co  Co20  1  0.500000  0.879905  0.709266  1
  Co  Co21  1  0.500000  0.120095  0.709266  1
  Co  Co22  1  0.000000  0.621683  0.296946  1
  Co  Co23  1  0.000000  0.378317  0.296946  1
  P  P24  1  0.500000  0.500000  0.881656  1
  P  P25  1  0.000000  0.000000  0.115164  1
  P  P26  1  0.500000  0.500000  0.361536  1
  P  P27  1  0.000000  0.000000  0.658816  1
  P  P28  1  0.500000  0.309349  0.618162  1
  P  P29  1  0.500000  0.690651  0.618162  1
  P  P30  1  0.000000  0.192138  0.385461  1
  P  P31  1  0.000000  0.807862  0.385461  1
  P  P32  1  0.500000  0.851788  0.889219  1
  P  P33  1  0.500000  0.148212  0.889219  1
  P  P34  1  0.000000  0.664778  0.098873  1
  P  P35  1  0.000000  0.335222  0.098873  1
