# generated using pymatgen
data_Y3ErInPd
_symmetry_space_group_name_H-M   'P 1'
_cell_length_a   9.74527326
_cell_length_b   9.74527510
_cell_length_c   9.74527400
_cell_angle_alpha   60.00000375
_cell_angle_beta   59.99999750
_cell_angle_gamma   59.99999870
_symmetry_Int_Tables_number   1
_chemical_formula_structural   Y3ErInPd
_chemical_formula_sum   'Y12 Er4 In4 Pd4'
_cell_volume   654.43599976
_cell_formula_units_Z   4
loop_
 _symmetry_equiv_pos_site_id
 _symmetry_equiv_pos_as_xyz
  1  'x, y, z'
loop_
 _atom_site_type_symbol
 _atom_site_label
 _atom_site_symmetry_multiplicity
 _atom_site_fract_x
 _atom_site_fract_y
 _atom_site_fract_z
 _atom_site_occupancy
  Y  Y0  1  0.810273  0.189727  0.189727  1
  Y  Y1  1  0.189727  0.810273  0.810273  1
  Y  Y2  1  0.189727  0.810273  0.189727  1
  Y  Y3  1  0.810273  0.189727  0.810273  1
  Y  Y4  1  0.189727  0.189727  0.810273  1
  Y  Y5  1  0.810273  0.810273  0.189727  1
  Y  Y6  1  0.937398  0.562602  0.562602  1
  Y  Y7  1  0.562602  0.937398  0.937398  1
  Y  Y8  1  0.562602  0.937398  0.562602  1
  Y  Y9  1  0.937398  0.562602  0.937398  1
  Y  Y10  1  0.562602  0.562602  0.937398  1
  Y  Y11  1  0.937398  0.937398  0.562602  1
  Er  Er12  1  0.352048  0.352048  0.352048  1
  Er  Er13  1  0.352048  0.352048  0.943855  1
  Er  Er14  1  0.352048  0.943855  0.352048  1
  Er  Er15  1  0.943855  0.352048  0.352048  1
  In  In16  1  0.583323  0.583323  0.583323  1
  In  In17  1  0.583323  0.583323  0.250031  1
  In  In18  1  0.583323  0.250031  0.583323  1
  In  In19  1  0.250031  0.583323  0.583323  1
  Pd  Pd20  1  0.145507  0.145507  0.145507  1
  Pd  Pd21  1  0.145507  0.145507  0.563477  1
  Pd  Pd22  1  0.145507  0.563477  0.145507  1
  Pd  Pd23  1  0.563477  0.145507  0.145507  1
