# generated using pymatgen
data_Yb2Pr7SmSn8
_symmetry_space_group_name_H-M   'P 1'
_cell_length_a   8.14124700
_cell_length_b   8.47231447
_cell_length_c   16.17938901
_cell_angle_alpha   90.18017405
_cell_angle_beta   90.00000000
_cell_angle_gamma   90.00000000
_symmetry_Int_Tables_number   1
_chemical_formula_structural   Yb2Pr7SmSn8
_chemical_formula_sum   'Yb4 Pr14 Sm2 Sn16'
_cell_volume   1115.97115170
_cell_formula_units_Z   2
loop_
 _symmetry_equiv_pos_site_id
 _symmetry_equiv_pos_as_xyz
  1  'x, y, z'
loop_
 _atom_site_type_symbol
 _atom_site_label
 _atom_site_symmetry_multiplicity
 _atom_site_fract_x
 _atom_site_fract_y
 _atom_site_fract_z
 _atom_site_occupancy
  Yb  Yb0  1  0.823948  0.502300  0.749861  1
  Yb  Yb1  1  0.323948  0.997700  0.750139  1
  Yb  Yb2  1  0.175550  0.496732  0.249773  1
  Yb  Yb3  1  0.675550  0.003268  0.250227  1
  Pr  Pr4  1  0.346595  0.828311  0.123138  1
  Pr  Pr5  1  0.846595  0.671689  0.376862  1
  Pr  Pr6  1  0.346400  0.828061  0.376083  1
  Pr  Pr7  1  0.846400  0.671939  0.123917  1
  Pr  Pr8  1  0.652538  0.171947  0.875519  1
  Pr  Pr9  1  0.152538  0.328053  0.624481  1
  Pr  Pr10  1  0.500850  0.681634  0.596559  1
  Pr  Pr11  1  0.000850  0.818366  0.903441  1
  Pr  Pr12  1  0.498834  0.316736  0.096069  1
  Pr  Pr13  1  0.998834  0.183264  0.403931  1
  Pr  Pr14  1  0.499686  0.318051  0.404392  1
  Pr  Pr15  1  0.999686  0.181949  0.095608  1
  Pr  Pr16  1  0.500775  0.682657  0.903289  1
  Pr  Pr17  1  0.000775  0.817343  0.596711  1
  Sm  Sm18  1  0.654682  0.171457  0.624904  1
  Sm  Sm19  1  0.154682  0.328543  0.875096  1
  Sn  Sn20  1  0.683093  0.963893  0.464377  1
  Sn  Sn21  1  0.183093  0.536107  0.035623  1
  Sn  Sn22  1  0.312905  0.039784  0.961887  1
  Sn  Sn23  1  0.812905  0.460216  0.538113  1
  Sn  Sn24  1  0.319840  0.038049  0.538106  1
  Sn  Sn25  1  0.819840  0.461951  0.961894  1
  Sn  Sn26  1  0.684414  0.962628  0.036811  1
  Sn  Sn27  1  0.184414  0.537372  0.463189  1
  Sn  Sn28  1  0.454778  0.393528  0.750472  1
  Sn  Sn29  1  0.954778  0.106472  0.749528  1
  Sn  Sn30  1  0.545354  0.603373  0.249910  1
  Sn  Sn31  1  0.045354  0.896627  0.250090  1
  Sn  Sn32  1  0.695687  0.859917  0.749479  1
  Sn  Sn33  1  0.195687  0.640083  0.750521  1
  Sn  Sn34  1  0.304073  0.141642  0.249914  1
  Sn  Sn35  1  0.804073  0.358358  0.250086  1
