# generated using pymatgen
data_LiCe3In3PtRh
_symmetry_space_group_name_H-M   'P 1'
_cell_length_a   7.76307700
_cell_length_b   7.76307684
_cell_length_c   3.90945200
_cell_angle_alpha   90.00000000
_cell_angle_beta   90.00000000
_cell_angle_gamma   119.99999641
_symmetry_Int_Tables_number   1
_chemical_formula_structural   LiCe3In3PtRh
_chemical_formula_sum   'Li1 Ce3 In3 Pt1 Rh1'
_cell_volume   204.03952861
_cell_formula_units_Z   1
loop_
 _symmetry_equiv_pos_site_id
 _symmetry_equiv_pos_as_xyz
  1  'x, y, z'
loop_
 _atom_site_type_symbol
 _atom_site_label
 _atom_site_symmetry_multiplicity
 _atom_site_fract_x
 _atom_site_fract_y
 _atom_site_fract_z
 _atom_site_occupancy
  Li  Li0  1  0.000000  0.000000  0.500000  1
  Ce  Ce1  1  0.422420  0.004695  0.500000  1
  Ce  Ce2  1  0.995305  0.417725  0.500000  1
  Ce  Ce3  1  0.582275  0.577580  0.500000  1
  In  In4  1  0.752903  0.002393  0.000000  1
  In  In5  1  0.997607  0.750509  0.000000  1
  In  In6  1  0.249491  0.247097  0.000000  1
  Pt  Pt7  1  0.333333  0.666667  0.000000  1
  Rh  Rh8  1  0.666667  0.333333  0.000000  1
