# generated using pymatgen
data_Eu5MnRhO12
_symmetry_space_group_name_H-M   'P 1'
_cell_length_a   6.93607301
_cell_length_b   6.93607213
_cell_length_c   7.37340800
_cell_angle_alpha   74.43548020
_cell_angle_beta   74.43549081
_cell_angle_gamma   50.83764709
_symmetry_Int_Tables_number   1
_chemical_formula_structural   Eu5MnRhO12
_chemical_formula_sum   'Eu5 Mn1 Rh1 O12'
_cell_volume   262.62415616
_cell_formula_units_Z   1
loop_
 _symmetry_equiv_pos_site_id
 _symmetry_equiv_pos_as_xyz
  1  'x, y, z'
loop_
 _atom_site_type_symbol
 _atom_site_label
 _atom_site_symmetry_multiplicity
 _atom_site_fract_x
 _atom_site_fract_y
 _atom_site_fract_z
 _atom_site_occupancy
  Eu  Eu0  1  0.302198  0.311598  0.355716  1
  Eu  Eu1  1  0.688402  0.697802  0.644284  1
  Eu  Eu2  1  0.309818  0.309694  0.834525  1
  Eu  Eu3  1  0.690306  0.690182  0.165475  1
  Eu  Eu4  1  0.000163  0.999837  0.500000  1
  Mn  Mn5  1  0.247626  0.752374  0.000000  1
  Rh  Rh6  1  0.758020  0.241980  0.000000  1
  O  O7  1  0.902123  0.423781  0.917326  1
  O  O8  1  0.423756  0.897190  0.919836  1
  O  O9  1  0.102810  0.576244  0.080164  1
  O  O10  1  0.576219  0.097877  0.082674  1
  O  O11  1  0.094313  0.599612  0.574691  1
  O  O12  1  0.597394  0.100272  0.573035  1
  O  O13  1  0.899728  0.402606  0.426965  1
  O  O14  1  0.400388  0.905687  0.425309  1
  O  O15  1  0.011044  0.989353  0.823983  1
  O  O16  1  0.010647  0.988956  0.176017  1
  O  O17  1  0.492777  0.507735  0.820601  1
  O  O18  1  0.492265  0.507223  0.179399  1
