# generated using pymatgen
data_Ce3Pr5(ZnRh)8
_symmetry_space_group_name_H-M   'P 1'
_cell_length_a   3.98504500
_cell_length_b   7.39888546
_cell_length_c   16.57290643
_cell_angle_alpha   89.31988987
_cell_angle_beta   90.00000000
_cell_angle_gamma   90.00000000
_symmetry_Int_Tables_number   1
_chemical_formula_structural   Ce3Pr5(ZnRh)8
_chemical_formula_sum   'Ce3 Pr5 Zn8 Rh8'
_cell_volume   488.61592258
_cell_formula_units_Z   1
loop_
 _symmetry_equiv_pos_site_id
 _symmetry_equiv_pos_as_xyz
  1  'x, y, z'
loop_
 _atom_site_type_symbol
 _atom_site_label
 _atom_site_symmetry_multiplicity
 _atom_site_fract_x
 _atom_site_fract_y
 _atom_site_fract_z
 _atom_site_occupancy
  Ce  Ce0  1  0.250000  0.557511  0.784788  1
  Ce  Ce1  1  0.750000  0.444947  0.215455  1
  Ce  Ce2  1  0.750000  0.326077  0.439932  1
  Pr  Pr3  1  0.250000  0.669563  0.560663  1
  Pr  Pr4  1  0.750000  0.825914  0.059947  1
  Pr  Pr5  1  0.250000  0.056675  0.715185  1
  Pr  Pr6  1  0.250000  0.176017  0.940216  1
  Pr  Pr7  1  0.750000  0.944977  0.284303  1
  Zn  Zn8  1  0.250000  0.114959  0.153520  1
  Zn  Zn9  1  0.750000  0.503122  0.941482  1
  Zn  Zn10  1  0.750000  0.997069  0.559929  1
  Zn  Zn11  1  0.750000  0.380028  0.649385  1
  Zn  Zn12  1  0.750000  0.886094  0.847682  1
  Zn  Zn13  1  0.250000  0.498321  0.058204  1
  Zn  Zn14  1  0.250000  0.616117  0.349001  1
  Zn  Zn15  1  0.250000  0.993225  0.438108  1
  Rh  Rh16  1  0.750000  0.748982  0.434772  1
  Rh  Rh17  1  0.750000  0.283330  0.811429  1
  Rh  Rh18  1  0.750000  0.746394  0.694385  1
  Rh  Rh19  1  0.250000  0.721427  0.187363  1
  Rh  Rh20  1  0.250000  0.742790  0.928854  1
  Rh  Rh21  1  0.250000  0.248508  0.556022  1
  Rh  Rh22  1  0.750000  0.259591  0.073348  1
  Rh  Rh23  1  0.250000  0.258363  0.316023  1
