# generated using pymatgen
data_Na2Tm2P7Ir8
_symmetry_space_group_name_H-M   'P 1'
_cell_length_a   3.93740600
_cell_length_b   12.59209267
_cell_length_c   13.16080554
_cell_angle_alpha   80.26611274
_cell_angle_beta   90.00000000
_cell_angle_gamma   90.00000000
_symmetry_Int_Tables_number   1
_chemical_formula_structural   Na2Tm2P7Ir8
_chemical_formula_sum   'Na4 Tm4 P14 Ir16'
_cell_volume   643.12128458
_cell_formula_units_Z   2
loop_
 _symmetry_equiv_pos_site_id
 _symmetry_equiv_pos_as_xyz
  1  'x, y, z'
loop_
 _atom_site_type_symbol
 _atom_site_label
 _atom_site_symmetry_multiplicity
 _atom_site_fract_x
 _atom_site_fract_y
 _atom_site_fract_z
 _atom_site_occupancy
  Na  Na0  1  0.750000  0.713311  0.892743  1
  Na  Na1  1  0.250000  0.099033  0.796712  1
  Na  Na2  1  0.750000  0.900967  0.203288  1
  Na  Na3  1  0.250000  0.286689  0.107257  1
  Tm  Tm4  1  0.750000  0.788344  0.563522  1
  Tm  Tm5  1  0.250000  0.211656  0.436478  1
  Tm  Tm6  1  0.750000  0.479526  0.706448  1
  Tm  Tm7  1  0.250000  0.520474  0.293552  1
  P  P8  1  0.250000  0.909094  0.412577  1
  P  P9  1  0.750000  0.473681  0.127865  1
  P  P10  1  0.250000  0.526319  0.872135  1
  P  P11  1  0.750000  0.090906  0.587423  1
  P  P12  1  0.250000  0.742564  0.080636  1
  P  P13  1  0.750000  0.257436  0.919364  1
  P  P14  1  0.750000  0.159452  0.281356  1
  P  P15  1  0.250000  0.840548  0.718644  1
  P  P16  1  0.250000  0.059475  0.097963  1
  P  P17  1  0.750000  0.940525  0.902037  1
  P  P18  1  0.250000  0.303618  0.690019  1
  P  P19  1  0.750000  0.696382  0.309981  1
  P  P20  1  0.250000  0.609094  0.563306  1
  P  P21  1  0.750000  0.390906  0.436694  1
  Ir  Ir22  1  0.250000  0.982253  0.575133  1
  Ir  Ir23  1  0.750000  0.017747  0.424867  1
  Ir  Ir24  1  0.250000  0.656705  0.724173  1
  Ir  Ir25  1  0.750000  0.343295  0.275827  1
  Ir  Ir26  1  0.250000  0.555224  0.048131  1
  Ir  Ir27  1  0.750000  0.444776  0.951869  1
  Ir  Ir28  1  0.250000  0.066027  0.270794  1
  Ir  Ir29  1  0.750000  0.933973  0.729206  1
  Ir  Ir30  1  0.250000  0.422509  0.526286  1
  Ir  Ir31  1  0.750000  0.577491  0.473714  1
  Ir  Ir32  1  0.250000  0.917880  0.000465  1
  Ir  Ir33  1  0.750000  0.082120  0.999535  1
  Ir  Ir34  1  0.250000  0.728941  0.398757  1
  Ir  Ir35  1  0.750000  0.271059  0.601243  1
  Ir  Ir36  1  0.250000  0.340370  0.856840  1
  Ir  Ir37  1  0.750000  0.659630  0.143160  1
