# generated using pymatgen
data_Tb2Er(CuSn)4
_symmetry_space_group_name_H-M   'P 1'
_cell_length_a   8.38858613
_cell_length_b   8.38858669
_cell_length_c   6.89911753
_cell_angle_alpha   66.17075175
_cell_angle_beta   66.17075047
_cell_angle_gamma   31.08020458
_symmetry_Int_Tables_number   1
_chemical_formula_structural   Tb2Er(CuSn)4
_chemical_formula_sum   'Tb2 Er1 Cu4 Sn4'
_cell_volume   227.52248822
_cell_formula_units_Z   1
loop_
 _symmetry_equiv_pos_site_id
 _symmetry_equiv_pos_as_xyz
  1  'x, y, z'
loop_
 _atom_site_type_symbol
 _atom_site_label
 _atom_site_symmetry_multiplicity
 _atom_site_fract_x
 _atom_site_fract_y
 _atom_site_fract_z
 _atom_site_occupancy
  Tb  Tb0  1  0.129981  0.129981  0.360713  1
  Tb  Tb1  1  0.870019  0.870019  0.639287  1
  Er  Er2  1  0.000000  0.000000  0.000000  1
  Cu  Cu3  1  0.337489  0.337489  0.979899  1
  Cu  Cu4  1  0.662511  0.662511  0.020101  1
  Cu  Cu5  1  0.319930  0.319930  0.373868  1
  Cu  Cu6  1  0.680070  0.680070  0.626132  1
  Sn  Sn7  1  0.215443  0.215443  0.797257  1
  Sn  Sn8  1  0.784557  0.784557  0.202743  1
  Sn  Sn9  1  0.506878  0.506878  0.698435  1
  Sn  Sn10  1  0.493122  0.493122  0.301565  1
