# generated using pymatgen
data_CeNd(H2Br)2
_symmetry_space_group_name_H-M   'P 1'
_cell_length_a   11.00716378
_cell_length_b   11.00716283
_cell_length_c   11.00716440
_cell_angle_alpha   20.71715698
_cell_angle_beta   20.71715452
_cell_angle_gamma   20.71716130
_symmetry_Int_Tables_number   1
_chemical_formula_structural   CeNd(H2Br)2
_chemical_formula_sum   'Ce1 Nd1 H4 Br2'
_cell_volume   146.10550713
_cell_formula_units_Z   1
loop_
 _symmetry_equiv_pos_site_id
 _symmetry_equiv_pos_as_xyz
  1  'x, y, z'
loop_
 _atom_site_type_symbol
 _atom_site_label
 _atom_site_symmetry_multiplicity
 _atom_site_fract_x
 _atom_site_fract_y
 _atom_site_fract_z
 _atom_site_occupancy
  Ce  Ce0  1  0.885418  0.885418  0.885418  1
  Nd  Nd1  1  0.114586  0.114586  0.114586  1
  H  H2  1  0.813192  0.813192  0.813192  1
  H  H3  1  0.187230  0.187230  0.187230  1
  H  H4  1  0.545323  0.545323  0.545323  1
  H  H5  1  0.453975  0.453975  0.453975  1
  Br  Br6  1  0.720279  0.720279  0.720279  1
  Br  Br7  1  0.279996  0.279996  0.279996  1
