# generated using pymatgen
data_Ce4P(PtRh)6
_symmetry_space_group_name_H-M   'P 1'
_cell_length_a   7.27727110
_cell_length_b   7.27727217
_cell_length_c   7.27727200
_cell_angle_alpha   109.47121739
_cell_angle_beta   109.47122036
_cell_angle_gamma   109.47122187
_symmetry_Int_Tables_number   1
_chemical_formula_structural   Ce4P(PtRh)6
_chemical_formula_sum   'Ce4 P1 Pt6 Rh6'
_cell_volume   296.67701494
_cell_formula_units_Z   1
loop_
 _symmetry_equiv_pos_site_id
 _symmetry_equiv_pos_as_xyz
  1  'x, y, z'
loop_
 _atom_site_type_symbol
 _atom_site_label
 _atom_site_symmetry_multiplicity
 _atom_site_fract_x
 _atom_site_fract_y
 _atom_site_fract_z
 _atom_site_occupancy
  Ce  Ce0  1  0.000000  0.000000  0.500000  1
  Ce  Ce1  1  0.000000  0.500000  0.000000  1
  Ce  Ce2  1  0.500000  0.000000  0.000000  1
  Ce  Ce3  1  0.500000  0.500000  0.500000  1
  P  P4  1  0.000000  0.000000  0.000000  1
  Pt  Pt5  1  0.750000  0.250000  0.500000  1
  Pt  Pt6  1  0.750000  0.500000  0.250000  1
  Pt  Pt7  1  0.500000  0.250000  0.750000  1
  Pt  Pt8  1  0.250000  0.500000  0.750000  1
  Pt  Pt9  1  0.250000  0.750000  0.500000  1
  Pt  Pt10  1  0.500000  0.750000  0.250000  1
  Rh  Rh11  1  0.730328  0.730328  0.000000  1
  Rh  Rh12  1  0.269672  0.000000  0.269672  1
  Rh  Rh13  1  0.000000  0.269672  0.269672  1
  Rh  Rh14  1  0.269672  0.269672  0.000000  1
  Rh  Rh15  1  0.730328  0.000000  0.730328  1
  Rh  Rh16  1  0.000000  0.730328  0.730328  1
