# generated using pymatgen
data_MgMn5Cl18
_symmetry_space_group_name_H-M   'P 1'
_cell_length_a   6.26380810
_cell_length_b   6.10783412
_cell_length_c   19.98474477
_cell_angle_alpha   88.20211640
_cell_angle_beta   90.87644762
_cell_angle_gamma   119.17965259
_symmetry_Int_Tables_number   1
_chemical_formula_structural   MgMn5Cl18
_chemical_formula_sum   'Mg1 Mn5 Cl18'
_cell_volume   667.22463862
_cell_formula_units_Z   1
loop_
 _symmetry_equiv_pos_site_id
 _symmetry_equiv_pos_as_xyz
  1  'x, y, z'
loop_
 _atom_site_type_symbol
 _atom_site_label
 _atom_site_symmetry_multiplicity
 _atom_site_fract_x
 _atom_site_fract_y
 _atom_site_fract_z
 _atom_site_occupancy
  Mg  Mg0  1  0.225401  0.112701  0.000000  1
  Mn  Mn1  1  0.885264  0.442632  0.000000  1
  Mn  Mn2  1  0.554266  0.113358  0.333845  1
  Mn  Mn3  1  0.892037  0.778648  0.332999  1
  Mn  Mn4  1  0.892038  0.113390  0.667002  1
  Mn  Mn5  1  0.554266  0.440910  0.666156  1
  Cl  Cl6  1  0.581635  0.420002  0.067573  1
  Cl  Cl7  1  0.173534  0.740073  0.067755  1
  Cl  Cl8  1  0.904481  0.141746  0.066788  1
  Cl  Cl9  1  0.886300  0.073532  0.263198  1
  Cl  Cl10  1  0.269192  0.829242  0.264753  1
  Cl  Cl11  1  0.604727  0.455493  0.266013  1
  Cl  Cl12  1  0.841877  0.436685  0.400882  1
  Cl  Cl13  1  0.559462  0.818259  0.403626  1
  Cl  Cl14  1  0.177159  0.063300  0.401844  1
  Cl  Cl15  1  0.177160  0.113859  0.598157  1
  Cl  Cl16  1  0.559461  0.741203  0.596374  1
  Cl  Cl17  1  0.841878  0.405193  0.599118  1
  Cl  Cl18  1  0.604727  0.149234  0.733987  1
  Cl  Cl19  1  0.269190  0.439948  0.735247  1
  Cl  Cl20  1  0.886301  0.812768  0.736803  1
  Cl  Cl21  1  0.904480  0.762734  0.933212  1
  Cl  Cl22  1  0.173534  0.433458  0.932246  1
  Cl  Cl23  1  0.581636  0.161634  0.932427  1
