# generated using pymatgen
data_Nd5SiTe2
_symmetry_space_group_name_H-M   'P 1'
_cell_length_a   8.22053300
_cell_length_b   9.30408400
_cell_length_c   12.48079300
_cell_angle_alpha   90.00000000
_cell_angle_beta   90.00000000
_cell_angle_gamma   90.00000000
_symmetry_Int_Tables_number   1
_chemical_formula_structural   Nd5SiTe2
_chemical_formula_sum   'Nd20 Si4 Te8'
_cell_volume   954.58758110
_cell_formula_units_Z   4
loop_
 _symmetry_equiv_pos_site_id
 _symmetry_equiv_pos_as_xyz
  1  'x, y, z'
loop_
 _atom_site_type_symbol
 _atom_site_label
 _atom_site_symmetry_multiplicity
 _atom_site_fract_x
 _atom_site_fract_y
 _atom_site_fract_z
 _atom_site_occupancy
  Nd  Nd0  1  0.341806  0.750000  0.711685  1
  Nd  Nd1  1  0.658194  0.250000  0.288315  1
  Nd  Nd2  1  0.841806  0.250000  0.788315  1
  Nd  Nd3  1  0.158194  0.750000  0.211685  1
  Nd  Nd4  1  0.030966  0.750000  0.500743  1
  Nd  Nd5  1  0.969034  0.250000  0.499257  1
  Nd  Nd6  1  0.530966  0.250000  0.999257  1
  Nd  Nd7  1  0.469034  0.750000  0.000743  1
  Nd  Nd8  1  0.869640  0.750000  0.796878  1
  Nd  Nd9  1  0.130360  0.250000  0.203122  1
  Nd  Nd10  1  0.369640  0.250000  0.703122  1
  Nd  Nd11  1  0.630360  0.750000  0.296878  1
  Nd  Nd12  1  0.688917  0.546673  0.561483  1
  Nd  Nd13  1  0.311083  0.453327  0.438517  1
  Nd  Nd14  1  0.188917  0.453327  0.938517  1
  Nd  Nd15  1  0.311083  0.046673  0.438517  1
  Nd  Nd16  1  0.811083  0.546673  0.061483  1
  Nd  Nd17  1  0.688917  0.953327  0.561483  1
  Nd  Nd18  1  0.811083  0.953327  0.061483  1
  Nd  Nd19  1  0.188917  0.046673  0.938517  1
  Si  Si20  1  0.084940  0.750000  0.982378  1
  Si  Si21  1  0.915060  0.250000  0.017622  1
  Si  Si22  1  0.584940  0.250000  0.517622  1
  Si  Si23  1  0.415060  0.750000  0.482378  1
  Te  Te24  1  0.574560  0.511304  0.823532  1
  Te  Te25  1  0.425440  0.488696  0.176468  1
  Te  Te26  1  0.074560  0.488696  0.676468  1
  Te  Te27  1  0.425440  0.011304  0.176468  1
  Te  Te28  1  0.925440  0.511304  0.323532  1
  Te  Te29  1  0.574560  0.988696  0.823532  1
  Te  Te30  1  0.925440  0.988696  0.323532  1
  Te  Te31  1  0.074560  0.011304  0.676468  1
