# generated using pymatgen
data_Ho9ErHg2(BiAu)2
_symmetry_space_group_name_H-M   'P 1'
_cell_length_a   8.69600758
_cell_length_b   8.69600820
_cell_length_c   8.75544326
_cell_angle_alpha   123.60917082
_cell_angle_beta   123.62747707
_cell_angle_gamma   83.40305489
_symmetry_Int_Tables_number   1
_chemical_formula_structural   Ho9ErHg2(BiAu)2
_chemical_formula_sum   'Ho9 Er1 Hg2 Bi2 Au2'
_cell_volume   441.25302996
_cell_formula_units_Z   1
loop_
 _symmetry_equiv_pos_site_id
 _symmetry_equiv_pos_as_xyz
  1  'x, y, z'
loop_
 _atom_site_type_symbol
 _atom_site_label
 _atom_site_symmetry_multiplicity
 _atom_site_fract_x
 _atom_site_fract_y
 _atom_site_fract_z
 _atom_site_occupancy
  Ho  Ho0  1  0.000000  0.000000  0.000000  1
  Ho  Ho1  1  0.505738  0.006053  0.796556  1
  Ho  Ho2  1  0.209496  0.709181  0.203444  1
  Ho  Ho3  1  0.017584  0.198973  0.500299  1
  Ho  Ho4  1  0.698675  0.517285  0.499701  1
  Ho  Ho5  1  0.494262  0.993947  0.203444  1
  Ho  Ho6  1  0.790504  0.290819  0.796556  1
  Ho  Ho7  1  0.982416  0.801027  0.499701  1
  Ho  Ho8  1  0.301325  0.482715  0.500299  1
  Er  Er9  1  0.500000  0.500000  0.000000  1
  Hg  Hg10  1  0.141367  0.641020  0.782386  1
  Hg  Hg11  1  0.858633  0.358980  0.217614  1
  Bi  Bi12  1  0.250234  0.250234  0.000000  1
  Bi  Bi13  1  0.749766  0.749766  0.000000  1
  Au  Au14  1  0.637598  0.862144  0.499743  1
  Au  Au15  1  0.362402  0.137856  0.500257  1
