# generated using pymatgen
data_HfNi3(SnPt3)3
_symmetry_space_group_name_H-M   'P 1'
_cell_length_a   3.99479000
_cell_length_b   3.99479000
_cell_length_c   15.81999900
_cell_angle_alpha   90.00000000
_cell_angle_beta   90.00000000
_cell_angle_gamma   90.00000000
_symmetry_Int_Tables_number   1
_chemical_formula_structural   HfNi3(SnPt3)3
_chemical_formula_sum   'Hf1 Ni3 Sn3 Pt9'
_cell_volume   252.46103586
_cell_formula_units_Z   1
loop_
 _symmetry_equiv_pos_site_id
 _symmetry_equiv_pos_as_xyz
  1  'x, y, z'
loop_
 _atom_site_type_symbol
 _atom_site_label
 _atom_site_symmetry_multiplicity
 _atom_site_fract_x
 _atom_site_fract_y
 _atom_site_fract_z
 _atom_site_occupancy
  Hf  Hf0  1  0.000000  0.000000  0.000000  1
  Ni  Ni1  1  0.500000  0.500000  0.252961  1
  Ni  Ni2  1  0.500000  0.500000  0.500000  1
  Ni  Ni3  1  0.500000  0.500000  0.747039  1
  Sn  Sn4  1  0.000000  0.000000  0.252928  1
  Sn  Sn5  1  0.000000  0.000000  0.500000  1
  Sn  Sn6  1  0.000000  0.000000  0.747072  1
  Pt  Pt7  1  0.500000  0.500000  0.000000  1
  Pt  Pt8  1  0.500000  0.000000  0.128187  1
  Pt  Pt9  1  0.500000  0.000000  0.376360  1
  Pt  Pt10  1  0.500000  0.000000  0.623640  1
  Pt  Pt11  1  0.500000  0.000000  0.871813  1
  Pt  Pt12  1  0.000000  0.500000  0.128187  1
  Pt  Pt13  1  0.000000  0.500000  0.376360  1
  Pt  Pt14  1  0.000000  0.500000  0.623640  1
  Pt  Pt15  1  0.000000  0.500000  0.871813  1
