# generated using pymatgen
data_Sc12Re7Si16Ag
_symmetry_space_group_name_H-M   'P 1'
_cell_length_a   5.39790432
_cell_length_b   10.20476107
_cell_length_c   11.68623859
_cell_angle_alpha   95.21329023
_cell_angle_beta   103.58332505
_cell_angle_gamma   105.34013645
_symmetry_Int_Tables_number   1
_chemical_formula_structural   Sc12Re7Si16Ag
_chemical_formula_sum   'Sc12 Re7 Si16 Ag1'
_cell_volume   595.33857336
_cell_formula_units_Z   1
loop_
 _symmetry_equiv_pos_site_id
 _symmetry_equiv_pos_as_xyz
  1  'x, y, z'
loop_
 _atom_site_type_symbol
 _atom_site_label
 _atom_site_symmetry_multiplicity
 _atom_site_fract_x
 _atom_site_fract_y
 _atom_site_fract_z
 _atom_site_occupancy
  Sc  Sc0  1  0.529937  0.285381  0.045340  1
  Sc  Sc1  1  0.173963  0.467160  0.140640  1
  Sc  Sc2  1  0.451907  0.994112  0.164269  1
  Sc  Sc3  1  0.811342  0.507723  0.343525  1
  Sc  Sc4  1  0.067032  0.032493  0.362887  1
  Sc  Sc5  1  0.699828  0.217700  0.455124  1
  Sc  Sc6  1  0.299046  0.778581  0.547116  1
  Sc  Sc7  1  0.928060  0.964111  0.634447  1
  Sc  Sc8  1  0.190669  0.494830  0.656551  1
  Sc  Sc9  1  0.542914  0.002398  0.836552  1
  Sc  Sc10  1  0.825835  0.536148  0.860584  1
  Sc  Sc11  1  0.467819  0.720177  0.951887  1
  Re  Re12  1  0.572512  0.746948  0.218814  1
  Re  Re13  1  0.111953  0.753945  0.283659  1
  Re  Re14  1  0.278101  0.371665  0.422762  1
  Re  Re15  1  0.716278  0.628096  0.577646  1
  Re  Re16  1  0.887134  0.244755  0.717150  1
  Re  Re17  1  0.430003  0.254309  0.782177  1
  Re  Re18  1  0.016355  0.874167  0.922180  1
  Si  Si19  1  0.126807  0.721089  0.072325  1
  Si  Si20  1  0.717902  0.568711  0.111477  1
  Si  Si21  1  0.893994  0.883960  0.124936  1
  Si  Si22  1  0.386667  0.257686  0.254961  1
  Si  Si23  1  0.871663  0.254157  0.255526  1
  Si  Si24  1  0.378221  0.605948  0.376363  1
  Si  Si25  1  0.542836  0.933171  0.393806  1
  Si  Si26  1  0.829386  0.776247  0.427893  1
  Si  Si27  1  0.173230  0.223870  0.573118  1
  Si  Si28  1  0.456660  0.062369  0.607337  1
  Si  Si29  1  0.621928  0.394094  0.623207  1
  Si  Si30  1  0.110643  0.750403  0.749785  1
  Si  Si31  1  0.638387  0.747987  0.751266  1
  Si  Si32  1  0.105906  0.102609  0.864910  1
  Si  Si33  1  0.283290  0.434942  0.887682  1
  Si  Si34  1  0.880561  0.284112  0.926011  1
  Ag  Ag35  1  0.981237  0.123947  0.076089  1
