# generated using pymatgen
data_Li2AcPr3(AgAs4)2
_symmetry_space_group_name_H-M   'P 1'
_cell_length_a   4.04980300
_cell_length_b   4.10589680
_cell_length_c   21.71669577
_cell_angle_alpha   90.07761729
_cell_angle_beta   90.00000000
_cell_angle_gamma   90.00000000
_symmetry_Int_Tables_number   1
_chemical_formula_structural   Li2AcPr3(AgAs4)2
_chemical_formula_sum   'Li2 Ac1 Pr3 Ag2 As8'
_cell_volume   361.10647544
_cell_formula_units_Z   1
loop_
 _symmetry_equiv_pos_site_id
 _symmetry_equiv_pos_as_xyz
  1  'x, y, z'
loop_
 _atom_site_type_symbol
 _atom_site_label
 _atom_site_symmetry_multiplicity
 _atom_site_fract_x
 _atom_site_fract_y
 _atom_site_fract_z
 _atom_site_occupancy
  Li  Li0  1  0.250000  0.226278  0.251362  1
  Li  Li1  1  0.250000  0.274446  0.745894  1
  Ac  Ac2  1  0.750000  0.272368  0.884094  1
  Pr  Pr3  1  0.250000  0.725280  0.120492  1
  Pr  Pr4  1  0.750000  0.230985  0.384467  1
  Pr  Pr5  1  0.250000  0.772717  0.614171  1
  Ag  Ag6  1  0.750000  0.724840  0.251427  1
  Ag  Ag7  1  0.750000  0.774572  0.744531  1
  As  As8  1  0.750000  0.224116  0.169318  1
  As  As9  1  0.250000  0.727196  0.334197  1
  As  As10  1  0.750000  0.275043  0.663317  1
  As  As11  1  0.250000  0.774496  0.826069  1
  As  As12  1  0.250000  0.199956  0.007815  1
  As  As13  1  0.750000  0.703866  0.497543  1
  As  As14  1  0.250000  0.295507  0.500960  1
  As  As15  1  0.750000  0.798331  0.004343  1
