# generated using pymatgen
data_PrNd4Nb2O12
_symmetry_space_group_name_H-M   'P 1'
_cell_length_a   7.11451633
_cell_length_b   7.11451680
_cell_length_c   7.76596400
_cell_angle_alpha   74.13930918
_cell_angle_beta   74.13930616
_cell_angle_gamma   50.76455743
_symmetry_Int_Tables_number   1
_chemical_formula_structural   PrNd4Nb2O12
_chemical_formula_sum   'Pr1 Nd4 Nb2 O12'
_cell_volume   290.20068631
_cell_formula_units_Z   1
loop_
 _symmetry_equiv_pos_site_id
 _symmetry_equiv_pos_as_xyz
  1  'x, y, z'
loop_
 _atom_site_type_symbol
 _atom_site_label
 _atom_site_symmetry_multiplicity
 _atom_site_fract_x
 _atom_site_fract_y
 _atom_site_fract_z
 _atom_site_occupancy
  Pr  Pr0  1  0.000000  0.000000  0.500000  1
  Nd  Nd1  1  0.304898  0.304898  0.360236  1
  Nd  Nd2  1  0.695102  0.695102  0.639764  1
  Nd  Nd3  1  0.691339  0.691339  0.170588  1
  Nd  Nd4  1  0.308661  0.308661  0.829412  1
  Nb  Nb5  1  0.766454  0.233546  0.000000  1
  Nb  Nb6  1  0.233546  0.766454  0.000000  1
  O  O7  1  0.095326  0.592036  0.577783  1
  O  O8  1  0.998967  0.998967  0.190635  1
  O  O9  1  0.407964  0.904674  0.422217  1
  O  O10  1  0.500601  0.500601  0.178722  1
  O  O11  1  0.100225  0.576957  0.080311  1
  O  O12  1  0.904674  0.407964  0.422217  1
  O  O13  1  0.001033  0.001033  0.809365  1
  O  O14  1  0.592036  0.095325  0.577783  1
  O  O15  1  0.499399  0.499399  0.821278  1
  O  O16  1  0.576957  0.100225  0.080311  1
  O  O17  1  0.423043  0.899775  0.919689  1
  O  O18  1  0.899775  0.423043  0.919689  1
