# generated using pymatgen
data_Tb3Y(Er4Bi3)4
_symmetry_space_group_name_H-M   'P 1'
_cell_length_a   8.21673402
_cell_length_b   9.47797600
_cell_length_c   11.97583200
_cell_angle_alpha   90.00000000
_cell_angle_beta   89.99620666
_cell_angle_gamma   90.00000000
_symmetry_Int_Tables_number   1
_chemical_formula_structural   Tb3Y(Er4Bi3)4
_chemical_formula_sum   'Tb3 Y1 Er16 Bi12'
_cell_volume   932.65393612
_cell_formula_units_Z   1
loop_
 _symmetry_equiv_pos_site_id
 _symmetry_equiv_pos_as_xyz
  1  'x, y, z'
loop_
 _atom_site_type_symbol
 _atom_site_label
 _atom_site_symmetry_multiplicity
 _atom_site_fract_x
 _atom_site_fract_y
 _atom_site_fract_z
 _atom_site_occupancy
  Tb  Tb0  1  0.314429  0.250000  0.218410  1
  Tb  Tb1  1  0.814380  0.250000  0.281559  1
  Tb  Tb2  1  0.685567  0.750000  0.781612  1
  Y  Y3  1  0.186341  0.750000  0.718034  1
  Er  Er4  1  0.353324  0.750000  0.216976  1
  Er  Er5  1  0.853406  0.750000  0.283043  1
  Er  Er6  1  0.646555  0.250000  0.782967  1
  Er  Er7  1  0.146546  0.250000  0.717021  1
  Er  Er8  1  0.691757  0.564975  0.059530  1
  Er  Er9  1  0.191909  0.935064  0.440422  1
  Er  Er10  1  0.308144  0.064986  0.940407  1
  Er  Er11  1  0.808050  0.435021  0.559565  1
  Er  Er12  1  0.308144  0.435014  0.940407  1
  Er  Er13  1  0.808050  0.064979  0.559565  1
  Er  Er14  1  0.691757  0.935025  0.059530  1
  Er  Er15  1  0.191909  0.564936  0.440422  1
  Er  Er16  1  0.476285  0.250000  0.488993  1
  Er  Er17  1  0.976392  0.250000  0.011050  1
  Er  Er18  1  0.523713  0.750000  0.511152  1
  Er  Er19  1  0.023492  0.750000  0.989040  1
  Bi  Bi20  1  0.404463  0.750000  0.958575  1
  Bi  Bi21  1  0.905182  0.750000  0.541562  1
  Bi  Bi22  1  0.595209  0.250000  0.041281  1
  Bi  Bi23  1  0.095202  0.250000  0.458745  1
  Bi  Bi24  1  0.566175  0.994989  0.326367  1
  Bi  Bi25  1  0.066116  0.504976  0.173694  1
  Bi  Bi26  1  0.433580  0.495182  0.673718  1
  Bi  Bi27  1  0.934025  0.004780  0.826288  1
  Bi  Bi28  1  0.433580  0.004818  0.673718  1
  Bi  Bi29  1  0.934025  0.495220  0.826288  1
  Bi  Bi30  1  0.566175  0.505011  0.326367  1
  Bi  Bi31  1  0.066116  0.995024  0.173694  1
