# generated using pymatgen
data_La12Nd8Si15As
_symmetry_space_group_name_H-M   'P 1'
_cell_length_a   7.96833269
_cell_length_b   7.97154143
_cell_length_c   15.44676200
_cell_angle_alpha   89.88418708
_cell_angle_beta   89.84626112
_cell_angle_gamma   90.08159819
_symmetry_Int_Tables_number   1
_chemical_formula_structural   La12Nd8Si15As
_chemical_formula_sum   'La12 Nd8 Si15 As1'
_cell_volume   981.17014777
_cell_formula_units_Z   1
loop_
 _symmetry_equiv_pos_site_id
 _symmetry_equiv_pos_as_xyz
  1  'x, y, z'
loop_
 _atom_site_type_symbol
 _atom_site_label
 _atom_site_symmetry_multiplicity
 _atom_site_fract_x
 _atom_site_fract_y
 _atom_site_fract_z
 _atom_site_occupancy
  La  La0  1  0.311388  0.309645  0.000317  1
  La  La1  1  0.188868  0.808638  0.250077  1
  La  La2  1  0.803489  0.191487  0.750330  1
  La  La3  1  0.689523  0.688726  0.499473  1
  La  La4  1  0.379808  0.008916  0.444795  1
  La  La5  1  0.489466  0.877544  0.697429  1
  La  La6  1  0.511939  0.122856  0.197568  1
  La  La7  1  0.877136  0.487984  0.302713  1
  La  La8  1  0.123300  0.511572  0.802965  1
  La  La9  1  0.623653  0.988638  0.946637  1
  La  La10  1  0.008588  0.378240  0.552396  1
  La  La11  1  0.988539  0.622051  0.051932  1
  Nd  Nd12  1  0.129093  0.986124  0.875902  1
  Nd  Nd13  1  0.517042  0.627858  0.125951  1
  Nd  Nd14  1  0.482032  0.370410  0.626982  1
  Nd  Nd15  1  0.628014  0.517129  0.873517  1
  Nd  Nd16  1  0.371354  0.482076  0.374958  1
  Nd  Nd17  1  0.873225  0.016342  0.377078  1
  Nd  Nd18  1  0.983892  0.127743  0.123575  1
  Nd  Nd19  1  0.016802  0.872719  0.623495  1
  Si  Si20  1  0.332411  0.698160  0.950561  1
  Si  Si21  1  0.666806  0.302328  0.452291  1
  Si  Si22  1  0.699506  0.334084  0.048827  1
  Si  Si23  1  0.301699  0.666544  0.549907  1
  Si  Si24  1  0.802219  0.833506  0.201347  1
  Si  Si25  1  0.167187  0.197589  0.298124  1
  Si  Si26  1  0.835940  0.802669  0.798126  1
  Si  Si27  1  0.286669  0.919309  0.058482  1
  Si  Si28  1  0.579714  0.786863  0.308611  1
  Si  Si29  1  0.429199  0.212627  0.813523  1
  Si  Si30  1  0.787987  0.580655  0.690333  1
  Si  Si31  1  0.212594  0.421174  0.191368  1
  Si  Si32  1  0.709983  0.077538  0.559040  1
  Si  Si33  1  0.922322  0.287862  0.940904  1
  Si  Si34  1  0.079656  0.712377  0.441842  1
  As  As35  1  0.188961  0.170018  0.698622  1
