# generated using pymatgen
data_YbTa4O11
_symmetry_space_group_name_H-M   'P 1'
_cell_length_a   6.26578800
_cell_length_b   6.26578836
_cell_length_c   12.33373300
_cell_angle_alpha   90.00000000
_cell_angle_beta   90.00000000
_cell_angle_gamma   119.99999809
_symmetry_Int_Tables_number   1
_chemical_formula_structural   YbTa4O11
_chemical_formula_sum   'Yb2 Ta8 O22'
_cell_volume   419.34995523
_cell_formula_units_Z   2
loop_
 _symmetry_equiv_pos_site_id
 _symmetry_equiv_pos_as_xyz
  1  'x, y, z'
loop_
 _atom_site_type_symbol
 _atom_site_label
 _atom_site_symmetry_multiplicity
 _atom_site_fract_x
 _atom_site_fract_y
 _atom_site_fract_z
 _atom_site_occupancy
  Yb  Yb0  1  0.333333  0.666667  0.750000  1
  Yb  Yb1  1  0.666667  0.333333  0.250000  1
  Ta  Ta2  1  0.666667  0.333333  0.750000  1
  Ta  Ta3  1  0.333333  0.666667  0.250000  1
  Ta  Ta4  1  0.641617  0.000000  0.500000  1
  Ta  Ta5  1  0.641617  0.641617  0.000000  1
  Ta  Ta6  1  0.000000  0.358383  0.000000  1
  Ta  Ta7  1  0.000000  0.641617  0.500000  1
  Ta  Ta8  1  0.358383  0.358383  0.500000  1
  Ta  Ta9  1  0.358383  0.000000  0.000000  1
  O  O10  1  0.333333  0.666667  0.535206  1
  O  O11  1  0.666667  0.333333  0.035206  1
  O  O12  1  0.666667  0.333333  0.464794  1
  O  O13  1  0.333333  0.666667  0.964794  1
  O  O14  1  0.244898  0.000000  0.500000  1
  O  O15  1  0.244898  0.244898  0.000000  1
  O  O16  1  0.000000  0.755102  0.000000  1
  O  O17  1  0.000000  0.244898  0.500000  1
  O  O18  1  0.755102  0.755102  0.500000  1
  O  O19  1  0.755102  0.000000  0.000000  1
  O  O20  1  0.381196  0.948062  0.156577  1
  O  O21  1  0.433134  0.381196  0.656577  1
  O  O22  1  0.948062  0.566866  0.656577  1
  O  O23  1  0.051938  0.433134  0.156577  1
  O  O24  1  0.566866  0.618804  0.156577  1
  O  O25  1  0.433134  0.051938  0.843423  1
  O  O26  1  0.618804  0.566866  0.843423  1
  O  O27  1  0.618804  0.051938  0.656577  1
  O  O28  1  0.948062  0.381196  0.843423  1
  O  O29  1  0.051938  0.618804  0.343423  1
  O  O30  1  0.566866  0.948062  0.343423  1
  O  O31  1  0.381196  0.433134  0.343423  1
