# generated using pymatgen
data_Nd6IrRuCl6
_symmetry_space_group_name_H-M   'P 1'
_cell_length_a   10.25557069
_cell_length_b   10.25937722
_cell_length_c   10.25557042
_cell_angle_alpha   109.50212430
_cell_angle_beta   109.39437533
_cell_angle_gamma   109.50212256
_symmetry_Int_Tables_number   1
_chemical_formula_structural   Nd6IrRuCl6
_chemical_formula_sum   'Nd12 Ir2 Ru2 Cl12'
_cell_volume   830.80473087
_cell_formula_units_Z   2
loop_
 _symmetry_equiv_pos_site_id
 _symmetry_equiv_pos_as_xyz
  1  'x, y, z'
loop_
 _atom_site_type_symbol
 _atom_site_label
 _atom_site_symmetry_multiplicity
 _atom_site_fract_x
 _atom_site_fract_y
 _atom_site_fract_z
 _atom_site_occupancy
  Nd  Nd0  1  0.262518  0.750000  0.237482  1
  Nd  Nd1  1  0.487482  0.750000  0.012518  1
  Nd  Nd2  1  0.237861  0.475721  0.487861  1
  Nd  Nd3  1  0.012139  0.024279  0.262139  1
  Nd  Nd4  1  0.235430  0.261063  0.745859  1
  Nd  Nd5  1  0.010290  0.484925  0.746202  1
  Nd  Nd6  1  0.484796  0.238937  0.474366  1
  Nd  Nd7  1  0.261276  0.015075  0.025366  1
  Nd  Nd8  1  0.754141  0.238937  0.264570  1
  Nd  Nd9  1  0.753798  0.015075  0.489710  1
  Nd  Nd10  1  0.474634  0.484925  0.238724  1
  Nd  Nd11  1  0.025634  0.261063  0.015204  1
  Ir  Ir12  1  0.500279  0.000557  0.250279  1
  Ir  Ir13  1  0.249721  0.499443  0.999721  1
  Ru  Ru14  1  0.000408  0.250000  0.499592  1
  Ru  Ru15  1  0.249592  0.250000  0.250408  1
  Cl  Cl16  1  0.249240  0.999833  0.499158  1
  Cl  Cl17  1  0.499325  0.500167  0.749407  1
  Cl  Cl18  1  0.249376  0.748354  0.750846  1
  Cl  Cl19  1  0.002489  0.751646  0.001022  1
  Cl  Cl20  1  0.000842  0.500167  0.250760  1
  Cl  Cl21  1  0.750593  0.999833  0.000675  1
  Cl  Cl22  1  0.749154  0.751646  0.250624  1
  Cl  Cl23  1  0.498978  0.748354  0.497511  1
  Cl  Cl24  1  0.498894  0.250000  0.001106  1
  Cl  Cl25  1  0.749563  0.499126  0.499563  1
  Cl  Cl26  1  0.751106  0.250000  0.748894  1
  Cl  Cl27  1  0.000437  0.000874  0.750437  1
