# generated using pymatgen
data_ErZr8(In2Rh)7
_symmetry_space_group_name_H-M   'P 1'
_cell_length_a   9.65770113
_cell_length_b   9.65759805
_cell_length_c   9.65799652
_cell_angle_alpha   60.34624994
_cell_angle_beta   60.34572052
_cell_angle_gamma   60.34857713
_symmetry_Int_Tables_number   1
_chemical_formula_structural   ErZr8(In2Rh)7
_chemical_formula_sum   'Er1 Zr8 In14 Rh7'
_cell_volume   641.96204217
_cell_formula_units_Z   1
loop_
 _symmetry_equiv_pos_site_id
 _symmetry_equiv_pos_as_xyz
  1  'x, y, z'
loop_
 _atom_site_type_symbol
 _atom_site_label
 _atom_site_symmetry_multiplicity
 _atom_site_fract_x
 _atom_site_fract_y
 _atom_site_fract_z
 _atom_site_occupancy
  Er  Er0  1  0.500000  0.500000  0.500000  1
  Zr  Zr1  1  0.123642  0.627669  0.123643  1
  Zr  Zr2  1  0.372330  0.876359  0.876357  1
  Zr  Zr3  1  0.876035  0.876038  0.876029  1
  Zr  Zr4  1  0.627670  0.123641  0.123643  1
  Zr  Zr5  1  0.876359  0.876363  0.372330  1
  Zr  Zr6  1  0.123965  0.123962  0.123971  1
  Zr  Zr7  1  0.876358  0.372331  0.876357  1
  Zr  Zr8  1  0.123641  0.123637  0.627670  1
  In  In9  1  0.499998  0.847467  0.152521  1
  In  In10  1  0.500372  0.846369  0.500386  1
  In  In11  1  0.499628  0.153631  0.499614  1
  In  In12  1  0.500383  0.500374  0.846373  1
  In  In13  1  0.153633  0.499624  0.499613  1
  In  In14  1  0.847479  0.152521  0.500005  1
  In  In15  1  0.152521  0.847479  0.499995  1
  In  In16  1  0.500002  0.152533  0.847479  1
  In  In17  1  0.152532  0.500004  0.847478  1
  In  In18  1  0.499617  0.499626  0.153627  1
  In  In19  1  0.846367  0.500376  0.500387  1
  In  In20  1  0.847468  0.499996  0.152522  1
  In  In21  1  0.250862  0.250841  0.250865  1
  In  In22  1  0.749138  0.749159  0.749135  1
  Rh  Rh23  1  0.778017  0.778027  0.222442  1
  Rh  Rh24  1  0.000000  0.000000  0.000000  1
  Rh  Rh25  1  0.221982  0.777561  0.221989  1
  Rh  Rh26  1  0.222448  0.778020  0.778003  1
  Rh  Rh27  1  0.221983  0.221973  0.777558  1
  Rh  Rh28  1  0.778018  0.222439  0.778011  1
  Rh  Rh29  1  0.777552  0.221980  0.221997  1
