# generated using pymatgen
data_Ho8ErLu(BiAu2)2
_symmetry_space_group_name_H-M   'P 1'
_cell_length_a   8.67310122
_cell_length_b   8.67310097
_cell_length_c   8.67310203
_cell_angle_alpha   124.20398900
_cell_angle_beta   124.20398706
_cell_angle_gamma   82.86070842
_symmetry_Int_Tables_number   1
_chemical_formula_structural   Ho8ErLu(BiAu2)2
_chemical_formula_sum   'Ho8 Er1 Lu1 Bi2 Au4'
_cell_volume   428.36129810
_cell_formula_units_Z   1
loop_
 _symmetry_equiv_pos_site_id
 _symmetry_equiv_pos_as_xyz
  1  'x, y, z'
loop_
 _atom_site_type_symbol
 _atom_site_label
 _atom_site_symmetry_multiplicity
 _atom_site_fract_x
 _atom_site_fract_y
 _atom_site_fract_z
 _atom_site_occupancy
  Ho  Ho0  1  0.015037  0.514851  0.809948  1
  Ho  Ho1  1  0.704903  0.205089  0.190052  1
  Ho  Ho2  1  0.514851  0.704903  0.499814  1
  Ho  Ho3  1  0.205089  0.015037  0.500186  1
  Ho  Ho4  1  0.984963  0.485149  0.190052  1
  Ho  Ho5  1  0.295097  0.794911  0.809948  1
  Ho  Ho6  1  0.485149  0.295097  0.500186  1
  Ho  Ho7  1  0.794911  0.984963  0.499814  1
  Er  Er8  1  0.000000  0.000000  0.000000  1
  Lu  Lu9  1  0.500000  0.500000  0.000000  1
  Bi  Bi10  1  0.749909  0.749909  0.000000  1
  Bi  Bi11  1  0.250091  0.250091  0.000000  1
  Au  Au12  1  0.638319  0.138487  0.776806  1
  Au  Au13  1  0.361681  0.861513  0.223194  1
  Au  Au14  1  0.138487  0.361681  0.500168  1
  Au  Au15  1  0.861513  0.638319  0.499832  1
