# generated using pymatgen
data_YbYHo2(ReB4)4
_symmetry_space_group_name_H-M   'P 1'
_cell_length_a   3.60494600
_cell_length_b   5.96910103
_cell_length_c   11.55294196
_cell_angle_alpha   89.98197871
_cell_angle_beta   90.00000000
_cell_angle_gamma   90.00000000
_symmetry_Int_Tables_number   1
_chemical_formula_structural   YbYHo2(ReB4)4
_chemical_formula_sum   'Yb1 Y1 Ho2 Re4 B16'
_cell_volume   248.59950691
_cell_formula_units_Z   1
loop_
 _symmetry_equiv_pos_site_id
 _symmetry_equiv_pos_as_xyz
  1  'x, y, z'
loop_
 _atom_site_type_symbol
 _atom_site_label
 _atom_site_symmetry_multiplicity
 _atom_site_fract_x
 _atom_site_fract_y
 _atom_site_fract_z
 _atom_site_occupancy
  Yb  Yb0  1  0.000000  0.627750  0.349770  1
  Y  Y1  1  0.000000  0.373677  0.649895  1
  Ho  Ho2  1  0.000000  0.128115  0.150596  1
  Ho  Ho3  1  0.000000  0.872510  0.850350  1
  Re  Re4  1  0.000000  0.131988  0.414452  1
  Re  Re5  1  0.000000  0.869421  0.586110  1
  Re  Re6  1  0.000000  0.634012  0.087298  1
  Re  Re7  1  0.000000  0.366628  0.912406  1
  B  B8  1  0.500000  0.476061  0.192578  1
  B  B9  1  0.500000  0.524152  0.807866  1
  B  B10  1  0.500000  0.976993  0.307798  1
  B  B11  1  0.500000  0.022077  0.692415  1
  B  B12  1  0.500000  0.286560  0.315281  1
  B  B13  1  0.500000  0.713372  0.684408  1
  B  B14  1  0.500000  0.785684  0.185310  1
  B  B15  1  0.500000  0.212703  0.815158  1
  B  B16  1  0.500000  0.364163  0.467706  1
  B  B17  1  0.500000  0.636284  0.531303  1
  B  B18  1  0.500000  0.863812  0.031222  1
  B  B19  1  0.500000  0.136170  0.969006  1
  B  B20  1  0.500000  0.386247  0.047697  1
  B  B21  1  0.500000  0.613901  0.952708  1
  B  B22  1  0.500000  0.884589  0.451894  1
  B  B23  1  0.500000  0.113131  0.546774  1
