# generated using pymatgen
data_Tb2Dy2Sn3Sb3Rh7
_symmetry_space_group_name_H-M   'P 1'
_cell_length_a   7.62074818
_cell_length_b   7.62668380
_cell_length_c   7.61468826
_cell_angle_alpha   109.49469717
_cell_angle_beta   109.46310609
_cell_angle_gamma   109.50385406
_symmetry_Int_Tables_number   1
_chemical_formula_structural   Tb2Dy2Sn3Sb3Rh7
_chemical_formula_sum   'Tb2 Dy2 Sn3 Sb3 Rh7'
_cell_volume   340.49131066
_cell_formula_units_Z   1
loop_
 _symmetry_equiv_pos_site_id
 _symmetry_equiv_pos_as_xyz
  1  'x, y, z'
loop_
 _atom_site_type_symbol
 _atom_site_label
 _atom_site_symmetry_multiplicity
 _atom_site_fract_x
 _atom_site_fract_y
 _atom_site_fract_z
 _atom_site_occupancy
  Tb  Tb0  1  0.997789  0.999873  0.503012  1
  Tb  Tb1  1  0.494777  0.496861  0.496988  1
  Dy  Dy2  1  0.487034  0.000086  0.000000  1
  Dy  Dy3  1  0.997997  0.503175  0.000000  1
  Sn  Sn4  1  0.992964  0.307051  0.306919  1
  Sn  Sn5  1  0.686046  0.000132  0.693081  1
  Sn  Sn6  1  0.685980  0.692995  0.000000  1
  Sb  Sb7  1  0.995229  0.674362  0.674497  1
  Sb  Sb8  1  0.320732  0.999865  0.325503  1
  Sb  Sb9  1  0.320729  0.325601  0.000000  1
  Rh  Rh10  1  0.016570  0.999934  0.000000  1
  Rh  Rh11  1  0.502687  0.753484  0.253249  1
  Rh  Rh12  1  0.749576  0.499784  0.246141  1
  Rh  Rh13  1  0.249502  0.746453  0.499988  1
  Rh  Rh14  1  0.249438  0.500235  0.746751  1
  Rh  Rh15  1  0.503435  0.253643  0.753859  1
  Rh  Rh16  1  0.749514  0.246465  0.500012  1
