# generated using pymatgen
data_Dy3As2S
_symmetry_space_group_name_H-M   'P 1'
_cell_length_a   7.02088453
_cell_length_b   7.02088341
_cell_length_c   7.02088273
_cell_angle_alpha   146.38844684
_cell_angle_beta   131.83401557
_cell_angle_gamma   60.01425875
_symmetry_Int_Tables_number   1
_chemical_formula_structural   Dy3As2S
_chemical_formula_sum   'Dy3 As2 S1'
_cell_volume   141.43236968
_cell_formula_units_Z   1
loop_
 _symmetry_equiv_pos_site_id
 _symmetry_equiv_pos_as_xyz
  1  'x, y, z'
loop_
 _atom_site_type_symbol
 _atom_site_label
 _atom_site_symmetry_multiplicity
 _atom_site_fract_x
 _atom_site_fract_y
 _atom_site_fract_z
 _atom_site_occupancy
  Dy  Dy0  1  0.500000  0.000000  0.500000  1
  Dy  Dy1  1  0.166230  0.666230  0.500000  1
  Dy  Dy2  1  0.833770  0.333770  0.500000  1
  As  As3  1  0.666799  0.666799  0.000000  1
  As  As4  1  0.333201  0.333201  0.000000  1
  S  S5  1  0.000000  0.000000  0.000000  1
