# generated using pymatgen
data_Nd3ThCdOs
_symmetry_space_group_name_H-M   'P 1'
_cell_length_a   9.94334377
_cell_length_b   9.94437330
_cell_length_c   9.94339483
_cell_angle_alpha   60.15348433
_cell_angle_beta   60.15648080
_cell_angle_gamma   60.15344352
_symmetry_Int_Tables_number   1
_chemical_formula_structural   Nd3ThCdOs
_chemical_formula_sum   'Nd12 Th4 Cd4 Os4'
_cell_volume   697.66415531
_cell_formula_units_Z   4
loop_
 _symmetry_equiv_pos_site_id
 _symmetry_equiv_pos_as_xyz
  1  'x, y, z'
loop_
 _atom_site_type_symbol
 _atom_site_label
 _atom_site_symmetry_multiplicity
 _atom_site_fract_x
 _atom_site_fract_y
 _atom_site_fract_z
 _atom_site_occupancy
  Nd  Nd0  1  0.809416  0.190767  0.190627  1
  Nd  Nd1  1  0.190822  0.808981  0.809011  1
  Nd  Nd2  1  0.190647  0.809441  0.190642  1
  Nd  Nd3  1  0.809000  0.190841  0.808957  1
  Nd  Nd4  1  0.190686  0.190827  0.809313  1
  Nd  Nd5  1  0.808998  0.808971  0.190830  1
  Nd  Nd6  1  0.942378  0.559330  0.559193  1
  Nd  Nd7  1  0.557422  0.941877  0.941887  1
  Nd  Nd8  1  0.559223  0.942475  0.559159  1
  Nd  Nd9  1  0.941926  0.557456  0.941981  1
  Nd  Nd10  1  0.559267  0.559338  0.942409  1
  Nd  Nd11  1  0.941894  0.941880  0.557360  1
  Th  Th12  1  0.344663  0.344643  0.344735  1
  Th  Th13  1  0.346298  0.346113  0.961819  1
  Th  Th14  1  0.346230  0.961621  0.346323  1
  Th  Th15  1  0.961758  0.346156  0.346327  1
  Cd  Cd16  1  0.579664  0.579759  0.579710  1
  Cd  Cd17  1  0.579965  0.580113  0.258423  1
  Cd  Cd18  1  0.580014  0.258465  0.580009  1
  Cd  Cd19  1  0.258461  0.580078  0.579966  1
  Os  Os20  1  0.144176  0.144163  0.144210  1
  Os  Os21  1  0.144853  0.144740  0.567398  1
  Os  Os22  1  0.144829  0.567280  0.144839  1
  Os  Os23  1  0.567406  0.144685  0.144868  1
