# generated using pymatgen
data_Er8BePd23Au
_symmetry_space_group_name_H-M   'P 1'
_cell_length_a   8.27746100
_cell_length_b   8.32615800
_cell_length_c   8.32572100
_cell_angle_alpha   90.00000000
_cell_angle_beta   90.00000000
_cell_angle_gamma   90.00000000
_symmetry_Int_Tables_number   1
_chemical_formula_structural   Er8BePd23Au
_chemical_formula_sum   'Er8 Be1 Pd23 Au1'
_cell_volume   573.80409656
_cell_formula_units_Z   1
loop_
 _symmetry_equiv_pos_site_id
 _symmetry_equiv_pos_as_xyz
  1  'x, y, z'
loop_
 _atom_site_type_symbol
 _atom_site_label
 _atom_site_symmetry_multiplicity
 _atom_site_fract_x
 _atom_site_fract_y
 _atom_site_fract_z
 _atom_site_occupancy
  Er  Er0  1  0.251236  0.247093  0.255384  1
  Er  Er1  1  0.748607  0.748168  0.749082  1
  Er  Er2  1  0.748607  0.748168  0.250918  1
  Er  Er3  1  0.748607  0.251832  0.749082  1
  Er  Er4  1  0.251236  0.247093  0.744616  1
  Er  Er5  1  0.251236  0.752907  0.255384  1
  Er  Er6  1  0.251236  0.752907  0.744616  1
  Er  Er7  1  0.748607  0.251832  0.250918  1
  Be  Be8  1  0.000395  0.000000  0.000000  1
  Pd  Pd9  1  0.746735  0.500000  0.000000  1
  Pd  Pd10  1  0.999187  0.252880  0.500000  1
  Pd  Pd11  1  0.499244  0.251994  0.000000  1
  Pd  Pd12  1  0.999187  0.747120  0.500000  1
  Pd  Pd13  1  0.499244  0.748006  0.000000  1
  Pd  Pd14  1  0.500674  0.000000  0.252903  1
  Pd  Pd15  1  0.252789  0.000000  0.500000  1
  Pd  Pd16  1  0.500674  0.000000  0.747097  1
  Pd  Pd17  1  0.746947  0.000000  0.500000  1
  Pd  Pd18  1  0.001090  0.500000  0.253695  1
  Pd  Pd19  1  0.001090  0.500000  0.746305  1
  Pd  Pd20  1  0.250881  0.500000  0.500000  1
  Pd  Pd21  1  0.749397  0.500000  0.500000  1
  Pd  Pd22  1  0.500728  0.251096  0.500000  1
  Pd  Pd23  1  0.500728  0.748904  0.500000  1
  Pd  Pd24  1  0.499100  0.500000  0.252183  1
  Pd  Pd25  1  0.499100  0.500000  0.747817  1
  Pd  Pd26  1  0.266904  0.000000  0.000000  1
  Pd  Pd27  1  0.733010  0.000000  0.000000  1
  Pd  Pd28  1  0.000870  0.265622  0.000000  1
  Pd  Pd29  1  0.000870  0.734378  0.000000  1
  Pd  Pd30  1  0.998994  0.000000  0.266360  1
  Pd  Pd31  1  0.998994  0.000000  0.733640  1
  Au  Au32  1  0.253796  0.500000  0.000000  1
