# generated using pymatgen
data_YAlGaCu
_symmetry_space_group_name_H-M   'P 1'
_cell_length_a   9.60010870
_cell_length_b   9.60010821
_cell_length_c   4.24798900
_cell_angle_alpha   90.00000000
_cell_angle_beta   90.00000000
_cell_angle_gamma   157.82857435
_symmetry_Int_Tables_number   1
_chemical_formula_structural   YAlGaCu
_chemical_formula_sum   'Y2 Al2 Ga2 Cu2'
_cell_volume   147.74520109
_cell_formula_units_Z   2
loop_
 _symmetry_equiv_pos_site_id
 _symmetry_equiv_pos_as_xyz
  1  'x, y, z'
loop_
 _atom_site_type_symbol
 _atom_site_label
 _atom_site_symmetry_multiplicity
 _atom_site_fract_x
 _atom_site_fract_y
 _atom_site_fract_z
 _atom_site_occupancy
  Y  Y0  1  0.895384  0.104616  0.750000  1
  Y  Y1  1  0.104616  0.895384  0.250000  1
  Al  Al2  1  0.254716  0.745284  0.750000  1
  Al  Al3  1  0.745284  0.254716  0.250000  1
  Ga  Ga4  1  0.536552  0.463448  0.750000  1
  Ga  Ga5  1  0.463448  0.536552  0.250000  1
  Cu  Cu6  1  0.666782  0.333218  0.750000  1
  Cu  Cu7  1  0.333218  0.666782  0.250000  1
