# generated using pymatgen
data_Y10Be3Si15Au2
_symmetry_space_group_name_H-M   'P 1'
_cell_length_a   4.05320245
_cell_length_b   4.04463669
_cell_length_c   34.65171669
_cell_angle_alpha   86.64298596
_cell_angle_beta   86.60287849
_cell_angle_gamma   90.00242838
_symmetry_Int_Tables_number   1
_chemical_formula_structural   Y10Be3Si15Au2
_chemical_formula_sum   'Y10 Be3 Si15 Au2'
_cell_volume   566.09613389
_cell_formula_units_Z   1
loop_
 _symmetry_equiv_pos_site_id
 _symmetry_equiv_pos_as_xyz
  1  'x, y, z'
loop_
 _atom_site_type_symbol
 _atom_site_label
 _atom_site_symmetry_multiplicity
 _atom_site_fract_x
 _atom_site_fract_y
 _atom_site_fract_z
 _atom_site_occupancy
  Y  Y0  1  0.947888  0.447721  0.104052  1
  Y  Y1  1  0.350743  0.850489  0.298455  1
  Y  Y2  1  0.753829  0.253778  0.492682  1
  Y  Y3  1  0.149089  0.650101  0.700758  1
  Y  Y4  1  0.544996  0.045451  0.909566  1
  Y  Y5  1  0.997352  0.996790  0.006129  1
  Y  Y6  1  0.399850  0.399562  0.200657  1
  Y  Y7  1  0.802496  0.802418  0.395474  1
  Y  Y8  1  0.205344  0.205087  0.589734  1
  Y  Y9  1  0.601285  0.600952  0.797709  1
  Be  Be10  1  0.464782  0.964838  0.069877  1
  Be  Be11  1  0.867518  0.367632  0.264493  1
  Be  Be12  1  0.270271  0.770782  0.459115  1
  Si  Si13  1  0.666691  0.167332  0.665118  1
  Si  Si14  1  0.061884  0.563532  0.873416  1
  Si  Si15  1  0.915588  0.915832  0.168247  1
  Si  Si16  1  0.318277  0.318862  0.362827  1
  Si  Si17  1  0.720589  0.721296  0.558271  1
  Si  Si18  1  0.116328  0.116252  0.767015  1
  Si  Si19  1  0.513042  0.512845  0.974192  1
  Si  Si20  1  0.433418  0.932926  0.133193  1
  Si  Si21  1  0.836050  0.335512  0.327797  1
  Si  Si22  1  0.238866  0.738625  0.522318  1
  Si  Si23  1  0.633843  0.135002  0.732013  1
  Si  Si24  1  0.030443  0.530191  0.940018  1
  Si  Si25  1  0.479638  0.478993  0.041447  1
  Si  Si26  1  0.882404  0.881939  0.235689  1
  Si  Si27  1  0.285304  0.285097  0.430268  1
  Au  Au28  1  0.686553  0.685696  0.628183  1
  Au  Au29  1  0.082841  0.081667  0.836887  1
