# generated using pymatgen
data_La5Sm3GaPd24
_symmetry_space_group_name_H-M   'P 1'
_cell_length_a   8.53136165
_cell_length_b   8.53136165
_cell_length_c   8.50850785
_cell_angle_alpha   89.96378672
_cell_angle_beta   90.03621328
_cell_angle_gamma   90.08281277
_symmetry_Int_Tables_number   1
_chemical_formula_structural   La5Sm3GaPd24
_chemical_formula_sum   'La5 Sm3 Ga1 Pd24'
_cell_volume   619.28346161
_cell_formula_units_Z   1
loop_
 _symmetry_equiv_pos_site_id
 _symmetry_equiv_pos_as_xyz
  1  'x, y, z'
loop_
 _atom_site_type_symbol
 _atom_site_label
 _atom_site_symmetry_multiplicity
 _atom_site_fract_x
 _atom_site_fract_y
 _atom_site_fract_z
 _atom_site_occupancy
  La  La0  1  0.252762  0.252770  0.252600  1
  La  La1  1  0.747347  0.747566  0.747586  1
  La  La2  1  0.747230  0.747238  0.252600  1
  La  La3  1  0.747606  0.252394  0.748037  1
  La  La4  1  0.252434  0.252653  0.747586  1
  Sm  Sm5  1  0.251943  0.748057  0.251656  1
  Sm  Sm6  1  0.251915  0.748085  0.748417  1
  Sm  Sm7  1  0.748247  0.251753  0.251370  1
  Ga  Ga8  1  0.000196  0.999804  0.000024  1
  Pd  Pd9  1  0.260632  0.503101  0.000127  1
  Pd  Pd10  1  0.739476  0.498532  0.001737  1
  Pd  Pd11  1  0.997612  0.260611  0.498650  1
  Pd  Pd12  1  0.501468  0.260524  0.001737  1
  Pd  Pd13  1  0.004344  0.739312  0.499814  1
  Pd  Pd14  1  0.496899  0.739368  0.000127  1
  Pd  Pd15  1  0.499751  0.999845  0.260511  1
  Pd  Pd16  1  0.260688  0.995656  0.499814  1
  Pd  Pd17  1  0.498569  0.998215  0.739513  1
  Pd  Pd18  1  0.739389  0.002388  0.498650  1
  Pd  Pd19  1  0.000155  0.500249  0.260511  1
  Pd  Pd20  1  0.001785  0.501431  0.739513  1
  Pd  Pd21  1  0.253163  0.504099  0.499880  1
  Pd  Pd22  1  0.746885  0.497740  0.498264  1
  Pd  Pd23  1  0.502260  0.253115  0.498264  1
  Pd  Pd24  1  0.495901  0.746837  0.499880  1
  Pd  Pd25  1  0.499835  0.500165  0.253050  1
  Pd  Pd26  1  0.498237  0.501763  0.746979  1
  Pd  Pd27  1  0.292961  0.996305  0.000124  1
  Pd  Pd28  1  0.706547  0.001797  0.001681  1
  Pd  Pd29  1  0.998203  0.293453  0.001681  1
  Pd  Pd30  1  0.003695  0.707039  0.000124  1
  Pd  Pd31  1  0.000177  0.999823  0.293489  1
  Pd  Pd32  1  0.001686  0.998314  0.706005  1
