# generated using pymatgen
data_Nd5(IrO6)2
_symmetry_space_group_name_H-M   'P 1'
_cell_length_a   7.10371828
_cell_length_b   7.10371741
_cell_length_c   7.54384602
_cell_angle_alpha   74.59215548
_cell_angle_beta   74.59215670
_cell_angle_gamma   51.33606566
_symmetry_Int_Tables_number   1
_chemical_formula_structural   Nd5(IrO6)2
_chemical_formula_sum   'Nd5 Ir2 O12'
_cell_volume   284.03901086
_cell_formula_units_Z   1
loop_
 _symmetry_equiv_pos_site_id
 _symmetry_equiv_pos_as_xyz
  1  'x, y, z'
loop_
 _atom_site_type_symbol
 _atom_site_label
 _atom_site_symmetry_multiplicity
 _atom_site_fract_x
 _atom_site_fract_y
 _atom_site_fract_z
 _atom_site_occupancy
  Nd  Nd0  1  0.303401  0.303401  0.358389  1
  Nd  Nd1  1  0.696599  0.696599  0.641611  1
  Nd  Nd2  1  0.693284  0.693284  0.166546  1
  Nd  Nd3  1  0.306716  0.306716  0.833454  1
  Nd  Nd4  1  0.000000  0.000000  0.500000  1
  Ir  Ir5  1  0.753424  0.246576  0.000000  1
  Ir  Ir6  1  0.246576  0.753424  0.000000  1
  O  O7  1  0.095559  0.598350  0.575850  1
  O  O8  1  0.999461  0.999461  0.172049  1
  O  O9  1  0.401650  0.904441  0.424150  1
  O  O10  1  0.500127  0.500127  0.175825  1
  O  O11  1  0.100710  0.575455  0.080763  1
  O  O12  1  0.904441  0.401650  0.424150  1
  O  O13  1  0.000539  0.000539  0.827951  1
  O  O14  1  0.598350  0.095558  0.575850  1
  O  O15  1  0.499873  0.499873  0.824175  1
  O  O16  1  0.575455  0.100710  0.080763  1
  O  O17  1  0.424545  0.899290  0.919237  1
  O  O18  1  0.899290  0.424545  0.919237  1
