# generated using pymatgen
data_Tm8ReB24Os2W
_symmetry_space_group_name_H-M   'P 1'
_cell_length_a   3.61349200
_cell_length_b   9.12275308
_cell_length_c   11.49797501
_cell_angle_alpha   90.14417326
_cell_angle_beta   90.00000000
_cell_angle_gamma   90.00000000
_symmetry_Int_Tables_number   1
_chemical_formula_structural   Tm8ReB24Os2W
_chemical_formula_sum   'Tm8 Re1 B24 Os2 W1'
_cell_volume   379.02949181
_cell_formula_units_Z   1
loop_
 _symmetry_equiv_pos_site_id
 _symmetry_equiv_pos_as_xyz
  1  'x, y, z'
loop_
 _atom_site_type_symbol
 _atom_site_label
 _atom_site_symmetry_multiplicity
 _atom_site_fract_x
 _atom_site_fract_y
 _atom_site_fract_z
 _atom_site_occupancy
  Tm  Tm0  1  0.000000  0.321054  0.413648  1
  Tm  Tm1  1  0.000000  0.679796  0.587908  1
  Tm  Tm2  1  0.000000  0.821809  0.084250  1
  Tm  Tm3  1  0.000000  0.176093  0.913771  1
  Tm  Tm4  1  0.000000  0.942145  0.372542  1
  Tm  Tm5  1  0.000000  0.056777  0.629529  1
  Tm  Tm6  1  0.000000  0.445162  0.128007  1
  Tm  Tm7  1  0.000000  0.557753  0.871005  1
  Re  Re8  1  0.000000  0.861012  0.819393  1
  B  B9  1  0.500000  0.553312  0.433695  1
  B  B10  1  0.500000  0.446697  0.566556  1
  B  B11  1  0.500000  0.050316  0.063740  1
  B  B12  1  0.500000  0.946650  0.932241  1
  B  B13  1  0.500000  0.748852  0.419427  1
  B  B14  1  0.500000  0.250829  0.581221  1
  B  B15  1  0.500000  0.252186  0.077491  1
  B  B16  1  0.500000  0.750898  0.918969  1
  B  B17  1  0.500000  0.790428  0.266088  1
  B  B18  1  0.500000  0.208954  0.734386  1
  B  B19  1  0.500000  0.295841  0.236842  1
  B  B20  1  0.500000  0.707607  0.764875  1
  B  B21  1  0.500000  0.630617  0.185772  1
  B  B22  1  0.500000  0.369632  0.814184  1
  B  B23  1  0.500000  0.131540  0.318677  1
  B  B24  1  0.500000  0.868806  0.684420  1
  B  B25  1  0.500000  0.976630  0.213281  1
  B  B26  1  0.500000  0.018165  0.787155  1
  B  B27  1  0.500000  0.482932  0.288084  1
  B  B28  1  0.500000  0.517992  0.711675  1
  B  B29  1  0.500000  0.603456  0.028584  1
  B  B30  1  0.500000  0.398226  0.970349  1
  B  B31  1  0.500000  0.102654  0.472808  1
  B  B32  1  0.500000  0.896996  0.528901  1
  Os  Os33  1  0.000000  0.637554  0.322628  1
  Os  Os34  1  0.000000  0.362618  0.678442  1
  W  W35  1  0.000000  0.138013  0.179454  1
