# generated using pymatgen
data_Ca2Lu2Al15(SiIr2)3
_symmetry_space_group_name_H-M   'P 1'
_cell_length_a   7.52339637
_cell_length_b   7.54314675
_cell_length_c   9.30234800
_cell_angle_alpha   90.00000000
_cell_angle_beta   90.00000000
_cell_angle_gamma   119.75789218
_symmetry_Int_Tables_number   1
_chemical_formula_structural   Ca2Lu2Al15(SiIr2)3
_chemical_formula_sum   'Ca2 Lu2 Al15 Si3 Ir6'
_cell_volume   458.29389775
_cell_formula_units_Z   1
loop_
 _symmetry_equiv_pos_site_id
 _symmetry_equiv_pos_as_xyz
  1  'x, y, z'
loop_
 _atom_site_type_symbol
 _atom_site_label
 _atom_site_symmetry_multiplicity
 _atom_site_fract_x
 _atom_site_fract_y
 _atom_site_fract_z
 _atom_site_occupancy
  Ca  Ca0  1  0.999831  0.673390  0.250000  1
  Ca  Ca1  1  0.003792  0.325275  0.750000  1
  Lu  Lu2  1  0.669297  0.992028  0.250000  1
  Lu  Lu3  1  0.325268  0.003959  0.750000  1
  Al  Al4  1  0.998995  0.334330  0.076996  1
  Al  Al5  1  0.001465  0.664363  0.924990  1
  Al  Al6  1  0.001465  0.664363  0.575010  1
  Al  Al7  1  0.335667  0.003188  0.423321  1
  Al  Al8  1  0.998995  0.334330  0.423004  1
  Al  Al9  1  0.663950  0.999852  0.575991  1
  Al  Al10  1  0.663950  0.999852  0.924009  1
  Al  Al11  1  0.335667  0.003188  0.076679  1
  Al  Al12  1  0.335281  0.335089  0.560073  1
  Al  Al13  1  0.667527  0.664367  0.444318  1
  Al  Al14  1  0.667527  0.664367  0.055682  1
  Al  Al15  1  0.335281  0.335089  0.939927  1
  Al  Al16  1  0.663773  0.452529  0.750000  1
  Al  Al17  1  0.547714  0.338153  0.250000  1
  Al  Al18  1  0.450687  0.667728  0.750000  1
  Si  Si19  1  0.120743  0.127534  0.250000  1
  Si  Si20  1  0.871738  0.869201  0.750000  1
  Si  Si21  1  0.337202  0.545629  0.250000  1
  Ir  Ir22  1  0.669568  0.327719  0.000674  1
  Ir  Ir23  1  0.331991  0.672110  0.007654  1
  Ir  Ir24  1  0.331991  0.672110  0.492346  1
  Ir  Ir25  1  0.669568  0.327719  0.499326  1
  Ir  Ir26  1  0.000535  0.001270  0.000695  1
  Ir  Ir27  1  0.000535  0.001270  0.499305  1
