# generated using pymatgen
data_Y2HoCd3Ga2Ag
_symmetry_space_group_name_H-M   'P 1'
_cell_length_a   7.37806903
_cell_length_b   7.38753102
_cell_length_c   4.33163500
_cell_angle_alpha   90.00000000
_cell_angle_beta   90.00000000
_cell_angle_gamma   120.04244566
_symmetry_Int_Tables_number   1
_chemical_formula_structural   Y2HoCd3Ga2Ag
_chemical_formula_sum   'Y2 Ho1 Cd3 Ga2 Ag1'
_cell_volume   204.38009942
_cell_formula_units_Z   1
loop_
 _symmetry_equiv_pos_site_id
 _symmetry_equiv_pos_as_xyz
  1  'x, y, z'
loop_
 _atom_site_type_symbol
 _atom_site_label
 _atom_site_symmetry_multiplicity
 _atom_site_fract_x
 _atom_site_fract_y
 _atom_site_fract_z
 _atom_site_occupancy
  Y  Y0  1  0.420501  0.420757  0.500000  1
  Y  Y1  1  0.579499  0.000256  0.500000  1
  Ho  Ho2  1  0.000000  0.579915  0.500000  1
  Cd  Cd3  1  0.747674  0.747653  0.000000  1
  Cd  Cd4  1  0.252326  0.999979  0.000000  1
  Cd  Cd5  1  0.000000  0.252457  0.000000  1
  Ga  Ga6  1  0.668160  0.334432  0.000000  1
  Ga  Ga7  1  0.331840  0.666273  0.000000  1
  Ag  Ag8  1  0.000000  0.998277  0.500000  1
