# generated using pymatgen
data_Zr10BiPb6
_symmetry_space_group_name_H-M   'P 1'
_cell_length_a   6.04249903
_cell_length_b   8.82916455
_cell_length_c   8.82908104
_cell_angle_alpha   120.01032772
_cell_angle_beta   89.99623266
_cell_angle_gamma   89.99273135
_symmetry_Int_Tables_number   1
_chemical_formula_structural   Zr10BiPb6
_chemical_formula_sum   'Zr10 Bi1 Pb6'
_cell_volume   407.88442395
_cell_formula_units_Z   1
loop_
 _symmetry_equiv_pos_site_id
 _symmetry_equiv_pos_as_xyz
  1  'x, y, z'
loop_
 _atom_site_type_symbol
 _atom_site_label
 _atom_site_symmetry_multiplicity
 _atom_site_fract_x
 _atom_site_fract_y
 _atom_site_fract_z
 _atom_site_occupancy
  Zr  Zr0  1  0.499999  0.333343  0.666661  1
  Zr  Zr1  1  0.500000  0.666657  0.333353  1
  Zr  Zr2  1  0.000000  0.666660  0.333348  1
  Zr  Zr3  1  0.000002  0.333336  0.666667  1
  Zr  Zr4  1  0.776691  0.267907  0.999954  1
  Zr  Zr5  1  0.776699  0.732007  0.732014  1
  Zr  Zr6  1  0.776678  0.999993  0.267931  1
  Zr  Zr7  1  0.223338  0.732071  0.000011  1
  Zr  Zr8  1  0.223308  0.267979  0.267995  1
  Zr  Zr9  1  0.223291  0.000043  0.732083  1
  Bi  Bi10  1  0.499998  0.000005  0.999968  1
  Pb  Pb11  1  0.742312  0.613441  0.999945  1
  Pb  Pb12  1  0.742347  0.386556  0.386560  1
  Pb  Pb13  1  0.742320  0.999984  0.613486  1
  Pb  Pb14  1  0.257689  0.386534  0.000028  1
  Pb  Pb15  1  0.257644  0.613438  0.613460  1
  Pb  Pb16  1  0.257688  0.000049  0.386540  1
