# generated using pymatgen
data_Tm12TlCo(TcNi)2
_symmetry_space_group_name_H-M   'P 1'
_cell_length_a   8.24571552
_cell_length_b   8.25255354
_cell_length_c   8.24571453
_cell_angle_alpha   111.06568795
_cell_angle_beta   112.41949588
_cell_angle_gamma   104.99082975
_symmetry_Int_Tables_number   1
_chemical_formula_structural   Tm12TlCo(TcNi)2
_chemical_formula_sum   'Tm12 Tl1 Co1 Tc2 Ni2'
_cell_volume   430.08879134
_cell_formula_units_Z   1
loop_
 _symmetry_equiv_pos_site_id
 _symmetry_equiv_pos_as_xyz
  1  'x, y, z'
loop_
 _atom_site_type_symbol
 _atom_site_label
 _atom_site_symmetry_multiplicity
 _atom_site_fract_x
 _atom_site_fract_y
 _atom_site_fract_z
 _atom_site_occupancy
  Tm  Tm0  1  0.273353  0.183502  0.453896  1
  Tm  Tm1  1  0.725372  0.819146  0.541182  1
  Tm  Tm2  1  0.277963  0.819146  0.093774  1
  Tm  Tm3  1  0.729606  0.183502  0.910149  1
  Tm  Tm4  1  0.615816  0.304886  0.300737  1
  Tm  Tm5  1  0.382902  0.680928  0.691621  1
  Tm  Tm6  1  0.004149  0.304886  0.689070  1
  Tm  Tm7  1  0.989307  0.680928  0.298025  1
  Tm  Tm8  1  0.228087  0.419536  0.191451  1
  Tm  Tm9  1  0.773978  0.578624  0.804645  1
  Tm  Tm10  1  0.227243  0.032138  0.804894  1
  Tm  Tm11  1  0.772782  0.964590  0.191808  1
  Tl  Tl12  1  0.500458  0.497745  0.997287  1
  Co  Co13  1  0.610167  0.107730  0.497562  1
  Tc  Tc14  1  0.000831  0.383995  0.383164  1
  Tc  Tc15  1  0.001629  0.001656  0.000027  1
  Ni  Ni16  1  0.000820  0.651941  0.651121  1
  Ni  Ni17  1  0.385536  0.885124  0.499588  1
