# generated using pymatgen
data_Dy7Y3Sn5Bi
_symmetry_space_group_name_H-M   'P 1'
_cell_length_a   9.01743800
_cell_length_b   9.01999083
_cell_length_c   6.53406200
_cell_angle_alpha   90.00000000
_cell_angle_beta   90.00000000
_cell_angle_gamma   119.99063824
_symmetry_Int_Tables_number   1
_chemical_formula_structural   Dy7Y3Sn5Bi
_chemical_formula_sum   'Dy7 Y3 Sn5 Bi1'
_cell_volume   460.30331788
_cell_formula_units_Z   1
loop_
 _symmetry_equiv_pos_site_id
 _symmetry_equiv_pos_as_xyz
  1  'x, y, z'
loop_
 _atom_site_type_symbol
 _atom_site_label
 _atom_site_symmetry_multiplicity
 _atom_site_fract_x
 _atom_site_fract_y
 _atom_site_fract_z
 _atom_site_occupancy
  Dy  Dy0  1  0.000348  0.239579  0.250000  1
  Dy  Dy1  1  0.760769  0.760421  0.250000  1
  Dy  Dy2  1  0.238160  0.000000  0.250000  1
  Dy  Dy3  1  0.332666  0.662742  0.499223  1
  Dy  Dy4  1  0.669925  0.337258  0.000777  1
  Dy  Dy5  1  0.669925  0.337258  0.499223  1
  Dy  Dy6  1  0.332666  0.662742  0.000777  1
  Y  Y7  1  0.994607  0.756782  0.750000  1
  Y  Y8  1  0.763793  0.000000  0.750000  1
  Y  Y9  1  0.237825  0.243218  0.750000  1
  Sn  Sn10  1  0.394909  0.393459  0.250000  1
  Sn  Sn11  1  0.001451  0.606541  0.250000  1
  Sn  Sn12  1  0.999584  0.395417  0.750000  1
  Sn  Sn13  1  0.604165  0.604583  0.750000  1
  Sn  Sn14  1  0.605754  0.000000  0.250000  1
  Bi  Bi15  1  0.393453  0.000000  0.750000  1
