# generated using pymatgen
data_YbY2Zn11
_symmetry_space_group_name_H-M   'P 1'
_cell_length_a   8.16892441
_cell_length_b   8.16892501
_cell_length_c   8.16892393
_cell_angle_alpha   148.33528631
_cell_angle_beta   115.62725213
_cell_angle_gamma   73.52188002
_symmetry_Int_Tables_number   1
_chemical_formula_structural   YbY2Zn11
_chemical_formula_sum   'Yb1 Y2 Zn11'
_cell_volume   253.86747945
_cell_formula_units_Z   1
loop_
 _symmetry_equiv_pos_site_id
 _symmetry_equiv_pos_as_xyz
  1  'x, y, z'
loop_
 _atom_site_type_symbol
 _atom_site_label
 _atom_site_symmetry_multiplicity
 _atom_site_fract_x
 _atom_site_fract_y
 _atom_site_fract_z
 _atom_site_occupancy
  Yb  Yb0  1  0.000000  0.000000  0.000000  1
  Y  Y1  1  0.298150  0.298150  0.000000  1
  Y  Y2  1  0.701850  0.701850  0.000000  1
  Zn  Zn3  1  0.500000  0.000000  0.500000  1
  Zn  Zn4  1  0.679233  0.500000  0.179233  1
  Zn  Zn5  1  0.320767  0.500000  0.820767  1
  Zn  Zn6  1  0.696548  0.339572  0.356975  1
  Zn  Zn7  1  0.303452  0.660428  0.643025  1
  Zn  Zn8  1  0.982597  0.339572  0.643025  1
  Zn  Zn9  1  0.017403  0.660428  0.356975  1
  Zn  Zn10  1  0.419938  0.136791  0.283147  1
  Zn  Zn11  1  0.580062  0.863209  0.716853  1
  Zn  Zn12  1  0.853643  0.136791  0.716853  1
  Zn  Zn13  1  0.146357  0.863209  0.283147  1
