# generated using pymatgen
data_Ho5Zr3(Ta3Ge4)4
_symmetry_space_group_name_H-M   'P 1'
_cell_length_a   7.12909044
_cell_length_b   7.13083067
_cell_length_c   13.16833100
_cell_angle_alpha   89.95022356
_cell_angle_beta   90.08814874
_cell_angle_gamma   90.08024108
_symmetry_Int_Tables_number   1
_chemical_formula_structural   Ho5Zr3(Ta3Ge4)4
_chemical_formula_sum   'Ho5 Zr3 Ta12 Ge16'
_cell_volume   669.42800894
_cell_formula_units_Z   1
loop_
 _symmetry_equiv_pos_site_id
 _symmetry_equiv_pos_as_xyz
  1  'x, y, z'
loop_
 _atom_site_type_symbol
 _atom_site_label
 _atom_site_symmetry_multiplicity
 _atom_site_fract_x
 _atom_site_fract_y
 _atom_site_fract_z
 _atom_site_occupancy
  Ho  Ho0  1  0.999863  0.659119  0.029432  1
  Ho  Ho1  1  0.001580  0.338304  0.528822  1
  Ho  Ho2  1  0.660949  0.000124  0.971814  1
  Ho  Ho3  1  0.162479  0.501068  0.777378  1
  Ho  Ho4  1  0.838059  0.499173  0.279257  1
  Zr  Zr5  1  0.494326  0.158973  0.223558  1
  Zr  Zr6  1  0.506444  0.842379  0.721343  1
  Zr  Zr7  1  0.341738  0.994567  0.472581  1
  Ta  Ta8  1  0.344482  0.508650  0.376242  1
  Ta  Ta9  1  0.841862  0.997322  0.372876  1
  Ta  Ta10  1  0.008956  0.157421  0.127803  1
  Ta  Ta11  1  0.992979  0.844703  0.625179  1
  Ta  Ta12  1  0.654010  0.492569  0.874843  1
  Ta  Ta13  1  0.503217  0.342042  0.622014  1
  Ta  Ta14  1  0.494293  0.657056  0.124171  1
  Ta  Ta15  1  0.157878  0.004273  0.871876  1
  Ta  Ta16  1  0.665886  0.672076  0.499864  1
  Ta  Ta17  1  0.829393  0.165416  0.748738  1
  Ta  Ta18  1  0.171045  0.834972  0.251351  1
  Ta  Ta19  1  0.331300  0.330131  0.999939  1
  Ge  Ge20  1  0.038392  0.706723  0.433652  1
  Ge  Ge21  1  0.962538  0.294808  0.933270  1
  Ge  Ge22  1  0.700727  0.038031  0.566060  1
  Ge  Ge23  1  0.205200  0.461994  0.184251  1
  Ge  Ge24  1  0.794155  0.537400  0.682816  1
  Ge  Ge25  1  0.462568  0.200286  0.815636  1
  Ge  Ge26  1  0.537483  0.800244  0.316576  1
  Ge  Ge27  1  0.297293  0.963510  0.067334  1
  Ge  Ge28  1  0.865985  0.798238  0.822051  1
  Ge  Ge29  1  0.137397  0.199788  0.325962  1
  Ge  Ge30  1  0.797735  0.870731  0.176909  1
  Ge  Ge31  1  0.301699  0.637079  0.575370  1
  Ge  Ge32  1  0.696986  0.364826  0.075876  1
  Ge  Ge33  1  0.628460  0.296327  0.424794  1
  Ge  Ge34  1  0.367950  0.700814  0.925710  1
  Ge  Ge35  1  0.204693  0.128862  0.674657  1
