# generated using pymatgen
data_Sc20Si13As3
_symmetry_space_group_name_H-M   'P 1'
_cell_length_a   7.02469460
_cell_length_b   7.18185445
_cell_length_c   13.70046518
_cell_angle_alpha   90.15348307
_cell_angle_beta   86.26261146
_cell_angle_gamma   90.21385229
_symmetry_Int_Tables_number   1
_chemical_formula_structural   Sc20Si13As3
_chemical_formula_sum   'Sc20 Si13 As3'
_cell_volume   689.71622340
_cell_formula_units_Z   1
loop_
 _symmetry_equiv_pos_site_id
 _symmetry_equiv_pos_as_xyz
  1  'x, y, z'
loop_
 _atom_site_type_symbol
 _atom_site_label
 _atom_site_symmetry_multiplicity
 _atom_site_fract_x
 _atom_site_fract_y
 _atom_site_fract_z
 _atom_site_occupancy
  Sc  Sc0  1  0.198273  0.996013  0.752104  1
  Sc  Sc1  1  0.801806  0.003921  0.247801  1
  Sc  Sc2  1  0.301730  0.497987  0.247874  1
  Sc  Sc3  1  0.697944  0.501495  0.749861  1
  Sc  Sc4  1  0.039257  0.670494  0.609088  1
  Sc  Sc5  1  0.955632  0.328804  0.390955  1
  Sc  Sc6  1  0.462188  0.179261  0.391864  1
  Sc  Sc7  1  0.995287  0.322667  0.096967  1
  Sc  Sc8  1  0.542498  0.821863  0.609593  1
  Sc  Sc9  1  0.004686  0.676808  0.902923  1
  Sc  Sc10  1  0.505161  0.821667  0.902780  1
  Sc  Sc11  1  0.494624  0.177769  0.097173  1
  Sc  Sc12  1  0.384140  0.336952  0.619730  1
  Sc  Sc13  1  0.617121  0.663341  0.380929  1
  Sc  Sc14  1  0.114333  0.836477  0.380909  1
  Sc  Sc15  1  0.646283  0.679311  0.124866  1
  Sc  Sc16  1  0.884071  0.165084  0.618957  1
  Sc  Sc17  1  0.353290  0.320947  0.875395  1
  Sc  Sc18  1  0.853599  0.177936  0.875185  1
  Sc  Sc19  1  0.147219  0.822735  0.125150  1
  Si  Si20  1  0.071316  0.385648  0.748732  1
  Si  Si21  1  0.928663  0.614417  0.251244  1
  Si  Si22  1  0.428512  0.887599  0.252778  1
  Si  Si23  1  0.571580  0.113213  0.748134  1
  Si  Si24  1  0.321127  0.632060  0.754109  1
  Si  Si25  1  0.677936  0.368211  0.245907  1
  Si  Si26  1  0.178744  0.133736  0.247121  1
  Si  Si27  1  0.821946  0.866672  0.753407  1
  Si  Si28  1  0.829430  0.967760  0.038175  1
  Si  Si29  1  0.727326  0.478999  0.544609  1
  Si  Si30  1  0.171127  0.031863  0.961624  1
  Si  Si31  1  0.671400  0.466764  0.961827  1
  Si  Si32  1  0.329044  0.533159  0.038217  1
  As  As33  1  0.231442  0.016326  0.545944  1
  As  As34  1  0.770481  0.982763  0.453726  1
  As  As35  1  0.270786  0.519280  0.454341  1
