# generated using pymatgen
data_HoPa2Zn3Pd2Pt
_symmetry_space_group_name_H-M   'P 1'
_cell_length_a   7.35460710
_cell_length_b   7.43396383
_cell_length_c   3.78426200
_cell_angle_alpha   90.00000000
_cell_angle_beta   90.00000000
_cell_angle_gamma   120.38485605
_symmetry_Int_Tables_number   1
_chemical_formula_structural   HoPa2Zn3Pd2Pt
_chemical_formula_sum   'Ho1 Pa2 Zn3 Pd2 Pt1'
_cell_volume   178.48200236
_cell_formula_units_Z   1
loop_
 _symmetry_equiv_pos_site_id
 _symmetry_equiv_pos_as_xyz
  1  'x, y, z'
loop_
 _atom_site_type_symbol
 _atom_site_label
 _atom_site_symmetry_multiplicity
 _atom_site_fract_x
 _atom_site_fract_y
 _atom_site_fract_z
 _atom_site_occupancy
  Ho  Ho0  1  0.998678  0.596955  0.000000  1
  Pa  Pa1  1  0.411952  0.406388  0.000000  1
  Pa  Pa2  1  0.590994  0.999152  0.000000  1
  Zn  Zn3  1  0.756516  0.746114  0.500000  1
  Zn  Zn4  1  0.242139  0.987792  0.500000  1
  Zn  Zn5  1  0.000631  0.264818  0.500000  1
  Pd  Pd6  1  0.000122  0.012204  0.000000  1
  Pd  Pd7  1  0.348252  0.667816  0.500000  1
  Pt  Pt8  1  0.650716  0.318760  0.500000  1
