# generated using pymatgen
data_Sc8TiSi16Mo8W3
_symmetry_space_group_name_H-M   'P 1'
_cell_length_a   6.57633614
_cell_length_b   6.80198287
_cell_length_c   12.70265700
_cell_angle_alpha   90.00000000
_cell_angle_beta   90.00000000
_cell_angle_gamma   89.81651989
_symmetry_Int_Tables_number   1
_chemical_formula_structural   Sc8TiSi16Mo8W3
_chemical_formula_sum   'Sc8 Ti1 Si16 Mo8 W3'
_cell_volume   568.21393741
_cell_formula_units_Z   1
loop_
 _symmetry_equiv_pos_site_id
 _symmetry_equiv_pos_as_xyz
  1  'x, y, z'
loop_
 _atom_site_type_symbol
 _atom_site_label
 _atom_site_symmetry_multiplicity
 _atom_site_fract_x
 _atom_site_fract_y
 _atom_site_fract_z
 _atom_site_occupancy
  Sc  Sc0  1  0.497425  0.671920  0.594234  1
  Sc  Sc1  1  0.996511  0.826607  0.905452  1
  Sc  Sc2  1  0.504896  0.329994  0.093095  1
  Sc  Sc3  1  0.003917  0.170597  0.406957  1
  Sc  Sc4  1  0.504896  0.329994  0.406905  1
  Sc  Sc5  1  0.003917  0.170597  0.093043  1
  Sc  Sc6  1  0.497425  0.671920  0.905766  1
  Sc  Sc7  1  0.996511  0.826607  0.594548  1
  Ti  Ti8  1  0.840792  0.493981  0.750000  1
  Si  Si9  1  0.666581  0.963462  0.455325  1
  Si  Si10  1  0.166641  0.537529  0.044406  1
  Si  Si11  1  0.331704  0.037635  0.956359  1
  Si  Si12  1  0.833066  0.462220  0.542327  1
  Si  Si13  1  0.331704  0.037635  0.543641  1
  Si  Si14  1  0.833066  0.462220  0.957673  1
  Si  Si15  1  0.666581  0.963462  0.044675  1
  Si  Si16  1  0.166641  0.537529  0.455594  1
  Si  Si17  1  0.464828  0.381539  0.750000  1
  Si  Si18  1  0.965795  0.118352  0.750000  1
  Si  Si19  1  0.532927  0.621620  0.250000  1
  Si  Si20  1  0.033753  0.878413  0.250000  1
  Si  Si21  1  0.703224  0.860958  0.750000  1
  Si  Si22  1  0.203293  0.640325  0.750000  1
  Si  Si23  1  0.299430  0.141069  0.250000  1
  Si  Si24  1  0.800154  0.358779  0.250000  1
  Mo  Mo25  1  0.665917  0.168261  0.623596  1
  Mo  Mo26  1  0.168444  0.334974  0.875886  1
  Mo  Mo27  1  0.330401  0.835540  0.124604  1
  Mo  Mo28  1  0.829711  0.663715  0.374694  1
  Mo  Mo29  1  0.330401  0.835540  0.375396  1
  Mo  Mo30  1  0.829711  0.663715  0.125306  1
  Mo  Mo31  1  0.665917  0.168261  0.876404  1
  Mo  Mo32  1  0.168444  0.334974  0.624114  1
  W  W33  1  0.336971  0.999472  0.750000  1
  W  W34  1  0.163988  0.496165  0.250000  1
  W  W35  1  0.664409  0.004422  0.250000  1
