# generated using pymatgen
data_Cs4Na2TmScSb4
_symmetry_space_group_name_H-M   'P 1'
_cell_length_a   10.26958475
_cell_length_b   10.26958458
_cell_length_c   10.26958436
_cell_angle_alpha   136.66440609
_cell_angle_beta   62.44932054
_cell_angle_gamma   137.32297918
_symmetry_Int_Tables_number   1
_chemical_formula_structural   Cs4Na2TmScSb4
_chemical_formula_sum   'Cs4 Na2 Tm1 Sc1 Sb4'
_cell_volume   497.73936980
_cell_formula_units_Z   1
loop_
 _symmetry_equiv_pos_site_id
 _symmetry_equiv_pos_as_xyz
  1  'x, y, z'
loop_
 _atom_site_type_symbol
 _atom_site_label
 _atom_site_symmetry_multiplicity
 _atom_site_fract_x
 _atom_site_fract_y
 _atom_site_fract_z
 _atom_site_occupancy
  Cs  Cs0  1  0.324266  0.776461  0.100580  1
  Cs  Cs1  1  0.175734  0.276315  0.452195  1
  Cs  Cs2  1  0.824119  0.723540  0.547806  1
  Cs  Cs3  1  0.675881  0.223686  0.899421  1
  Na  Na4  1  0.750000  0.250000  0.500000  1
  Na  Na5  1  0.250000  0.750001  0.500001  1
  Tm  Tm6  1  0.750000  0.750000  0.000000  1
  Sc  Sc7  1  0.250000  0.250000  0.000000  1
  Sb  Sb8  1  0.916744  0.226131  0.127732  1
  Sb  Sb9  1  0.583256  0.710987  0.309386  1
  Sb  Sb10  1  0.401601  0.273869  0.690615  1
  Sb  Sb11  1  0.098399  0.789014  0.872269  1
