# generated using pymatgen
data_Dy5Ti2P12Ir17
_symmetry_space_group_name_H-M   'P 1'
_cell_length_a   12.60157200
_cell_length_b   12.79101841
_cell_length_c   3.96590700
_cell_angle_alpha   90.00000000
_cell_angle_beta   90.00000000
_cell_angle_gamma   119.51125716
_symmetry_Int_Tables_number   1
_chemical_formula_structural   Dy5Ti2P12Ir17
_chemical_formula_sum   'Dy5 Ti2 P12 Ir17'
_cell_volume   556.31511984
_cell_formula_units_Z   1
loop_
 _symmetry_equiv_pos_site_id
 _symmetry_equiv_pos_as_xyz
  1  'x, y, z'
loop_
 _atom_site_type_symbol
 _atom_site_label
 _atom_site_symmetry_multiplicity
 _atom_site_fract_x
 _atom_site_fract_y
 _atom_site_fract_z
 _atom_site_occupancy
  Dy  Dy0  1  0.330342  0.660653  0.500000  1
  Dy  Dy1  1  0.669690  0.339347  0.500000  1
  Dy  Dy2  1  0.999112  0.811682  0.000000  1
  Dy  Dy3  1  0.187430  0.188318  0.000000  1
  Dy  Dy4  1  0.812699  0.000000  0.000000  1
  Ti  Ti5  1  0.998982  0.447390  0.500000  1
  Ti  Ti6  1  0.551592  0.552610  0.500000  1
  P  P7  1  0.001674  0.639676  0.500000  1
  P  P8  1  0.361998  0.360324  0.500000  1
  P  P9  1  0.644700  0.000000  0.500000  1
  P  P10  1  0.514418  0.682307  0.000000  1
  P  P11  1  0.308928  0.824238  0.000000  1
  P  P12  1  0.163133  0.480657  0.000000  1
  P  P13  1  0.484690  0.175762  0.000000  1
  P  P14  1  0.682476  0.519343  0.000000  1
  P  P15  1  0.832110  0.317693  0.000000  1
  P  P16  1  0.999796  0.175730  0.500000  1
  P  P17  1  0.824066  0.824270  0.500000  1
  P  P18  1  0.180414  0.000000  0.500000  1
  Ir  Ir19  1  0.504876  0.863692  0.000000  1
  Ir  Ir20  1  0.127834  0.641065  0.000000  1
  Ir  Ir21  1  0.355505  0.492053  0.000000  1
  Ir  Ir22  1  0.486770  0.358935  0.000000  1
  Ir  Ir23  1  0.863453  0.507947  0.000000  1
  Ir  Ir24  1  0.641185  0.136308  0.000000  1
  Ir  Ir25  1  0.463439  0.000000  0.500000  1
  Ir  Ir26  1  0.997206  0.281873  0.000000  1
  Ir  Ir27  1  0.715334  0.718127  0.000000  1
  Ir  Ir28  1  0.289410  0.000000  0.000000  1
  Ir  Ir29  1  0.622750  0.805426  0.500000  1
  Ir  Ir30  1  0.201306  0.823376  0.500000  1
  Ir  Ir31  1  0.176989  0.368819  0.500000  1
  Ir  Ir32  1  0.377931  0.176624  0.500000  1
  Ir  Ir33  1  0.808170  0.631181  0.500000  1
  Ir  Ir34  1  0.817324  0.194574  0.500000  1
  Ir  Ir35  1  0.002269  0.000000  0.500000  1
