# generated using pymatgen
data_CsRbBa6(USe6)2
_symmetry_space_group_name_H-M   'P 1'
_cell_length_a   9.14867385
_cell_length_b   9.14867401
_cell_length_c   9.14867437
_cell_angle_alpha   87.20709036
_cell_angle_beta   87.20708786
_cell_angle_gamma   87.20709653
_symmetry_Int_Tables_number   1
_chemical_formula_structural   CsRbBa6(USe6)2
_chemical_formula_sum   'Cs1 Rb1 Ba6 U2 Se12'
_cell_volume   763.08488909
_cell_formula_units_Z   1
loop_
 _symmetry_equiv_pos_site_id
 _symmetry_equiv_pos_as_xyz
  1  'x, y, z'
loop_
 _atom_site_type_symbol
 _atom_site_label
 _atom_site_symmetry_multiplicity
 _atom_site_fract_x
 _atom_site_fract_y
 _atom_site_fract_z
 _atom_site_occupancy
  Cs  Cs0  1  0.250000  0.250000  0.250000  1
  Rb  Rb1  1  0.750000  0.750000  0.750000  1
  Ba  Ba2  1  0.877108  0.622892  0.250000  1
  Ba  Ba3  1  0.250000  0.877108  0.622892  1
  Ba  Ba4  1  0.622892  0.250000  0.877108  1
  Ba  Ba5  1  0.750000  0.122464  0.377536  1
  Ba  Ba6  1  0.377536  0.750000  0.122464  1
  Ba  Ba7  1  0.122464  0.377536  0.750000  1
  U  U8  1  0.501242  0.501242  0.501242  1
  U  U9  1  0.998758  0.998758  0.998758  1
  Se  Se10  1  0.210912  0.573059  0.436324  1
  Se  Se11  1  0.436324  0.210912  0.573059  1
  Se  Se12  1  0.573059  0.436324  0.210912  1
  Se  Se13  1  0.932859  0.068867  0.709072  1
  Se  Se14  1  0.709072  0.932859  0.068867  1
  Se  Se15  1  0.068867  0.709072  0.932859  1
  Se  Se16  1  0.790928  0.431133  0.567141  1
  Se  Se17  1  0.567141  0.790928  0.431133  1
  Se  Se18  1  0.431133  0.567141  0.790928  1
  Se  Se19  1  0.063676  0.926941  0.289088  1
  Se  Se20  1  0.289088  0.063676  0.926941  1
  Se  Se21  1  0.926941  0.289088  0.063676  1
