# generated using pymatgen
data_ScNbFe3Si
_symmetry_space_group_name_H-M   'P 1'
_cell_length_a   4.89733902
_cell_length_b   4.90011522
_cell_length_c   7.94412302
_cell_angle_alpha   89.99432686
_cell_angle_beta   89.99697814
_cell_angle_gamma   119.99096729
_symmetry_Int_Tables_number   1
_chemical_formula_structural   ScNbFe3Si
_chemical_formula_sum   'Sc2 Nb2 Fe6 Si2'
_cell_volume   165.11349536
_cell_formula_units_Z   2
loop_
 _symmetry_equiv_pos_site_id
 _symmetry_equiv_pos_as_xyz
  1  'x, y, z'
loop_
 _atom_site_type_symbol
 _atom_site_label
 _atom_site_symmetry_multiplicity
 _atom_site_fract_x
 _atom_site_fract_y
 _atom_site_fract_z
 _atom_site_occupancy
  Sc  Sc0  1  0.666632  0.333294  0.562507  1
  Sc  Sc1  1  0.333368  0.666706  0.437493  1
  Nb  Nb2  1  0.333346  0.666688  0.062870  1
  Nb  Nb3  1  0.666654  0.333312  0.937130  1
  Fe  Fe4  1  0.170335  0.340693  0.754422  1
  Fe  Fe5  1  0.170368  0.829612  0.754393  1
  Fe  Fe6  1  0.659192  0.829595  0.754408  1
  Fe  Fe7  1  0.829665  0.659307  0.245578  1
  Fe  Fe8  1  0.829632  0.170388  0.245607  1
  Fe  Fe9  1  0.340808  0.170405  0.245592  1
  Si  Si10  1  0.000000  0.000000  0.500000  1
  Si  Si11  1  0.000000  0.000000  0.000000  1
