# generated using pymatgen
data_TmSc(B3W)2
_symmetry_space_group_name_H-M   'P 1'
_cell_length_a   5.37239616
_cell_length_b   3.12363400
_cell_length_c   6.70450753
_cell_angle_alpha   90.00000000
_cell_angle_beta   100.90285904
_cell_angle_gamma   90.00000000
_symmetry_Int_Tables_number   1
_chemical_formula_structural   TmSc(B3W)2
_chemical_formula_sum   'Tm1 Sc1 B6 W2'
_cell_volume   110.48011257
_cell_formula_units_Z   1
loop_
 _symmetry_equiv_pos_site_id
 _symmetry_equiv_pos_as_xyz
  1  'x, y, z'
loop_
 _atom_site_type_symbol
 _atom_site_label
 _atom_site_symmetry_multiplicity
 _atom_site_fract_x
 _atom_site_fract_y
 _atom_site_fract_z
 _atom_site_occupancy
  Tm  Tm0  1  0.824999  0.749999  0.796914  1
  Sc  Sc1  1  0.189149  0.250000  0.217838  1
  B  B2  1  0.572932  0.250000  0.023597  1
  B  B3  1  0.085481  0.749999  0.486631  1
  B  B4  1  0.413858  0.749999  0.490117  1
  B  B5  1  0.589343  0.250000  0.504536  1
  B  B6  1  0.919260  0.250000  0.505326  1
  B  B7  1  0.402917  0.749999  0.979282  1
  W  W8  1  0.693325  0.749999  0.275167  1
  W  W9  1  0.308735  0.250000  0.720591  1
