# generated using pymatgen
data_DyY(TmBi)3
_symmetry_space_group_name_H-M   'P 1'
_cell_length_a   8.21867200
_cell_length_b   9.43729600
_cell_length_c   12.01875000
_cell_angle_alpha   90.00000000
_cell_angle_beta   90.00000000
_cell_angle_gamma   90.00000000
_symmetry_Int_Tables_number   1
_chemical_formula_structural   DyY(TmBi)3
_chemical_formula_sum   'Dy4 Y4 Tm12 Bi12'
_cell_volume   932.19877295
_cell_formula_units_Z   4
loop_
 _symmetry_equiv_pos_site_id
 _symmetry_equiv_pos_as_xyz
  1  'x, y, z'
loop_
 _atom_site_type_symbol
 _atom_site_label
 _atom_site_symmetry_multiplicity
 _atom_site_fract_x
 _atom_site_fract_y
 _atom_site_fract_z
 _atom_site_occupancy
  Dy  Dy0  1  0.186550  0.750000  0.718533  1
  Dy  Dy1  1  0.686550  0.750000  0.781467  1
  Dy  Dy2  1  0.813450  0.250000  0.281467  1
  Dy  Dy3  1  0.313450  0.250000  0.218533  1
  Y  Y4  1  0.353759  0.750000  0.216025  1
  Y  Y5  1  0.853759  0.750000  0.283975  1
  Y  Y6  1  0.646241  0.250000  0.783975  1
  Y  Y7  1  0.146241  0.250000  0.716025  1
  Tm  Tm8  1  0.024964  0.750000  0.988817  1
  Tm  Tm9  1  0.524964  0.750000  0.511183  1
  Tm  Tm10  1  0.975036  0.250000  0.011183  1
  Tm  Tm11  1  0.475036  0.250000  0.488817  1
  Tm  Tm12  1  0.306884  0.434384  0.940584  1
  Tm  Tm13  1  0.806884  0.065616  0.559416  1
  Tm  Tm14  1  0.693116  0.934384  0.059416  1
  Tm  Tm15  1  0.193116  0.565616  0.440584  1
  Tm  Tm16  1  0.693116  0.565616  0.059416  1
  Tm  Tm17  1  0.193116  0.934384  0.440584  1
  Tm  Tm18  1  0.306884  0.065616  0.940584  1
  Tm  Tm19  1  0.806884  0.434384  0.559416  1
  Bi  Bi20  1  0.433823  0.003780  0.672640  1
  Bi  Bi21  1  0.933823  0.496220  0.827360  1
  Bi  Bi22  1  0.566177  0.503780  0.327360  1
  Bi  Bi23  1  0.066177  0.996220  0.172640  1
  Bi  Bi24  1  0.566177  0.996220  0.327360  1
  Bi  Bi25  1  0.066177  0.503780  0.172640  1
  Bi  Bi26  1  0.433823  0.496220  0.672640  1
  Bi  Bi27  1  0.933823  0.003780  0.827360  1
  Bi  Bi28  1  0.406806  0.750000  0.957635  1
  Bi  Bi29  1  0.906806  0.750000  0.542365  1
  Bi  Bi30  1  0.593194  0.250000  0.042365  1
  Bi  Bi31  1  0.093194  0.250000  0.457635  1
