# generated using pymatgen
data_Tb2Ga2Co3Ni3B2
_symmetry_space_group_name_H-M   'P 1'
_cell_length_a   5.19594021
_cell_length_b   5.17162710
_cell_length_c   6.71226700
_cell_angle_alpha   89.99695606
_cell_angle_beta   90.00371385
_cell_angle_gamma   120.23436586
_symmetry_Int_Tables_number   1
_chemical_formula_structural   Tb2Ga2Co3Ni3B2
_chemical_formula_sum   'Tb2 Ga2 Co3 Ni3 B2'
_cell_volume   155.83345833
_cell_formula_units_Z   1
loop_
 _symmetry_equiv_pos_site_id
 _symmetry_equiv_pos_as_xyz
  1  'x, y, z'
loop_
 _atom_site_type_symbol
 _atom_site_label
 _atom_site_symmetry_multiplicity
 _atom_site_fract_x
 _atom_site_fract_y
 _atom_site_fract_z
 _atom_site_occupancy
  Tb  Tb0  1  0.999979  0.000005  0.993580  1
  Tb  Tb1  1  0.999995  0.000007  0.499340  1
  Ga  Ga2  1  0.332572  0.663041  0.999950  1
  Ga  Ga3  1  0.667387  0.336963  0.999953  1
  Co  Co4  1  0.499969  0.500004  0.297475  1
  Co  Co5  1  0.500001  0.500000  0.703490  1
  Co  Co6  1  0.999992  0.499992  0.703484  1
  Ni  Ni7  1  0.499977  0.999998  0.294835  1
  Ni  Ni8  1  0.999968  0.500005  0.296818  1
  Ni  Ni9  1  0.500001  0.999994  0.706162  1
  B  B10  1  0.333183  0.659460  0.502458  1
  B  B11  1  0.666773  0.340530  0.502455  1
