# generated using pymatgen
data_CoNiH8
_symmetry_space_group_name_H-M   'P 1'
_cell_length_a   2.51334026
_cell_length_b   4.32284500
_cell_length_c   8.98159938
_cell_angle_alpha   99.26141759
_cell_angle_beta   100.24358556
_cell_angle_gamma   90.00042079
_symmetry_Int_Tables_number   1
_chemical_formula_structural   CoNiH8
_chemical_formula_sum   'Co1 Ni1 H8'
_cell_volume   94.73472280
_cell_formula_units_Z   1
loop_
 _symmetry_equiv_pos_site_id
 _symmetry_equiv_pos_as_xyz
  1  'x, y, z'
loop_
 _atom_site_type_symbol
 _atom_site_label
 _atom_site_symmetry_multiplicity
 _atom_site_fract_x
 _atom_site_fract_y
 _atom_site_fract_z
 _atom_site_occupancy
  Co  Co0  1  0.409518  0.055900  0.921607  1
  Ni  Ni1  1  0.909359  0.554965  0.922345  1
  H  H2  1  0.844484  0.179542  0.819502  1
  H  H3  1  0.473129  0.416115  0.021108  1
  H  H4  1  0.405833  0.424445  0.532369  1
  H  H5  1  0.355142  0.750774  0.336149  1
  H  H6  1  0.309431  0.300036  0.464999  1
  H  H7  1  0.438974  0.850263  0.283061  1
  H  H8  1  0.973270  0.933044  0.023688  1
  H  H9  1  0.347527  0.694181  0.823036  1
