# generated using pymatgen
data_DyLu5ReBi2
_symmetry_space_group_name_H-M   'P 1'
_cell_length_a   8.12459836
_cell_length_b   8.12459970
_cell_length_c   4.30620500
_cell_angle_alpha   90.00000000
_cell_angle_beta   90.00000000
_cell_angle_gamma   119.83053309
_symmetry_Int_Tables_number   1
_chemical_formula_structural   DyLu5ReBi2
_chemical_formula_sum   'Dy1 Lu5 Re1 Bi2'
_cell_volume   246.58593610
_cell_formula_units_Z   1
loop_
 _symmetry_equiv_pos_site_id
 _symmetry_equiv_pos_as_xyz
  1  'x, y, z'
loop_
 _atom_site_type_symbol
 _atom_site_label
 _atom_site_symmetry_multiplicity
 _atom_site_fract_x
 _atom_site_fract_y
 _atom_site_fract_z
 _atom_site_occupancy
  Dy  Dy0  1  0.386040  0.386040  0.000000  1
  Lu  Lu1  1  0.229671  0.999148  0.500000  1
  Lu  Lu2  1  0.999148  0.229671  0.500000  1
  Lu  Lu3  1  0.767960  0.767960  0.500000  1
  Lu  Lu4  1  0.619315  0.000478  0.000000  1
  Lu  Lu5  1  0.000478  0.619315  0.000000  1
  Re  Re6  1  0.996673  0.996673  0.000000  1
  Bi  Bi7  1  0.332681  0.668031  0.500000  1
  Bi  Bi8  1  0.668031  0.332681  0.500000  1
