# generated using pymatgen
data_Rb4Mg5MnTe8
_symmetry_space_group_name_H-M   'P 1'
_cell_length_a   10.64408616
_cell_length_b   10.62173080
_cell_length_c   10.64408623
_cell_angle_alpha   143.62765764
_cell_angle_beta   105.14162177
_cell_angle_gamma   86.28284871
_symmetry_Int_Tables_number   1
_chemical_formula_structural   Rb4Mg5MnTe8
_chemical_formula_sum   'Rb4 Mg5 Mn1 Te8'
_cell_volume   666.26043550
_cell_formula_units_Z   1
loop_
 _symmetry_equiv_pos_site_id
 _symmetry_equiv_pos_as_xyz
  1  'x, y, z'
loop_
 _atom_site_type_symbol
 _atom_site_label
 _atom_site_symmetry_multiplicity
 _atom_site_fract_x
 _atom_site_fract_y
 _atom_site_fract_z
 _atom_site_occupancy
  Rb  Rb0  1  0.123425  0.263793  0.387762  1
  Rb  Rb1  1  0.877326  0.736403  0.612082  1
  Rb  Rb2  1  0.623969  0.236207  0.859631  1
  Rb  Rb3  1  0.375678  0.763597  0.140923  1
  Mg  Mg4  1  0.248870  0.250000  0.998870  1
  Mg  Mg5  1  0.750767  0.750000  0.000767  1
  Mg  Mg6  1  0.517574  0.250000  0.267574  1
  Mg  Mg7  1  0.482426  0.750000  0.732426  1
  Mg  Mg8  1  0.983852  0.250000  0.733852  1
  Mn  Mn9  1  0.013482  0.750000  0.263482  1
  Te  Te10  1  0.489292  0.584684  0.357753  1
  Te  Te11  1  0.511142  0.415073  0.642223  1
  Te  Te12  1  0.222763  0.120814  0.633326  1
  Te  Te13  1  0.273068  0.915316  0.904608  1
  Te  Te14  1  0.776116  0.864199  0.354785  1
  Te  Te15  1  0.727150  0.084927  0.096070  1
  Te  Te16  1  0.012512  0.379186  0.101949  1
  Te  Te17  1  0.990586  0.635801  0.911918  1
