# generated using pymatgen
data_Gd2Sn2IrPt
_symmetry_space_group_name_H-M   'P 1'
_cell_length_a   7.56173100
_cell_length_b   7.56173113
_cell_length_c   7.75336000
_cell_angle_alpha   90.00000000
_cell_angle_beta   90.00000000
_cell_angle_gamma   120.00000382
_symmetry_Int_Tables_number   1
_chemical_formula_structural   Gd2Sn2IrPt
_chemical_formula_sum   'Gd6 Sn6 Ir3 Pt3'
_cell_volume   383.93969818
_cell_formula_units_Z   3
loop_
 _symmetry_equiv_pos_site_id
 _symmetry_equiv_pos_as_xyz
  1  'x, y, z'
loop_
 _atom_site_type_symbol
 _atom_site_label
 _atom_site_symmetry_multiplicity
 _atom_site_fract_x
 _atom_site_fract_y
 _atom_site_fract_z
 _atom_site_occupancy
  Gd  Gd0  1  0.405334  0.004251  0.247549  1
  Gd  Gd1  1  0.598917  0.594666  0.247549  1
  Gd  Gd2  1  0.995749  0.401083  0.247549  1
  Gd  Gd3  1  0.405029  0.003613  0.752477  1
  Gd  Gd4  1  0.598583  0.594971  0.752477  1
  Gd  Gd5  1  0.996387  0.401417  0.752477  1
  Sn  Sn6  1  0.260614  0.258481  0.999957  1
  Sn  Sn7  1  0.997867  0.739386  0.999957  1
  Sn  Sn8  1  0.002239  0.742498  0.499993  1
  Sn  Sn9  1  0.740259  0.997761  0.499993  1
  Sn  Sn10  1  0.257502  0.259741  0.499993  1
  Sn  Sn11  1  0.741519  0.002133  0.999957  1
  Ir  Ir12  1  0.000000  0.000000  0.750082  1
  Ir  Ir13  1  0.000000  0.000000  0.249840  1
  Ir  Ir14  1  0.666667  0.333333  0.999614  1
  Pt  Pt15  1  0.333333  0.666667  0.499500  1
  Pt  Pt16  1  0.333333  0.666667  0.000485  1
  Pt  Pt17  1  0.666667  0.333333  0.500550  1
