# generated using pymatgen
data_Tm12InFe2ReAu
_symmetry_space_group_name_H-M   'P 1'
_cell_length_a   8.20065077
_cell_length_b   8.20064985
_cell_length_c   8.20065042
_cell_angle_alpha   107.37751953
_cell_angle_beta   110.81932808
_cell_angle_gamma   110.23744339
_symmetry_Int_Tables_number   1
_chemical_formula_structural   Tm12InFe2ReAu
_chemical_formula_sum   'Tm12 In1 Fe2 Re1 Au1'
_cell_volume   424.10962997
_cell_formula_units_Z   1
loop_
 _symmetry_equiv_pos_site_id
 _symmetry_equiv_pos_as_xyz
  1  'x, y, z'
loop_
 _atom_site_type_symbol
 _atom_site_label
 _atom_site_symmetry_multiplicity
 _atom_site_fract_x
 _atom_site_fract_y
 _atom_site_fract_z
 _atom_site_occupancy
  Tm  Tm0  1  0.191628  0.420944  0.229316  1
  Tm  Tm1  1  0.808372  0.579056  0.770684  1
  Tm  Tm2  1  0.191628  0.962315  0.770684  1
  Tm  Tm3  1  0.938590  0.193253  0.745337  1
  Tm  Tm4  1  0.808372  0.037685  0.229316  1
  Tm  Tm5  1  0.061410  0.806747  0.254663  1
  Tm  Tm6  1  0.447916  0.193253  0.254663  1
  Tm  Tm7  1  0.552084  0.806747  0.745337  1
  Tm  Tm8  1  0.308159  0.309429  0.617587  1
  Tm  Tm9  1  0.691841  0.690571  0.382413  1
  Tm  Tm10  1  0.691841  0.309429  0.001270  1
  Tm  Tm11  1  0.308159  0.690571  0.998730  1
  In  In12  1  0.000000  0.500000  0.500000  1
  Fe  Fe13  1  0.383304  0.383304  0.000000  1
  Fe  Fe14  1  0.616696  0.616696  0.000000  1
  Re  Re15  1  0.000000  0.000000  0.000000  1
  Au  Au16  1  0.500000  0.000000  0.500000  1
