# generated using pymatgen
data_Nb2Si2RuPt
_symmetry_space_group_name_H-M   'P 1'
_cell_length_a   3.80768000
_cell_length_b   6.48641200
_cell_length_c   7.37420200
_cell_angle_alpha   90.00000000
_cell_angle_beta   90.00000000
_cell_angle_gamma   90.00000000
_symmetry_Int_Tables_number   1
_chemical_formula_structural   Nb2Si2RuPt
_chemical_formula_sum   'Nb4 Si4 Ru2 Pt2'
_cell_volume   182.12937753
_cell_formula_units_Z   2
loop_
 _symmetry_equiv_pos_site_id
 _symmetry_equiv_pos_as_xyz
  1  'x, y, z'
loop_
 _atom_site_type_symbol
 _atom_site_label
 _atom_site_symmetry_multiplicity
 _atom_site_fract_x
 _atom_site_fract_y
 _atom_site_fract_z
 _atom_site_occupancy
  Nb  Nb0  1  0.750000  0.477112  0.328050  1
  Nb  Nb1  1  0.250000  0.026715  0.828114  1
  Nb  Nb2  1  0.750000  0.977112  0.171950  1
  Nb  Nb3  1  0.250000  0.526715  0.671886  1
  Si  Si4  1  0.250000  0.270960  0.133730  1
  Si  Si5  1  0.250000  0.770960  0.366270  1
  Si  Si6  1  0.750000  0.733728  0.881386  1
  Si  Si7  1  0.750000  0.233728  0.618614  1
  Ru  Ru8  1  0.250000  0.641468  0.058976  1
  Ru  Ru9  1  0.250000  0.141468  0.441024  1
  Pt  Pt10  1  0.750000  0.850017  0.565342  1
  Pt  Pt11  1  0.750000  0.350017  0.934658  1
