# generated using pymatgen
data_HoU(IN)2
_symmetry_space_group_name_H-M   'P 1'
_cell_length_a   3.91796300
_cell_length_b   3.91796300
_cell_length_c   9.90197900
_cell_angle_alpha   90.00000000
_cell_angle_beta   90.00000000
_cell_angle_gamma   90.00000000
_symmetry_Int_Tables_number   1
_chemical_formula_structural   HoU(IN)2
_chemical_formula_sum   'Ho1 U1 I2 N2'
_cell_volume   151.99967580
_cell_formula_units_Z   1
loop_
 _symmetry_equiv_pos_site_id
 _symmetry_equiv_pos_as_xyz
  1  'x, y, z'
loop_
 _atom_site_type_symbol
 _atom_site_label
 _atom_site_symmetry_multiplicity
 _atom_site_fract_x
 _atom_site_fract_y
 _atom_site_fract_z
 _atom_site_occupancy
  Ho  Ho0  1  0.000000  0.500000  0.883813  1
  U  U1  1  0.500000  0.000000  0.102861  1
  I  I2  1  0.000000  0.500000  0.307772  1
  I  I3  1  0.500000  0.000000  0.691279  1
  N  N4  1  0.000000  0.000000  0.007138  1
  N  N5  1  0.500000  0.500000  0.007138  1
