# generated using pymatgen
data_CsNi9Sb2As3
_symmetry_space_group_name_H-M   'P 1'
_cell_length_a   6.93209306
_cell_length_b   6.91209683
_cell_length_c   11.82834900
_cell_angle_alpha   90.00000000
_cell_angle_beta   90.00000000
_cell_angle_gamma   120.08016908
_symmetry_Int_Tables_number   1
_chemical_formula_structural   CsNi9Sb2As3
_chemical_formula_sum   'Cs2 Ni18 Sb4 As6'
_cell_volume   490.43059267
_cell_formula_units_Z   2
loop_
 _symmetry_equiv_pos_site_id
 _symmetry_equiv_pos_as_xyz
  1  'x, y, z'
loop_
 _atom_site_type_symbol
 _atom_site_label
 _atom_site_symmetry_multiplicity
 _atom_site_fract_x
 _atom_site_fract_y
 _atom_site_fract_z
 _atom_site_occupancy
  Cs  Cs0  1  0.000000  0.000000  0.000000  1
  Cs  Cs1  1  0.000000  0.000000  0.500000  1
  Ni  Ni2  1  0.539945  0.460308  0.116824  1
  Ni  Ni3  1  0.079641  0.539670  0.616869  1
  Ni  Ni4  1  0.460274  0.920526  0.616885  1
  Ni  Ni5  1  0.539726  0.079474  0.116885  1
  Ni  Ni6  1  0.920359  0.460330  0.116869  1
  Ni  Ni7  1  0.079641  0.539670  0.883131  1
  Ni  Ni8  1  0.460274  0.920526  0.883115  1
  Ni  Ni9  1  0.460055  0.539692  0.616824  1
  Ni  Ni10  1  0.460055  0.539692  0.883176  1
  Ni  Ni11  1  0.539945  0.460308  0.383176  1
  Ni  Ni12  1  0.920359  0.460330  0.383131  1
  Ni  Ni13  1  0.539726  0.079474  0.383115  1
  Ni  Ni14  1  0.207122  0.792359  0.250000  1
  Ni  Ni15  1  0.414759  0.207596  0.750000  1
  Ni  Ni16  1  0.792853  0.585712  0.750000  1
  Ni  Ni17  1  0.207147  0.414288  0.250000  1
  Ni  Ni18  1  0.585241  0.792404  0.250000  1
  Ni  Ni19  1  0.792878  0.207641  0.750000  1
  Sb  Sb20  1  0.332943  0.665926  0.060447  1
  Sb  Sb21  1  0.667057  0.334074  0.560447  1
  Sb  Sb22  1  0.667057  0.334074  0.939553  1
  Sb  Sb23  1  0.332943  0.665926  0.439553  1
  As  As24  1  0.828566  0.171575  0.250000  1
  As  As25  1  0.656958  0.828398  0.750000  1
  As  As26  1  0.171376  0.342746  0.750000  1
  As  As27  1  0.828624  0.657254  0.250000  1
  As  As28  1  0.343042  0.171602  0.250000  1
  As  As29  1  0.171434  0.828425  0.750000  1
