# generated using pymatgen
data_TaW3F20
_symmetry_space_group_name_H-M   'P 1'
_cell_length_a   9.00824171
_cell_length_b   9.00824128
_cell_length_c   5.32564500
_cell_angle_alpha   86.65280497
_cell_angle_beta   86.65281447
_cell_angle_gamma   112.76229297
_symmetry_Int_Tables_number   1
_chemical_formula_structural   TaW3F20
_chemical_formula_sum   'Ta1 W3 F20'
_cell_volume   396.28754253
_cell_formula_units_Z   1
loop_
 _symmetry_equiv_pos_site_id
 _symmetry_equiv_pos_as_xyz
  1  'x, y, z'
loop_
 _atom_site_type_symbol
 _atom_site_label
 _atom_site_symmetry_multiplicity
 _atom_site_fract_x
 _atom_site_fract_y
 _atom_site_fract_z
 _atom_site_occupancy
  Ta  Ta0  1  0.202086  0.797914  0.500000  1
  W  W1  1  0.800843  0.199157  0.500000  1
  W  W2  1  0.749322  0.746764  0.255973  1
  W  W3  1  0.253236  0.250678  0.744027  1
  F  F4  1  0.273976  0.455194  0.849016  1
  F  F5  1  0.332178  0.331986  0.409187  1
  F  F6  1  0.456676  0.270591  0.849568  1
  F  F7  1  0.025068  0.220332  0.623763  1
  F  F8  1  0.668014  0.667822  0.590813  1
  F  F9  1  0.544806  0.726024  0.150984  1
  F  F10  1  0.864698  0.865808  0.956104  1
  F  F11  1  0.977529  0.781612  0.378658  1
  F  F12  1  0.168723  0.599953  0.377650  1
  F  F13  1  0.919517  0.287748  0.188075  1
  F  F14  1  0.598482  0.170516  0.379181  1
  F  F15  1  0.829484  0.401518  0.620819  1
  F  F16  1  0.779668  0.974932  0.376237  1
  F  F17  1  0.712252  0.080483  0.811925  1
  F  F18  1  0.218388  0.022471  0.621342  1
  F  F19  1  0.400047  0.831277  0.622350  1
  F  F20  1  0.134192  0.135302  0.043896  1
  F  F21  1  0.729409  0.543324  0.150432  1
  F  F22  1  0.283799  0.922395  0.189049  1
  F  F23  1  0.077605  0.716201  0.810951  1
