# generated using pymatgen
data_Y3NbB4(Ru5W)2
_symmetry_space_group_name_H-M   'P 1'
_cell_length_a   9.59746092
_cell_length_b   9.59746166
_cell_length_c   3.08895700
_cell_angle_alpha   90.00000000
_cell_angle_beta   90.00000000
_cell_angle_gamma   90.24260623
_symmetry_Int_Tables_number   1
_chemical_formula_structural   Y3NbB4(Ru5W)2
_chemical_formula_sum   'Y3 Nb1 B4 Ru10 W2'
_cell_volume   284.52518064
_cell_formula_units_Z   1
loop_
 _symmetry_equiv_pos_site_id
 _symmetry_equiv_pos_as_xyz
  1  'x, y, z'
loop_
 _atom_site_type_symbol
 _atom_site_label
 _atom_site_symmetry_multiplicity
 _atom_site_fract_x
 _atom_site_fract_y
 _atom_site_fract_z
 _atom_site_occupancy
  Y  Y0  1  0.823826  0.675481  0.000000  1
  Y  Y1  1  0.175481  0.323826  0.000000  1
  Y  Y2  1  0.325268  0.825268  0.000000  1
  Nb  Nb3  1  0.676120  0.176120  0.000000  1
  B  B4  1  0.622301  0.881620  0.000000  1
  B  B5  1  0.381620  0.122301  0.000000  1
  B  B6  1  0.118181  0.618181  0.000000  1
  B  B7  1  0.877062  0.377062  0.000000  1
  Ru  Ru8  1  0.569959  0.719347  0.500000  1
  Ru  Ru9  1  0.441176  0.282252  0.500000  1
  Ru  Ru10  1  0.067894  0.783120  0.500000  1
  Ru  Ru11  1  0.917851  0.211802  0.500000  1
  Ru  Ru12  1  0.283120  0.567894  0.500000  1
  Ru  Ru13  1  0.711802  0.417851  0.500000  1
  Ru  Ru14  1  0.219347  0.069959  0.500000  1
  Ru  Ru15  1  0.782252  0.941176  0.500000  1
  Ru  Ru16  1  0.509535  0.009535  0.500000  1
  Ru  Ru17  1  0.996332  0.496332  0.500000  1
  W  W18  1  0.498133  0.502739  0.000000  1
  W  W19  1  0.002739  0.998133  0.000000  1
