# generated using pymatgen
data_Nd4Zn8Cd3Ag
_symmetry_space_group_name_H-M   'P 1'
_cell_length_a   4.53175600
_cell_length_b   7.38848389
_cell_length_c   10.19614831
_cell_angle_alpha   89.85674495
_cell_angle_beta   90.00000000
_cell_angle_gamma   90.00000000
_symmetry_Int_Tables_number   1
_chemical_formula_structural   Nd4Zn8Cd3Ag
_chemical_formula_sum   'Nd4 Zn8 Cd3 Ag1'
_cell_volume   341.39459068
_cell_formula_units_Z   1
loop_
 _symmetry_equiv_pos_site_id
 _symmetry_equiv_pos_as_xyz
  1  'x, y, z'
loop_
 _atom_site_type_symbol
 _atom_site_label
 _atom_site_symmetry_multiplicity
 _atom_site_fract_x
 _atom_site_fract_y
 _atom_site_fract_z
 _atom_site_occupancy
  Nd  Nd0  1  0.250000  0.307865  0.673696  1
  Nd  Nd1  1  0.250000  0.813027  0.823372  1
  Nd  Nd2  1  0.750000  0.689770  0.328981  1
  Nd  Nd3  1  0.750000  0.191027  0.172923  1
  Zn  Zn4  1  0.250000  0.902239  0.145070  1
  Zn  Zn5  1  0.250000  0.401217  0.356183  1
  Zn  Zn6  1  0.750000  0.099603  0.851793  1
  Zn  Zn7  1  0.750000  0.603762  0.645384  1
  Zn  Zn8  1  0.250000  0.185077  0.963761  1
  Zn  Zn9  1  0.250000  0.681588  0.535575  1
  Zn  Zn10  1  0.750000  0.813311  0.036473  1
  Zn  Zn11  1  0.750000  0.309536  0.465115  1
  Cd  Cd12  1  0.250000  0.526444  0.095865  1
  Cd  Cd13  1  0.250000  0.023552  0.406645  1
  Cd  Cd14  1  0.750000  0.475819  0.903563  1
  Ag  Ag15  1  0.750000  0.976162  0.595601  1
