# generated using pymatgen
data_CaPr4Si3
_symmetry_space_group_name_H-M   'P 1'
_cell_length_a   7.79014841
_cell_length_b   7.79014842
_cell_length_c   8.98150390
_cell_angle_alpha   115.70116244
_cell_angle_beta   115.70115878
_cell_angle_gamma   90.00000546
_symmetry_Int_Tables_number   1
_chemical_formula_structural   CaPr4Si3
_chemical_formula_sum   'Ca2 Pr8 Si6'
_cell_volume   430.50666990
_cell_formula_units_Z   2
loop_
 _symmetry_equiv_pos_site_id
 _symmetry_equiv_pos_as_xyz
  1  'x, y, z'
loop_
 _atom_site_type_symbol
 _atom_site_label
 _atom_site_symmetry_multiplicity
 _atom_site_fract_x
 _atom_site_fract_y
 _atom_site_fract_z
 _atom_site_occupancy
  Ca  Ca0  1  0.500000  0.500000  0.000000  1
  Ca  Ca1  1  0.000000  0.000000  0.000000  1
  Pr  Pr2  1  0.967689  0.824094  0.291783  1
  Pr  Pr3  1  0.324094  0.467689  0.291783  1
  Pr  Pr4  1  0.824094  0.324094  0.291783  1
  Pr  Pr5  1  0.467689  0.967689  0.291783  1
  Pr  Pr6  1  0.032311  0.175906  0.708217  1
  Pr  Pr7  1  0.675906  0.532311  0.708217  1
  Pr  Pr8  1  0.175906  0.675906  0.708217  1
  Pr  Pr9  1  0.532311  0.032311  0.708217  1
  Si  Si10  1  0.750000  0.750000  0.500000  1
  Si  Si11  1  0.250000  0.250000  0.500000  1
  Si  Si12  1  0.613402  0.886598  0.000000  1
  Si  Si13  1  0.386598  0.113402  0.000000  1
  Si  Si14  1  0.886598  0.386598  0.000000  1
  Si  Si15  1  0.113402  0.613402  0.000000  1
