# generated using pymatgen
data_HoLu19(CoBi2)4
_symmetry_space_group_name_H-M   'P 1'
_cell_length_a   7.77357754
_cell_length_b   8.81086500
_cell_length_c   12.17263211
_cell_angle_alpha   90.00000000
_cell_angle_beta   90.01372876
_cell_angle_gamma   90.00000000
_symmetry_Int_Tables_number   1
_chemical_formula_structural   HoLu19(CoBi2)4
_chemical_formula_sum   'Ho1 Lu19 Co4 Bi8'
_cell_volume   833.72719151
_cell_formula_units_Z   1
loop_
 _symmetry_equiv_pos_site_id
 _symmetry_equiv_pos_as_xyz
  1  'x, y, z'
loop_
 _atom_site_type_symbol
 _atom_site_label
 _atom_site_symmetry_multiplicity
 _atom_site_fract_x
 _atom_site_fract_y
 _atom_site_fract_z
 _atom_site_occupancy
  Ho  Ho0  1  0.881300  0.750000  0.811474  1
  Lu  Lu1  1  0.154438  0.750000  0.200010  1
  Lu  Lu2  1  0.654548  0.250000  0.300224  1
  Lu  Lu3  1  0.845698  0.250000  0.800223  1
  Lu  Lu4  1  0.345971  0.750000  0.699997  1
  Lu  Lu5  1  0.441674  0.750000  0.997391  1
  Lu  Lu6  1  0.941828  0.250000  0.502363  1
  Lu  Lu7  1  0.558014  0.250000  0.002793  1
  Lu  Lu8  1  0.058634  0.750000  0.497461  1
  Lu  Lu9  1  0.616382  0.750000  0.313881  1
  Lu  Lu10  1  0.116273  0.250000  0.186162  1
  Lu  Lu11  1  0.383835  0.250000  0.685779  1
  Lu  Lu12  1  0.828223  0.962702  0.064051  1
  Lu  Lu13  1  0.328004  0.038214  0.436544  1
  Lu  Lu14  1  0.172569  0.460696  0.937229  1
  Lu  Lu15  1  0.672008  0.537781  0.563128  1
  Lu  Lu16  1  0.172569  0.039304  0.937229  1
  Lu  Lu17  1  0.672008  0.962219  0.563128  1
  Lu  Lu18  1  0.828223  0.537298  0.064051  1
  Lu  Lu19  1  0.328004  0.461786  0.436544  1
  Co  Co20  1  0.432840  0.750000  0.492209  1
  Co  Co21  1  0.932569  0.250000  0.008106  1
  Co  Co22  1  0.567199  0.250000  0.507638  1
  Co  Co23  1  0.067525  0.750000  0.992591  1
  Bi  Bi24  1  0.932266  0.990894  0.327744  1
  Bi  Bi25  1  0.432362  0.008926  0.172459  1
  Bi  Bi26  1  0.068875  0.490164  0.672003  1
  Bi  Bi27  1  0.566328  0.508078  0.827690  1
  Bi  Bi28  1  0.068875  0.009836  0.672003  1
  Bi  Bi29  1  0.566328  0.991922  0.827690  1
  Bi  Bi30  1  0.932266  0.509106  0.327744  1
  Bi  Bi31  1  0.432362  0.491074  0.172459  1
