# generated using pymatgen
data_Tb12ZnCo4Bi
_symmetry_space_group_name_H-M   'P 1'
_cell_length_a   8.43079426
_cell_length_b   8.43079514
_cell_length_c   8.43079533
_cell_angle_alpha   111.61461172
_cell_angle_beta   109.30426822
_cell_angle_gamma   107.52090065
_symmetry_Int_Tables_number   1
_chemical_formula_structural   Tb12ZnCo4Bi
_chemical_formula_sum   'Tb12 Zn1 Co4 Bi1'
_cell_volume   460.70671627
_cell_formula_units_Z   1
loop_
 _symmetry_equiv_pos_site_id
 _symmetry_equiv_pos_as_xyz
  1  'x, y, z'
loop_
 _atom_site_type_symbol
 _atom_site_label
 _atom_site_symmetry_multiplicity
 _atom_site_fract_x
 _atom_site_fract_y
 _atom_site_fract_z
 _atom_site_occupancy
  Tb  Tb0  1  0.817660  0.711801  0.529461  1
  Tb  Tb1  1  0.182340  0.288199  0.470539  1
  Tb  Tb2  1  0.182340  0.711801  0.894142  1
  Tb  Tb3  1  0.817660  0.288199  0.105858  1
  Tb  Tb4  1  0.685476  0.377131  0.691655  1
  Tb  Tb5  1  0.314524  0.622869  0.308345  1
  Tb  Tb6  1  0.685476  0.993820  0.308345  1
  Tb  Tb7  1  0.314524  0.006180  0.691655  1
  Tb  Tb8  1  0.577363  0.783615  0.793749  1
  Tb  Tb9  1  0.422637  0.216385  0.206251  1
  Tb  Tb10  1  0.989866  0.783615  0.206251  1
  Tb  Tb11  1  0.010134  0.216385  0.793749  1
  Zn  Zn12  1  0.000000  0.000000  0.000000  1
  Co  Co13  1  0.623423  0.000000  0.623423  1
  Co  Co14  1  0.376577  0.000000  0.376577  1
  Co  Co15  1  0.111559  0.611559  0.500000  1
  Co  Co16  1  0.888441  0.388441  0.500000  1
  Bi  Bi17  1  0.500000  0.500000  0.000000  1
