# generated using pymatgen
data_Sm4Mg4B24OsRu3
_symmetry_space_group_name_H-M   'P 1'
_cell_length_a   3.61186100
_cell_length_b   8.95505162
_cell_length_c   11.37605620
_cell_angle_alpha   90.01043485
_cell_angle_beta   90.00000000
_cell_angle_gamma   90.00000000
_symmetry_Int_Tables_number   1
_chemical_formula_structural   Sm4Mg4B24OsRu3
_chemical_formula_sum   'Sm4 Mg4 B24 Os1 Ru3'
_cell_volume   367.95172530
_cell_formula_units_Z   1
loop_
 _symmetry_equiv_pos_site_id
 _symmetry_equiv_pos_as_xyz
  1  'x, y, z'
loop_
 _atom_site_type_symbol
 _atom_site_label
 _atom_site_symmetry_multiplicity
 _atom_site_fract_x
 _atom_site_fract_y
 _atom_site_fract_z
 _atom_site_occupancy
  Sm  Sm0  1  0.000000  0.322450  0.414272  1
  Sm  Sm1  1  0.000000  0.677657  0.585703  1
  Sm  Sm2  1  0.000000  0.822338  0.085660  1
  Sm  Sm3  1  0.000000  0.177413  0.914262  1
  Mg  Mg4  1  0.000000  0.943553  0.370361  1
  Mg  Mg5  1  0.000000  0.057266  0.628837  1
  Mg  Mg6  1  0.000000  0.443492  0.129679  1
  Mg  Mg7  1  0.000000  0.555303  0.870744  1
  B  B8  1  0.500000  0.556763  0.430585  1
  B  B9  1  0.500000  0.443307  0.569447  1
  B  B10  1  0.500000  0.056809  0.069521  1
  B  B11  1  0.500000  0.943351  0.930741  1
  B  B12  1  0.500000  0.755623  0.416538  1
  B  B13  1  0.500000  0.244479  0.583469  1
  B  B14  1  0.500000  0.255622  0.083464  1
  B  B15  1  0.500000  0.744433  0.916713  1
  B  B16  1  0.500000  0.793207  0.263716  1
  B  B17  1  0.500000  0.206988  0.736170  1
  B  B18  1  0.500000  0.293220  0.236337  1
  B  B19  1  0.500000  0.706654  0.763697  1
  B  B20  1  0.500000  0.627008  0.182779  1
  B  B21  1  0.500000  0.373001  0.817239  1
  B  B22  1  0.500000  0.127083  0.317289  1
  B  B23  1  0.500000  0.872931  0.682691  1
  B  B24  1  0.500000  0.982079  0.213848  1
  B  B25  1  0.500000  0.018165  0.786163  1
  B  B26  1  0.500000  0.482074  0.286303  1
  B  B27  1  0.500000  0.517806  0.713712  1
  B  B28  1  0.500000  0.591772  0.025088  1
  B  B29  1  0.500000  0.408033  0.975223  1
  B  B30  1  0.500000  0.091894  0.475009  1
  B  B31  1  0.500000  0.908104  0.524728  1
  Os  Os32  1  0.000000  0.858477  0.817249  1
  Ru  Ru33  1  0.000000  0.641608  0.317249  1
  Ru  Ru34  1  0.000000  0.358460  0.682790  1
  Ru  Ru35  1  0.000000  0.141580  0.182725  1
