# generated using pymatgen
data_Dy2Er14MgCo4Ag3
_symmetry_space_group_name_H-M   'P 1'
_cell_length_a   9.36829196
_cell_length_b   9.37666266
_cell_length_c   9.37536800
_cell_angle_alpha   60.00456731
_cell_angle_beta   59.97501114
_cell_angle_gamma   59.98077857
_symmetry_Int_Tables_number   1
_chemical_formula_structural   Dy2Er14MgCo4Ag3
_chemical_formula_sum   'Dy2 Er14 Mg1 Co4 Ag3'
_cell_volume   582.17268400
_cell_formula_units_Z   1
loop_
 _symmetry_equiv_pos_site_id
 _symmetry_equiv_pos_as_xyz
  1  'x, y, z'
loop_
 _atom_site_type_symbol
 _atom_site_label
 _atom_site_symmetry_multiplicity
 _atom_site_fract_x
 _atom_site_fract_y
 _atom_site_fract_z
 _atom_site_occupancy
  Dy  Dy0  1  0.597009  0.596030  0.596390  1
  Dy  Dy1  1  0.597009  0.596030  0.210569  1
  Er  Er2  1  0.596789  0.211407  0.595901  1
  Er  Er3  1  0.203242  0.598743  0.599007  1
  Er  Er4  1  0.060338  0.439034  0.438977  1
  Er  Er5  1  0.436082  0.063890  0.063279  1
  Er  Er6  1  0.436082  0.063890  0.436748  1
  Er  Er7  1  0.060338  0.439034  0.061652  1
  Er  Er8  1  0.435736  0.436531  0.063866  1
  Er  Er9  1  0.059774  0.061652  0.439288  1
  Er  Er10  1  0.183972  0.813394  0.813077  1
  Er  Er11  1  0.812541  0.186756  0.187057  1
  Er  Er12  1  0.812541  0.186756  0.813646  1
  Er  Er13  1  0.183972  0.813394  0.189558  1
  Er  Er14  1  0.812729  0.814019  0.186626  1
  Er  Er15  1  0.184395  0.189828  0.812889  1
  Mg  Mg16  1  0.535253  0.822039  0.821354  1
  Co  Co17  1  0.388800  0.391218  0.392891  1
  Co  Co18  1  0.388800  0.391218  0.827093  1
  Co  Co19  1  0.388138  0.827656  0.392104  1
  Co  Co20  1  0.827175  0.390045  0.391391  1
  Ag  Ag21  1  0.833007  0.832777  0.832067  1
  Ag  Ag22  1  0.833007  0.832777  0.502150  1
  Ag  Ag23  1  0.833278  0.501882  0.832421  1
