# generated using pymatgen
data_Li6Si2NiRu
_symmetry_space_group_name_H-M   'P 1'
_cell_length_a   6.42347352
_cell_length_b   6.46397697
_cell_length_c   6.48350800
_cell_angle_alpha   90.00000000
_cell_angle_beta   90.00000000
_cell_angle_gamma   89.43890677
_symmetry_Int_Tables_number   1
_chemical_formula_structural   Li6Si2NiRu
_chemical_formula_sum   'Li12 Si4 Ni2 Ru2'
_cell_volume   269.19002606
_cell_formula_units_Z   2
loop_
 _symmetry_equiv_pos_site_id
 _symmetry_equiv_pos_as_xyz
  1  'x, y, z'
loop_
 _atom_site_type_symbol
 _atom_site_label
 _atom_site_symmetry_multiplicity
 _atom_site_fract_x
 _atom_site_fract_y
 _atom_site_fract_z
 _atom_site_occupancy
  Li  Li0  1  0.131646  0.197815  0.457482  1
  Li  Li1  1  0.368354  0.802185  0.957482  1
  Li  Li2  1  0.875171  0.706559  0.044644  1
  Li  Li3  1  0.454534  0.127442  0.201983  1
  Li  Li4  1  0.624829  0.293441  0.544644  1
  Li  Li5  1  0.958861  0.369046  0.798288  1
  Li  Li6  1  0.045466  0.872558  0.701983  1
  Li  Li7  1  0.541139  0.630954  0.298288  1
  Li  Li8  1  0.202610  0.455704  0.127336  1
  Li  Li9  1  0.703035  0.042891  0.871686  1
  Li  Li10  1  0.297390  0.544296  0.627336  1
  Li  Li11  1  0.796965  0.957109  0.371686  1
  Si  Si12  1  0.076651  0.070961  0.070756  1
  Si  Si13  1  0.423349  0.929039  0.570756  1
  Si  Si14  1  0.929452  0.573980  0.425428  1
  Si  Si15  1  0.570548  0.426020  0.925428  1
  Ni  Ni16  1  0.321700  0.175136  0.821782  1
  Ni  Ni17  1  0.178300  0.824864  0.321782  1
  Ru  Ru18  1  0.680165  0.683944  0.680616  1
  Ru  Ru19  1  0.819835  0.316056  0.180616  1
