# generated using pymatgen
data_Ca4Os3RhO14
_symmetry_space_group_name_H-M   'P 1'
_cell_length_a   7.26871115
_cell_length_b   7.26870965
_cell_length_c   7.31940264
_cell_angle_alpha   120.71028573
_cell_angle_beta   118.18674121
_cell_angle_gamma   90.57870713
_symmetry_Int_Tables_number   1
_chemical_formula_structural   Ca4Os3RhO14
_chemical_formula_sum   'Ca4 Os3 Rh1 O14'
_cell_volume   276.46752713
_cell_formula_units_Z   1
loop_
 _symmetry_equiv_pos_site_id
 _symmetry_equiv_pos_as_xyz
  1  'x, y, z'
loop_
 _atom_site_type_symbol
 _atom_site_label
 _atom_site_symmetry_multiplicity
 _atom_site_fract_x
 _atom_site_fract_y
 _atom_site_fract_z
 _atom_site_occupancy
  Ca  Ca0  1  0.500000  0.500000  0.000000  1
  Ca  Ca1  1  0.000000  0.000000  0.000000  1
  Ca  Ca2  1  0.500000  0.500000  0.500000  1
  Ca  Ca3  1  0.500000  0.000000  0.000000  1
  Os  Os4  1  0.000000  0.500000  0.000000  1
  Os  Os5  1  0.000000  0.500000  0.500000  1
  Os  Os6  1  0.500000  0.000000  0.500000  1
  Rh  Rh7  1  0.000000  0.000000  0.500000  1
  O  O8  1  0.951785  0.579019  0.767468  1
  O  O9  1  0.049791  0.816521  0.640563  1
  O  O10  1  0.675959  0.909229  0.359437  1
  O  O11  1  0.311551  0.684318  0.232532  1
  O  O12  1  0.048215  0.420981  0.232532  1
  O  O13  1  0.950209  0.183479  0.359437  1
  O  O14  1  0.324041  0.090771  0.640563  1
  O  O15  1  0.688449  0.315682  0.767468  1
  O  O16  1  0.100046  0.255413  0.855460  1
  O  O17  1  0.899954  0.744587  0.144540  1
  O  O18  1  0.365485  0.099229  0.273554  1
  O  O19  1  0.634515  0.900771  0.726446  1
  O  O20  1  0.674324  0.408069  0.273554  1
  O  O21  1  0.325676  0.591931  0.726446  1
