# generated using pymatgen
data_Er4Ga24Pd8Pt
_symmetry_space_group_name_H-M   'P 1'
_cell_length_a   7.48638276
_cell_length_b   7.57202647
_cell_length_c   13.42763283
_cell_angle_alpha   84.98714466
_cell_angle_beta   100.36274432
_cell_angle_gamma   119.62587041
_symmetry_Int_Tables_number   1
_chemical_formula_structural   Er4Ga24Pd8Pt
_chemical_formula_sum   'Er4 Ga24 Pd8 Pt1'
_cell_volume   650.87285315
_cell_formula_units_Z   1
loop_
 _symmetry_equiv_pos_site_id
 _symmetry_equiv_pos_as_xyz
  1  'x, y, z'
loop_
 _atom_site_type_symbol
 _atom_site_label
 _atom_site_symmetry_multiplicity
 _atom_site_fract_x
 _atom_site_fract_y
 _atom_site_fract_z
 _atom_site_occupancy
  Er  Er0  1  0.730051  0.997947  0.189288  1
  Er  Er1  1  0.270470  0.002584  0.811266  1
  Er  Er2  1  0.062806  0.668450  0.189409  1
  Er  Er3  1  0.937434  0.331336  0.810900  1
  Ga  Ga4  1  0.809807  0.869720  0.816870  1
  Ga  Ga5  1  0.189627  0.129721  0.182979  1
  Ga  Ga6  1  0.980335  0.666144  0.938596  1
  Ga  Ga7  1  0.020139  0.334004  0.061553  1
  Ga  Ga8  1  0.397168  0.663522  0.817648  1
  Ga  Ga9  1  0.601496  0.336906  0.181888  1
  Ga  Ga10  1  0.883126  0.665204  0.675124  1
  Ga  Ga11  1  0.117925  0.334838  0.324826  1
  Ga  Ga12  1  0.603380  0.457873  0.817066  1
  Ga  Ga13  1  0.396323  0.542404  0.182854  1
  Ga  Ga14  1  0.231302  0.338550  0.673895  1
  Ga  Ga15  1  0.769044  0.662661  0.325884  1
  Ga  Ga16  1  0.854068  0.333137  0.556175  1
  Ga  Ga17  1  0.185551  0.999489  0.555975  1
  Ga  Ga18  1  0.814449  0.999799  0.443941  1
  Ga  Ga19  1  0.355749  0.997484  0.061350  1
  Ga  Ga20  1  0.644562  0.002315  0.938775  1
  Ga  Ga21  1  0.558735  0.994770  0.675192  1
  Ga  Ga22  1  0.440323  0.003987  0.324724  1
  Ga  Ga23  1  0.519623  0.665475  0.557962  1
  Ga  Ga24  1  0.479186  0.334388  0.441804  1
  Ga  Ga25  1  0.688528  0.669084  0.055612  1
  Ga  Ga26  1  0.311340  0.330956  0.944309  1
  Ga  Ga27  1  0.146976  0.667477  0.444429  1
  Pd  Pd28  1  0.329828  0.669887  0.000439  1
  Pd  Pd29  1  0.547817  0.326328  0.637448  1
  Pd  Pd30  1  0.452140  0.673527  0.362295  1
  Pd  Pd31  1  0.886994  0.005273  0.638857  1
  Pd  Pd32  1  0.113089  0.994727  0.361047  1
  Pd  Pd33  1  0.670663  0.330103  0.999743  1
  Pd  Pd34  1  0.206214  0.666919  0.639332  1
  Pd  Pd35  1  0.000091  0.999890  0.999994  1
  Pt  Pt36  1  0.793639  0.333123  0.360549  1
