# generated using pymatgen
data_ReBr11
_symmetry_space_group_name_H-M   'P 1'
_cell_length_a   7.76477940
_cell_length_b   8.10483252
_cell_length_c   8.53920681
_cell_angle_alpha   90.69796835
_cell_angle_beta   91.39888797
_cell_angle_gamma   114.11545377
_symmetry_Int_Tables_number   1
_chemical_formula_structural   ReBr11
_chemical_formula_sum   'Re1 Br11'
_cell_volume   490.19925764
_cell_formula_units_Z   1
loop_
 _symmetry_equiv_pos_site_id
 _symmetry_equiv_pos_as_xyz
  1  'x, y, z'
loop_
 _atom_site_type_symbol
 _atom_site_label
 _atom_site_symmetry_multiplicity
 _atom_site_fract_x
 _atom_site_fract_y
 _atom_site_fract_z
 _atom_site_occupancy
  Re  Re0  1  0.000000  0.500000  0.500000  1
  Br  Br1  1  0.000000  0.000000  0.000000  1
  Br  Br2  1  0.666893  0.765778  0.049929  1
  Br  Br3  1  0.537051  0.219229  0.183658  1
  Br  Br4  1  0.097567  0.555015  0.227412  1
  Br  Br5  1  0.738530  0.195467  0.420407  1
  Br  Br6  1  0.784568  0.649502  0.457205  1
  Br  Br7  1  0.215432  0.350498  0.542796  1
  Br  Br8  1  0.261470  0.804533  0.579593  1
  Br  Br9  1  0.902434  0.444985  0.772588  1
  Br  Br10  1  0.462948  0.780771  0.816342  1
  Br  Br11  1  0.333108  0.234222  0.950072  1
