# generated using pymatgen
data_Cs4Al5(ZnAu4)3
_symmetry_space_group_name_H-M   'P 1'
_cell_length_a   5.72461817
_cell_length_b   7.20890260
_cell_length_c   13.75184600
_cell_angle_alpha   90.16114429
_cell_angle_beta   90.49907833
_cell_angle_gamma   90.08443862
_symmetry_Int_Tables_number   1
_chemical_formula_structural   Cs4Al5(ZnAu4)3
_chemical_formula_sum   'Cs4 Al5 Zn3 Au12'
_cell_volume   567.48972426
_cell_formula_units_Z   1
loop_
 _symmetry_equiv_pos_site_id
 _symmetry_equiv_pos_as_xyz
  1  'x, y, z'
loop_
 _atom_site_type_symbol
 _atom_site_label
 _atom_site_symmetry_multiplicity
 _atom_site_fract_x
 _atom_site_fract_y
 _atom_site_fract_z
 _atom_site_occupancy
  Cs  Cs0  1  0.256744  0.095527  0.072237  1
  Cs  Cs1  1  0.247507  0.401204  0.569558  1
  Cs  Cs2  1  0.752492  0.901946  0.930258  1
  Cs  Cs3  1  0.744915  0.598641  0.429028  1
  Al  Al4  1  0.998763  0.403671  0.841399  1
  Al  Al5  1  0.003667  0.095964  0.342582  1
  Al  Al6  1  0.495404  0.404889  0.841970  1
  Al  Al7  1  0.502745  0.904125  0.659539  1
  Al  Al8  1  0.996828  0.596903  0.157690  1
  Zn  Zn9  1  0.999806  0.901226  0.656091  1
  Zn  Zn10  1  0.498787  0.598395  0.157500  1
  Zn  Zn11  1  0.500448  0.101841  0.341895  1
  Au  Au12  1  0.252975  0.120588  0.784887  1
  Au  Au13  1  0.237067  0.385188  0.283907  1
  Au  Au14  1  0.760281  0.884659  0.216247  1
  Au  Au15  1  0.743226  0.617295  0.719120  1
  Au  Au16  1  0.251014  0.698849  0.787175  1
  Au  Au17  1  0.246000  0.796838  0.289787  1
  Au  Au18  1  0.756156  0.296308  0.209366  1
  Au  Au19  1  0.744629  0.201909  0.713865  1
  Au  Au20  1  0.239781  0.567998  0.995049  1
  Au  Au21  1  0.262239  0.928163  0.496215  1
  Au  Au22  1  0.747438  0.426191  0.000535  1
  Au  Au23  1  0.761088  0.071682  0.504101  1
