# generated using pymatgen
data_Ho6Al24ZnOs7
_symmetry_space_group_name_H-M   'P 1'
_cell_length_a   8.84948533
_cell_length_b   8.84948560
_cell_length_c   9.53547215
_cell_angle_alpha   89.90726067
_cell_angle_beta   90.09273804
_cell_angle_gamma   119.96455393
_symmetry_Int_Tables_number   1
_chemical_formula_structural   Ho6Al24ZnOs7
_chemical_formula_sum   'Ho6 Al24 Zn1 Os7'
_cell_volume   646.93869052
_cell_formula_units_Z   1
loop_
 _symmetry_equiv_pos_site_id
 _symmetry_equiv_pos_as_xyz
  1  'x, y, z'
loop_
 _atom_site_type_symbol
 _atom_site_label
 _atom_site_symmetry_multiplicity
 _atom_site_fract_x
 _atom_site_fract_y
 _atom_site_fract_z
 _atom_site_occupancy
  Ho  Ho0  1  0.191153  0.386924  0.248731  1
  Ho  Ho1  1  0.808847  0.613076  0.751269  1
  Ho  Ho2  1  0.613076  0.808847  0.248731  1
  Ho  Ho3  1  0.386924  0.191153  0.751269  1
  Ho  Ho4  1  0.194828  0.805172  0.252500  1
  Ho  Ho5  1  0.805172  0.194828  0.747500  1
  Al  Al6  1  0.329751  0.670249  0.020886  1
  Al  Al7  1  0.670249  0.329751  0.979114  1
  Al  Al8  1  0.666243  0.333757  0.517474  1
  Al  Al9  1  0.333757  0.666243  0.482526  1
  Al  Al10  1  0.162544  0.325634  0.574176  1
  Al  Al11  1  0.837456  0.674366  0.425824  1
  Al  Al12  1  0.674366  0.837456  0.574176  1
  Al  Al13  1  0.848493  0.677215  0.080678  1
  Al  Al14  1  0.325634  0.162544  0.425824  1
  Al  Al15  1  0.151507  0.322785  0.919322  1
  Al  Al16  1  0.163007  0.836993  0.574941  1
  Al  Al17  1  0.322785  0.151507  0.080678  1
  Al  Al18  1  0.836993  0.163007  0.425059  1
  Al  Al19  1  0.677215  0.848493  0.919322  1
  Al  Al20  1  0.836785  0.163215  0.076700  1
  Al  Al21  1  0.163215  0.836785  0.923300  1
  Al  Al22  1  0.561464  0.121596  0.249274  1
  Al  Al23  1  0.438536  0.878404  0.750726  1
  Al  Al24  1  0.878404  0.438536  0.249274  1
  Al  Al25  1  0.121596  0.561464  0.750726  1
  Al  Al26  1  0.563426  0.436574  0.254396  1
  Al  Al27  1  0.436574  0.563426  0.745604  1
  Al  Al28  1  0.999059  0.000941  0.250532  1
  Al  Al29  1  0.000941  0.999059  0.749468  1
  Zn  Zn30  1  0.500000  0.500000  0.000000  1
  Os  Os31  1  0.500000  0.000000  0.000000  1
  Os  Os32  1  0.000000  0.500000  0.000000  1
  Os  Os33  1  0.500000  0.000000  0.500000  1
  Os  Os34  1  0.000000  0.500000  0.500000  1
  Os  Os35  1  0.500000  0.500000  0.500000  1
  Os  Os36  1  0.000000  0.000000  0.000000  1
  Os  Os37  1  0.000000  0.000000  0.500000  1
