# generated using pymatgen
data_Ta6Al4CrPtC2
_symmetry_space_group_name_H-M   'P 1'
_cell_length_a   8.29398595
_cell_length_b   8.29398543
_cell_length_c   8.32835000
_cell_angle_alpha   59.86283744
_cell_angle_beta   59.86283952
_cell_angle_gamma   59.71421710
_symmetry_Int_Tables_number   1
_chemical_formula_structural   Ta6Al4CrPtC2
_chemical_formula_sum   'Ta12 Al8 Cr2 Pt2 C4'
_cell_volume   403.38909087
_cell_formula_units_Z   2
loop_
 _symmetry_equiv_pos_site_id
 _symmetry_equiv_pos_as_xyz
  1  'x, y, z'
loop_
 _atom_site_type_symbol
 _atom_site_label
 _atom_site_symmetry_multiplicity
 _atom_site_fract_x
 _atom_site_fract_y
 _atom_site_fract_z
 _atom_site_occupancy
  Ta  Ta0  1  0.552083  0.940735  0.567586  1
  Ta  Ta1  1  0.309265  0.697917  0.682414  1
  Ta  Ta2  1  0.697917  0.309265  0.310404  1
  Ta  Ta3  1  0.309265  0.697917  0.310404  1
  Ta  Ta4  1  0.684551  0.684551  0.315449  1
  Ta  Ta5  1  0.304512  0.304512  0.695488  1
  Ta  Ta6  1  0.565449  0.565449  0.934551  1
  Ta  Ta7  1  0.940735  0.552083  0.567586  1
  Ta  Ta8  1  0.552083  0.940735  0.939596  1
  Ta  Ta9  1  0.945488  0.945488  0.554512  1
  Ta  Ta10  1  0.697917  0.309265  0.682414  1
  Ta  Ta11  1  0.940735  0.552083  0.939596  1
  Al  Al12  1  0.917024  0.917024  0.910532  1
  Al  Al13  1  0.003715  0.329253  0.333515  1
  Al  Al14  1  0.329253  0.003715  0.333515  1
  Al  Al15  1  0.332976  0.332976  0.994580  1
  Al  Al16  1  0.920747  0.246285  0.916485  1
  Al  Al17  1  0.917024  0.917024  0.255420  1
  Al  Al18  1  0.246285  0.920747  0.916485  1
  Al  Al19  1  0.332976  0.332976  0.339468  1
  Cr  Cr20  1  0.125000  0.125000  0.125000  1
  Cr  Cr21  1  0.125000  0.125000  0.625000  1
  Pt  Pt22  1  0.625000  0.125000  0.125000  1
  Pt  Pt23  1  0.125000  0.625000  0.125000  1
  C  C24  1  0.625000  0.625000  0.625000  1
  C  C25  1  0.125000  0.625000  0.625000  1
  C  C26  1  0.625000  0.125000  0.625000  1
  C  C27  1  0.625000  0.625000  0.125000  1
