# generated using pymatgen
data_Dy17Y3(Bi2Ir)4
_symmetry_space_group_name_H-M   'P 1'
_cell_length_a   8.01682104
_cell_length_b   9.00467800
_cell_length_c   12.51740906
_cell_angle_alpha   90.00000000
_cell_angle_beta   89.98900668
_cell_angle_gamma   90.00000000
_symmetry_Int_Tables_number   1
_chemical_formula_structural   Dy17Y3(Bi2Ir)4
_chemical_formula_sum   'Dy17 Y3 Bi8 Ir4'
_cell_volume   903.61787421
_cell_formula_units_Z   1
loop_
 _symmetry_equiv_pos_site_id
 _symmetry_equiv_pos_as_xyz
  1  'x, y, z'
loop_
 _atom_site_type_symbol
 _atom_site_label
 _atom_site_symmetry_multiplicity
 _atom_site_fract_x
 _atom_site_fract_y
 _atom_site_fract_z
 _atom_site_occupancy
  Dy  Dy0  1  0.659185  0.750000  0.293361  1
  Dy  Dy1  1  0.376850  0.750000  0.693042  1
  Dy  Dy2  1  0.623087  0.250000  0.306980  1
  Dy  Dy3  1  0.876841  0.250000  0.806920  1
  Dy  Dy4  1  0.123110  0.750000  0.193067  1
  Dy  Dy5  1  0.946093  0.750000  0.501227  1
  Dy  Dy6  1  0.053884  0.250000  0.498660  1
  Dy  Dy7  1  0.446156  0.250000  0.998712  1
  Dy  Dy8  1  0.553835  0.750000  0.001345  1
  Dy  Dy9  1  0.676342  0.041884  0.566062  1
  Dy  Dy10  1  0.323685  0.958239  0.433932  1
  Dy  Dy11  1  0.176417  0.958196  0.933961  1
  Dy  Dy12  1  0.323685  0.541761  0.433932  1
  Dy  Dy13  1  0.823606  0.041796  0.066043  1
  Dy  Dy14  1  0.676342  0.458116  0.566062  1
  Dy  Dy15  1  0.823606  0.458204  0.066043  1
  Dy  Dy16  1  0.176417  0.541804  0.933961  1
  Y  Y17  1  0.840605  0.750000  0.792672  1
  Y  Y18  1  0.159433  0.250000  0.207345  1
  Y  Y19  1  0.340607  0.250000  0.707334  1
  Bi  Bi20  1  0.569174  0.491145  0.827478  1
  Bi  Bi21  1  0.430865  0.508859  0.172549  1
  Bi  Bi22  1  0.069172  0.508860  0.672523  1
  Bi  Bi23  1  0.430865  0.991141  0.172549  1
  Bi  Bi24  1  0.930794  0.491180  0.327455  1
  Bi  Bi25  1  0.569174  0.008855  0.827478  1
  Bi  Bi26  1  0.930794  0.008820  0.327455  1
  Bi  Bi27  1  0.069172  0.991140  0.672523  1
  Ir  Ir28  1  0.570399  0.750000  0.509018  1
  Ir  Ir29  1  0.429866  0.250000  0.490331  1
  Ir  Ir30  1  0.070077  0.250000  0.990308  1
  Ir  Ir31  1  0.929860  0.750000  0.009668  1
