# generated using pymatgen
data_Sc5Al(BRu2)4
_symmetry_space_group_name_H-M   'P 1'
_cell_length_a   8.85371700
_cell_length_b   8.85371700
_cell_length_c   3.07588100
_cell_angle_alpha   90.00000000
_cell_angle_beta   90.00000000
_cell_angle_gamma   90.00000000
_symmetry_Int_Tables_number   1
_chemical_formula_structural   Sc5Al(BRu2)4
_chemical_formula_sum   'Sc5 Al1 B4 Ru8'
_cell_volume   241.11309710
_cell_formula_units_Z   1
loop_
 _symmetry_equiv_pos_site_id
 _symmetry_equiv_pos_as_xyz
  1  'x, y, z'
loop_
 _atom_site_type_symbol
 _atom_site_label
 _atom_site_symmetry_multiplicity
 _atom_site_fract_x
 _atom_site_fract_y
 _atom_site_fract_z
 _atom_site_occupancy
  Sc  Sc0  1  0.500000  0.500000  0.500000  1
  Sc  Sc1  1  0.000000  0.344090  0.500000  1
  Sc  Sc2  1  0.344090  0.000000  0.500000  1
  Sc  Sc3  1  0.655910  0.000000  0.500000  1
  Sc  Sc4  1  0.000000  0.655910  0.500000  1
  Al  Al5  1  0.000000  0.000000  0.500000  1
  B  B6  1  0.302269  0.302269  0.500000  1
  B  B7  1  0.302269  0.697731  0.500000  1
  B  B8  1  0.697731  0.302269  0.500000  1
  B  B9  1  0.697731  0.697731  0.500000  1
  Ru  Ru10  1  0.822142  0.822142  0.000000  1
  Ru  Ru11  1  0.822142  0.177858  0.000000  1
  Ru  Ru12  1  0.177858  0.822142  0.000000  1
  Ru  Ru13  1  0.177858  0.177858  0.000000  1
  Ru  Ru14  1  0.500000  0.749665  0.000000  1
  Ru  Ru15  1  0.749665  0.500000  0.000000  1
  Ru  Ru16  1  0.250335  0.500000  0.000000  1
  Ru  Ru17  1  0.500000  0.250335  0.000000  1
