# generated using pymatgen
data_Hf8Ti9Si15Mo3P
_symmetry_space_group_name_H-M   'P 1'
_cell_length_a   6.55445292
_cell_length_b   6.71495538
_cell_length_c   12.93149900
_cell_angle_alpha   90.00000000
_cell_angle_beta   90.00000000
_cell_angle_gamma   89.92137079
_symmetry_Int_Tables_number   1
_chemical_formula_structural   Hf8Ti9Si15Mo3P
_chemical_formula_sum   'Hf8 Ti9 Si15 Mo3 P1'
_cell_volume   569.15170498
_cell_formula_units_Z   1
loop_
 _symmetry_equiv_pos_site_id
 _symmetry_equiv_pos_as_xyz
  1  'x, y, z'
loop_
 _atom_site_type_symbol
 _atom_site_label
 _atom_site_symmetry_multiplicity
 _atom_site_fract_x
 _atom_site_fract_y
 _atom_site_fract_z
 _atom_site_occupancy
  Hf  Hf0  1  0.994585  0.172211  0.092851  1
  Hf  Hf1  1  0.003392  0.829913  0.904773  1
  Hf  Hf2  1  0.503184  0.673330  0.906983  1
  Hf  Hf3  1  0.003392  0.829913  0.595227  1
  Hf  Hf4  1  0.496665  0.327912  0.093017  1
  Hf  Hf5  1  0.994585  0.172211  0.407149  1
  Hf  Hf6  1  0.496665  0.327912  0.406983  1
  Hf  Hf7  1  0.503184  0.673330  0.593017  1
  Ti  Ti8  1  0.161639  0.491791  0.750000  1
  Ti  Ti9  1  0.331313  0.168796  0.625956  1
  Ti  Ti10  1  0.665217  0.830976  0.375443  1
  Ti  Ti11  1  0.164573  0.669329  0.375134  1
  Ti  Ti12  1  0.665217  0.830976  0.124557  1
  Ti  Ti13  1  0.836802  0.326823  0.625401  1
  Ti  Ti14  1  0.331313  0.168796  0.874044  1
  Ti  Ti15  1  0.836802  0.326823  0.874599  1
  Ti  Ti16  1  0.164573  0.669329  0.124866  1
  Si  Si17  1  0.963977  0.883858  0.250000  1
  Si  Si18  1  0.464139  0.616462  0.250000  1
  Si  Si19  1  0.536460  0.383586  0.750000  1
  Si  Si20  1  0.301090  0.857354  0.750000  1
  Si  Si21  1  0.701922  0.139489  0.250000  1
  Si  Si22  1  0.202397  0.360037  0.250000  1
  Si  Si23  1  0.798642  0.636339  0.750000  1
  Si  Si24  1  0.170369  0.462014  0.538154  1
  Si  Si25  1  0.830198  0.539236  0.462470  1
  Si  Si26  1  0.329037  0.961711  0.462096  1
  Si  Si27  1  0.830198  0.539236  0.037530  1
  Si  Si28  1  0.669137  0.039657  0.538350  1
  Si  Si29  1  0.170369  0.462014  0.961846  1
  Si  Si30  1  0.669137  0.039657  0.961650  1
  Si  Si31  1  0.329037  0.961711  0.037904  1
  Mo  Mo32  1  0.838050  0.506001  0.250000  1
  Mo  Mo33  1  0.337826  0.994574  0.250000  1
  Mo  Mo34  1  0.666079  0.005849  0.750000  1
  P  P35  1  0.038838  0.120842  0.750000  1
