# generated using pymatgen
data_Li3Nd8Zn3Ga2(IrRh)4
_symmetry_space_group_name_H-M   'P 1'
_cell_length_a   4.09124800
_cell_length_b   7.28079779
_cell_length_c   16.52937500
_cell_angle_alpha   90.02672461
_cell_angle_beta   90.00000000
_cell_angle_gamma   90.00000000
_symmetry_Int_Tables_number   1
_chemical_formula_structural   Li3Nd8Zn3Ga2(IrRh)4
_chemical_formula_sum   'Li3 Nd8 Zn3 Ga2 Ir4 Rh4'
_cell_volume   492.36952089
_cell_formula_units_Z   1
loop_
 _symmetry_equiv_pos_site_id
 _symmetry_equiv_pos_as_xyz
  1  'x, y, z'
loop_
 _atom_site_type_symbol
 _atom_site_label
 _atom_site_symmetry_multiplicity
 _atom_site_fract_x
 _atom_site_fract_y
 _atom_site_fract_z
 _atom_site_occupancy
  Li  Li0  1  0.750000  0.006849  0.562876  1
  Li  Li1  1  0.250000  0.630199  0.351625  1
  Li  Li2  1  0.250000  0.492706  0.060205  1
  Nd  Nd3  1  0.250000  0.163385  0.937834  1
  Nd  Nd4  1  0.250000  0.663143  0.562711  1
  Nd  Nd5  1  0.750000  0.336868  0.438611  1
  Nd  Nd6  1  0.750000  0.954105  0.282272  1
  Nd  Nd7  1  0.750000  0.832124  0.059518  1
  Nd  Nd8  1  0.750000  0.450841  0.217369  1
  Nd  Nd9  1  0.250000  0.046932  0.717128  1
  Nd  Nd10  1  0.250000  0.544541  0.782855  1
  Zn  Zn11  1  0.750000  0.368333  0.649734  1
  Zn  Zn12  1  0.750000  0.499468  0.940483  1
  Zn  Zn13  1  0.750000  0.874229  0.849553  1
  Ga  Ga14  1  0.250000  0.994408  0.440060  1
  Ga  Ga15  1  0.250000  0.130401  0.148967  1
  Ir  Ir16  1  0.750000  0.769897  0.439037  1
  Ir  Ir17  1  0.250000  0.239590  0.309358  1
  Ir  Ir18  1  0.750000  0.251434  0.813526  1
  Ir  Ir19  1  0.750000  0.750740  0.690088  1
  Rh  Rh20  1  0.250000  0.247479  0.560775  1
  Rh  Rh21  1  0.250000  0.759530  0.183684  1
  Rh  Rh22  1  0.750000  0.246808  0.066920  1
  Rh  Rh23  1  0.250000  0.745984  0.934813  1
