# generated using pymatgen
data_Tb5BiPPb2
_symmetry_space_group_name_H-M   'P 1'
_cell_length_a   9.21375565
_cell_length_b   9.22585282
_cell_length_c   6.80089000
_cell_angle_alpha   90.00000000
_cell_angle_beta   90.00000000
_cell_angle_gamma   120.04345386
_symmetry_Int_Tables_number   1
_chemical_formula_structural   Tb5BiPPb2
_chemical_formula_sum   'Tb10 Bi2 P2 Pb4'
_cell_volume   500.43682923
_cell_formula_units_Z   2
loop_
 _symmetry_equiv_pos_site_id
 _symmetry_equiv_pos_as_xyz
  1  'x, y, z'
loop_
 _atom_site_type_symbol
 _atom_site_label
 _atom_site_symmetry_multiplicity
 _atom_site_fract_x
 _atom_site_fract_y
 _atom_site_fract_z
 _atom_site_occupancy
  Tb  Tb0  1  0.764248  0.762443  0.750000  1
  Tb  Tb1  1  0.235752  0.998195  0.750000  1
  Tb  Tb2  1  0.000000  0.236909  0.750000  1
  Tb  Tb3  1  0.237041  0.236793  0.250000  1
  Tb  Tb4  1  0.762959  0.999753  0.250000  1
  Tb  Tb5  1  0.000000  0.762763  0.250000  1
  Tb  Tb6  1  0.667856  0.334347  0.002073  1
  Tb  Tb7  1  0.332144  0.666492  0.002073  1
  Tb  Tb8  1  0.332144  0.666492  0.497927  1
  Tb  Tb9  1  0.667856  0.334347  0.497927  1
  Bi  Bi10  1  0.399584  0.399721  0.750000  1
  Bi  Bi11  1  0.600416  0.000137  0.750000  1
  P  P12  1  0.000000  0.000475  0.999283  1
  P  P13  1  0.000000  0.000475  0.500717  1
  Pb  Pb14  1  0.000000  0.599498  0.750000  1
  Pb  Pb15  1  0.600666  0.600941  0.250000  1
  Pb  Pb16  1  0.399334  0.000275  0.250000  1
  Pb  Pb17  1  0.000000  0.399945  0.250000  1
