# generated using pymatgen
data_Nd3AlCd2Pt3
_symmetry_space_group_name_H-M   'P 1'
_cell_length_a   7.70811213
_cell_length_b   7.60671332
_cell_length_c   4.01790600
_cell_angle_alpha   90.00000000
_cell_angle_beta   90.00000000
_cell_angle_gamma   119.56578751
_symmetry_Int_Tables_number   1
_chemical_formula_structural   Nd3AlCd2Pt3
_chemical_formula_sum   'Nd3 Al1 Cd2 Pt3'
_cell_volume   204.90809421
_cell_formula_units_Z   1
loop_
 _symmetry_equiv_pos_site_id
 _symmetry_equiv_pos_as_xyz
  1  'x, y, z'
loop_
 _atom_site_type_symbol
 _atom_site_label
 _atom_site_symmetry_multiplicity
 _atom_site_fract_x
 _atom_site_fract_y
 _atom_site_fract_z
 _atom_site_occupancy
  Nd  Nd0  1  0.409571  0.407969  0.500000  1
  Nd  Nd1  1  0.590429  0.998398  0.500000  1
  Nd  Nd2  1  0.000000  0.583412  0.500000  1
  Al  Al3  1  0.000000  0.248616  0.000000  1
  Cd  Cd4  1  0.755013  0.751479  0.000000  1
  Cd  Cd5  1  0.244987  0.996465  0.000000  1
  Pt  Pt6  1  0.682050  0.325968  0.000000  1
  Pt  Pt7  1  0.317950  0.643919  0.000000  1
  Pt  Pt8  1  0.000000  0.043774  0.500000  1
