# generated using pymatgen
data_Rb3Al3As4
_symmetry_space_group_name_H-M   'P 1'
_cell_length_a   6.73768500
_cell_length_b   10.88149900
_cell_length_c   15.94849100
_cell_angle_alpha   90.00000000
_cell_angle_beta   90.00000000
_cell_angle_gamma   90.00000000
_symmetry_Int_Tables_number   1
_chemical_formula_structural   Rb3Al3As4
_chemical_formula_sum   'Rb12 Al12 As16'
_cell_volume   1169.28136179
_cell_formula_units_Z   4
loop_
 _symmetry_equiv_pos_site_id
 _symmetry_equiv_pos_as_xyz
  1  'x, y, z'
loop_
 _atom_site_type_symbol
 _atom_site_label
 _atom_site_symmetry_multiplicity
 _atom_site_fract_x
 _atom_site_fract_y
 _atom_site_fract_z
 _atom_site_occupancy
  Rb  Rb0  1  0.061576  0.380179  0.591731  1
  Rb  Rb1  1  0.061576  0.119821  0.908269  1
  Rb  Rb2  1  0.561576  0.880179  0.908269  1
  Rb  Rb3  1  0.750000  0.078840  0.500000  1
  Rb  Rb4  1  0.938424  0.880179  0.091731  1
  Rb  Rb5  1  0.561576  0.619821  0.591731  1
  Rb  Rb6  1  0.938424  0.619821  0.408269  1
  Rb  Rb7  1  0.250000  0.578840  0.000000  1
  Rb  Rb8  1  0.750000  0.421160  0.000000  1
  Rb  Rb9  1  0.438424  0.380179  0.408269  1
  Rb  Rb10  1  0.438424  0.119821  0.091731  1
  Rb  Rb11  1  0.250000  0.921160  0.500000  1
  Al  Al12  1  0.404687  0.113425  0.717834  1
  Al  Al13  1  0.904687  0.613425  0.782166  1
  Al  Al14  1  0.095313  0.386575  0.217834  1
  Al  Al15  1  0.404687  0.386575  0.782166  1
  Al  Al16  1  0.304537  0.750000  0.750000  1
  Al  Al17  1  0.804537  0.250000  0.750000  1
  Al  Al18  1  0.595313  0.886575  0.282166  1
  Al  Al19  1  0.904687  0.886575  0.717834  1
  Al  Al20  1  0.195463  0.750000  0.250000  1
  Al  Al21  1  0.695463  0.250000  0.250000  1
  Al  Al22  1  0.595313  0.613425  0.217834  1
  Al  Al23  1  0.095313  0.113425  0.282166  1
  As  As24  1  0.040379  0.094366  0.683482  1
  As  As25  1  0.041395  0.804417  0.857898  1
  As  As26  1  0.458605  0.804417  0.142102  1
  As  As27  1  0.459621  0.405634  0.183482  1
  As  As28  1  0.540379  0.594366  0.816518  1
  As  As29  1  0.540379  0.905634  0.683482  1
  As  As30  1  0.041395  0.695583  0.642102  1
  As  As31  1  0.040379  0.405634  0.816518  1
  As  As32  1  0.958605  0.195583  0.142102  1
  As  As33  1  0.541395  0.195583  0.857898  1
  As  As34  1  0.959621  0.905634  0.316518  1
  As  As35  1  0.459621  0.094366  0.316518  1
  As  As36  1  0.958605  0.304417  0.357898  1
  As  As37  1  0.541395  0.304417  0.642102  1
  As  As38  1  0.458605  0.695583  0.357898  1
  As  As39  1  0.959621  0.594366  0.183482  1
