# generated using pymatgen
data_Dy3Lu7InSb5
_symmetry_space_group_name_H-M   'P 1'
_cell_length_a   6.28780300
_cell_length_b   8.85257642
_cell_length_c   8.81350541
_cell_angle_alpha   119.74228846
_cell_angle_beta   90.00001822
_cell_angle_gamma   89.99997152
_symmetry_Int_Tables_number   1
_chemical_formula_structural   Dy3Lu7InSb5
_chemical_formula_sum   'Dy3 Lu7 In1 Sb5'
_cell_volume   425.96103955
_cell_formula_units_Z   1
loop_
 _symmetry_equiv_pos_site_id
 _symmetry_equiv_pos_as_xyz
  1  'x, y, z'
loop_
 _atom_site_type_symbol
 _atom_site_label
 _atom_site_symmetry_multiplicity
 _atom_site_fract_x
 _atom_site_fract_y
 _atom_site_fract_z
 _atom_site_occupancy
  Dy  Dy0  1  0.750001  0.994884  0.238504  1
  Dy  Dy1  1  0.250001  0.247593  0.244505  1
  Dy  Dy2  1  0.250001  0.003309  0.759006  1
  Lu  Lu3  1  0.499528  0.333193  0.667999  1
  Lu  Lu4  1  0.499944  0.667535  0.331581  1
  Lu  Lu5  1  0.000055  0.667536  0.331581  1
  Lu  Lu6  1  0.000471  0.333194  0.667999  1
  Lu  Lu7  1  0.750001  0.243742  0.999517  1
  Lu  Lu8  1  0.750001  0.753343  0.759093  1
  Lu  Lu9  1  0.249999  0.757514  0.000402  1
  In  In10  1  0.749999  0.601913  0.998498  1
  Sb  Sb11  1  0.750001  0.390356  0.389364  1
  Sb  Sb12  1  0.750001  0.998527  0.610416  1
  Sb  Sb13  1  0.250000  0.396552  0.000172  1
  Sb  Sb14  1  0.250000  0.610568  0.611304  1
  Sb  Sb15  1  0.250000  0.000240  0.390058  1
